MODEL 1
REMARK VINA RESULT:     -12.9      0.000      0.000
REMARK SMILES Cn1cc([C@@H]2CC(NCCCNC(=O)c3ccc(-c4c5nc(c(-c6ccc(S(=O)(=O)[O-])cc6)c6ccc([nH]6)c(-c6ccc(S(=O)(=O)[O-])cc6)c6nc(c(-c7ccc(S(=O)(=O)[O-])cc7)c7ccc4[nH]7)C=C6)C=C5)cc3)=[NH+]c3c2sc(C(=O)[O-])c3-c2ccc(Cl)cc2)cn1
REMARK SMILES IDX 12 1 13 2 14 3 11 5 10 6 9 7 8 8 5 9 6 10 77 11 7 12 76 13
REMARK SMILES IDX 78 14 75 15 83 16 79 17 4 20 1 21 2 22 3 23 92 24 91 25
REMARK SMILES IDX 84 26 85 27 90 28 86 29 89 30 87 31 88 32 80 33 81 34 82 35
REMARK SMILES IDX 15 36 16 37 74 38 17 39 73 40 18 41 19 42 20 43 67 44 21 45
REMARK SMILES IDX 72 46 66 47 68 48 22 49 71 50 65 51 64 52 23 54 53 55 34 56
REMARK SMILES IDX 52 57 35 58 38 59 51 60 69 61 36 62 37 63 50 65 70 66 39 67
REMARK SMILES IDX 24 68 25 69 33 70 26 71 32 72 27 73 28 74 29 75 30 76 31 77
REMARK SMILES IDX 54 78 55 79 63 80 56 81 62 82 57 83 58 84 59 85 60 86 61 87
REMARK SMILES IDX 40 88 41 89 49 90 42 91 48 92 43 93 44 94 45 95 46 96 47 97
REMARK H PARENT 12 4 8 18 75 19 68 53 38 64
REMARK Flexibility Score: inf
ROOT
ATOM      1  N   UNL A   1      41.333  22.702  26.234  1.00  0.00    -0.352 N 
ATOM      2  C   UNL A   1      42.257  23.572  25.681  1.00  0.00     0.251 C 
ATOM      3  O   UNL A   1      43.017  23.203  24.795  1.00  0.00    -0.269 OA
ATOM      4  H   UNL A   1      41.503  21.744  26.084  1.00  0.00     0.163 HD
ENDROOT
BRANCH   1   5
ATOM      5  C   UNL A   1      40.131  23.024  27.015  1.00  0.00     0.120 C 
BRANCH   5   6
ATOM      6  C   UNL A   1      39.388  24.245  26.502  1.00  0.00     0.067 C 
BRANCH   6   7
ATOM      7  C   UNL A   1      37.871  24.083  26.572  1.00  0.00     0.235 C 
BRANCH   7   8
ATOM      8  N   UNL A   1      37.434  22.760  26.140  1.00  0.00    -0.278 N 
ATOM      9  C   UNL A   1      34.747  20.877  24.104  1.00  0.00     0.079 C 
ATOM     10  C   UNL A   1      36.033  21.119  24.915  1.00  0.00     0.142 C 
ATOM     11  C   UNL A   1      33.947  22.131  23.994  1.00  0.00     0.061 A 
ATOM     12  C   UNL A   1      36.247  22.535  25.466  1.00  0.00     0.248 C 
ATOM     13  C   UNL A   1      34.270  23.317  24.577  1.00  0.00     0.147 A 
ATOM     14  S   UNL A   1      32.509  22.264  23.094  1.00  0.00    -0.133 S 
ATOM     15  N   UNL A   1      35.421  23.530  25.326  1.00  0.00    -0.243 N 
ATOM     16  C   UNL A   1      33.334  24.369  24.333  1.00  0.00     0.049 A 
ATOM     17  C   UNL A   1      32.289  23.926  23.529  1.00  0.00     0.062 A 
ATOM     18  H   UNL A   1      38.012  21.988  26.339  1.00  0.00     0.304 HD
ATOM     19  H   UNL A   1      35.605  24.405  25.737  1.00  0.00     0.312 HD
BRANCH   9  20
ATOM     20  C   UNL A   1      33.917  19.749  24.647  1.00  0.00    -0.001 A 
ATOM     21  C   UNL A   1      32.749  16.373  25.165  1.00  0.00     0.173 C 
ATOM     22  N   UNL A   1      33.050  17.783  25.124  1.00  0.00    -0.276 N 
ATOM     23  C   UNL A   1      33.887  18.423  24.256  1.00  0.00     0.112 A 
ATOM     24  N   UNL A   1      32.524  18.599  26.052  1.00  0.00    -0.182 NA
ATOM     25  C   UNL A   1      33.032  19.793  25.752  1.00  0.00     0.139 A 
ENDBRANCH   9  20
BRANCH  16  26
ATOM     26  C   UNL A   1      33.486  25.738  24.818  1.00  0.00    -0.012 A 
ATOM     27  C   UNL A   1      33.928  26.764  23.974  1.00  0.00     0.010 A 
ATOM     28  C   UNL A   1      33.134  26.038  26.142  1.00  0.00     0.010 A 
ATOM     29  C   UNL A   1      34.073  28.063  24.467  1.00  0.00     0.021 A 
ATOM     30  C   UNL A   1      33.264  27.338  26.632  1.00  0.00     0.021 A 
ATOM     31  C   UNL A   1      33.747  28.342  25.795  1.00  0.00     0.041 A 
ATOM     32  Cl  UNL A   1      33.945  29.938  26.407  1.00  0.00    -0.084 Cl
ENDBRANCH  16  26
BRANCH  17  33
ATOM     33  C   UNL A   1      31.110  24.576  22.985  1.00  0.00     0.082 C 
ATOM     34  O   UNL A   1      31.042  25.557  22.272  1.00  0.00    -0.544 OA
ATOM     35  O   UNL A   1      29.956  23.975  23.363  1.00  0.00    -0.544 OA
ENDBRANCH  17  33
ENDBRANCH   7   8
ENDBRANCH   6   7
ENDBRANCH   5   6
ENDBRANCH   1   5
BRANCH   2  36
ATOM     36  C   UNL A   1      42.301  24.957  26.185  1.00  0.00     0.039 A 
ATOM     37  C   UNL A   1      41.833  26.040  25.437  1.00  0.00     0.014 A 
ATOM     38  C   UNL A   1      42.766  25.137  27.481  1.00  0.00     0.014 A 
ATOM     39  C   UNL A   1      41.746  27.289  26.051  1.00  0.00     0.010 A 
ATOM     40  C   UNL A   1      42.486  26.303  28.138  1.00  0.00     0.010 A 
ATOM     41  C   UNL A   1      42.051  27.406  27.415  1.00  0.00    -0.014 A 
BRANCH  41  42
ATOM     42  C   UNL A   1      41.854  28.653  28.149  1.00  0.00     0.031 A 
ATOM     43  C   UNL A   1      42.907  29.678  27.932  1.00  0.00     0.074 A 
ATOM     44  C   UNL A   1      40.685  28.959  28.755  1.00  0.00     0.049 A 
ATOM     45  N   UNL A   1      43.813  30.070  28.765  1.00  0.00    -0.248 NA
ATOM     46  C   UNL A   1      43.063  30.238  26.578  1.00  0.00     0.031 C 
ATOM     47  C   UNL A   1      39.431  28.185  28.735  1.00  0.00     0.029 A 
ATOM     48  N   UNL A   1      40.318  30.094  29.412  1.00  0.00    -0.354 N 
ATOM     49  C   UNL A   1      44.492  31.103  28.125  1.00  0.00     0.074 A 
ATOM     50  C   UNL A   1      44.141  31.011  26.731  1.00  0.00     0.031 C 
ATOM     51  C   UNL A   1      38.402  28.973  29.115  1.00  0.00     0.029 A 
ATOM     52  C   UNL A   1      38.948  30.220  29.612  1.00  0.00     0.049 A 
ATOM     53  H   UNL A   1      40.968  30.767  29.718  1.00  0.00     0.167 HD
ATOM     54  C   UNL A   1      45.047  32.128  28.832  1.00  0.00     0.031 A 
ATOM     55  C   UNL A   1      38.295  31.268  30.164  1.00  0.00     0.031 A 
ATOM     56  C   UNL A   1      45.011  31.858  30.246  1.00  0.00     0.049 A 
ATOM     57  C   UNL A   1      39.278  32.007  30.984  1.00  0.00     0.074 A 
ATOM     58  C   UNL A   1      45.675  31.035  31.126  1.00  0.00     0.029 A 
ATOM     59  N   UNL A   1      43.849  32.264  30.856  1.00  0.00    -0.354 N 
ATOM     60  N   UNL A   1      39.870  31.487  32.025  1.00  0.00    -0.248 NA
ATOM     61  C   UNL A   1      39.903  33.209  30.450  1.00  0.00     0.031 C 
ATOM     62  C   UNL A   1      44.750  30.764  32.178  1.00  0.00     0.029 A 
ATOM     63  C   UNL A   1      43.569  31.467  31.935  1.00  0.00     0.049 A 
ATOM     64  H   UNL A   1      43.295  33.022  30.560  1.00  0.00     0.167 HD
ATOM     65  C   UNL A   1      41.143  32.024  32.004  1.00  0.00     0.074 A 
ATOM     66  C   UNL A   1      41.049  33.191  31.136  1.00  0.00     0.031 C 
ATOM     67  C   UNL A   1      42.218  31.306  32.441  1.00  0.00     0.031 A 
BRANCH  54  68
ATOM     68  C   UNL A   1      45.173  33.553  28.332  1.00  0.00    -0.014 A 
ATOM     69  C   UNL A   1      46.276  34.325  28.758  1.00  0.00     0.010 A 
ATOM     70  C   UNL A   1      44.120  34.247  27.702  1.00  0.00     0.010 A 
ATOM     71  C   UNL A   1      46.296  35.720  28.611  1.00  0.00     0.020 A 
ATOM     72  C   UNL A   1      44.148  35.632  27.515  1.00  0.00     0.020 A 
ATOM     73  C   UNL A   1      45.222  36.365  27.998  1.00  0.00     0.054 A 
BRANCH  73  74
ATOM     74  S   UNL A   1      45.209  38.172  27.894  1.00  0.00     0.124 S 
ATOM     75  O   UNL A   1      43.822  38.484  28.229  1.00  0.00    -0.237 OA
ATOM     76  O   UNL A   1      46.204  38.547  28.895  1.00  0.00    -0.237 OA
ATOM     77  O   UNL A   1      45.594  38.436  26.510  1.00  0.00    -0.744 OA
ENDBRANCH  73  74
ENDBRANCH  54  68
BRANCH  55  78
ATOM     78  C   UNL A   1      36.945  31.789  29.856  1.00  0.00    -0.014 A 
ATOM     79  C   UNL A   1      36.083  32.226  30.877  1.00  0.00     0.010 A 
ATOM     80  C   UNL A   1      36.620  32.125  28.525  1.00  0.00     0.010 A 
ATOM     81  C   UNL A   1      34.971  33.032  30.583  1.00  0.00     0.020 A 
ATOM     82  C   UNL A   1      35.512  32.929  28.226  1.00  0.00     0.020 A 
ATOM     83  C   UNL A   1      34.706  33.399  29.261  1.00  0.00     0.054 A 
BRANCH  83  84
ATOM     84  S   UNL A   1      33.380  34.596  28.918  1.00  0.00     0.124 S 
ATOM     85  O   UNL A   1      34.115  35.711  28.329  1.00  0.00    -0.237 OA
ATOM     86  O   UNL A   1      32.515  33.857  28.003  1.00  0.00    -0.237 OA
ATOM     87  O   UNL A   1      32.804  34.856  30.235  1.00  0.00    -0.744 OA
ENDBRANCH  83  84
ENDBRANCH  55  78
BRANCH  67  88
ATOM     88  C   UNL A   1      41.964  30.166  33.394  1.00  0.00    -0.014 A 
ATOM     89  C   UNL A   1      41.670  28.848  33.002  1.00  0.00     0.010 A 
ATOM     90  C   UNL A   1      42.126  30.442  34.763  1.00  0.00     0.010 A 
ATOM     91  C   UNL A   1      41.521  27.835  33.964  1.00  0.00     0.020 A 
ATOM     92  C   UNL A   1      41.997  29.437  35.722  1.00  0.00     0.020 A 
ATOM     93  C   UNL A   1      41.686  28.139  35.320  1.00  0.00     0.054 A 
BRANCH  93  94
ATOM     94  S   UNL A   1      41.526  26.825  36.562  1.00  0.00     0.124 S 
ATOM     95  O   UNL A   1      41.286  25.642  35.743  1.00  0.00    -0.237 OA
ATOM     96  O   UNL A   1      42.816  26.867  37.246  1.00  0.00    -0.237 OA
ATOM     97  O   UNL A   1      40.389  27.254  37.377  1.00  0.00    -0.744 OA
ENDBRANCH  93  94
ENDBRANCH  67  88
ENDBRANCH  41  42
ENDBRANCH   2  36
TORSDOF 15
ENDMDL
MODEL 2
REMARK VINA RESULT:     -12.4      2.961      9.015
REMARK SMILES Cn1cc([C@@H]2CC(NCCCNC(=O)c3ccc(-c4c5nc(c(-c6ccc(S(=O)(=O)[O-])cc6)c6ccc([nH]6)c(-c6ccc(S(=O)(=O)[O-])cc6)c6nc(c(-c7ccc(S(=O)(=O)[O-])cc7)c7ccc4[nH]7)C=C6)C=C5)cc3)=[NH+]c3c2sc(C(=O)[O-])c3-c2ccc(Cl)cc2)cn1
REMARK SMILES IDX 12 1 13 2 14 3 11 5 10 6 9 7 8 8 5 9 6 10 77 11 7 12 76 13
REMARK SMILES IDX 78 14 75 15 83 16 79 17 4 20 1 21 2 22 3 23 92 24 91 25
REMARK SMILES IDX 84 26 85 27 90 28 86 29 89 30 87 31 88 32 80 33 81 34 82 35
REMARK SMILES IDX 15 36 16 37 74 38 17 39 73 40 18 41 19 42 20 43 67 44 21 45
REMARK SMILES IDX 72 46 66 47 68 48 22 49 71 50 65 51 64 52 23 54 53 55 34 56
REMARK SMILES IDX 52 57 35 58 38 59 51 60 69 61 36 62 37 63 50 65 70 66 39 67
REMARK SMILES IDX 24 68 25 69 33 70 26 71 32 72 27 73 28 74 29 75 30 76 31 77
REMARK SMILES IDX 54 78 55 79 63 80 56 81 62 82 57 83 58 84 59 85 60 86 61 87
REMARK SMILES IDX 40 88 41 89 49 90 42 91 48 92 43 93 44 94 45 95 46 96 47 97
REMARK H PARENT 12 4 8 18 75 19 68 53 38 64
REMARK Flexibility Score: inf
ROOT
ATOM      1  N   UNL A   1      33.923  31.281  27.286  1.00  0.00    -0.352 N 
ATOM      2  C   UNL A   1      35.068  31.941  27.700  1.00  0.00     0.251 C 
ATOM      3  O   UNL A   1      35.129  33.164  27.683  1.00  0.00    -0.269 OA
ATOM      4  H   UNL A   1      33.298  31.809  26.738  1.00  0.00     0.163 HD
ENDROOT
BRANCH   1   5
ATOM      5  C   UNL A   1      33.521  29.894  27.559  1.00  0.00     0.120 C 
BRANCH   5   6
ATOM      6  C   UNL A   1      32.181  29.524  26.946  1.00  0.00     0.067 C 
BRANCH   6   7
ATOM      7  C   UNL A   1      31.557  28.292  27.600  1.00  0.00     0.235 C 
BRANCH   7   8
ATOM      8  N   UNL A   1      32.441  27.133  27.556  1.00  0.00    -0.278 N 
ATOM      9  C   UNL A   1      34.233  24.673  25.179  1.00  0.00     0.079 C 
ATOM     10  C   UNL A   1      33.838  25.384  26.486  1.00  0.00     0.142 C 
ATOM     11  C   UNL A   1      33.452  25.210  24.028  1.00  0.00     0.061 A 
ATOM     12  C   UNL A   1      32.744  26.455  26.388  1.00  0.00     0.248 C 
ATOM     13  C   UNL A   1      32.480  26.158  24.118  1.00  0.00     0.147 A 
ATOM     14  S   UNL A   1      33.684  24.725  22.414  1.00  0.00    -0.133 S 
ATOM     15  N   UNL A   1      32.111  26.785  25.301  1.00  0.00    -0.243 N 
ATOM     16  C   UNL A   1      31.869  26.497  22.872  1.00  0.00     0.049 A 
ATOM     17  C   UNL A   1      32.430  25.767  21.830  1.00  0.00     0.062 A 
ATOM     18  H   UNL A   1      32.840  26.816  28.397  1.00  0.00     0.304 HD
ATOM     19  H   UNL A   1      31.393  27.458  25.317  1.00  0.00     0.312 HD
BRANCH   9  20
ATOM     20  C   UNL A   1      34.110  23.178  25.268  1.00  0.00    -0.001 A 
ATOM     21  C   UNL A   1      32.571  19.913  25.189  1.00  0.00     0.173 C 
ATOM     22  N   UNL A   1      33.392  21.097  25.259  1.00  0.00    -0.276 N 
ATOM     23  C   UNL A   1      32.971  22.395  25.265  1.00  0.00     0.112 A 
ATOM     24  N   UNL A   1      34.730  20.975  25.265  1.00  0.00    -0.182 NA
ATOM     25  C   UNL A   1      35.166  22.234  25.291  1.00  0.00     0.139 A 
ENDBRANCH   9  20
BRANCH  16  26
ATOM     26  C   UNL A   1      30.833  27.514  22.710  1.00  0.00    -0.012 A 
ATOM     27  C   UNL A   1      31.112  28.748  22.111  1.00  0.00     0.010 A 
ATOM     28  C   UNL A   1      29.522  27.227  23.118  1.00  0.00     0.010 A 
ATOM     29  C   UNL A   1      30.104  29.706  21.978  1.00  0.00     0.021 A 
ATOM     30  C   UNL A   1      28.511  28.176  22.972  1.00  0.00     0.021 A 
ATOM     31  C   UNL A   1      28.811  29.418  22.414  1.00  0.00     0.041 A 
ATOM     32  Cl  UNL A   1      27.574  30.606  22.268  1.00  0.00    -0.084 Cl
ENDBRANCH  16  26
BRANCH  17  33
ATOM     33  C   UNL A   1      32.191  25.735  20.398  1.00  0.00     0.082 C 
ATOM     34  O   UNL A   1      31.147  25.890  19.796  1.00  0.00    -0.544 OA
ATOM     35  O   UNL A   1      33.314  25.484  19.681  1.00  0.00    -0.544 OA
ENDBRANCH  17  33
ENDBRANCH   7   8
ENDBRANCH   6   7
ENDBRANCH   5   6
ENDBRANCH   1   5
BRANCH   2  36
ATOM     36  C   UNL A   1      36.211  31.135  28.164  1.00  0.00     0.039 A 
ATOM     37  C   UNL A   1      36.440  29.833  27.712  1.00  0.00     0.014 A 
ATOM     38  C   UNL A   1      37.106  31.756  29.025  1.00  0.00     0.014 A 
ATOM     39  C   UNL A   1      37.635  29.204  28.061  1.00  0.00     0.010 A 
ATOM     40  C   UNL A   1      38.355  31.225  29.191  1.00  0.00     0.010 A 
ATOM     41  C   UNL A   1      38.602  29.921  28.782  1.00  0.00    -0.014 A 
BRANCH  41  42
ATOM     42  C   UNL A   1      39.925  29.370  29.064  1.00  0.00     0.031 A 
ATOM     43  C   UNL A   1      40.235  29.200  30.506  1.00  0.00     0.074 A 
ATOM     44  C   UNL A   1      40.695  28.808  28.105  1.00  0.00     0.049 A 
ATOM     45  N   UNL A   1      41.063  29.884  31.223  1.00  0.00    -0.248 NA
ATOM     46  C   UNL A   1      39.425  28.245  31.284  1.00  0.00     0.031 C 
ATOM     47  C   UNL A   1      40.348  28.581  26.691  1.00  0.00     0.029 A 
ATOM     48  N   UNL A   1      41.904  28.193  28.212  1.00  0.00    -0.354 N 
ATOM     49  C   UNL A   1      41.063  29.282  32.479  1.00  0.00     0.074 A 
ATOM     50  C   UNL A   1      39.895  28.439  32.519  1.00  0.00     0.031 C 
ATOM     51  C   UNL A   1      41.191  27.673  26.154  1.00  0.00     0.029 A 
ATOM     52  C   UNL A   1      42.255  27.428  27.106  1.00  0.00     0.049 A 
ATOM     53  H   UNL A   1      42.480  28.283  29.005  1.00  0.00     0.167 HD
ATOM     54  C   UNL A   1      42.175  29.291  33.268  1.00  0.00     0.031 A 
ATOM     55  C   UNL A   1      43.355  26.653  26.962  1.00  0.00     0.031 A 
ATOM     56  C   UNL A   1      43.187  30.156  32.721  1.00  0.00     0.049 A 
ATOM     57  C   UNL A   1      44.363  27.150  27.924  1.00  0.00     0.074 A 
ATOM     58  C   UNL A   1      43.391  31.512  32.605  1.00  0.00     0.029 A 
ATOM     59  N   UNL A   1      44.016  29.535  31.818  1.00  0.00    -0.354 N 
ATOM     60  N   UNL A   1      44.874  28.349  27.861  1.00  0.00    -0.248 NA
ATOM     61  C   UNL A   1      44.548  26.460  29.193  1.00  0.00     0.031 C 
ATOM     62  C   UNL A   1      44.181  31.687  31.430  1.00  0.00     0.029 A 
ATOM     63  C   UNL A   1      44.477  30.434  30.892  1.00  0.00     0.049 A 
ATOM     64  H   UNL A   1      44.246  28.579  31.834  1.00  0.00     0.167 HD
ATOM     65  C   UNL A   1      45.053  28.719  29.180  1.00  0.00     0.074 A 
ATOM     66  C   UNL A   1      45.005  27.473  29.935  1.00  0.00     0.031 C 
ATOM     67  C   UNL A   1      44.916  30.019  29.572  1.00  0.00     0.031 A 
BRANCH  54  68
ATOM     68  C   UNL A   1      42.556  28.189  34.235  1.00  0.00    -0.014 A 
ATOM     69  C   UNL A   1      42.757  28.519  35.593  1.00  0.00     0.010 A 
ATOM     70  C   UNL A   1      42.999  26.916  33.821  1.00  0.00     0.010 A 
ATOM     71  C   UNL A   1      43.415  27.645  36.471  1.00  0.00     0.020 A 
ATOM     72  C   UNL A   1      43.621  26.023  34.698  1.00  0.00     0.020 A 
ATOM     73  C   UNL A   1      43.853  26.405  36.011  1.00  0.00     0.054 A 
BRANCH  73  74
ATOM     74  S   UNL A   1      44.784  25.319  37.122  1.00  0.00     0.124 S 
ATOM     75  O   UNL A   1      46.153  25.786  36.924  1.00  0.00    -0.237 OA
ATOM     76  O   UNL A   1      44.190  25.624  38.421  1.00  0.00    -0.237 OA
ATOM     77  O   UNL A   1      44.498  23.981  36.609  1.00  0.00    -0.744 OA
ENDBRANCH  73  74
ENDBRANCH  54  68
BRANCH  55  78
ATOM     78  C   UNL A   1      43.509  25.388  26.211  1.00  0.00    -0.014 A 
ATOM     79  C   UNL A   1      44.630  25.159  25.394  1.00  0.00     0.010 A 
ATOM     80  C   UNL A   1      42.688  24.287  26.532  1.00  0.00     0.010 A 
ATOM     81  C   UNL A   1      44.958  23.860  24.970  1.00  0.00     0.020 A 
ATOM     82  C   UNL A   1      43.009  22.990  26.112  1.00  0.00     0.020 A 
ATOM     83  C   UNL A   1      44.158  22.780  25.352  1.00  0.00     0.054 A 
BRANCH  83  84
ATOM     84  S   UNL A   1      44.699  21.089  24.958  1.00  0.00     0.124 S 
ATOM     85  O   UNL A   1      46.063  21.071  25.480  1.00  0.00    -0.237 OA
ATOM     86  O   UNL A   1      43.734  20.270  25.685  1.00  0.00    -0.237 OA
ATOM     87  O   UNL A   1      44.589  21.024  23.502  1.00  0.00    -0.744 OA
ENDBRANCH  83  84
ENDBRANCH  55  78
BRANCH  67  88
ATOM     88  C   UNL A   1      45.079  31.092  28.526  1.00  0.00    -0.014 A 
ATOM     89  C   UNL A   1      44.016  31.689  27.823  1.00  0.00     0.010 A 
ATOM     90  C   UNL A   1      46.382  31.575  28.316  1.00  0.00     0.010 A 
ATOM     91  C   UNL A   1      44.260  32.735  26.917  1.00  0.00     0.020 A 
ATOM     92  C   UNL A   1      46.629  32.625  27.431  1.00  0.00     0.020 A 
ATOM     93  C   UNL A   1      45.569  33.195  26.728  1.00  0.00     0.054 A 
BRANCH  93  94
ATOM     94  S   UNL A   1      45.882  34.567  25.582  1.00  0.00     0.124 S 
ATOM     95  O   UNL A   1      47.318  34.462  25.345  1.00  0.00    -0.237 OA
ATOM     96  O   UNL A   1      45.030  34.237  24.441  1.00  0.00    -0.237 OA
ATOM     97  O   UNL A   1      45.463  35.750  26.333  1.00  0.00    -0.744 OA
ENDBRANCH  93  94
ENDBRANCH  67  88
ENDBRANCH  41  42
ENDBRANCH   2  36
TORSDOF 15
ENDMDL
MODEL 3
REMARK VINA RESULT:     -12.4      4.880      8.459
REMARK SMILES Cn1cc([C@@H]2CC(NCCCNC(=O)c3ccc(-c4c5nc(c(-c6ccc(S(=O)(=O)[O-])cc6)c6ccc([nH]6)c(-c6ccc(S(=O)(=O)[O-])cc6)c6nc(c(-c7ccc(S(=O)(=O)[O-])cc7)c7ccc4[nH]7)C=C6)C=C5)cc3)=[NH+]c3c2sc(C(=O)[O-])c3-c2ccc(Cl)cc2)cn1
REMARK SMILES IDX 12 1 13 2 14 3 11 5 10 6 9 7 8 8 5 9 6 10 77 11 7 12 76 13
REMARK SMILES IDX 78 14 75 15 83 16 79 17 4 20 1 21 2 22 3 23 92 24 91 25
REMARK SMILES IDX 84 26 85 27 90 28 86 29 89 30 87 31 88 32 80 33 81 34 82 35
REMARK SMILES IDX 15 36 16 37 74 38 17 39 73 40 18 41 19 42 20 43 67 44 21 45
REMARK SMILES IDX 72 46 66 47 68 48 22 49 71 50 65 51 64 52 23 54 53 55 34 56
REMARK SMILES IDX 52 57 35 58 38 59 51 60 69 61 36 62 37 63 50 65 70 66 39 67
REMARK SMILES IDX 24 68 25 69 33 70 26 71 32 72 27 73 28 74 29 75 30 76 31 77
REMARK SMILES IDX 54 78 55 79 63 80 56 81 62 82 57 83 58 84 59 85 60 86 61 87
REMARK SMILES IDX 40 88 41 89 49 90 42 91 48 92 43 93 44 94 45 95 46 96 47 97
REMARK H PARENT 12 4 8 18 75 19 68 53 38 64
REMARK Flexibility Score: inf
ROOT
ATOM      1  N   UNL A   1      42.594  22.717  25.025  1.00  0.00    -0.352 N 
ATOM      2  C   UNL A   1      41.759  23.149  26.041  1.00  0.00     0.251 C 
ATOM      3  O   UNL A   1      40.987  22.374  26.593  1.00  0.00    -0.269 OA
ATOM      4  H   UNL A   1      42.346  21.865  24.599  1.00  0.00     0.163 HD
ENDROOT
BRANCH   1   5
ATOM      5  C   UNL A   1      43.803  23.366  24.501  1.00  0.00     0.120 C 
BRANCH   5   6
ATOM      6  C   UNL A   1      44.974  22.413  24.335  1.00  0.00     0.067 C 
BRANCH   6   7
ATOM      7  C   UNL A   1      46.260  22.946  24.964  1.00  0.00     0.235 C 
BRANCH   7   8
ATOM      8  N   UNL A   1      46.119  23.186  26.396  1.00  0.00    -0.278 N 
ATOM      9  C   UNL A   1      46.241  25.916  29.124  1.00  0.00     0.079 C 
ATOM     10  C   UNL A   1      46.006  24.542  28.470  1.00  0.00     0.142 C 
ATOM     11  C   UNL A   1      46.799  26.884  28.135  1.00  0.00     0.061 A 
ATOM     12  C   UNL A   1      46.392  24.404  26.992  1.00  0.00     0.248 C 
ATOM     13  C   UNL A   1      47.116  26.588  26.846  1.00  0.00     0.147 A 
ATOM     14  S   UNL A   1      47.101  28.523  28.478  1.00  0.00    -0.133 S 
ATOM     15  N   UNL A   1      46.922  25.342  26.262  1.00  0.00    -0.243 N 
ATOM     16  C   UNL A   1      47.647  27.685  26.102  1.00  0.00     0.049 A 
ATOM     17  C   UNL A   1      47.710  28.832  26.887  1.00  0.00     0.062 A 
ATOM     18  H   UNL A   1      45.817  22.444  26.967  1.00  0.00     0.304 HD
ATOM     19  H   UNL A   1      47.179  25.173  25.327  1.00  0.00     0.312 HD
BRANCH   9  20
ATOM     20  C   UNL A   1      47.101  25.839  30.353  1.00  0.00    -0.001 A 
ATOM     21  C   UNL A   1      47.968  25.495  33.841  1.00  0.00     0.173 C 
ATOM     22  N   UNL A   1      47.860  25.642  32.410  1.00  0.00    -0.276 N 
ATOM     23  C   UNL A   1      46.721  25.830  31.683  1.00  0.00     0.112 A 
ATOM     24  N   UNL A   1      48.962  25.534  31.649  1.00  0.00    -0.182 NA
ATOM     25  C   UNL A   1      48.506  25.674  30.405  1.00  0.00     0.139 A 
ENDBRANCH   9  20
BRANCH  16  26
ATOM     26  C   UNL A   1      48.022  27.622  24.692  1.00  0.00    -0.012 A 
ATOM     27  C   UNL A   1      49.265  27.118  24.291  1.00  0.00     0.010 A 
ATOM     28  C   UNL A   1      47.097  28.028  23.718  1.00  0.00     0.010 A 
ATOM     29  C   UNL A   1      49.601  27.078  22.935  1.00  0.00     0.021 A 
ATOM     30  C   UNL A   1      47.425  27.974  22.363  1.00  0.00     0.021 A 
ATOM     31  C   UNL A   1      48.682  27.512  21.979  1.00  0.00     0.041 A 
ATOM     32  Cl  UNL A   1      49.105  27.481  20.311  1.00  0.00    -0.084 Cl
ENDBRANCH  16  26
BRANCH  17  33
ATOM     33  C   UNL A   1      48.148  30.192  26.625  1.00  0.00     0.082 C 
ATOM     34  O   UNL A   1      47.482  31.159  26.315  1.00  0.00    -0.544 OA
ATOM     35  O   UNL A   1      49.488  30.346  26.745  1.00  0.00    -0.544 OA
ENDBRANCH  17  33
ENDBRANCH   7   8
ENDBRANCH   6   7
ENDBRANCH   5   6
ENDBRANCH   1   5
BRANCH   2  36
ATOM     36  C   UNL A   1      41.823  24.566  26.444  1.00  0.00     0.039 A 
ATOM     37  C   UNL A   1      41.127  25.568  25.763  1.00  0.00     0.014 A 
ATOM     38  C   UNL A   1      42.553  24.859  27.588  1.00  0.00     0.014 A 
ATOM     39  C   UNL A   1      41.097  26.851  26.311  1.00  0.00     0.010 A 
ATOM     40  C   UNL A   1      42.350  26.051  28.226  1.00  0.00     0.010 A 
ATOM     41  C   UNL A   1      41.692  27.078  27.561  1.00  0.00    -0.014 A 
BRANCH  41  42
ATOM     42  C   UNL A   1      41.581  28.359  28.251  1.00  0.00     0.031 A 
ATOM     43  C   UNL A   1      42.656  29.334  27.932  1.00  0.00     0.074 A 
ATOM     44  C   UNL A   1      40.461  28.735  28.908  1.00  0.00     0.049 A 
ATOM     45  N   UNL A   1      43.622  29.725  28.695  1.00  0.00    -0.248 NA
ATOM     46  C   UNL A   1      42.754  29.833  26.548  1.00  0.00     0.031 C 
ATOM     47  C   UNL A   1      39.181  28.009  28.991  1.00  0.00     0.029 A 
ATOM     48  N   UNL A   1      40.173  29.908  29.534  1.00  0.00    -0.354 N 
ATOM     49  C   UNL A   1      44.300  30.705  27.974  1.00  0.00     0.074 A 
ATOM     50  C   UNL A   1      43.866  30.569  26.607  1.00  0.00     0.031 C 
ATOM     51  C   UNL A   1      38.205  28.849  29.394  1.00  0.00     0.029 A 
ATOM     52  C   UNL A   1      38.822  30.094  29.805  1.00  0.00     0.049 A 
ATOM     53  H   UNL A   1      40.863  30.568  29.774  1.00  0.00     0.167 HD
ATOM     54  C   UNL A   1      44.930  31.736  28.604  1.00  0.00     0.031 A 
ATOM     55  C   UNL A   1      38.239  31.188  30.348  1.00  0.00     0.031 A 
ATOM     56  C   UNL A   1      44.966  31.526  30.028  1.00  0.00     0.049 A 
ATOM     57  C   UNL A   1      39.294  31.922  31.079  1.00  0.00     0.074 A 
ATOM     58  C   UNL A   1      45.650  30.715  30.905  1.00  0.00     0.029 A 
ATOM     59  N   UNL A   1      43.856  32.000  30.685  1.00  0.00    -0.354 N 
ATOM     60  N   UNL A   1      39.926  31.423  32.106  1.00  0.00    -0.248 NA
ATOM     61  C   UNL A   1      39.929  33.077  30.459  1.00  0.00     0.031 C 
ATOM     62  C   UNL A   1      44.778  30.523  32.017  1.00  0.00     0.029 A 
ATOM     63  C   UNL A   1      43.610  31.259  31.811  1.00  0.00     0.049 A 
ATOM     64  H   UNL A   1      43.313  32.766  30.387  1.00  0.00     0.167 HD
ATOM     65  C   UNL A   1      41.213  31.910  31.992  1.00  0.00     0.074 A 
ATOM     66  C   UNL A   1      41.112  33.043  31.081  1.00  0.00     0.031 C 
ATOM     67  C   UNL A   1      42.285  31.170  32.398  1.00  0.00     0.031 A 
BRANCH  54  68
ATOM     68  C   UNL A   1      45.078  33.134  28.037  1.00  0.00    -0.014 A 
ATOM     69  C   UNL A   1      46.178  33.918  28.447  1.00  0.00     0.010 A 
ATOM     70  C   UNL A   1      44.044  33.804  27.352  1.00  0.00     0.010 A 
ATOM     71  C   UNL A   1      46.213  35.304  28.231  1.00  0.00     0.020 A 
ATOM     72  C   UNL A   1      44.086  35.177  27.098  1.00  0.00     0.020 A 
ATOM     73  C   UNL A   1      45.157  35.925  27.566  1.00  0.00     0.054 A 
BRANCH  73  74
ATOM     74  S   UNL A   1      45.161  37.726  27.373  1.00  0.00     0.124 S 
ATOM     75  O   UNL A   1      43.787  37.987  26.951  1.00  0.00    -0.237 OA
ATOM     76  O   UNL A   1      45.511  38.180  28.716  1.00  0.00    -0.237 OA
ATOM     77  O   UNL A   1      46.183  37.956  26.355  1.00  0.00    -0.744 OA
ENDBRANCH  73  74
ENDBRANCH  54  68
BRANCH  55  78
ATOM     78  C   UNL A   1      36.893  31.747  30.093  1.00  0.00    -0.014 A 
ATOM     79  C   UNL A   1      36.172  32.398  31.109  1.00  0.00     0.010 A 
ATOM     80  C   UNL A   1      36.444  31.892  28.764  1.00  0.00     0.010 A 
ATOM     81  C   UNL A   1      35.078  33.224  30.799  1.00  0.00     0.020 A 
ATOM     82  C   UNL A   1      35.354  32.713  28.448  1.00  0.00     0.020 A 
ATOM     83  C   UNL A   1      34.691  33.395  29.466  1.00  0.00     0.054 A 
BRANCH  83  84
ATOM     84  S   UNL A   1      33.401  34.613  29.065  1.00  0.00     0.124 S 
ATOM     85  O   UNL A   1      32.575  33.884  28.107  1.00  0.00    -0.237 OA
ATOM     86  O   UNL A   1      32.787  34.864  30.365  1.00  0.00    -0.237 OA
ATOM     87  O   UNL A   1      34.152  35.738  28.510  1.00  0.00    -0.744 OA
ENDBRANCH  83  84
ENDBRANCH  55  78
BRANCH  67  88
ATOM     88  C   UNL A   1      42.047  30.081  33.412  1.00  0.00    -0.014 A 
ATOM     89  C   UNL A   1      41.503  28.819  33.114  1.00  0.00     0.010 A 
ATOM     90  C   UNL A   1      42.488  30.333  34.722  1.00  0.00     0.010 A 
ATOM     91  C   UNL A   1      41.385  27.840  34.115  1.00  0.00     0.020 A 
ATOM     92  C   UNL A   1      42.391  29.359  35.716  1.00  0.00     0.020 A 
ATOM     93  C   UNL A   1      41.832  28.119  35.412  1.00  0.00     0.054 A 
BRANCH  93  94
ATOM     94  S   UNL A   1      41.711  26.844  36.698  1.00  0.00     0.124 S 
ATOM     95  O   UNL A   1      40.473  27.201  37.383  1.00  0.00    -0.237 OA
ATOM     96  O   UNL A   1      41.668  25.606  35.924  1.00  0.00    -0.237 OA
ATOM     97  O   UNL A   1      42.929  27.029  37.486  1.00  0.00    -0.744 OA
ENDBRANCH  93  94
ENDBRANCH  67  88
ENDBRANCH  41  42
ENDBRANCH   2  36
TORSDOF 15
ENDMDL
