MODEL 1
REMARK VINA RESULT:     -11.1      0.000      0.000
REMARK SMILES Cc1noc(C)c1CNc1cnc(C(=O)NCCCNC(=O)c2ccc(-c3c4nc(c(-c5ccc(S(=O)(=O)[O-])cc5)c5ccc([nH]5)c(-c5ccc(S(=O)(=O)[O-])cc5)c5nc(c(-c6ccc(S(=O)(=O)[O-])cc6)c6ccc3[nH]6)C=C5)C=C4)cc2)cn1
REMARK SMILES IDX 18 1 17 2 16 3 14 4 15 5 13 7 10 8 11 9 84 10 12 11 83 12
REMARK SMILES IDX 9 13 8 15 7 16 1 17 2 18 3 19 4 20 5 21 6 22 19 23 20 24
REMARK SMILES IDX 21 25 22 27 23 28 24 29 82 30 25 31 81 32 26 33 27 34 28 35
REMARK SMILES IDX 75 36 29 37 80 38 74 39 76 40 30 41 79 42 73 43 72 44 31 46
REMARK SMILES IDX 61 47 42 48 60 49 43 50 46 51 59 52 77 53 44 54 45 55 58 57
REMARK SMILES IDX 78 58 47 59 32 60 33 61 41 62 34 63 40 64 35 65 36 66 37 67
REMARK SMILES IDX 38 68 39 69 62 70 63 71 71 72 64 73 70 74 65 75 66 76 67 77
REMARK SMILES IDX 68 78 69 79 48 80 49 81 57 82 50 83 56 84 51 85 52 86 53 87
REMARK SMILES IDX 54 88 55 89
REMARK H PARENT 16 6 9 14 20 26 76 45 46 56
REMARK Flexibility Score: inf
ROOT
ATOM      1  C   UNL A   1      34.678  34.370  28.186  1.00  0.00     0.042 C 
ENDROOT
BRANCH   1   2
ATOM      2  C   UNL A   1      33.417  34.240  29.033  1.00  0.00     0.118 C 
BRANCH   2   3
ATOM      3  N   UNL A   1      32.963  35.532  29.522  1.00  0.00    -0.351 N 
ATOM      4  C   UNL A   1      33.016  36.087  30.781  1.00  0.00     0.271 C 
ATOM      5  O   UNL A   1      32.571  37.227  30.925  1.00  0.00    -0.267 OA
ATOM      6  H   UNL A   1      32.548  36.105  28.839  1.00  0.00     0.163 HD
BRANCH   4   7
ATOM      7  C   UNL A   1      33.622  35.389  31.950  1.00  0.00     0.146 A 
ATOM      8  C   UNL A   1      34.968  34.242  34.011  1.00  0.00     0.144 A 
ATOM      9  C   UNL A   1      34.278  33.494  33.057  1.00  0.00     0.158 A 
ATOM     10  N   UNL A   1      34.931  35.588  33.969  1.00  0.00    -0.235 NA
ATOM     11  N   UNL A   1      33.601  34.038  32.017  1.00  0.00    -0.246 NA
ATOM     12  C   UNL A   1      34.254  36.143  32.927  1.00  0.00     0.147 A 
BRANCH   8  13
ATOM     13  N   UNL A   1      35.749  33.697  35.001  1.00  0.00    -0.365 N 
ATOM     14  H   UNL A   1      35.337  33.435  35.855  1.00  0.00     0.162 HD
BRANCH  13  15
ATOM     15  C   UNL A   1      37.173  33.504  34.802  1.00  0.00     0.156 C 
BRANCH  15  16
ATOM     16  C   UNL A   1      37.682  32.169  35.214  1.00  0.00     0.037 A 
ATOM     17  C   UNL A   1      37.784  32.424  37.817  1.00  0.00     0.071 C 
ATOM     18  C   UNL A   1      37.953  31.703  36.532  1.00  0.00     0.086 A 
ATOM     19  N   UNL A   1      38.413  30.446  36.519  1.00  0.00    -0.085 NA
ATOM     20  O   UNL A   1      38.454  30.071  35.191  1.00  0.00    -0.361 OA
ATOM     21  C   UNL A   1      38.022  31.099  34.415  1.00  0.00     0.138 A 
ATOM     22  C   UNL A   1      38.015  30.867  32.958  1.00  0.00     0.091 C 
ENDBRANCH  15  16
ENDBRANCH  13  15
ENDBRANCH   8  13
ENDBRANCH   4   7
ENDBRANCH   2   3
ENDBRANCH   1   2
BRANCH   1  23
ATOM     23  C   UNL A   1      35.422  33.046  28.033  1.00  0.00     0.118 C 
BRANCH  23  24
ATOM     24  N   UNL A   1      34.508  31.915  27.884  1.00  0.00    -0.352 N 
ATOM     25  C   UNL A   1      34.775  30.572  27.799  1.00  0.00     0.251 C 
ATOM     26  H   UNL A   1      33.554  32.153  27.840  1.00  0.00     0.163 HD
ATOM     27  O   UNL A   1      33.891  29.795  27.446  1.00  0.00    -0.269 OA
BRANCH  25  28
ATOM     28  C   UNL A   1      36.124  30.068  28.124  1.00  0.00     0.039 A 
ATOM     29  C   UNL A   1      37.125  30.107  27.150  1.00  0.00     0.014 A 
ATOM     30  C   UNL A   1      36.391  29.545  29.390  1.00  0.00     0.014 A 
ATOM     31  C   UNL A   1      38.416  29.679  27.469  1.00  0.00     0.010 A 
ATOM     32  C   UNL A   1      37.691  29.199  29.730  1.00  0.00     0.010 A 
ATOM     33  C   UNL A   1      38.716  29.253  28.772  1.00  0.00    -0.014 A 
BRANCH  33  34
ATOM     34  C   UNL A   1      40.079  28.826  29.173  1.00  0.00     0.031 A 
ATOM     35  C   UNL A   1      41.003  29.825  29.816  1.00  0.00     0.074 A 
ATOM     36  C   UNL A   1      40.520  27.592  28.863  1.00  0.00     0.049 A 
ATOM     37  N   UNL A   1      42.279  29.722  30.076  1.00  0.00    -0.248 NA
ATOM     38  C   UNL A   1      40.417  31.126  30.185  1.00  0.00     0.031 C 
ATOM     39  C   UNL A   1      39.725  26.540  28.224  1.00  0.00     0.029 A 
ATOM     40  N   UNL A   1      41.757  27.019  29.024  1.00  0.00    -0.354 N 
ATOM     41  C   UNL A   1      42.656  30.951  30.605  1.00  0.00     0.074 A 
ATOM     42  C   UNL A   1      41.485  31.798  30.588  1.00  0.00     0.031 C 
ATOM     43  C   UNL A   1      40.491  25.449  28.057  1.00  0.00     0.029 A 
ATOM     44  C   UNL A   1      41.842  25.740  28.525  1.00  0.00     0.049 A 
ATOM     45  H   UNL A   1      42.512  27.480  29.456  1.00  0.00     0.167 HD
ATOM     46  C   UNL A   1      43.866  31.334  31.076  1.00  0.00     0.031 A 
ATOM     47  C   UNL A   1      42.897  24.905  28.431  1.00  0.00     0.031 A 
ATOM     48  C   UNL A   1      45.021  30.478  31.105  1.00  0.00     0.049 A 
ATOM     49  C   UNL A   1      44.239  25.359  28.940  1.00  0.00     0.074 A 
ATOM     50  C   UNL A   1      46.281  30.751  31.606  1.00  0.00     0.029 A 
ATOM     51  N   UNL A   1      45.056  29.181  30.614  1.00  0.00    -0.354 N 
ATOM     52  N   UNL A   1      44.569  26.511  29.475  1.00  0.00    -0.248 NA
ATOM     53  C   UNL A   1      45.350  24.402  28.842  1.00  0.00     0.031 C 
ATOM     54  C   UNL A   1      47.093  29.639  31.368  1.00  0.00     0.029 A 
ATOM     55  C   UNL A   1      46.320  28.648  30.785  1.00  0.00     0.049 A 
ATOM     56  H   UNL A   1      44.294  28.710  30.205  1.00  0.00     0.167 HD
ATOM     57  C   UNL A   1      45.911  26.399  29.819  1.00  0.00     0.074 A 
ATOM     58  C   UNL A   1      46.335  25.070  29.428  1.00  0.00     0.031 C 
ATOM     59  C   UNL A   1      46.717  27.312  30.414  1.00  0.00     0.031 A 
BRANCH  46  60
ATOM     60  C   UNL A   1      44.005  32.744  31.587  1.00  0.00    -0.014 A 
ATOM     61  C   UNL A   1      44.441  33.784  30.746  1.00  0.00     0.010 A 
ATOM     62  C   UNL A   1      43.657  33.041  32.917  1.00  0.00     0.010 A 
ATOM     63  C   UNL A   1      44.570  35.085  31.239  1.00  0.00     0.020 A 
ATOM     64  C   UNL A   1      43.752  34.347  33.405  1.00  0.00     0.020 A 
ATOM     65  C   UNL A   1      44.226  35.359  32.567  1.00  0.00     0.054 A 
BRANCH  65  66
ATOM     66  S   UNL A   1      44.383  37.061  33.170  1.00  0.00     0.124 S 
ATOM     67  O   UNL A   1      43.077  37.283  33.786  1.00  0.00    -0.237 OA
ATOM     68  O   UNL A   1      45.508  36.970  34.096  1.00  0.00    -0.237 OA
ATOM     69  O   UNL A   1      44.638  37.837  31.958  1.00  0.00    -0.744 OA
ENDBRANCH  65  66
ENDBRANCH  46  60
BRANCH  47  70
ATOM     70  C   UNL A   1      42.722  23.550  27.837  1.00  0.00    -0.014 A 
ATOM     71  C   UNL A   1      42.239  22.486  28.619  1.00  0.00     0.010 A 
ATOM     72  C   UNL A   1      43.025  23.319  26.482  1.00  0.00     0.010 A 
ATOM     73  C   UNL A   1      42.082  21.212  28.064  1.00  0.00     0.020 A 
ATOM     74  C   UNL A   1      42.840  22.054  25.915  1.00  0.00     0.020 A 
ATOM     75  C   UNL A   1      42.380  21.005  26.714  1.00  0.00     0.054 A 
BRANCH  75  76
ATOM     76  S   UNL A   1      42.122  19.355  26.004  1.00  0.00     0.124 S 
ATOM     77  O   UNL A   1      42.627  18.487  27.064  1.00  0.00    -0.237 OA
ATOM     78  O   UNL A   1      40.676  19.326  25.796  1.00  0.00    -0.237 OA
ATOM     79  O   UNL A   1      42.920  19.380  24.781  1.00  0.00    -0.744 OA
ENDBRANCH  75  76
ENDBRANCH  47  70
BRANCH  59  80
ATOM     80  C   UNL A   1      48.124  26.899  30.756  1.00  0.00    -0.014 A 
ATOM     81  C   UNL A   1      49.181  27.055  29.843  1.00  0.00     0.010 A 
ATOM     82  C   UNL A   1      48.402  26.453  32.062  1.00  0.00     0.010 A 
ATOM     83  C   UNL A   1      50.493  26.770  30.232  1.00  0.00     0.020 A 
ATOM     84  C   UNL A   1      49.715  26.194  32.462  1.00  0.00     0.020 A 
ATOM     85  C   UNL A   1      50.752  26.351  31.542  1.00  0.00     0.054 A 
BRANCH  85  86
ATOM     86  S   UNL A   1      52.473  26.079  32.047  1.00  0.00     0.124 S 
ATOM     87  O   UNL A   1      52.580  24.624  31.998  1.00  0.00    -0.237 OA
ATOM     88  O   UNL A   1      53.223  26.800  31.021  1.00  0.00    -0.237 OA
ATOM     89  O   UNL A   1      52.539  26.664  33.385  1.00  0.00    -0.744 OA
ENDBRANCH  85  86
ENDBRANCH  59  80
ENDBRANCH  33  34
ENDBRANCH  25  28
ENDBRANCH  23  24
ENDBRANCH   1  23
TORSDOF 16
ENDMDL
MODEL 2
REMARK VINA RESULT:     -10.7      3.481     12.260
REMARK SMILES Cc1noc(C)c1CNc1cnc(C(=O)NCCCNC(=O)c2ccc(-c3c4nc(c(-c5ccc(S(=O)(=O)[O-])cc5)c5ccc([nH]5)c(-c5ccc(S(=O)(=O)[O-])cc5)c5nc(c(-c6ccc(S(=O)(=O)[O-])cc6)c6ccc3[nH]6)C=C5)C=C4)cc2)cn1
REMARK SMILES IDX 18 1 17 2 16 3 14 4 15 5 13 7 10 8 11 9 84 10 12 11 83 12
REMARK SMILES IDX 9 13 8 15 7 16 1 17 2 18 3 19 4 20 5 21 6 22 19 23 20 24
REMARK SMILES IDX 21 25 22 27 23 28 24 29 82 30 25 31 81 32 26 33 27 34 28 35
REMARK SMILES IDX 75 36 29 37 80 38 74 39 76 40 30 41 79 42 73 43 72 44 31 46
REMARK SMILES IDX 61 47 42 48 60 49 43 50 46 51 59 52 77 53 44 54 45 55 58 57
REMARK SMILES IDX 78 58 47 59 32 60 33 61 41 62 34 63 40 64 35 65 36 66 37 67
REMARK SMILES IDX 38 68 39 69 62 70 63 71 71 72 64 73 70 74 65 75 66 76 67 77
REMARK SMILES IDX 68 78 69 79 48 80 49 81 57 82 50 83 56 84 51 85 52 86 53 87
REMARK SMILES IDX 54 88 55 89
REMARK H PARENT 16 6 9 14 20 26 76 45 46 56
REMARK Flexibility Score: inf
ROOT
ATOM      1  C   UNL A   1      41.735  20.501  27.268  1.00  0.00     0.042 C 
ENDROOT
BRANCH   1   2
ATOM      2  C   UNL A   1      41.698  20.210  25.772  1.00  0.00     0.118 C 
BRANCH   2   3
ATOM      3  N   UNL A   1      42.699  19.226  25.392  1.00  0.00    -0.351 N 
ATOM      4  C   UNL A   1      44.004  19.381  24.980  1.00  0.00     0.271 C 
ATOM      5  O   UNL A   1      44.654  18.364  24.733  1.00  0.00    -0.267 OA
ATOM      6  H   UNL A   1      42.393  18.292  25.437  1.00  0.00     0.163 HD
BRANCH   4   7
ATOM      7  C   UNL A   1      44.664  20.712  24.864  1.00  0.00     0.146 A 
ATOM      8  C   UNL A   1      45.795  23.180  24.922  1.00  0.00     0.144 A 
ATOM      9  C   UNL A   1      44.819  22.824  23.992  1.00  0.00     0.158 A 
ATOM     10  N   UNL A   1      46.258  22.268  25.798  1.00  0.00    -0.235 NA
ATOM     11  N   UNL A   1      44.236  21.602  23.941  1.00  0.00    -0.246 NA
ATOM     12  C   UNL A   1      45.677  21.037  25.755  1.00  0.00     0.147 A 
BRANCH   8  13
ATOM     13  N   UNL A   1      46.309  24.447  25.053  1.00  0.00    -0.365 N 
ATOM     14  H   UNL A   1      47.284  24.572  25.115  1.00  0.00     0.162 HD
BRANCH  13  15
ATOM     15  C   UNL A   1      45.434  25.603  25.103  1.00  0.00     0.156 C 
BRANCH  15  16
ATOM     16  C   UNL A   1      46.132  26.914  25.032  1.00  0.00     0.037 A 
ATOM     17  C   UNL A   1      44.454  28.475  26.296  1.00  0.00     0.071 C 
ATOM     18  C   UNL A   1      45.699  28.168  25.549  1.00  0.00     0.086 A 
ATOM     19  N   UNL A   1      46.584  29.137  25.287  1.00  0.00    -0.085 NA
ATOM     20  O   UNL A   1      47.611  28.531  24.589  1.00  0.00    -0.361 OA
ATOM     21  C   UNL A   1      47.339  27.209  24.435  1.00  0.00     0.138 A 
ATOM     22  C   UNL A   1      48.336  26.414  23.695  1.00  0.00     0.091 C 
ENDBRANCH  15  16
ENDBRANCH  13  15
ENDBRANCH   8  13
ENDBRANCH   4   7
ENDBRANCH   2   3
ENDBRANCH   1   2
BRANCH   1  23
ATOM     23  C   UNL A   1      40.768  21.610  27.674  1.00  0.00     0.118 C 
BRANCH  23  24
ATOM     24  N   UNL A   1      39.692  21.786  26.699  1.00  0.00    -0.352 N 
ATOM     25  C   UNL A   1      38.914  22.885  26.437  1.00  0.00     0.251 C 
ATOM     26  H   UNL A   1      39.497  20.996  26.146  1.00  0.00     0.163 HD
ATOM     27  O   UNL A   1      37.908  22.768  25.740  1.00  0.00    -0.269 OA
BRANCH  25  28
ATOM     28  C   UNL A   1      39.283  24.200  26.997  1.00  0.00     0.039 A 
ATOM     29  C   UNL A   1      38.873  24.534  28.290  1.00  0.00     0.014 A 
ATOM     30  C   UNL A   1      40.024  25.105  26.236  1.00  0.00     0.014 A 
ATOM     31  C   UNL A   1      39.264  25.756  28.844  1.00  0.00     0.010 A 
ATOM     32  C   UNL A   1      40.480  26.280  26.815  1.00  0.00     0.010 A 
ATOM     33  C   UNL A   1      40.098  26.623  28.122  1.00  0.00    -0.014 A 
BRANCH  33  34
ATOM     34  C   UNL A   1      40.573  27.914  28.679  1.00  0.00     0.031 A 
ATOM     35  C   UNL A   1      41.965  28.001  29.246  1.00  0.00     0.074 A 
ATOM     36  C   UNL A   1      39.731  28.960  28.776  1.00  0.00     0.049 A 
ATOM     37  N   UNL A   1      42.515  28.963  29.939  1.00  0.00    -0.248 NA
ATOM     38  C   UNL A   1      42.841  26.836  29.033  1.00  0.00     0.031 C 
ATOM     39  C   UNL A   1      38.353  28.992  28.278  1.00  0.00     0.029 A 
ATOM     40  N   UNL A   1      39.904  30.195  29.349  1.00  0.00    -0.354 N 
ATOM     41  C   UNL A   1      43.785  28.507  30.273  1.00  0.00     0.074 A 
ATOM     42  C   UNL A   1      43.908  27.166  29.745  1.00  0.00     0.031 C 
ATOM     43  C   UNL A   1      37.812  30.188  28.559  1.00  0.00     0.029 A 
ATOM     44  C   UNL A   1      38.780  30.987  29.303  1.00  0.00     0.049 A 
ATOM     45  H   UNL A   1      40.752  30.487  29.755  1.00  0.00     0.167 HD
ATOM     46  C   UNL A   1      44.766  29.153  30.946  1.00  0.00     0.031 A 
ATOM     47  C   UNL A   1      38.548  32.209  29.822  1.00  0.00     0.031 A 
ATOM     48  C   UNL A   1      44.640  30.493  31.452  1.00  0.00     0.049 A 
ATOM     49  C   UNL A   1      39.645  32.901  30.587  1.00  0.00     0.074 A 
ATOM     50  C   UNL A   1      45.590  31.258  32.105  1.00  0.00     0.029 A 
ATOM     51  N   UNL A   1      43.494  31.268  31.359  1.00  0.00    -0.354 N 
ATOM     52  N   UNL A   1      40.855  32.471  30.859  1.00  0.00    -0.248 NA
ATOM     53  C   UNL A   1      39.352  34.243  31.110  1.00  0.00     0.031 C 
ATOM     54  C   UNL A   1      45.001  32.475  32.455  1.00  0.00     0.029 A 
ATOM     55  C   UNL A   1      43.709  32.497  31.958  1.00  0.00     0.049 A 
ATOM     56  H   UNL A   1      42.654  30.987  30.930  1.00  0.00     0.167 HD
ATOM     57  C   UNL A   1      41.481  33.508  31.541  1.00  0.00     0.074 A 
ATOM     58  C   UNL A   1      40.516  34.584  31.647  1.00  0.00     0.031 C 
ATOM     59  C   UNL A   1      42.744  33.567  32.029  1.00  0.00     0.031 A 
BRANCH  46  60
ATOM     60  C   UNL A   1      46.056  28.413  31.184  1.00  0.00    -0.014 A 
ATOM     61  C   UNL A   1      46.254  27.648  32.349  1.00  0.00     0.010 A 
ATOM     62  C   UNL A   1      47.073  28.453  30.213  1.00  0.00     0.010 A 
ATOM     63  C   UNL A   1      47.459  26.974  32.557  1.00  0.00     0.020 A 
ATOM     64  C   UNL A   1      48.267  27.752  30.401  1.00  0.00     0.020 A 
ATOM     65  C   UNL A   1      48.460  27.031  31.581  1.00  0.00     0.054 A 
BRANCH  65  66
ATOM     66  S   UNL A   1      50.005  26.127  31.870  1.00  0.00     0.124 S 
ATOM     67  O   UNL A   1      49.525  24.916  32.531  1.00  0.00    -0.237 OA
ATOM     68  O   UNL A   1      50.525  25.942  30.519  1.00  0.00    -0.237 OA
ATOM     69  O   UNL A   1      50.782  27.030  32.717  1.00  0.00    -0.744 OA
ENDBRANCH  65  66
ENDBRANCH  46  60
BRANCH  47  70
ATOM     70  C   UNL A   1      37.222  32.860  29.630  1.00  0.00    -0.014 A 
ATOM     71  C   UNL A   1      36.196  32.679  30.575  1.00  0.00     0.010 A 
ATOM     72  C   UNL A   1      36.980  33.674  28.507  1.00  0.00     0.010 A 
ATOM     73  C   UNL A   1      34.948  33.283  30.392  1.00  0.00     0.020 A 
ATOM     74  C   UNL A   1      35.744  34.304  28.336  1.00  0.00     0.020 A 
ATOM     75  C   UNL A   1      34.731  34.094  29.275  1.00  0.00     0.054 A 
BRANCH  75  76
ATOM     76  S   UNL A   1      33.119  34.906  29.084  1.00  0.00     0.124 S 
ATOM     77  O   UNL A   1      33.499  36.218  28.570  1.00  0.00    -0.237 OA
ATOM     78  O   UNL A   1      32.435  34.028  28.138  1.00  0.00    -0.237 OA
ATOM     79  O   UNL A   1      32.570  34.899  30.439  1.00  0.00    -0.744 OA
ENDBRANCH  75  76
ENDBRANCH  47  70
BRANCH  59  80
ATOM     80  C   UNL A   1      43.201  34.856  32.658  1.00  0.00    -0.014 A 
ATOM     81  C   UNL A   1      43.815  35.869  31.902  1.00  0.00     0.010 A 
ATOM     82  C   UNL A   1      42.901  35.095  34.013  1.00  0.00     0.010 A 
ATOM     83  C   UNL A   1      44.122  37.098  32.492  1.00  0.00     0.020 A 
ATOM     84  C   UNL A   1      43.181  36.331  34.598  1.00  0.00     0.020 A 
ATOM     85  C   UNL A   1      43.794  37.324  33.833  1.00  0.00     0.054 A 
BRANCH  85  86
ATOM     86  S   UNL A   1      44.118  38.961  34.547  1.00  0.00     0.124 S 
ATOM     87  O   UNL A   1      43.016  39.752  34.007  1.00  0.00    -0.237 OA
ATOM     88  O   UNL A   1      44.061  38.700  35.983  1.00  0.00    -0.237 OA
ATOM     89  O   UNL A   1      45.443  39.306  34.035  1.00  0.00    -0.744 OA
ENDBRANCH  85  86
ENDBRANCH  59  80
ENDBRANCH  33  34
ENDBRANCH  25  28
ENDBRANCH  23  24
ENDBRANCH   1  23
TORSDOF 16
ENDMDL
MODEL 3
REMARK VINA RESULT:     -10.7      3.830      6.652
REMARK SMILES Cc1noc(C)c1CNc1cnc(C(=O)NCCCNC(=O)c2ccc(-c3c4nc(c(-c5ccc(S(=O)(=O)[O-])cc5)c5ccc([nH]5)c(-c5ccc(S(=O)(=O)[O-])cc5)c5nc(c(-c6ccc(S(=O)(=O)[O-])cc6)c6ccc3[nH]6)C=C5)C=C4)cc2)cn1
REMARK SMILES IDX 18 1 17 2 16 3 14 4 15 5 13 7 10 8 11 9 84 10 12 11 83 12
REMARK SMILES IDX 9 13 8 15 7 16 1 17 2 18 3 19 4 20 5 21 6 22 19 23 20 24
REMARK SMILES IDX 21 25 22 27 23 28 24 29 82 30 25 31 81 32 26 33 27 34 28 35
REMARK SMILES IDX 75 36 29 37 80 38 74 39 76 40 30 41 79 42 73 43 72 44 31 46
REMARK SMILES IDX 61 47 42 48 60 49 43 50 46 51 59 52 77 53 44 54 45 55 58 57
REMARK SMILES IDX 78 58 47 59 32 60 33 61 41 62 34 63 40 64 35 65 36 66 37 67
REMARK SMILES IDX 38 68 39 69 62 70 63 71 71 72 64 73 70 74 65 75 66 76 67 77
REMARK SMILES IDX 68 78 69 79 48 80 49 81 57 82 50 83 56 84 51 85 52 86 53 87
REMARK SMILES IDX 54 88 55 89
REMARK H PARENT 16 6 9 14 20 26 76 45 46 56
REMARK Flexibility Score: inf
ROOT
ATOM      1  C   UNL A   1      32.827  28.226  26.025  1.00  0.00     0.042 C 
ENDROOT
BRANCH   1   2
ATOM      2  C   UNL A   1      32.918  29.232  24.884  1.00  0.00     0.118 C 
BRANCH   2   3
ATOM      3  N   UNL A   1      31.602  29.635  24.416  1.00  0.00    -0.351 N 
ATOM      4  C   UNL A   1      30.633  28.930  23.737  1.00  0.00     0.271 C 
ATOM      5  O   UNL A   1      29.579  29.511  23.473  1.00  0.00    -0.267 OA
ATOM      6  H   UNL A   1      31.363  30.567  24.619  1.00  0.00     0.163 HD
BRANCH   4   7
ATOM      7  C   UNL A   1      30.792  27.499  23.353  1.00  0.00     0.146 A 
ATOM      8  C   UNL A   1      31.165  24.844  22.918  1.00  0.00     0.144 A 
ATOM      9  C   UNL A   1      31.793  25.826  22.152  1.00  0.00     0.158 A 
ATOM     10  N   UNL A   1      30.287  25.195  23.877  1.00  0.00    -0.235 NA
ATOM     11  N   UNL A   1      31.628  27.156  22.347  1.00  0.00    -0.246 NA
ATOM     12  C   UNL A   1      30.115  26.531  24.081  1.00  0.00     0.147 A 
BRANCH   8  13
ATOM     13  N   UNL A   1      31.413  23.498  22.801  1.00  0.00    -0.365 N 
ATOM     14  H   UNL A   1      30.663  22.861  22.835  1.00  0.00     0.162 HD
BRANCH  13  15
ATOM     15  C   UNL A   1      32.765  23.004  22.626  1.00  0.00     0.156 C 
BRANCH  15  16
ATOM     16  C   UNL A   1      33.374  22.416  23.849  1.00  0.00     0.037 A 
ATOM     17  C   UNL A   1      34.739  24.443  24.786  1.00  0.00     0.071 C 
ATOM     18  C   UNL A   1      34.240  23.046  24.787  1.00  0.00     0.086 A 
ATOM     19  N   UNL A   1      34.601  22.202  25.762  1.00  0.00    -0.085 NA
ATOM     20  O   UNL A   1      33.978  21.004  25.473  1.00  0.00    -0.361 OA
ATOM     21  C   UNL A   1      33.251  21.132  24.333  1.00  0.00     0.138 A 
ATOM     22  C   UNL A   1      32.528  19.931  23.875  1.00  0.00     0.091 C 
ENDBRANCH  15  16
ENDBRANCH  13  15
ENDBRANCH   8  13
ENDBRANCH   4   7
ENDBRANCH   2   3
ENDBRANCH   1   2
BRANCH   1  23
ATOM     23  C   UNL A   1      33.814  28.523  27.151  1.00  0.00     0.118 C 
BRANCH  23  24
ATOM     24  N   UNL A   1      33.708  29.901  27.626  1.00  0.00    -0.352 N 
ATOM     25  C   UNL A   1      34.598  30.653  28.349  1.00  0.00     0.251 C 
ATOM     26  H   UNL A   1      32.870  30.360  27.390  1.00  0.00     0.163 HD
ATOM     27  O   UNL A   1      34.234  31.715  28.851  1.00  0.00    -0.269 OA
BRANCH  25  28
ATOM     28  C   UNL A   1      35.986  30.183  28.528  1.00  0.00     0.039 A 
ATOM     29  C   UNL A   1      36.865  30.211  27.442  1.00  0.00     0.014 A 
ATOM     30  C   UNL A   1      36.411  29.704  29.767  1.00  0.00     0.014 A 
ATOM     31  C   UNL A   1      38.193  29.816  27.619  1.00  0.00     0.010 A 
ATOM     32  C   UNL A   1      37.749  29.391  29.962  1.00  0.00     0.010 A 
ATOM     33  C   UNL A   1      38.653  29.435  28.889  1.00  0.00    -0.014 A 
BRANCH  33  34
ATOM     34  C   UNL A   1      40.062  29.045  29.139  1.00  0.00     0.031 A 
ATOM     35  C   UNL A   1      41.037  30.084  29.626  1.00  0.00     0.074 A 
ATOM     36  C   UNL A   1      40.487  27.806  28.827  1.00  0.00     0.049 A 
ATOM     37  N   UNL A   1      42.337  30.010  29.733  1.00  0.00    -0.248 NA
ATOM     38  C   UNL A   1      40.475  31.390  30.010  1.00  0.00     0.031 C 
ATOM     39  C   UNL A   1      39.641  26.716  28.331  1.00  0.00     0.029 A 
ATOM     40  N   UNL A   1      41.745  27.258  28.860  1.00  0.00    -0.354 N 
ATOM     41  C   UNL A   1      42.751  31.265  30.164  1.00  0.00     0.074 A 
ATOM     42  C   UNL A   1      41.570  32.094  30.254  1.00  0.00     0.031 C 
ATOM     43  C   UNL A   1      40.403  25.631  28.116  1.00  0.00     0.029 A 
ATOM     44  C   UNL A   1      41.795  25.961  28.405  1.00  0.00     0.049 A 
ATOM     45  H   UNL A   1      42.538  27.748  29.179  1.00  0.00     0.167 HD
ATOM     46  C   UNL A   1      44.001  31.685  30.469  1.00  0.00     0.031 A 
ATOM     47  C   UNL A   1      42.846  25.138  28.218  1.00  0.00     0.031 A 
ATOM     48  C   UNL A   1      45.167  30.848  30.392  1.00  0.00     0.049 A 
ATOM     49  C   UNL A   1      44.230  25.633  28.543  1.00  0.00     0.074 A 
ATOM     50  C   UNL A   1      46.473  31.160  30.725  1.00  0.00     0.029 A 
ATOM     51  N   UNL A   1      45.168  29.533  29.952  1.00  0.00    -0.354 N 
ATOM     52  N   UNL A   1      44.600  26.811  28.988  1.00  0.00    -0.248 NA
ATOM     53  C   UNL A   1      45.340  24.688  28.348  1.00  0.00     0.031 C 
ATOM     54  C   UNL A   1      47.272  30.051  30.435  1.00  0.00     0.029 A 
ATOM     55  C   UNL A   1      46.455  29.025  29.990  1.00  0.00     0.049 A 
ATOM     56  H   UNL A   1      44.372  29.034  29.658  1.00  0.00     0.167 HD
ATOM     57  C   UNL A   1      45.976  26.732  29.171  1.00  0.00     0.074 A 
ATOM     58  C   UNL A   1      46.375  25.395  28.784  1.00  0.00     0.031 C 
ATOM     59  C   UNL A   1      46.830  27.681  29.627  1.00  0.00     0.031 A 
BRANCH  46  60
ATOM     60  C   UNL A   1      44.173  33.117  30.903  1.00  0.00    -0.014 A 
ATOM     61  C   UNL A   1      44.410  34.140  29.966  1.00  0.00     0.010 A 
ATOM     62  C   UNL A   1      44.057  33.452  32.264  1.00  0.00     0.010 A 
ATOM     63  C   UNL A   1      44.573  35.462  30.387  1.00  0.00     0.020 A 
ATOM     64  C   UNL A   1      44.186  34.778  32.687  1.00  0.00     0.020 A 
ATOM     65  C   UNL A   1      44.461  35.773  31.746  1.00  0.00     0.054 A 
BRANCH  65  66
ATOM     66  S   UNL A   1      44.656  37.501  32.258  1.00  0.00     0.124 S 
ATOM     67  O   UNL A   1      44.152  38.219  31.090  1.00  0.00    -0.237 OA
ATOM     68  O   UNL A   1      43.819  37.577  33.453  1.00  0.00    -0.237 OA
ATOM     69  O   UNL A   1      46.092  37.632  32.497  1.00  0.00    -0.744 OA
ENDBRANCH  65  66
ENDBRANCH  46  60
BRANCH  47  70
ATOM     70  C   UNL A   1      42.627  23.757  27.703  1.00  0.00    -0.014 A 
ATOM     71  C   UNL A   1      42.287  22.715  28.583  1.00  0.00     0.010 A 
ATOM     72  C   UNL A   1      42.746  23.479  26.329  1.00  0.00     0.010 A 
ATOM     73  C   UNL A   1      42.089  21.417  28.102  1.00  0.00     0.020 A 
ATOM     74  C   UNL A   1      42.518  22.189  25.839  1.00  0.00     0.020 A 
ATOM     75  C   UNL A   1      42.203  21.163  26.732  1.00  0.00     0.054 A 
BRANCH  75  76
ATOM     76  S   UNL A   1      41.893  19.480  26.126  1.00  0.00     0.124 S 
ATOM     77  O   UNL A   1      42.780  19.407  24.969  1.00  0.00    -0.237 OA
ATOM     78  O   UNL A   1      42.277  18.659  27.271  1.00  0.00    -0.237 OA
ATOM     79  O   UNL A   1      40.464  19.484  25.822  1.00  0.00    -0.744 OA
ENDBRANCH  75  76
ENDBRANCH  47  70
BRANCH  59  80
ATOM     80  C   UNL A   1      48.275  27.303  29.812  1.00  0.00    -0.014 A 
ATOM     81  C   UNL A   1      49.229  27.516  28.803  1.00  0.00     0.010 A 
ATOM     82  C   UNL A   1      48.698  26.832  31.070  1.00  0.00     0.010 A 
ATOM     83  C   UNL A   1      50.581  27.261  29.048  1.00  0.00     0.020 A 
ATOM     84  C   UNL A   1      50.051  26.603  31.327  1.00  0.00     0.020 A 
ATOM     85  C   UNL A   1      50.984  26.816  30.312  1.00  0.00     0.054 A 
BRANCH  85  86
ATOM     86  S   UNL A   1      52.755  26.585  30.631  1.00  0.00     0.124 S 
ATOM     87  O   UNL A   1      52.755  25.442  31.539  1.00  0.00    -0.237 OA
ATOM     88  O   UNL A   1      53.289  26.329  29.296  1.00  0.00    -0.237 OA
ATOM     89  O   UNL A   1      53.168  27.854  31.228  1.00  0.00    -0.744 OA
ENDBRANCH  85  86
ENDBRANCH  59  80
ENDBRANCH  33  34
ENDBRANCH  25  28
ENDBRANCH  23  24
ENDBRANCH   1  23
TORSDOF 16
ENDMDL
