MODEL 1
REMARK VINA RESULT:     -12.9      0.000      0.000
REMARK SMILES Cc1cc(C(=O)NCCCNC(=O)c2ccc(-c3c4nc(c(-c5ccc(S(=O)(=O)[O-])cc5)c5ccc([nH]5)c(-c5ccc(S(=O)(=O)[O-])cc5)c5nc(c(-c6ccc(S(=O)(=O)[O-])cc6)c6ccc3[nH]6)C=C5)C=C4)cc2)cc(S(=O)(=O)NNC(=O)c2c[nH]c3ccccc23)c1C
REMARK SMILES IDX 8 1 7 2 5 3 6 4 4 6 1 7 2 8 3 9 92 10 75 11 93 12 74 13
REMARK SMILES IDX 76 14 77 15 78 16 79 17 80 19 81 20 82 22 83 23 84 24 91 25
REMARK SMILES IDX 85 26 86 27 90 28 87 30 89 31 88 32 9 33 10 34 11 35 12 36
REMARK SMILES IDX 13 38 14 39 15 40 73 41 16 42 72 43 17 44 18 45 19 46 66 47
REMARK SMILES IDX 20 48 71 49 65 50 67 51 21 52 70 53 64 54 63 55 22 57 52 58
REMARK SMILES IDX 33 59 51 60 34 61 37 62 50 63 68 64 35 65 36 66 49 68 69 69
REMARK SMILES IDX 38 70 23 71 24 72 32 73 25 74 31 75 26 76 27 77 28 78 29 79
REMARK SMILES IDX 30 80 53 81 54 82 62 83 55 84 61 85 56 86 57 87 58 88 59 89
REMARK SMILES IDX 60 90 39 91 40 92 48 93 41 94 47 95 42 96 43 97 44 98 45 99
REMARK SMILES IDX 46 100
REMARK H PARENT 7 5 79 18 80 21 85 29 11 37 67 56 37 67
REMARK Flexibility Score: inf
ROOT
ATOM      1  C   UNL A   1      33.518  30.479  26.753  1.00  0.00     0.118 C 
ENDROOT
BRANCH   1   2
ATOM      2  N   UNL A   1      32.682  29.532  27.475  1.00  0.00    -0.352 N 
ATOM      3  C   UNL A   1      31.939  28.441  27.101  1.00  0.00     0.251 C 
ATOM      4  O   UNL A   1      31.390  27.802  28.002  1.00  0.00    -0.269 OA
ATOM      5  H   UNL A   1      32.641  29.714  28.441  1.00  0.00     0.163 HD
BRANCH   3   6
ATOM      6  C   UNL A   1      31.773  27.956  25.698  1.00  0.00     0.041 A 
ATOM      7  C   UNL A   1      30.123  28.927  22.415  1.00  0.00     0.044 C 
ATOM      8  C   UNL A   1      30.917  28.119  23.409  1.00  0.00    -0.046 A 
ATOM      9  C   UNL A   1      30.989  28.589  24.734  1.00  0.00     0.017 A 
ATOM     10  C   UNL A   1      31.570  26.920  23.059  1.00  0.00    -0.028 A 
ATOM     11  C   UNL A   1      32.262  26.208  24.071  1.00  0.00     0.088 A 
ATOM     12  C   UNL A   1      31.517  26.399  21.642  1.00  0.00     0.046 C 
ATOM     13  C   UNL A   1      32.397  26.743  25.357  1.00  0.00     0.036 A 
BRANCH  11  14
ATOM     14  S   UNL A   1      32.820  24.550  23.724  1.00  0.00     0.257 S 
ATOM     15  O   UNL A   1      31.626  23.788  23.369  1.00  0.00    -0.205 OA
ATOM     16  O   UNL A   1      33.938  24.641  22.832  1.00  0.00    -0.205 OA
BRANCH  14  17
ATOM     17  N   UNL A   1      33.457  23.873  25.154  1.00  0.00    -0.123 NA
ATOM     18  H   UNL A   1      32.846  24.169  25.915  1.00  0.00     0.167 HD
BRANCH  17  19
ATOM     19  N   UNL A   1      33.615  22.416  25.280  1.00  0.00    -0.273 N 
ATOM     20  C   UNL A   1      34.544  21.894  26.170  1.00  0.00     0.268 C 
ATOM     21  H   UNL A   1      33.063  21.811  24.734  1.00  0.00     0.186 HD
ATOM     22  O   UNL A   1      34.208  21.401  27.242  1.00  0.00    -0.268 OA
BRANCH  20  23
ATOM     23  C   UNL A   1      35.868  21.699  25.579  1.00  0.00     0.066 A 
ATOM     24  C   UNL A   1      36.282  20.585  24.868  1.00  0.00     0.097 A 
ATOM     25  C   UNL A   1      37.055  22.485  25.764  1.00  0.00     0.012 A 
ATOM     26  N   UNL A   1      37.614  20.426  25.133  1.00  0.00    -0.360 N 
ATOM     27  C   UNL A   1      38.115  21.581  25.679  1.00  0.00     0.046 A 
ATOM     28  C   UNL A   1      37.344  23.813  26.136  1.00  0.00     0.011 A 
ATOM     29  H   UNL A   1      38.134  19.609  24.959  1.00  0.00     0.166 HD
ATOM     30  C   UNL A   1      39.406  21.877  26.123  1.00  0.00     0.027 A 
ATOM     31  C   UNL A   1      38.666  24.165  26.449  1.00  0.00     0.001 A 
ATOM     32  C   UNL A   1      39.665  23.195  26.499  1.00  0.00     0.002 A 
ENDBRANCH  20  23
ENDBRANCH  17  19
ENDBRANCH  14  17
ENDBRANCH  11  14
ENDBRANCH   3   6
ENDBRANCH   1   2
BRANCH   1  33
ATOM     33  C   UNL A   1      34.633  31.044  27.637  1.00  0.00     0.042 C 
BRANCH  33  34
ATOM     34  C   UNL A   1      35.484  29.968  28.317  1.00  0.00     0.118 C 
BRANCH  34  35
ATOM     35  N   UNL A   1      35.511  30.124  29.764  1.00  0.00    -0.352 N 
ATOM     36  C   UNL A   1      36.515  29.873  30.668  1.00  0.00     0.251 C 
ATOM     37  H   UNL A   1      34.676  30.463  30.159  1.00  0.00     0.163 HD
ATOM     38  O   UNL A   1      36.249  29.890  31.868  1.00  0.00    -0.269 OA
BRANCH  36  39
ATOM     39  C   UNL A   1      37.896  29.571  30.224  1.00  0.00     0.039 A 
ATOM     40  C   UNL A   1      38.820  29.119  31.172  1.00  0.00     0.014 A 
ATOM     41  C   UNL A   1      38.305  29.788  28.906  1.00  0.00     0.014 A 
ATOM     42  C   UNL A   1      40.135  28.834  30.790  1.00  0.00     0.010 A 
ATOM     43  C   UNL A   1      39.601  29.447  28.513  1.00  0.00     0.010 A 
ATOM     44  C   UNL A   1      40.530  28.969  29.450  1.00  0.00    -0.014 A 
BRANCH  44  45
ATOM     45  C   UNL A   1      41.904  28.608  29.010  1.00  0.00     0.031 A 
ATOM     46  C   UNL A   1      42.986  29.655  28.957  1.00  0.00     0.074 A 
ATOM     47  C   UNL A   1      42.162  27.353  28.595  1.00  0.00     0.049 A 
ATOM     48  N   UNL A   1      44.218  29.546  28.526  1.00  0.00    -0.248 NA
ATOM     49  C   UNL A   1      42.632  31.002  29.430  1.00  0.00     0.031 C 
ATOM     50  C   UNL A   1      41.192  26.255  28.567  1.00  0.00     0.029 A 
ATOM     51  N   UNL A   1      43.314  26.790  28.103  1.00  0.00    -0.354 N 
ATOM     52  C   UNL A   1      44.779  30.812  28.655  1.00  0.00     0.074 A 
ATOM     53  C   UNL A   1      43.741  31.681  29.168  1.00  0.00     0.031 C 
ATOM     54  C   UNL A   1      41.795  25.148  28.102  1.00  0.00     0.029 A 
ATOM     55  C   UNL A   1      43.179  25.465  27.760  1.00  0.00     0.049 A 
ATOM     56  H   UNL A   1      44.157  27.288  28.007  1.00  0.00     0.167 HD
ATOM     57  C   UNL A   1      46.044  31.213  28.384  1.00  0.00     0.031 A 
ATOM     58  C   UNL A   1      44.062  24.603  27.221  1.00  0.00     0.031 A 
ATOM     59  C   UNL A   1      47.078  30.344  27.884  1.00  0.00     0.049 A 
ATOM     60  C   UNL A   1      45.460  25.071  26.924  1.00  0.00     0.074 A 
ATOM     61  C   UNL A   1      48.405  30.645  27.627  1.00  0.00     0.029 A 
ATOM     62  N   UNL A   1      46.903  29.006  27.566  1.00  0.00    -0.354 N 
ATOM     63  N   UNL A   1      45.984  26.261  27.102  1.00  0.00    -0.248 NA
ATOM     64  C   UNL A   1      46.387  24.079  26.363  1.00  0.00     0.031 C 
ATOM     65  C   UNL A   1      49.021  29.500  27.112  1.00  0.00     0.029 A 
ATOM     66  C   UNL A   1      48.092  28.471  27.097  1.00  0.00     0.049 A 
ATOM     67  H   UNL A   1      46.058  28.509  27.658  1.00  0.00     0.167 HD
ATOM     68  C   UNL A   1      47.311  26.152  26.701  1.00  0.00     0.074 A 
ATOM     69  C   UNL A   1      47.511  24.780  26.282  1.00  0.00     0.031 C 
ATOM     70  C   UNL A   1      48.276  27.103  26.684  1.00  0.00     0.031 A 
BRANCH  57  71
ATOM     71  C   UNL A   1      46.380  32.663  28.615  1.00  0.00    -0.014 A 
ATOM     72  C   UNL A   1      46.984  33.088  29.813  1.00  0.00     0.010 A 
ATOM     73  C   UNL A   1      46.123  33.610  27.606  1.00  0.00     0.010 A 
ATOM     74  C   UNL A   1      47.281  34.437  30.017  1.00  0.00     0.020 A 
ATOM     75  C   UNL A   1      46.446  34.958  27.795  1.00  0.00     0.020 A 
ATOM     76  C   UNL A   1      47.006  35.365  29.007  1.00  0.00     0.054 A 
BRANCH  76  77
ATOM     77  S   UNL A   1      47.417  37.109  29.293  1.00  0.00     0.124 S 
ATOM     78  O   UNL A   1      48.711  37.225  28.624  1.00  0.00    -0.237 OA
ATOM     79  O   UNL A   1      46.312  37.811  28.645  1.00  0.00    -0.237 OA
ATOM     80  O   UNL A   1      47.456  37.222  30.749  1.00  0.00    -0.744 OA
ENDBRANCH  76  77
ENDBRANCH  57  71
BRANCH  58  81
ATOM     81  C   UNL A   1      43.651  23.201  26.938  1.00  0.00    -0.014 A 
ATOM     82  C   UNL A   1      43.902  22.624  25.681  1.00  0.00     0.010 A 
ATOM     83  C   UNL A   1      43.025  22.428  27.933  1.00  0.00     0.010 A 
ATOM     84  C   UNL A   1      43.522  21.306  25.417  1.00  0.00     0.020 A 
ATOM     85  C   UNL A   1      42.667  21.100  27.682  1.00  0.00     0.020 A 
ATOM     86  C   UNL A   1      42.909  20.550  26.421  1.00  0.00     0.054 A 
BRANCH  86  87
ATOM     87  S   UNL A   1      42.478  18.822  26.078  1.00  0.00     0.124 S 
ATOM     88  O   UNL A   1      41.068  18.925  25.718  1.00  0.00    -0.237 OA
ATOM     89  O   UNL A   1      43.387  18.481  24.986  1.00  0.00    -0.237 OA
ATOM     90  O   UNL A   1      42.756  18.144  27.342  1.00  0.00    -0.744 OA
ENDBRANCH  86  87
ENDBRANCH  58  81
BRANCH  70  91
ATOM     91  C   UNL A   1      49.649  26.687  26.229  1.00  0.00    -0.014 A 
ATOM     92  C   UNL A   1      50.512  25.969  27.075  1.00  0.00     0.010 A 
ATOM     93  C   UNL A   1      50.060  26.973  24.914  1.00  0.00     0.010 A 
ATOM     94  C   UNL A   1      51.773  25.570  26.624  1.00  0.00     0.020 A 
ATOM     95  C   UNL A   1      51.309  26.554  24.450  1.00  0.00     0.020 A 
ATOM     96  C   UNL A   1      52.164  25.866  25.313  1.00  0.00     0.054 A 
BRANCH  96  97
ATOM     97  S   UNL A   1      53.787  25.298  24.735  1.00  0.00     0.124 S 
ATOM     98  O   UNL A   1      53.846  25.864  23.391  1.00  0.00    -0.237 OA
ATOM     99  O   UNL A   1      54.701  25.893  25.708  1.00  0.00    -0.237 OA
ATOM    100  O   UNL A   1      53.685  23.842  24.795  1.00  0.00    -0.744 OA
ENDBRANCH  96  97
ENDBRANCH  70  91
ENDBRANCH  44  45
ENDBRANCH  36  39
ENDBRANCH  34  35
ENDBRANCH  33  34
ENDBRANCH   1  33
TORSDOF 17
ENDMDL
MODEL 2
REMARK VINA RESULT:     -12.6      1.992      8.926
REMARK SMILES Cc1cc(C(=O)NCCCNC(=O)c2ccc(-c3c4nc(c(-c5ccc(S(=O)(=O)[O-])cc5)c5ccc([nH]5)c(-c5ccc(S(=O)(=O)[O-])cc5)c5nc(c(-c6ccc(S(=O)(=O)[O-])cc6)c6ccc3[nH]6)C=C5)C=C4)cc2)cc(S(=O)(=O)NNC(=O)c2c[nH]c3ccccc23)c1C
REMARK SMILES IDX 8 1 7 2 5 3 6 4 4 6 1 7 2 8 3 9 92 10 75 11 93 12 74 13
REMARK SMILES IDX 76 14 77 15 78 16 79 17 80 19 81 20 82 22 83 23 84 24 91 25
REMARK SMILES IDX 85 26 86 27 90 28 87 30 89 31 88 32 9 33 10 34 11 35 12 36
REMARK SMILES IDX 13 38 14 39 15 40 73 41 16 42 72 43 17 44 18 45 19 46 66 47
REMARK SMILES IDX 20 48 71 49 65 50 67 51 21 52 70 53 64 54 63 55 22 57 52 58
REMARK SMILES IDX 33 59 51 60 34 61 37 62 50 63 68 64 35 65 36 66 49 68 69 69
REMARK SMILES IDX 38 70 23 71 24 72 32 73 25 74 31 75 26 76 27 77 28 78 29 79
REMARK SMILES IDX 30 80 53 81 54 82 62 83 55 84 61 85 56 86 57 87 58 88 59 89
REMARK SMILES IDX 60 90 39 91 40 92 48 93 41 94 47 95 42 96 43 97 44 98 45 99
REMARK SMILES IDX 46 100
REMARK H PARENT 7 5 79 18 80 21 85 29 11 37 67 56 37 67
REMARK Flexibility Score: inf
ROOT
ATOM      1  C   UNL A   1      37.770  20.188  24.628  1.00  0.00     0.118 C 
ENDROOT
BRANCH   1   2
ATOM      2  N   UNL A   1      37.981  21.551  25.091  1.00  0.00    -0.352 N 
ATOM      3  C   UNL A   1      37.208  22.685  25.099  1.00  0.00     0.251 C 
ATOM      4  O   UNL A   1      37.682  23.683  25.646  1.00  0.00    -0.269 OA
ATOM      5  H   UNL A   1      38.872  21.690  25.485  1.00  0.00     0.163 HD
BRANCH   3   6
ATOM      6  C   UNL A   1      35.832  22.788  24.526  1.00  0.00     0.041 A 
ATOM      7  C   UNL A   1      33.657  25.137  22.477  1.00  0.00     0.044 C 
ATOM      8  C   UNL A   1      34.058  23.923  23.276  1.00  0.00    -0.046 A 
ATOM      9  C   UNL A   1      35.344  23.904  23.847  1.00  0.00     0.017 A 
ATOM     10  C   UNL A   1      33.192  22.828  23.472  1.00  0.00    -0.028 A 
ATOM     11  C   UNL A   1      33.644  21.745  24.270  1.00  0.00     0.088 A 
ATOM     12  C   UNL A   1      31.811  22.817  22.862  1.00  0.00     0.046 C 
ATOM     13  C   UNL A   1      34.958  21.709  24.749  1.00  0.00     0.036 A 
BRANCH  11  14
ATOM     14  S   UNL A   1      32.464  20.511  24.786  1.00  0.00     0.257 S 
ATOM     15  O   UNL A   1      31.989  19.870  23.563  1.00  0.00    -0.205 OA
ATOM     16  O   UNL A   1      33.061  19.749  25.843  1.00  0.00    -0.205 OA
BRANCH  14  17
ATOM     17  N   UNL A   1      31.132  21.292  25.509  1.00  0.00    -0.123 NA
ATOM     18  H   UNL A   1      30.491  20.558  25.810  1.00  0.00     0.167 HD
BRANCH  17  19
ATOM     19  N   UNL A   1      31.329  22.180  26.666  1.00  0.00    -0.273 N 
ATOM     20  C   UNL A   1      30.711  23.423  26.699  1.00  0.00     0.268 C 
ATOM     21  H   UNL A   1      31.899  21.894  27.415  1.00  0.00     0.186 HD
ATOM     22  O   UNL A   1      29.725  23.637  27.395  1.00  0.00    -0.268 OA
BRANCH  20  23
ATOM     23  C   UNL A   1      31.519  24.489  26.104  1.00  0.00     0.066 A 
ATOM     24  C   UNL A   1      32.817  24.816  26.460  1.00  0.00     0.097 A 
ATOM     25  C   UNL A   1      31.106  25.526  25.203  1.00  0.00     0.012 A 
ATOM     26  N   UNL A   1      32.937  26.168  26.292  1.00  0.00    -0.360 N 
ATOM     27  C   UNL A   1      31.903  26.629  25.518  1.00  0.00     0.046 A 
ATOM     28  C   UNL A   1      30.065  25.704  24.270  1.00  0.00     0.011 A 
ATOM     29  H   UNL A   1      33.656  26.724  26.668  1.00  0.00     0.166 HD
ATOM     30  C   UNL A   1      31.603  27.928  25.103  1.00  0.00     0.027 A 
ATOM     31  C   UNL A   1      29.839  26.981  23.731  1.00  0.00     0.001 A 
ATOM     32  C   UNL A   1      30.558  28.083  24.190  1.00  0.00     0.002 A 
ENDBRANCH  20  23
ENDBRANCH  17  19
ENDBRANCH  14  17
ENDBRANCH  11  14
ENDBRANCH   3   6
ENDBRANCH   1   2
BRANCH   1  33
ATOM     33  C   UNL A   1      38.648  19.187  25.385  1.00  0.00     0.042 C 
BRANCH  33  34
ATOM     34  C   UNL A   1      39.836  19.831  26.104  1.00  0.00     0.118 C 
BRANCH  34  35
ATOM     35  N   UNL A   1      41.008  18.968  26.107  1.00  0.00    -0.352 N 
ATOM     36  C   UNL A   1      42.346  19.281  26.108  1.00  0.00     0.251 C 
ATOM     37  H   UNL A   1      40.811  18.003  26.108  1.00  0.00     0.163 HD
ATOM     38  O   UNL A   1      43.164  18.386  25.911  1.00  0.00    -0.269 OA
BRANCH  36  39
ATOM     39  C   UNL A   1      42.812  20.670  26.328  1.00  0.00     0.039 A 
ATOM     40  C   UNL A   1      43.249  21.412  25.225  1.00  0.00     0.014 A 
ATOM     41  C   UNL A   1      42.883  21.226  27.608  1.00  0.00     0.014 A 
ATOM     42  C   UNL A   1      43.705  22.723  25.396  1.00  0.00     0.010 A 
ATOM     43  C   UNL A   1      43.282  22.554  27.771  1.00  0.00     0.010 A 
ATOM     44  C   UNL A   1      43.699  23.316  26.669  1.00  0.00    -0.014 A 
BRANCH  44  45
ATOM     45  C   UNL A   1      44.117  24.729  26.864  1.00  0.00     0.031 A 
ATOM     46  C   UNL A   1      45.556  25.131  26.674  1.00  0.00     0.074 A 
ATOM     47  C   UNL A   1      43.213  25.640  27.276  1.00  0.00     0.049 A 
ATOM     48  N   UNL A   1      46.120  26.296  26.876  1.00  0.00    -0.248 NA
ATOM     49  C   UNL A   1      46.485  24.085  26.219  1.00  0.00     0.031 C 
ATOM     50  C   UNL A   1      41.795  25.371  27.527  1.00  0.00     0.029 A 
ATOM     51  N   UNL A   1      43.355  26.974  27.571  1.00  0.00    -0.354 N 
ATOM     52  C   UNL A   1      47.470  26.118  26.595  1.00  0.00     0.074 A 
ATOM     53  C   UNL A   1      47.646  24.724  26.245  1.00  0.00     0.031 C 
ATOM     54  C   UNL A   1      41.195  26.507  27.919  1.00  0.00     0.029 A 
ATOM     55  C   UNL A   1      42.190  27.574  27.988  1.00  0.00     0.049 A 
ATOM     56  H   UNL A   1      44.210  27.455  27.490  1.00  0.00     0.167 HD
ATOM     57  C   UNL A   1      48.471  27.032  26.613  1.00  0.00     0.031 A 
ATOM     58  C   UNL A   1      41.948  28.836  28.391  1.00  0.00     0.031 A 
ATOM     59  C   UNL A   1      48.292  28.420  26.950  1.00  0.00     0.049 A 
ATOM     60  C   UNL A   1      43.074  29.832  28.407  1.00  0.00     0.074 A 
ATOM     61  C   UNL A   1      49.233  29.434  26.946  1.00  0.00     0.029 A 
ATOM     62  N   UNL A   1      47.092  28.990  27.350  1.00  0.00    -0.354 N 
ATOM     63  N   UNL A   1      44.333  29.655  28.086  1.00  0.00    -0.248 NA
ATOM     64  C   UNL A   1      42.744  31.201  28.828  1.00  0.00     0.031 C 
ATOM     65  C   UNL A   1      48.613  30.609  27.387  1.00  0.00     0.029 A 
ATOM     66  C   UNL A   1      47.273  30.338  27.614  1.00  0.00     0.049 A 
ATOM     67  H   UNL A   1      46.238  28.507  27.434  1.00  0.00     0.167 HD
ATOM     68  C   UNL A   1      44.941  30.897  28.242  1.00  0.00     0.074 A 
ATOM     69  C   UNL A   1      43.909  31.816  28.673  1.00  0.00     0.031 C 
ATOM     70  C   UNL A   1      46.236  31.241  28.043  1.00  0.00     0.031 A 
BRANCH  57  71
ATOM     71  C   UNL A   1      49.856  26.554  26.264  1.00  0.00    -0.014 A 
ATOM     72  C   UNL A   1      50.382  26.730  24.971  1.00  0.00     0.010 A 
ATOM     73  C   UNL A   1      50.659  25.956  27.253  1.00  0.00     0.010 A 
ATOM     74  C   UNL A   1      51.665  26.275  24.660  1.00  0.00     0.020 A 
ATOM     75  C   UNL A   1      51.956  25.524  26.953  1.00  0.00     0.020 A 
ATOM     76  C   UNL A   1      52.443  25.670  25.653  1.00  0.00     0.054 A 
BRANCH  76  77
ATOM     77  S   UNL A   1      54.112  25.101  25.226  1.00  0.00     0.124 S 
ATOM     78  O   UNL A   1      54.398  25.887  24.027  1.00  0.00    -0.237 OA
ATOM     79  O   UNL A   1      54.888  25.460  26.410  1.00  0.00    -0.237 OA
ATOM     80  O   UNL A   1      53.944  23.667  25.004  1.00  0.00    -0.744 OA
ENDBRANCH  76  77
ENDBRANCH  57  71
BRANCH  58  81
ATOM     81  C   UNL A   1      40.573  29.232  28.801  1.00  0.00    -0.014 A 
ATOM     82  C   UNL A   1      40.267  29.444  30.158  1.00  0.00     0.010 A 
ATOM     83  C   UNL A   1      39.568  29.420  27.836  1.00  0.00     0.010 A 
ATOM     84  C   UNL A   1      38.979  29.821  30.543  1.00  0.00     0.020 A 
ATOM     85  C   UNL A   1      38.284  29.824  28.214  1.00  0.00     0.020 A 
ATOM     86  C   UNL A   1      37.995  30.012  29.569  1.00  0.00     0.054 A 
BRANCH  86  87
ATOM     87  S   UNL A   1      36.344  30.561  30.084  1.00  0.00     0.124 S 
ATOM     88  O   UNL A   1      36.571  31.972  30.378  1.00  0.00    -0.237 OA
ATOM     89  O   UNL A   1      35.535  30.283  28.901  1.00  0.00    -0.237 OA
ATOM     90  O   UNL A   1      36.051  29.718  31.241  1.00  0.00    -0.744 OA
ENDBRANCH  86  87
ENDBRANCH  58  81
BRANCH  70  91
ATOM     91  C   UNL A   1      46.608  32.684  28.255  1.00  0.00    -0.014 A 
ATOM     92  C   UNL A   1      46.521  33.621  27.210  1.00  0.00     0.010 A 
ATOM     93  C   UNL A   1      46.998  33.118  29.535  1.00  0.00     0.010 A 
ATOM     94  C   UNL A   1      46.846  34.962  27.436  1.00  0.00     0.020 A 
ATOM     95  C   UNL A   1      47.299  34.461  29.771  1.00  0.00     0.020 A 
ATOM     96  C   UNL A   1      47.234  35.374  28.715  1.00  0.00     0.054 A 
BRANCH  96  97
ATOM     97  S   UNL A   1      47.607  37.127  28.994  1.00  0.00     0.124 S 
ATOM     98  O   UNL A   1      48.745  37.053  29.907  1.00  0.00    -0.237 OA
ATOM     99  O   UNL A   1      47.911  37.609  27.649  1.00  0.00    -0.237 OA
ATOM    100  O   UNL A   1      46.375  37.654  29.575  1.00  0.00    -0.744 OA
ENDBRANCH  96  97
ENDBRANCH  70  91
ENDBRANCH  44  45
ENDBRANCH  36  39
ENDBRANCH  34  35
ENDBRANCH  33  34
ENDBRANCH   1  33
TORSDOF 17
ENDMDL
MODEL 3
REMARK VINA RESULT:     -12.6      2.538      8.783
REMARK SMILES Cc1cc(C(=O)NCCCNC(=O)c2ccc(-c3c4nc(c(-c5ccc(S(=O)(=O)[O-])cc5)c5ccc([nH]5)c(-c5ccc(S(=O)(=O)[O-])cc5)c5nc(c(-c6ccc(S(=O)(=O)[O-])cc6)c6ccc3[nH]6)C=C5)C=C4)cc2)cc(S(=O)(=O)NNC(=O)c2c[nH]c3ccccc23)c1C
REMARK SMILES IDX 8 1 7 2 5 3 6 4 4 6 1 7 2 8 3 9 92 10 75 11 93 12 74 13
REMARK SMILES IDX 76 14 77 15 78 16 79 17 80 19 81 20 82 22 83 23 84 24 91 25
REMARK SMILES IDX 85 26 86 27 90 28 87 30 89 31 88 32 9 33 10 34 11 35 12 36
REMARK SMILES IDX 13 38 14 39 15 40 73 41 16 42 72 43 17 44 18 45 19 46 66 47
REMARK SMILES IDX 20 48 71 49 65 50 67 51 21 52 70 53 64 54 63 55 22 57 52 58
REMARK SMILES IDX 33 59 51 60 34 61 37 62 50 63 68 64 35 65 36 66 49 68 69 69
REMARK SMILES IDX 38 70 23 71 24 72 32 73 25 74 31 75 26 76 27 77 28 78 29 79
REMARK SMILES IDX 30 80 53 81 54 82 62 83 55 84 61 85 56 86 57 87 58 88 59 89
REMARK SMILES IDX 60 90 39 91 40 92 48 93 41 94 47 95 42 96 43 97 44 98 45 99
REMARK SMILES IDX 46 100
REMARK H PARENT 7 5 79 18 80 21 85 29 11 37 67 56 37 67
REMARK Flexibility Score: inf
ROOT
ATOM      1  C   UNL A   1      37.525  20.794  24.752  1.00  0.00     0.118 C 
ENDROOT
BRANCH   1   2
ATOM      2  N   UNL A   1      37.983  22.098  25.206  1.00  0.00    -0.352 N 
ATOM      3  C   UNL A   1      37.346  23.223  25.668  1.00  0.00     0.251 C 
ATOM      4  O   UNL A   1      38.060  24.156  26.043  1.00  0.00    -0.269 OA
ATOM      5  H   UNL A   1      38.962  22.195  25.176  1.00  0.00     0.163 HD
BRANCH   3   6
ATOM      6  C   UNL A   1      35.865  23.386  25.776  1.00  0.00     0.041 A 
ATOM      7  C   UNL A   1      32.969  22.577  28.101  1.00  0.00     0.044 C 
ATOM      8  C   UNL A   1      33.705  23.100  26.893  1.00  0.00    -0.046 A 
ATOM      9  C   UNL A   1      35.090  22.863  26.811  1.00  0.00     0.017 A 
ATOM     10  C   UNL A   1      33.054  23.798  25.856  1.00  0.00    -0.028 A 
ATOM     11  C   UNL A   1      33.822  24.219  24.740  1.00  0.00     0.088 A 
ATOM     12  C   UNL A   1      31.570  24.073  25.924  1.00  0.00     0.046 C 
ATOM     13  C   UNL A   1      35.211  24.054  24.726  1.00  0.00     0.036 A 
BRANCH  11  14
ATOM     14  S   UNL A   1      32.972  24.816  23.291  1.00  0.00     0.257 S 
ATOM     15  O   UNL A   1      32.081  25.876  23.753  1.00  0.00    -0.205 OA
ATOM     16  O   UNL A   1      33.954  25.058  22.275  1.00  0.00    -0.205 OA
BRANCH  14  17
ATOM     17  N   UNL A   1      32.000  23.561  22.668  1.00  0.00    -0.123 NA
ATOM     18  H   UNL A   1      31.417  23.976  21.941  1.00  0.00     0.167 HD
BRANCH  17  19
ATOM     19  N   UNL A   1      32.620  22.364  22.079  1.00  0.00    -0.273 N 
ATOM     20  C   UNL A   1      31.939  21.154  22.091  1.00  0.00     0.268 C 
ATOM     21  H   UNL A   1      33.516  22.419  21.677  1.00  0.00     0.186 HD
ATOM     22  O   UNL A   1      31.403  20.702  21.085  1.00  0.00    -0.268 OA
BRANCH  20  23
ATOM     23  C   UNL A   1      32.201  20.352  23.287  1.00  0.00     0.066 A 
ATOM     24  C   UNL A   1      32.153  20.807  24.594  1.00  0.00     0.097 A 
ATOM     25  C   UNL A   1      32.743  19.026  23.373  1.00  0.00     0.012 A 
ATOM     26  N   UNL A   1      33.101  20.105  25.285  1.00  0.00    -0.360 N 
ATOM     27  C   UNL A   1      33.477  19.003  24.561  1.00  0.00     0.046 A 
ATOM     28  C   UNL A   1      32.820  17.904  22.524  1.00  0.00     0.011 A 
ATOM     29  H   UNL A   1      33.459  20.353  26.168  1.00  0.00     0.166 HD
ATOM     30  C   UNL A   1      34.420  18.016  24.854  1.00  0.00     0.027 A 
ATOM     31  C   UNL A   1      33.658  16.835  22.875  1.00  0.00     0.001 A 
ATOM     32  C   UNL A   1      34.488  16.921  23.991  1.00  0.00     0.002 A 
ENDBRANCH  20  23
ENDBRANCH  17  19
ENDBRANCH  14  17
ENDBRANCH  11  14
ENDBRANCH   3   6
ENDBRANCH   1   2
BRANCH   1  33
ATOM     33  C   UNL A   1      38.568  19.702  25.013  1.00  0.00     0.042 C 
BRANCH  33  34
ATOM     34  C   UNL A   1      39.523  20.027  26.164  1.00  0.00     0.118 C 
BRANCH  34  35
ATOM     35  N   UNL A   1      40.718  19.195  26.136  1.00  0.00    -0.352 N 
ATOM     36  C   UNL A   1      42.046  19.545  26.101  1.00  0.00     0.251 C 
ATOM     37  H   UNL A   1      40.547  18.226  26.141  1.00  0.00     0.163 HD
ATOM     38  O   UNL A   1      42.883  18.672  25.882  1.00  0.00    -0.269 OA
BRANCH  36  39
ATOM     39  C   UNL A   1      42.480  20.946  26.310  1.00  0.00     0.039 A 
ATOM     40  C   UNL A   1      42.652  21.406  27.620  1.00  0.00     0.014 A 
ATOM     41  C   UNL A   1      42.658  21.826  25.239  1.00  0.00     0.014 A 
ATOM     42  C   UNL A   1      43.051  22.725  27.855  1.00  0.00     0.010 A 
ATOM     43  C   UNL A   1      43.114  23.125  25.472  1.00  0.00     0.010 A 
ATOM     44  C   UNL A   1      43.313  23.590  26.781  1.00  0.00    -0.014 A 
BRANCH  44  45
ATOM     45  C   UNL A   1      43.803  24.975  27.007  1.00  0.00     0.031 A 
ATOM     46  C   UNL A   1      45.260  25.308  26.823  1.00  0.00     0.074 A 
ATOM     47  C   UNL A   1      42.947  25.920  27.444  1.00  0.00     0.049 A 
ATOM     48  N   UNL A   1      45.883  26.437  27.050  1.00  0.00    -0.248 NA
ATOM     49  C   UNL A   1      46.133  24.226  26.340  1.00  0.00     0.031 C 
ATOM     50  C   UNL A   1      41.517  25.718  27.692  1.00  0.00     0.029 A 
ATOM     51  N   UNL A   1      43.157  27.238  27.769  1.00  0.00    -0.354 N 
ATOM     52  C   UNL A   1      47.222  26.197  26.761  1.00  0.00     0.074 A 
ATOM     53  C   UNL A   1      47.326  24.805  26.378  1.00  0.00     0.031 C 
ATOM     54  C   UNL A   1      40.977  26.873  28.113  1.00  0.00     0.029 A 
ATOM     55  C   UNL A   1      42.025  27.886  28.204  1.00  0.00     0.049 A 
ATOM     56  H   UNL A   1      44.035  27.676  27.697  1.00  0.00     0.167 HD
ATOM     57  C   UNL A   1      48.267  27.058  26.797  1.00  0.00     0.031 A 
ATOM     58  C   UNL A   1      41.848  29.149  28.637  1.00  0.00     0.031 A 
ATOM     59  C   UNL A   1      48.160  28.445  27.168  1.00  0.00     0.049 A 
ATOM     60  C   UNL A   1      43.023  30.087  28.673  1.00  0.00     0.074 A 
ATOM     61  C   UNL A   1      49.151  29.411  27.185  1.00  0.00     0.029 A 
ATOM     62  N   UNL A   1      46.992  29.066  27.584  1.00  0.00    -0.354 N 
ATOM     63  N   UNL A   1      44.272  29.853  28.345  1.00  0.00    -0.248 NA
ATOM     64  C   UNL A   1      42.764  31.460  29.127  1.00  0.00     0.031 C 
ATOM     65  C   UNL A   1      48.593  30.604  27.655  1.00  0.00     0.029 A 
ATOM     66  C   UNL A   1      47.241  30.396  27.880  1.00  0.00     0.049 A 
ATOM     67  H   UNL A   1      46.114  28.625  27.660  1.00  0.00     0.167 HD
ATOM     68  C   UNL A   1      44.941  31.058  28.528  1.00  0.00     0.074 A 
ATOM     69  C   UNL A   1      43.958  32.019  28.983  1.00  0.00     0.031 C 
ATOM     70  C   UNL A   1      46.253  31.341  28.332  1.00  0.00     0.031 A 
BRANCH  57  71
ATOM     71  C   UNL A   1      49.626  26.519  26.434  1.00  0.00    -0.014 A 
ATOM     72  C   UNL A   1      50.091  26.555  25.106  1.00  0.00     0.010 A 
ATOM     73  C   UNL A   1      50.467  26.005  27.438  1.00  0.00     0.010 A 
ATOM     74  C   UNL A   1      51.350  26.044  24.782  1.00  0.00     0.020 A 
ATOM     75  C   UNL A   1      51.740  25.519  27.122  1.00  0.00     0.020 A 
ATOM     76  C   UNL A   1      52.165  25.524  25.793  1.00  0.00     0.054 A 
BRANCH  76  77
ATOM     77  S   UNL A   1      53.802  24.881  25.346  1.00  0.00     0.124 S 
ATOM     78  O   UNL A   1      54.166  25.742  24.223  1.00  0.00    -0.237 OA
ATOM     79  O   UNL A   1      54.574  25.087  26.569  1.00  0.00    -0.237 OA
ATOM     80  O   UNL A   1      53.544  23.485  25.001  1.00  0.00    -0.744 OA
ENDBRANCH  76  77
ENDBRANCH  57  71
BRANCH  58  81
ATOM     81  C   UNL A   1      40.496  29.604  29.061  1.00  0.00    -0.014 A 
ATOM     82  C   UNL A   1      39.476  29.792  28.111  1.00  0.00     0.010 A 
ATOM     83  C   UNL A   1      40.214  29.832  30.421  1.00  0.00     0.010 A 
ATOM     84  C   UNL A   1      38.205  30.213  28.509  1.00  0.00     0.020 A 
ATOM     85  C   UNL A   1      38.937  30.228  30.826  1.00  0.00     0.020 A 
ATOM     86  C   UNL A   1      37.942  30.426  29.865  1.00  0.00     0.054 A 
BRANCH  86  87
ATOM     87  S   UNL A   1      36.268  30.915  30.368  1.00  0.00     0.124 S 
ATOM     88  O   UNL A   1      35.535  30.826  29.110  1.00  0.00    -0.237 OA
ATOM     89  O   UNL A   1      35.933  29.906  31.370  1.00  0.00    -0.237 OA
ATOM     90  O   UNL A   1      36.452  32.266  30.894  1.00  0.00    -0.744 OA
ENDBRANCH  86  87
ENDBRANCH  58  81
BRANCH  70  91
ATOM     91  C   UNL A   1      46.698  32.758  28.577  1.00  0.00    -0.014 A 
ATOM     92  C   UNL A   1      46.627  33.730  27.565  1.00  0.00     0.010 A 
ATOM     93  C   UNL A   1      47.142  33.133  29.859  1.00  0.00     0.010 A 
ATOM     94  C   UNL A   1      47.021  35.046  27.821  1.00  0.00     0.020 A 
ATOM     95  C   UNL A   1      47.512  34.453  30.126  1.00  0.00     0.020 A 
ATOM     96  C   UNL A   1      47.462  35.400  29.101  1.00  0.00     0.054 A 
BRANCH  96  97
ATOM     97  S   UNL A   1      47.925  37.124  29.422  1.00  0.00     0.124 S 
ATOM     98  O   UNL A   1      46.692  37.835  29.095  1.00  0.00    -0.237 OA
ATOM     99  O   UNL A   1      48.281  37.103  30.839  1.00  0.00    -0.237 OA
ATOM    100  O   UNL A   1      49.040  37.358  28.508  1.00  0.00    -0.744 OA
ENDBRANCH  96  97
ENDBRANCH  70  91
ENDBRANCH  44  45
ENDBRANCH  36  39
ENDBRANCH  34  35
ENDBRANCH  33  34
ENDBRANCH   1  33
TORSDOF 17
ENDMDL
