MODEL 1
REMARK VINA RESULT:     -10.3      0.000      0.000
REMARK SMILES Cc1ccc(S(=O)(=O)n2cc(C(=O)C(=O)N[C@@H](Cc3c[nH]c4ccccc34)C(=O)NCC(=O)NCCCNC(=O)c3ccc(-c4c5nc(c(-c6ccc(S(=O)(=O)[O-])cc6)c6ccc([nH]6)c(-c6ccc(S(=O)(=O)[O-])cc6)c6nc(c(-c7ccc(S(=O)(=O)[O-])cc7)c7ccc4[nH]7)C=C6)C=C5)cc3)c3ccccc32)cc1
REMARK SMILES IDX 32 1 33 2 34 3 31 5 30 6 28 7 29 8 17 10 16 11 14 12 15 13
REMARK SMILES IDX 12 15 13 16 11 17 9 18 10 19 106 20 101 21 105 22 102 23
REMARK SMILES IDX 104 24 103 25 6 26 7 27 8 28 5 29 1 30 2 31 3 32 108 33 4 34
REMARK SMILES IDX 107 35 18 36 19 37 20 38 27 39 21 40 22 41 26 42 23 44 25 45
REMARK SMILES IDX 24 46 35 47 36 48 37 49 38 50 39 51 40 53 41 54 42 55 100 56
REMARK SMILES IDX 43 57 99 58 44 59 45 60 46 61 93 62 47 63 98 64 92 65 94 66
REMARK SMILES IDX 48 67 97 68 91 69 90 70 49 72 79 73 60 74 78 75 61 76 64 77
REMARK SMILES IDX 77 78 95 79 62 80 63 81 76 83 96 84 65 85 50 86 51 87 59 88
REMARK SMILES IDX 52 89 58 90 53 91 54 92 55 93 56 94 57 95 80 96 81 97 89 98
REMARK SMILES IDX 82 99 88 100 83 101 84 102 85 103 86 104 87 105 66 106
REMARK SMILES IDX 67 107 75 108 68 109 74 110 69 111 70 112 71 113 72 114
REMARK SMILES IDX 73 115
REMARK H PARENT 34 4 30 9 16 14 21 43 38 52 94 71 64 82
REMARK Flexibility Score: inf
ROOT
ATOM      1  C   UNL A   1      46.608  30.956  33.406  1.00  0.00     0.239 C 
ATOM      2  O   UNL A   1      47.056  30.777  34.539  1.00  0.00    -0.273 OA
ATOM      3  N   UNL A   1      47.448  30.966  32.326  1.00  0.00    -0.355 N 
ATOM      4  H   UNL A   1      48.400  30.784  32.502  1.00  0.00     0.163 HD
ENDROOT
BRANCH   1   5
ATOM      5  C   UNL A   1      45.107  31.126  33.161  1.00  0.00     0.216 C 
BRANCH   5   6
ATOM      6  N   UNL A   1      44.427  32.207  33.848  1.00  0.00    -0.345 N 
ATOM      7  C   UNL A   1      43.491  32.162  34.839  1.00  0.00     0.243 C 
ATOM      8  O   UNL A   1      43.450  33.147  35.590  1.00  0.00    -0.273 OA
ATOM      9  H   UNL A   1      44.680  33.113  33.555  1.00  0.00     0.164 HD
BRANCH   7  10
ATOM     10  C   UNL A   1      42.622  30.912  35.172  1.00  0.00     0.176 C 
BRANCH  10  11
ATOM     11  N   UNL A   1      43.202  29.863  36.026  1.00  0.00    -0.337 N 
ATOM     12  C   UNL A   1      42.918  28.504  36.135  1.00  0.00     0.293 C 
ATOM     13  O   UNL A   1      43.217  27.930  37.175  1.00  0.00    -0.265 OA
ATOM     14  H   UNL A   1      43.918  30.177  36.625  1.00  0.00     0.164 HD
BRANCH  12  15
ATOM     15  C   UNL A   1      42.229  27.751  34.984  1.00  0.00     0.252 C 
ATOM     16  O   UNL A   1      41.005  27.638  35.073  1.00  0.00    -0.283 OA
BRANCH  15  17
ATOM     17  C   UNL A   1      42.979  26.985  33.971  1.00  0.00     0.054 A 
ATOM     18  N   UNL A   1      44.196  26.232  32.232  1.00  0.00    -0.240 N 
ATOM     19  C   UNL A   1      43.462  27.315  32.694  1.00  0.00     0.117 A 
ATOM     20  C   UNL A   1      44.256  25.265  33.247  1.00  0.00     0.065 A 
ATOM     21  C   UNL A   1      43.258  25.595  34.150  1.00  0.00     0.012 A 
ATOM     22  C   UNL A   1      44.929  24.026  33.315  1.00  0.00     0.028 A 
ATOM     23  C   UNL A   1      42.786  24.594  35.028  1.00  0.00     0.011 A 
ATOM     24  C   UNL A   1      44.421  23.043  34.161  1.00  0.00     0.002 A 
ATOM     25  C   UNL A   1      43.331  23.308  34.975  1.00  0.00     0.001 A 
BRANCH  18  26
ATOM     26  S   UNL A   1      44.332  25.534  30.663  1.00  0.00     0.268 S 
ATOM     27  O   UNL A   1      43.494  26.413  29.856  1.00  0.00    -0.201 OA
ATOM     28  O   UNL A   1      43.902  24.160  30.913  1.00  0.00    -0.201 OA
BRANCH  26  29
ATOM     29  C   UNL A   1      45.752  25.273  29.671  1.00  0.00     0.088 A 
ATOM     30  C   UNL A   1      49.286  25.873  27.257  1.00  0.00     0.044 C 
ATOM     31  C   UNL A   1      48.083  25.599  28.112  1.00  0.00    -0.051 A 
ATOM     32  C   UNL A   1      47.884  26.416  29.216  1.00  0.00     0.005 A 
ATOM     33  C   UNL A   1      47.128  24.598  27.822  1.00  0.00     0.005 A 
ATOM     34  C   UNL A   1      46.743  26.245  29.980  1.00  0.00     0.022 A 
ATOM     35  C   UNL A   1      45.951  24.427  28.597  1.00  0.00     0.022 A 
ENDBRANCH  26  29
ENDBRANCH  18  26
ENDBRANCH  15  17
ENDBRANCH  12  15
ENDBRANCH  10  11
BRANCH  10  36
ATOM     36  C   UNL A   1      41.174  31.301  35.621  1.00  0.00     0.072 C 
BRANCH  36  37
ATOM     37  C   UNL A   1      40.283  31.990  34.609  1.00  0.00    -0.020 A 
ATOM     38  C   UNL A   1      40.330  33.336  34.285  1.00  0.00     0.087 A 
ATOM     39  C   UNL A   1      39.194  31.433  33.849  1.00  0.00     0.003 A 
ATOM     40  N   UNL A   1      39.248  33.633  33.495  1.00  0.00    -0.361 N 
ATOM     41  C   UNL A   1      38.478  32.509  33.316  1.00  0.00     0.046 A 
ATOM     42  C   UNL A   1      38.657  30.138  33.684  1.00  0.00     0.010 A 
ATOM     43  H   UNL A   1      39.053  34.518  33.113  1.00  0.00     0.166 HD
ATOM     44  C   UNL A   1      37.194  32.373  32.769  1.00  0.00     0.026 A 
ATOM     45  C   UNL A   1      37.362  29.988  33.173  1.00  0.00     0.001 A 
ATOM     46  C   UNL A   1      36.632  31.094  32.751  1.00  0.00     0.002 A 
ENDBRANCH  36  37
ENDBRANCH  10  36
ENDBRANCH   7  10
ENDBRANCH   5   6
ENDBRANCH   1   5
BRANCH   3  47
ATOM     47  C   UNL A   1      47.074  31.218  30.945  1.00  0.00     0.117 C 
BRANCH  47  48
ATOM     48  C   UNL A   1      47.848  32.398  30.369  1.00  0.00     0.042 C 
BRANCH  48  49
ATOM     49  C   UNL A   1      47.071  33.090  29.272  1.00  0.00     0.118 C 
BRANCH  49  50
ATOM     50  N   UNL A   1      47.865  33.462  28.107  1.00  0.00    -0.352 N 
ATOM     51  C   UNL A   1      47.949  32.773  26.905  1.00  0.00     0.251 C 
ATOM     52  H   UNL A   1      48.397  34.288  28.180  1.00  0.00     0.163 HD
ATOM     53  O   UNL A   1      48.747  33.028  26.027  1.00  0.00    -0.269 OA
BRANCH  51  54
ATOM     54  C   UNL A   1      46.866  31.794  26.666  1.00  0.00     0.039 A 
ATOM     55  C   UNL A   1      45.619  32.357  26.367  1.00  0.00     0.014 A 
ATOM     56  C   UNL A   1      46.983  30.515  27.206  1.00  0.00     0.014 A 
ATOM     57  C   UNL A   1      44.475  31.734  26.840  1.00  0.00     0.010 A 
ATOM     58  C   UNL A   1      45.854  29.957  27.775  1.00  0.00     0.010 A 
ATOM     59  C   UNL A   1      44.618  30.608  27.651  1.00  0.00    -0.014 A 
BRANCH  59  60
ATOM     60  C   UNL A   1      43.506  30.053  28.413  1.00  0.00     0.031 A 
ATOM     61  C   UNL A   1      42.755  28.937  27.792  1.00  0.00     0.074 A 
ATOM     62  C   UNL A   1      43.153  30.561  29.618  1.00  0.00     0.049 A 
ATOM     63  N   UNL A   1      41.530  28.631  28.050  1.00  0.00    -0.248 NA
ATOM     64  C   UNL A   1      43.336  28.120  26.727  1.00  0.00     0.031 C 
ATOM     65  C   UNL A   1      42.136  30.021  30.520  1.00  0.00     0.029 A 
ATOM     66  N   UNL A   1      43.462  31.807  30.182  1.00  0.00    -0.354 N 
ATOM     67  C   UNL A   1      41.265  27.430  27.426  1.00  0.00     0.074 A 
ATOM     68  C   UNL A   1      42.377  27.214  26.538  1.00  0.00     0.031 C 
ATOM     69  C   UNL A   1      41.669  31.025  31.280  1.00  0.00     0.029 A 
ATOM     70  C   UNL A   1      42.274  32.251  30.785  1.00  0.00     0.049 A 
ATOM     71  H   UNL A   1      44.330  32.271  30.160  1.00  0.00     0.167 HD
ATOM     72  C   UNL A   1      40.207  26.677  27.842  1.00  0.00     0.031 A 
ATOM     73  C   UNL A   1      41.572  33.349  30.372  1.00  0.00     0.031 A 
ATOM     74  C   UNL A   1      39.354  27.437  28.755  1.00  0.00     0.049 A 
ATOM     75  C   UNL A   1      40.146  33.011  29.949  1.00  0.00     0.074 A 
ATOM     76  C   UNL A   1      39.228  27.471  30.134  1.00  0.00     0.029 A 
ATOM     77  N   UNL A   1      38.721  28.583  28.278  1.00  0.00    -0.354 N 
ATOM     78  N   UNL A   1      39.736  31.802  29.658  1.00  0.00    -0.248 NA
ATOM     79  C   UNL A   1      39.073  33.995  29.820  1.00  0.00     0.031 C 
ATOM     80  C   UNL A   1      38.631  28.715  30.487  1.00  0.00     0.029 A 
ATOM     81  C   UNL A   1      38.350  29.411  29.323  1.00  0.00     0.049 A 
ATOM     82  H   UNL A   1      38.559  28.778  27.327  1.00  0.00     0.167 HD
ATOM     83  C   UNL A   1      38.397  31.818  29.358  1.00  0.00     0.074 A 
ATOM     84  C   UNL A   1      38.028  33.219  29.473  1.00  0.00     0.031 C 
ATOM     85  C   UNL A   1      37.689  30.686  29.053  1.00  0.00     0.031 A 
BRANCH  72  86
ATOM     86  C   UNL A   1      40.176  25.168  27.662  1.00  0.00    -0.014 A 
ATOM     87  C   UNL A   1      41.192  24.370  28.225  1.00  0.00     0.010 A 
ATOM     88  C   UNL A   1      39.242  24.488  26.855  1.00  0.00     0.010 A 
ATOM     89  C   UNL A   1      41.329  23.005  27.907  1.00  0.00     0.020 A 
ATOM     90  C   UNL A   1      39.391  23.141  26.492  1.00  0.00     0.020 A 
ATOM     91  C   UNL A   1      40.444  22.405  27.013  1.00  0.00     0.054 A 
BRANCH  91  92
ATOM     92  S   UNL A   1      40.681  20.676  26.528  1.00  0.00     0.124 S 
ATOM     93  O   UNL A   1      41.891  20.736  25.713  1.00  0.00    -0.237 OA
ATOM     94  O   UNL A   1      40.820  20.007  27.818  1.00  0.00    -0.237 OA
ATOM     95  O   UNL A   1      39.460  20.351  25.791  1.00  0.00    -0.744 OA
ENDBRANCH  91  92
ENDBRANCH  72  86
BRANCH  73  96
ATOM     96  C   UNL A   1      42.409  34.476  29.865  1.00  0.00    -0.014 A 
ATOM     97  C   UNL A   1      42.169  34.921  28.545  1.00  0.00     0.010 A 
ATOM     98  C   UNL A   1      43.112  35.326  30.733  1.00  0.00     0.010 A 
ATOM     99  C   UNL A   1      42.468  36.234  28.156  1.00  0.00     0.020 A 
ATOM    100  C   UNL A   1      43.415  36.646  30.346  1.00  0.00     0.020 A 
ATOM    101  C   UNL A   1      43.028  37.110  29.083  1.00  0.00     0.054 A 
BRANCH 101 102
ATOM    102  S   UNL A   1      43.123  38.881  28.662  1.00  0.00     0.124 S 
ATOM    103  O   UNL A   1      43.613  39.489  29.895  1.00  0.00    -0.237 OA
ATOM    104  O   UNL A   1      44.065  38.885  27.542  1.00  0.00    -0.237 OA
ATOM    105  O   UNL A   1      41.746  39.220  28.321  1.00  0.00    -0.744 OA
ENDBRANCH 101 102
ENDBRANCH  73  96
BRANCH  85 106
ATOM    106  C   UNL A   1      36.264  30.636  28.539  1.00  0.00    -0.014 A 
ATOM    107  C   UNL A   1      35.418  31.751  28.437  1.00  0.00     0.010 A 
ATOM    108  C   UNL A   1      35.780  29.419  27.993  1.00  0.00     0.010 A 
ATOM    109  C   UNL A   1      34.137  31.646  27.871  1.00  0.00     0.020 A 
ATOM    110  C   UNL A   1      34.527  29.315  27.384  1.00  0.00     0.020 A 
ATOM    111  C   UNL A   1      33.699  30.429  27.347  1.00  0.00     0.054 A 
BRANCH 111 112
ATOM    112  S   UNL A   1      32.082  30.321  26.538  1.00  0.00     0.124 S 
ATOM    113  O   UNL A   1      32.452  29.957  25.173  1.00  0.00    -0.237 OA
ATOM    114  O   UNL A   1      31.400  29.277  27.301  1.00  0.00    -0.237 OA
ATOM    115  O   UNL A   1      31.528  31.662  26.703  1.00  0.00    -0.744 OA
ENDBRANCH 111 112
ENDBRANCH  85 106
ENDBRANCH  59  60
ENDBRANCH  51  54
ENDBRANCH  49  50
ENDBRANCH  48  49
ENDBRANCH  47  48
ENDBRANCH   3  47
TORSDOF 22
ENDMDL
MODEL 2
REMARK VINA RESULT:      -9.7      4.757     11.946
REMARK SMILES Cc1ccc(S(=O)(=O)n2cc(C(=O)C(=O)N[C@@H](Cc3c[nH]c4ccccc34)C(=O)NCC(=O)NCCCNC(=O)c3ccc(-c4c5nc(c(-c6ccc(S(=O)(=O)[O-])cc6)c6ccc([nH]6)c(-c6ccc(S(=O)(=O)[O-])cc6)c6nc(c(-c7ccc(S(=O)(=O)[O-])cc7)c7ccc4[nH]7)C=C6)C=C5)cc3)c3ccccc32)cc1
REMARK SMILES IDX 32 1 33 2 34 3 31 5 30 6 28 7 29 8 17 10 16 11 14 12 15 13
REMARK SMILES IDX 12 15 13 16 11 17 9 18 10 19 106 20 101 21 105 22 102 23
REMARK SMILES IDX 104 24 103 25 6 26 7 27 8 28 5 29 1 30 2 31 3 32 108 33 4 34
REMARK SMILES IDX 107 35 18 36 19 37 20 38 27 39 21 40 22 41 26 42 23 44 25 45
REMARK SMILES IDX 24 46 35 47 36 48 37 49 38 50 39 51 40 53 41 54 42 55 100 56
REMARK SMILES IDX 43 57 99 58 44 59 45 60 46 61 93 62 47 63 98 64 92 65 94 66
REMARK SMILES IDX 48 67 97 68 91 69 90 70 49 72 79 73 60 74 78 75 61 76 64 77
REMARK SMILES IDX 77 78 95 79 62 80 63 81 76 83 96 84 65 85 50 86 51 87 59 88
REMARK SMILES IDX 52 89 58 90 53 91 54 92 55 93 56 94 57 95 80 96 81 97 89 98
REMARK SMILES IDX 82 99 88 100 83 101 84 102 85 103 86 104 87 105 66 106
REMARK SMILES IDX 67 107 75 108 68 109 74 110 69 111 70 112 71 113 72 114
REMARK SMILES IDX 73 115
REMARK H PARENT 34 4 30 9 16 14 21 43 38 52 94 71 64 82
REMARK Flexibility Score: inf
ROOT
ATOM      1  C   UNL A   1      41.750  34.194  30.055  1.00  0.00     0.239 C 
ATOM      2  O   UNL A   1      42.648  33.386  30.301  1.00  0.00    -0.273 OA
ATOM      3  N   UNL A   1      40.446  33.877  30.321  1.00  0.00    -0.355 N 
ATOM      4  H   UNL A   1      40.279  33.006  30.749  1.00  0.00     0.163 HD
ENDROOT
BRANCH   1   5
ATOM      5  C   UNL A   1      42.062  35.582  29.491  1.00  0.00     0.216 C 
BRANCH   5   6
ATOM      6  N   UNL A   1      43.227  35.721  28.639  1.00  0.00    -0.345 N 
ATOM      7  C   UNL A   1      44.182  36.694  28.618  1.00  0.00     0.243 C 
ATOM      8  O   UNL A   1      45.296  36.349  28.196  1.00  0.00    -0.273 OA
ATOM      9  H   UNL A   1      43.347  35.004  27.975  1.00  0.00     0.164 HD
BRANCH   7  10
ATOM     10  C   UNL A   1      44.007  38.114  29.234  1.00  0.00     0.176 C 
BRANCH  10  11
ATOM     11  N   UNL A   1      42.659  38.705  29.261  1.00  0.00    -0.337 N 
ATOM     12  C   UNL A   1      41.971  39.469  28.323  1.00  0.00     0.293 C 
ATOM     13  O   UNL A   1      41.059  40.186  28.714  1.00  0.00    -0.265 OA
ATOM     14  H   UNL A   1      42.156  38.529  30.089  1.00  0.00     0.164 HD
BRANCH  12  15
ATOM     15  C   UNL A   1      42.360  39.422  26.834  1.00  0.00     0.252 C 
ATOM     16  O   UNL A   1      42.404  38.300  26.326  1.00  0.00    -0.283 OA
BRANCH  15  17
ATOM     17  C   UNL A   1      42.897  40.591  26.114  1.00  0.00     0.054 A 
ATOM     18  N   UNL A   1      43.285  42.413  24.848  1.00  0.00    -0.240 N 
ATOM     19  C   UNL A   1      42.406  41.358  25.044  1.00  0.00     0.117 A 
ATOM     20  C   UNL A   1      44.271  42.368  25.846  1.00  0.00     0.065 A 
ATOM     21  C   UNL A   1      44.205  41.095  26.391  1.00  0.00     0.012 A 
ATOM     22  C   UNL A   1      45.344  43.238  26.136  1.00  0.00     0.028 A 
ATOM     23  C   UNL A   1      45.328  40.605  27.094  1.00  0.00     0.011 A 
ATOM     24  C   UNL A   1      46.454  42.720  26.797  1.00  0.00     0.002 A 
ATOM     25  C   UNL A   1      46.467  41.403  27.230  1.00  0.00     0.001 A 
BRANCH  18  26
ATOM     26  S   UNL A   1      43.854  43.168  23.408  1.00  0.00     0.268 S 
ATOM     27  O   UNL A   1      45.130  42.496  23.186  1.00  0.00    -0.201 OA
ATOM     28  O   UNL A   1      43.841  44.579  23.789  1.00  0.00    -0.201 OA
BRANCH  26  29
ATOM     29  C   UNL A   1      43.129  43.237  21.815  1.00  0.00     0.088 A 
ATOM     30  C   UNL A   1      42.105  44.382  17.776  1.00  0.00     0.044 C 
ATOM     31  C   UNL A   1      42.439  43.917  19.164  1.00  0.00    -0.051 A 
ATOM     32  C   UNL A   1      43.766  43.996  19.562  1.00  0.00     0.005 A 
ATOM     33  C   UNL A   1      41.473  43.460  20.089  1.00  0.00     0.005 A 
ATOM     34  C   UNL A   1      44.098  43.652  20.861  1.00  0.00     0.022 A 
ATOM     35  C   UNL A   1      41.809  43.119  21.426  1.00  0.00     0.022 A 
ENDBRANCH  26  29
ENDBRANCH  18  26
ENDBRANCH  15  17
ENDBRANCH  12  15
ENDBRANCH  10  11
BRANCH  10  36
ATOM     36  C   UNL A   1      44.740  38.257  30.610  1.00  0.00     0.072 C 
BRANCH  36  37
ATOM     37  C   UNL A   1      44.139  39.196  31.634  1.00  0.00    -0.020 A 
ATOM     38  C   UNL A   1      43.601  38.815  32.853  1.00  0.00     0.087 A 
ATOM     39  C   UNL A   1      43.940  40.619  31.538  1.00  0.00     0.003 A 
ATOM     40  N   UNL A   1      42.972  39.899  33.411  1.00  0.00    -0.361 N 
ATOM     41  C   UNL A   1      43.066  40.979  32.566  1.00  0.00     0.046 A 
ATOM     42  C   UNL A   1      44.292  41.609  30.595  1.00  0.00     0.010 A 
ATOM     43  H   UNL A   1      42.521  39.903  34.285  1.00  0.00     0.166 HD
ATOM     44  C   UNL A   1      42.414  42.219  32.612  1.00  0.00     0.026 A 
ATOM     45  C   UNL A   1      43.624  42.839  30.604  1.00  0.00     0.001 A 
ATOM     46  C   UNL A   1      42.677  43.125  31.582  1.00  0.00     0.002 A 
ENDBRANCH  36  37
ENDBRANCH  10  36
ENDBRANCH   7  10
ENDBRANCH   5   6
ENDBRANCH   1   5
BRANCH   3  47
ATOM     47  C   UNL A   1      39.283  34.700  30.035  1.00  0.00     0.117 C 
BRANCH  47  48
ATOM     48  C   UNL A   1      38.295  33.968  29.135  1.00  0.00     0.042 C 
BRANCH  48  49
ATOM     49  C   UNL A   1      37.813  32.683  29.768  1.00  0.00     0.118 C 
BRANCH  49  50
ATOM     50  N   UNL A   1      36.363  32.526  29.797  1.00  0.00    -0.352 N 
ATOM     51  C   UNL A   1      35.643  31.395  29.441  1.00  0.00     0.251 C 
ATOM     52  H   UNL A   1      35.841  33.303  30.102  1.00  0.00     0.163 HD
ATOM     53  O   UNL A   1      34.436  31.364  29.323  1.00  0.00    -0.269 OA
BRANCH  51  54
ATOM     54  C   UNL A   1      36.429  30.143  29.382  1.00  0.00     0.039 A 
ATOM     55  C   UNL A   1      36.881  29.673  30.621  1.00  0.00     0.014 A 
ATOM     56  C   UNL A   1      37.069  29.805  28.191  1.00  0.00     0.014 A 
ATOM     57  C   UNL A   1      38.124  29.063  30.690  1.00  0.00     0.010 A 
ATOM     58  C   UNL A   1      38.354  29.304  28.278  1.00  0.00     0.010 A 
ATOM     59  C   UNL A   1      38.901  29.004  29.533  1.00  0.00    -0.014 A 
BRANCH  59  60
ATOM     60  C   UNL A   1      40.312  28.637  29.563  1.00  0.00     0.031 A 
ATOM     61  C   UNL A   1      40.667  27.285  29.074  1.00  0.00     0.074 A 
ATOM     62  C   UNL A   1      41.250  29.483  30.054  1.00  0.00     0.049 A 
ATOM     63  N   UNL A   1      41.712  26.618  29.425  1.00  0.00    -0.248 NA
ATOM     64  C   UNL A   1      39.779  26.532  28.188  1.00  0.00     0.031 C 
ATOM     65  C   UNL A   1      42.697  29.275  30.033  1.00  0.00     0.029 A 
ATOM     66  N   UNL A   1      41.092  30.596  30.891  1.00  0.00    -0.354 N 
ATOM     67  C   UNL A   1      41.786  25.508  28.609  1.00  0.00     0.074 A 
ATOM     68  C   UNL A   1      40.513  25.449  27.939  1.00  0.00     0.031 C 
ATOM     69  C   UNL A   1      43.240  29.967  31.048  1.00  0.00     0.029 A 
ATOM     70  C   UNL A   1      42.139  30.517  31.824  1.00  0.00     0.049 A 
ATOM     71  H   UNL A   1      40.395  31.289  30.834  1.00  0.00     0.167 HD
ATOM     72  C   UNL A   1      42.972  24.849  28.479  1.00  0.00     0.031 A 
ATOM     73  C   UNL A   1      41.954  30.310  33.162  1.00  0.00     0.031 A 
ATOM     74  C   UNL A   1      43.939  25.316  29.473  1.00  0.00     0.049 A 
ATOM     75  C   UNL A   1      42.645  29.044  33.662  1.00  0.00     0.074 A 
ATOM     76  C   UNL A   1      45.000  26.203  29.425  1.00  0.00     0.029 A 
ATOM     77  N   UNL A   1      43.651  25.125  30.823  1.00  0.00    -0.354 N 
ATOM     78  N   UNL A   1      43.052  28.076  32.880  1.00  0.00    -0.248 NA
ATOM     79  C   UNL A   1      42.932  28.766  35.068  1.00  0.00     0.031 C 
ATOM     80  C   UNL A   1      45.259  26.646  30.754  1.00  0.00     0.029 A 
ATOM     81  C   UNL A   1      44.390  25.990  31.610  1.00  0.00     0.049 A 
ATOM     82  H   UNL A   1      43.010  24.464  31.171  1.00  0.00     0.167 HD
ATOM     83  C   UNL A   1      43.670  27.100  33.622  1.00  0.00     0.074 A 
ATOM     84  C   UNL A   1      43.567  27.581  34.990  1.00  0.00     0.031 C 
ATOM     85  C   UNL A   1      44.231  25.983  33.063  1.00  0.00     0.031 A 
BRANCH  72  86
ATOM     86  C   UNL A   1      43.310  24.044  27.235  1.00  0.00    -0.014 A 
ATOM     87  C   UNL A   1      42.834  22.725  27.098  1.00  0.00     0.010 A 
ATOM     88  C   UNL A   1      44.185  24.485  26.222  1.00  0.00     0.010 A 
ATOM     89  C   UNL A   1      43.293  21.869  26.079  1.00  0.00     0.020 A 
ATOM     90  C   UNL A   1      44.688  23.632  25.228  1.00  0.00     0.020 A 
ATOM     91  C   UNL A   1      44.246  22.320  25.168  1.00  0.00     0.054 A 
BRANCH  91  92
ATOM     92  S   UNL A   1      44.911  21.187  23.919  1.00  0.00     0.124 S 
ATOM     93  O   UNL A   1      44.446  21.781  22.669  1.00  0.00    -0.237 OA
ATOM     94  O   UNL A   1      46.348  21.265  24.161  1.00  0.00    -0.237 OA
ATOM     95  O   UNL A   1      44.296  19.902  24.255  1.00  0.00    -0.744 OA
ENDBRANCH  91  92
ENDBRANCH  72  86
BRANCH  73  96
ATOM     96  C   UNL A   1      40.730  30.942  33.734  1.00  0.00    -0.014 A 
ATOM     97  C   UNL A   1      40.589  32.341  33.583  1.00  0.00     0.010 A 
ATOM     98  C   UNL A   1      39.587  30.192  34.051  1.00  0.00     0.010 A 
ATOM     99  C   UNL A   1      39.326  32.947  33.577  1.00  0.00     0.020 A 
ATOM    100  C   UNL A   1      38.315  30.797  34.046  1.00  0.00     0.020 A 
ATOM    101  C   UNL A   1      38.190  32.158  33.742  1.00  0.00     0.054 A 
BRANCH 101 102
ATOM    102  S   UNL A   1      36.558  32.904  33.424  1.00  0.00     0.124 S 
ATOM    103  O   UNL A   1      36.874  34.043  32.566  1.00  0.00    -0.237 OA
ATOM    104  O   UNL A   1      35.836  31.809  32.773  1.00  0.00    -0.237 OA
ATOM    105  O   UNL A   1      36.084  33.258  34.757  1.00  0.00    -0.744 OA
ENDBRANCH 101 102
ENDBRANCH  73  96
BRANCH  85 106
ATOM    106  C   UNL A   1      44.769  24.782  33.815  1.00  0.00    -0.014 A 
ATOM    107  C   UNL A   1      45.983  24.765  34.519  1.00  0.00     0.010 A 
ATOM    108  C   UNL A   1      43.944  23.635  33.944  1.00  0.00     0.010 A 
ATOM    109  C   UNL A   1      46.379  23.644  35.266  1.00  0.00     0.020 A 
ATOM    110  C   UNL A   1      44.306  22.533  34.724  1.00  0.00     0.020 A 
ATOM    111  C   UNL A   1      45.538  22.535  35.365  1.00  0.00     0.054 A 
BRANCH 111 112
ATOM    112  S   UNL A   1      46.013  21.128  36.402  1.00  0.00     0.124 S 
ATOM    113  O   UNL A   1      45.257  20.037  35.793  1.00  0.00    -0.237 OA
ATOM    114  O   UNL A   1      47.463  21.061  36.223  1.00  0.00    -0.237 OA
ATOM    115  O   UNL A   1      45.578  21.526  37.737  1.00  0.00    -0.744 OA
ENDBRANCH 111 112
ENDBRANCH  85 106
ENDBRANCH  59  60
ENDBRANCH  51  54
ENDBRANCH  49  50
ENDBRANCH  48  49
ENDBRANCH  47  48
ENDBRANCH   3  47
TORSDOF 22
ENDMDL
MODEL 3
REMARK VINA RESULT:      -9.7      4.565     11.616
REMARK SMILES Cc1ccc(S(=O)(=O)n2cc(C(=O)C(=O)N[C@@H](Cc3c[nH]c4ccccc34)C(=O)NCC(=O)NCCCNC(=O)c3ccc(-c4c5nc(c(-c6ccc(S(=O)(=O)[O-])cc6)c6ccc([nH]6)c(-c6ccc(S(=O)(=O)[O-])cc6)c6nc(c(-c7ccc(S(=O)(=O)[O-])cc7)c7ccc4[nH]7)C=C6)C=C5)cc3)c3ccccc32)cc1
REMARK SMILES IDX 32 1 33 2 34 3 31 5 30 6 28 7 29 8 17 10 16 11 14 12 15 13
REMARK SMILES IDX 12 15 13 16 11 17 9 18 10 19 106 20 101 21 105 22 102 23
REMARK SMILES IDX 104 24 103 25 6 26 7 27 8 28 5 29 1 30 2 31 3 32 108 33 4 34
REMARK SMILES IDX 107 35 18 36 19 37 20 38 27 39 21 40 22 41 26 42 23 44 25 45
REMARK SMILES IDX 24 46 35 47 36 48 37 49 38 50 39 51 40 53 41 54 42 55 100 56
REMARK SMILES IDX 43 57 99 58 44 59 45 60 46 61 93 62 47 63 98 64 92 65 94 66
REMARK SMILES IDX 48 67 97 68 91 69 90 70 49 72 79 73 60 74 78 75 61 76 64 77
REMARK SMILES IDX 77 78 95 79 62 80 63 81 76 83 96 84 65 85 50 86 51 87 59 88
REMARK SMILES IDX 52 89 58 90 53 91 54 92 55 93 56 94 57 95 80 96 81 97 89 98
REMARK SMILES IDX 82 99 88 100 83 101 84 102 85 103 86 104 87 105 66 106
REMARK SMILES IDX 67 107 75 108 68 109 74 110 69 111 70 112 71 113 72 114
REMARK SMILES IDX 73 115
REMARK H PARENT 34 4 30 9 16 14 21 43 38 52 94 71 64 82
REMARK Flexibility Score: inf
ROOT
ATOM      1  C   UNL A   1      41.754  34.172  29.766  1.00  0.00     0.239 C 
ATOM      2  O   UNL A   1      42.591  33.282  29.924  1.00  0.00    -0.273 OA
ATOM      3  N   UNL A   1      40.448  33.960  30.114  1.00  0.00    -0.355 N 
ATOM      4  H   UNL A   1      40.234  33.092  30.527  1.00  0.00     0.163 HD
ENDROOT
BRANCH   1   5
ATOM      5  C   UNL A   1      42.148  35.547  29.222  1.00  0.00     0.216 C 
BRANCH   5   6
ATOM      6  N   UNL A   1      43.181  35.603  28.206  1.00  0.00    -0.345 N 
ATOM      7  C   UNL A   1      44.250  36.442  28.092  1.00  0.00     0.243 C 
ATOM      8  O   UNL A   1      45.228  35.991  27.478  1.00  0.00    -0.273 OA
ATOM      9  H   UNL A   1      43.098  34.934  27.488  1.00  0.00     0.164 HD
BRANCH   7  10
ATOM     10  C   UNL A   1      44.373  37.817  28.815  1.00  0.00     0.176 C 
BRANCH  10  11
ATOM     11  N   UNL A   1      43.137  38.510  29.214  1.00  0.00    -0.337 N 
ATOM     12  C   UNL A   1      42.267  39.325  28.496  1.00  0.00     0.293 C 
ATOM     13  O   UNL A   1      41.562  40.112  29.117  1.00  0.00    -0.265 OA
ATOM     14  H   UNL A   1      42.881  38.374  30.155  1.00  0.00     0.164 HD
BRANCH  12  15
ATOM     15  C   UNL A   1      42.207  39.250  26.960  1.00  0.00     0.252 C 
ATOM     16  O   UNL A   1      41.967  38.137  26.487  1.00  0.00    -0.283 OA
BRANCH  15  17
ATOM     17  C   UNL A   1      42.655  40.352  26.089  1.00  0.00     0.054 A 
ATOM     18  N   UNL A   1      42.891  42.157  24.763  1.00  0.00    -0.240 N 
ATOM     19  C   UNL A   1      41.963  41.259  25.269  1.00  0.00     0.117 A 
ATOM     20  C   UNL A   1      44.143  41.878  25.333  1.00  0.00     0.065 A 
ATOM     21  C   UNL A   1      44.044  40.604  25.869  1.00  0.00     0.012 A 
ATOM     22  C   UNL A   1      45.389  42.530  25.210  1.00  0.00     0.028 A 
ATOM     23  C   UNL A   1      45.234  39.884  26.118  1.00  0.00     0.011 A 
ATOM     24  C   UNL A   1      46.547  41.788  25.423  1.00  0.00     0.002 A 
ATOM     25  C   UNL A   1      46.472  40.464  25.827  1.00  0.00     0.001 A 
BRANCH  18  26
ATOM     26  S   UNL A   1      43.035  42.892  23.212  1.00  0.00     0.268 S 
ATOM     27  O   UNL A   1      42.469  44.217  23.441  1.00  0.00    -0.201 OA
ATOM     28  O   UNL A   1      42.319  41.940  22.366  1.00  0.00    -0.201 OA
BRANCH  26  29
ATOM     29  C   UNL A   1      44.462  43.202  22.245  1.00  0.00     0.088 A 
ATOM     30  C   UNL A   1      47.241  44.833  19.364  1.00  0.00     0.044 C 
ATOM     31  C   UNL A   1      46.332  44.245  20.404  1.00  0.00    -0.051 A 
ATOM     32  C   UNL A   1      45.483  45.113  21.076  1.00  0.00     0.005 A 
ATOM     33  C   UNL A   1      46.262  42.862  20.691  1.00  0.00     0.005 A 
ATOM     34  C   UNL A   1      44.576  44.596  21.984  1.00  0.00     0.022 A 
ATOM     35  C   UNL A   1      45.323  42.327  21.612  1.00  0.00     0.022 A 
ENDBRANCH  26  29
ENDBRANCH  18  26
ENDBRANCH  15  17
ENDBRANCH  12  15
ENDBRANCH  10  11
BRANCH  10  36
ATOM     36  C   UNL A   1      45.430  37.788  29.969  1.00  0.00     0.072 C 
BRANCH  36  37
ATOM     37  C   UNL A   1      45.538  36.523  30.793  1.00  0.00    -0.020 A 
ATOM     38  C   UNL A   1      46.511  35.548  30.642  1.00  0.00     0.087 A 
ATOM     39  C   UNL A   1      44.650  36.044  31.822  1.00  0.00     0.003 A 
ATOM     40  N   UNL A   1      46.169  34.466  31.413  1.00  0.00    -0.361 N 
ATOM     41  C   UNL A   1      44.973  34.704  32.048  1.00  0.00     0.046 A 
ATOM     42  C   UNL A   1      43.511  36.567  32.471  1.00  0.00     0.010 A 
ATOM     43  H   UNL A   1      46.700  33.642  31.499  1.00  0.00     0.166 HD
ATOM     44  C   UNL A   1      44.140  33.830  32.760  1.00  0.00     0.026 A 
ATOM     45  C   UNL A   1      42.650  35.701  33.156  1.00  0.00     0.001 A 
ATOM     46  C   UNL A   1      42.948  34.347  33.271  1.00  0.00     0.002 A 
ENDBRANCH  36  37
ENDBRANCH  10  36
ENDBRANCH   7  10
ENDBRANCH   5   6
ENDBRANCH   1   5
BRANCH   3  47
ATOM     47  C   UNL A   1      39.346  34.890  29.935  1.00  0.00     0.117 C 
BRANCH  47  48
ATOM     48  C   UNL A   1      38.159  34.217  29.258  1.00  0.00     0.042 C 
BRANCH  48  49
ATOM     49  C   UNL A   1      37.607  33.087  30.097  1.00  0.00     0.118 C 
BRANCH  49  50
ATOM     50  N   UNL A   1      36.166  32.888  29.977  1.00  0.00    -0.352 N 
ATOM     51  C   UNL A   1      35.523  31.788  29.426  1.00  0.00     0.251 C 
ATOM     52  H   UNL A   1      35.591  33.609  30.322  1.00  0.00     0.163 HD
ATOM     53  O   UNL A   1      34.333  31.739  29.197  1.00  0.00    -0.269 OA
BRANCH  51  54
ATOM     54  C   UNL A   1      36.359  30.574  29.293  1.00  0.00     0.039 A 
ATOM     55  C   UNL A   1      36.652  29.926  30.499  1.00  0.00     0.014 A 
ATOM     56  C   UNL A   1      37.171  30.437  28.170  1.00  0.00     0.014 A 
ATOM     57  C   UNL A   1      37.896  29.335  30.653  1.00  0.00     0.010 A 
ATOM     58  C   UNL A   1      38.449  29.950  28.363  1.00  0.00     0.010 A 
ATOM     59  C   UNL A   1      38.828  29.469  29.624  1.00  0.00    -0.014 A 
BRANCH  59  60
ATOM     60  C   UNL A   1      40.234  29.127  29.801  1.00  0.00     0.031 A 
ATOM     61  C   UNL A   1      40.688  27.832  29.243  1.00  0.00     0.074 A 
ATOM     62  C   UNL A   1      41.079  29.941  30.479  1.00  0.00     0.049 A 
ATOM     63  N   UNL A   1      41.700  27.154  29.663  1.00  0.00    -0.248 NA
ATOM     64  C   UNL A   1      39.940  27.147  28.189  1.00  0.00     0.031 C 
ATOM     65  C   UNL A   1      42.523  29.763  30.623  1.00  0.00     0.029 A 
ATOM     66  N   UNL A   1      40.785  30.971  31.384  1.00  0.00    -0.354 N 
ATOM     67  C   UNL A   1      41.908  26.125  28.769  1.00  0.00     0.074 A 
ATOM     68  C   UNL A   1      40.731  26.104  27.940  1.00  0.00     0.031 C 
ATOM     69  C   UNL A   1      42.913  30.369  31.756  1.00  0.00     0.029 A 
ATOM     70  C   UNL A   1      41.709  30.826  32.431  1.00  0.00     0.049 A 
ATOM     71  H   UNL A   1      40.079  31.653  31.300  1.00  0.00     0.167 HD
ATOM     72  C   UNL A   1      43.120  25.503  28.733  1.00  0.00     0.031 A 
ATOM     73  C   UNL A   1      41.365  30.494  33.712  1.00  0.00     0.031 A 
ATOM     74  C   UNL A   1      43.941  25.894  29.879  1.00  0.00     0.049 A 
ATOM     75  C   UNL A   1      42.025  29.201  34.182  1.00  0.00     0.074 A 
ATOM     76  C   UNL A   1      44.973  26.802  30.045  1.00  0.00     0.029 A 
ATOM     77  N   UNL A   1      43.493  25.576  31.160  1.00  0.00    -0.354 N 
ATOM     78  N   UNL A   1      42.554  28.316  33.376  1.00  0.00    -0.248 NA
ATOM     79  C   UNL A   1      42.142  28.802  35.583  1.00  0.00     0.031 C 
ATOM     80  C   UNL A   1      45.051  27.126  31.429  1.00  0.00     0.029 A 
ATOM     81  C   UNL A   1      44.102  26.379  32.107  1.00  0.00     0.049 A 
ATOM     82  H   UNL A   1      42.833  24.874  31.364  1.00  0.00     0.167 HD
ATOM     83  C   UNL A   1      43.104  27.288  34.102  1.00  0.00     0.074 A 
ATOM     84  C   UNL A   1      42.817  27.641  35.482  1.00  0.00     0.031 C 
ATOM     85  C   UNL A   1      43.763  26.237  33.521  1.00  0.00     0.031 A 
BRANCH  72  86
ATOM     86  C   UNL A   1      43.634  24.821  27.476  1.00  0.00    -0.014 A 
ATOM     87  C   UNL A   1      43.008  23.651  27.002  1.00  0.00     0.010 A 
ATOM     88  C   UNL A   1      44.797  25.213  26.784  1.00  0.00     0.010 A 
ATOM     89  C   UNL A   1      43.573  22.865  25.979  1.00  0.00     0.020 A 
ATOM     90  C   UNL A   1      45.397  24.419  25.794  1.00  0.00     0.020 A 
ATOM     91  C   UNL A   1      44.786  23.239  25.403  1.00  0.00     0.054 A 
BRANCH  91  92
ATOM     92  S   UNL A   1      45.561  22.175  24.158  1.00  0.00     0.124 S 
ATOM     93  O   UNL A   1      45.798  20.938  24.898  1.00  0.00    -0.237 OA
ATOM     94  O   UNL A   1      44.534  22.107  23.124  1.00  0.00    -0.237 OA
ATOM     95  O   UNL A   1      46.770  22.906  23.782  1.00  0.00    -0.744 OA
ENDBRANCH  91  92
ENDBRANCH  72  86
BRANCH  73  96
ATOM     96  C   UNL A   1      40.061  31.050  34.177  1.00  0.00    -0.014 A 
ATOM     97  C   UNL A   1      39.991  32.444  34.403  1.00  0.00     0.010 A 
ATOM     98  C   UNL A   1      38.858  30.342  34.028  1.00  0.00     0.010 A 
ATOM     99  C   UNL A   1      38.775  33.134  34.311  1.00  0.00     0.020 A 
ATOM    100  C   UNL A   1      37.633  31.031  33.936  1.00  0.00     0.020 A 
ATOM    101  C   UNL A   1      37.611  32.429  34.010  1.00  0.00     0.054 A 
BRANCH 101 102
ATOM    102  S   UNL A   1      36.107  33.369  33.591  1.00  0.00     0.124 S 
ATOM    103  O   UNL A   1      35.342  32.427  32.779  1.00  0.00    -0.237 OA
ATOM    104  O   UNL A   1      35.545  33.663  34.910  1.00  0.00    -0.237 OA
ATOM    105  O   UNL A   1      36.623  34.522  32.862  1.00  0.00    -0.744 OA
ENDBRANCH 101 102
ENDBRANCH  73  96
BRANCH  85 106
ATOM    106  C   UNL A   1      44.238  24.983  34.228  1.00  0.00    -0.014 A 
ATOM    107  C   UNL A   1      43.403  23.919  34.602  1.00  0.00     0.010 A 
ATOM    108  C   UNL A   1      45.632  24.790  34.408  1.00  0.00     0.010 A 
ATOM    109  C   UNL A   1      43.925  22.748  35.177  1.00  0.00     0.020 A 
ATOM    110  C   UNL A   1      46.165  23.610  34.934  1.00  0.00     0.020 A 
ATOM    111  C   UNL A   1      45.302  22.600  35.339  1.00  0.00     0.054 A 
BRANCH 111 112
ATOM    112  S   UNL A   1      45.976  21.053  35.998  1.00  0.00     0.124 S 
ATOM    113  O   UNL A   1      47.404  21.210  35.734  1.00  0.00    -0.237 OA
ATOM    114  O   UNL A   1      45.592  21.101  37.408  1.00  0.00    -0.237 OA
ATOM    115  O   UNL A   1      45.300  20.025  35.213  1.00  0.00    -0.744 OA
ENDBRANCH 111 112
ENDBRANCH  85 106
ENDBRANCH  59  60
ENDBRANCH  51  54
ENDBRANCH  49  50
ENDBRANCH  48  49
ENDBRANCH  47  48
ENDBRANCH   3  47
TORSDOF 22
ENDMDL
