MODEL 1
REMARK VINA RESULT:     -11.8      0.000      0.000
REMARK SMILES O=C(NCCCNC(=O)C1CCN(C(=O)CSCc2ccccc2)CC1)c1ccc(-c2c3nc(c(-c4ccc(S(=O)(=O)[O-])cc4)c4ccc([nH]4)c(-c4ccc(S(=O)(=O)[O-])cc4)c4nc(c(-c5ccc(S(=O)(=O)[O-])cc5)c5ccc2[nH]5)C=C4)C=C3)cc1
REMARK SMILES IDX 5 1 4 2 3 3 1 4 2 5 27 7 28 8 86 9 29 10 85 11 30 12 31 13
REMARK SMILES IDX 32 14 79 15 33 16 84 17 78 18 80 19 34 20 83 21 77 22 76 23
REMARK SMILES IDX 35 25 65 26 46 27 64 28 47 29 50 30 63 31 81 32 48 33 49 34
REMARK SMILES IDX 62 36 82 37 51 38 36 39 37 40 45 41 38 42 44 43 39 44 40 45
REMARK SMILES IDX 41 46 42 47 43 48 66 49 67 50 75 51 68 52 74 53 69 54 70 55
REMARK SMILES IDX 71 56 72 57 73 58 52 59 53 60 61 61 54 62 60 63 55 64 56 65
REMARK SMILES IDX 57 66 58 67 59 68 6 69 7 70 8 71 9 73 10 74 11 75 26 76
REMARK SMILES IDX 12 77 25 78 13 79 14 80 15 81 16 82 17 83 18 84 19 85 20 86
REMARK SMILES IDX 24 87 21 88 23 89 22 90
REMARK H PARENT 3 6 80 24 50 35 7 72
REMARK Flexibility Score: inf
ROOT
ATOM      1  C   UNL A   1      34.804  30.044  27.321  1.00  0.00     0.042 C 
ENDROOT
BRANCH   1   2
ATOM      2  C   UNL A   1      35.525  31.118  28.128  1.00  0.00     0.118 C 
BRANCH   2   3
ATOM      3  N   UNL A   1      35.407  30.923  29.566  1.00  0.00    -0.352 N 
ATOM      4  O   UNL A   1      35.943  30.144  31.608  1.00  0.00    -0.269 OA
ATOM      5  C   UNL A   1      36.302  30.382  30.457  1.00  0.00     0.251 C 
ATOM      6  H   UNL A   1      34.556  31.223  29.960  1.00  0.00     0.163 HD
BRANCH   5   7
ATOM      7  C   UNL A   1      37.681  30.067  30.027  1.00  0.00     0.039 A 
ATOM      8  C   UNL A   1      38.053  30.173  28.686  1.00  0.00     0.014 A 
ATOM      9  C   UNL A   1      38.622  29.679  30.986  1.00  0.00     0.014 A 
ATOM     10  C   UNL A   1      39.313  29.749  28.282  1.00  0.00     0.010 A 
ATOM     11  C   UNL A   1      39.918  29.337  30.588  1.00  0.00     0.010 A 
ATOM     12  C   UNL A   1      40.264  29.339  29.229  1.00  0.00    -0.014 A 
BRANCH  12  13
ATOM     13  C   UNL A   1      41.632  28.977  28.776  1.00  0.00     0.031 A 
ATOM     14  C   UNL A   1      42.748  29.986  28.788  1.00  0.00     0.074 A 
ATOM     15  C   UNL A   1      41.866  27.712  28.376  1.00  0.00     0.049 A 
ATOM     16  N   UNL A   1      44.002  29.823  28.446  1.00  0.00    -0.248 NA
ATOM     17  C   UNL A   1      42.420  31.348  29.234  1.00  0.00     0.031 C 
ATOM     18  C   UNL A   1      40.859  26.648  28.316  1.00  0.00     0.029 A 
ATOM     19  N   UNL A   1      43.020  27.099  27.962  1.00  0.00    -0.354 N 
ATOM     20  C   UNL A   1      44.607  31.063  28.614  1.00  0.00     0.074 A 
ATOM     21  C   UNL A   1      43.578  31.975  29.069  1.00  0.00     0.031 C 
ATOM     22  C   UNL A   1      41.449  25.504  27.939  1.00  0.00     0.029 A 
ATOM     23  C   UNL A   1      42.858  25.766  27.668  1.00  0.00     0.049 A 
ATOM     24  H   UNL A   1      43.881  27.568  27.885  1.00  0.00     0.167 HD
ATOM     25  C   UNL A   1      45.903  31.409  28.413  1.00  0.00     0.031 A 
ATOM     26  C   UNL A   1      43.737  24.854  27.214  1.00  0.00     0.031 A 
ATOM     27  C   UNL A   1      46.921  30.497  27.960  1.00  0.00     0.049 A 
ATOM     28  C   UNL A   1      45.159  25.271  26.974  1.00  0.00     0.074 A 
ATOM     29  C   UNL A   1      48.268  30.746  27.753  1.00  0.00     0.029 A 
ATOM     30  N   UNL A   1      46.710  29.165  27.640  1.00  0.00    -0.354 N 
ATOM     31  N   UNL A   1      45.716  26.441  27.167  1.00  0.00    -0.248 NA
ATOM     32  C   UNL A   1      46.070  24.242  26.454  1.00  0.00     0.031 C 
ATOM     33  C   UNL A   1      48.859  29.577  27.261  1.00  0.00     0.029 A 
ATOM     34  C   UNL A   1      47.893  28.585  27.214  1.00  0.00     0.049 A 
ATOM     35  H   UNL A   1      45.845  28.699  27.706  1.00  0.00     0.167 HD
ATOM     36  C   UNL A   1      47.048  26.288  26.806  1.00  0.00     0.074 A 
ATOM     37  C   UNL A   1      47.216  24.906  26.402  1.00  0.00     0.031 C 
ATOM     38  C   UNL A   1      48.042  27.211  26.807  1.00  0.00     0.031 A 
BRANCH  25  39
ATOM     39  C   UNL A   1      46.288  32.845  28.655  1.00  0.00    -0.014 A 
ATOM     40  C   UNL A   1      46.668  33.294  29.932  1.00  0.00     0.010 A 
ATOM     41  C   UNL A   1      46.316  33.750  27.577  1.00  0.00     0.010 A 
ATOM     42  C   UNL A   1      47.031  34.629  30.136  1.00  0.00     0.020 A 
ATOM     43  C   UNL A   1      46.701  35.080  27.771  1.00  0.00     0.020 A 
ATOM     44  C   UNL A   1      47.039  35.515  29.054  1.00  0.00     0.054 A 
BRANCH  44  45
ATOM     45  S   UNL A   1      47.526  37.239  29.343  1.00  0.00     0.124 S 
ATOM     46  O   UNL A   1      48.711  37.079  30.182  1.00  0.00    -0.237 OA
ATOM     47  O   UNL A   1      47.775  37.734  27.993  1.00  0.00    -0.237 OA
ATOM     48  O   UNL A   1      46.364  37.820  30.012  1.00  0.00    -0.744 OA
ENDBRANCH  44  45
ENDBRANCH  25  39
BRANCH  26  49
ATOM     49  C   UNL A   1      43.282  23.464  26.948  1.00  0.00    -0.014 A 
ATOM     50  C   UNL A   1      43.136  22.997  25.631  1.00  0.00     0.010 A 
ATOM     51  C   UNL A   1      43.032  22.586  28.019  1.00  0.00     0.010 A 
ATOM     52  C   UNL A   1      42.738  21.679  25.390  1.00  0.00     0.020 A 
ATOM     53  C   UNL A   1      42.661  21.260  27.782  1.00  0.00     0.020 A 
ATOM     54  C   UNL A   1      42.506  20.819  26.467  1.00  0.00     0.054 A 
BRANCH  54  55
ATOM     55  S   UNL A   1      42.052  19.095  26.131  1.00  0.00     0.124 S 
ATOM     56  O   UNL A   1      42.973  18.744  25.056  1.00  0.00    -0.237 OA
ATOM     57  O   UNL A   1      42.301  18.445  27.417  1.00  0.00    -0.237 OA
ATOM     58  O   UNL A   1      40.644  19.182  25.750  1.00  0.00    -0.744 OA
ENDBRANCH  54  55
ENDBRANCH  26  49
BRANCH  38  59
ATOM     59  C   UNL A   1      49.407  26.747  26.377  1.00  0.00    -0.014 A 
ATOM     60  C   UNL A   1      50.296  26.160  27.293  1.00  0.00     0.010 A 
ATOM     61  C   UNL A   1      49.787  26.866  25.028  1.00  0.00     0.010 A 
ATOM     62  C   UNL A   1      51.558  25.728  26.874  1.00  0.00     0.020 A 
ATOM     63  C   UNL A   1      51.037  26.412  24.600  1.00  0.00     0.020 A 
ATOM     64  C   UNL A   1      51.920  25.859  25.530  1.00  0.00     0.054 A 
BRANCH  64  65
ATOM     65  S   UNL A   1      53.547  25.256  25.000  1.00  0.00     0.124 S 
ATOM     66  O   UNL A   1      53.529  25.552  23.570  1.00  0.00    -0.237 OA
ATOM     67  O   UNL A   1      54.466  26.067  25.797  1.00  0.00    -0.237 OA
ATOM     68  O   UNL A   1      53.520  23.837  25.344  1.00  0.00    -0.744 OA
ENDBRANCH  64  65
ENDBRANCH  38  59
ENDBRANCH  12  13
ENDBRANCH   5   7
ENDBRANCH   2   3
ENDBRANCH   1   2
BRANCH   1  69
ATOM     69  C   UNL A   1      33.356  30.381  26.993  1.00  0.00     0.117 C 
BRANCH  69  70
ATOM     70  N   UNL A   1      32.434  29.453  27.621  1.00  0.00    -0.356 N 
ATOM     71  C   UNL A   1      31.837  28.328  27.150  1.00  0.00     0.223 C 
ATOM     72  H   UNL A   1      32.201  29.678  28.550  1.00  0.00     0.163 HD
ATOM     73  O   UNL A   1      31.026  27.765  27.884  1.00  0.00    -0.275 OA
BRANCH  71  74
ATOM     74  C   UNL A   1      32.177  27.800  25.764  1.00  0.00     0.082 C 
ATOM     75  C   UNL A   1      30.905  27.430  24.985  1.00  0.00     0.035 C 
ATOM     76  C   UNL A   1      33.169  26.631  25.891  1.00  0.00     0.035 C 
ATOM     77  C   UNL A   1      30.347  26.058  25.371  1.00  0.00     0.120 C 
ATOM     78  C   UNL A   1      32.491  25.316  26.272  1.00  0.00     0.120 C 
ATOM     79  N   UNL A   1      31.408  25.057  25.330  1.00  0.00    -0.342 N 
ATOM     80  C   UNL A   1      31.427  24.107  24.319  1.00  0.00     0.232 C 
ATOM     81  O   UNL A   1      30.565  24.082  23.435  1.00  0.00    -0.274 OA
BRANCH  80  82
ATOM     82  C   UNL A   1      32.531  23.057  24.316  1.00  0.00     0.169 C 
BRANCH  82  83
ATOM     83  S   UNL A   1      32.146  21.613  25.364  1.00  0.00    -0.147 SA
BRANCH  83  84
ATOM     84  C   UNL A   1      33.719  20.703  25.263  1.00  0.00     0.105 C 
BRANCH  84  85
ATOM     85  C   UNL A   1      33.642  19.400  24.511  1.00  0.00    -0.038 A 
ATOM     86  C   UNL A   1      34.640  18.418  24.627  1.00  0.00     0.004 A 
ATOM     87  C   UNL A   1      32.591  19.182  23.609  1.00  0.00     0.004 A 
ATOM     88  C   UNL A   1      34.569  17.237  23.886  1.00  0.00     0.000 A 
ATOM     89  C   UNL A   1      32.530  18.007  22.856  1.00  0.00     0.000 A 
ATOM     90  C   UNL A   1      33.516  17.034  22.999  1.00  0.00     0.000 A 
ENDBRANCH  84  85
ENDBRANCH  83  84
ENDBRANCH  82  83
ENDBRANCH  80  82
ENDBRANCH  71  74
ENDBRANCH  69  70
ENDBRANCH   1  69
TORSDOF 17
ENDMDL
MODEL 2
REMARK VINA RESULT:     -11.5      2.445      9.424
REMARK SMILES O=C(NCCCNC(=O)C1CCN(C(=O)CSCc2ccccc2)CC1)c1ccc(-c2c3nc(c(-c4ccc(S(=O)(=O)[O-])cc4)c4ccc([nH]4)c(-c4ccc(S(=O)(=O)[O-])cc4)c4nc(c(-c5ccc(S(=O)(=O)[O-])cc5)c5ccc2[nH]5)C=C4)C=C3)cc1
REMARK SMILES IDX 5 1 4 2 3 3 1 4 2 5 27 7 28 8 86 9 29 10 85 11 30 12 31 13
REMARK SMILES IDX 32 14 79 15 33 16 84 17 78 18 80 19 34 20 83 21 77 22 76 23
REMARK SMILES IDX 35 25 65 26 46 27 64 28 47 29 50 30 63 31 81 32 48 33 49 34
REMARK SMILES IDX 62 36 82 37 51 38 36 39 37 40 45 41 38 42 44 43 39 44 40 45
REMARK SMILES IDX 41 46 42 47 43 48 66 49 67 50 75 51 68 52 74 53 69 54 70 55
REMARK SMILES IDX 71 56 72 57 73 58 52 59 53 60 61 61 54 62 60 63 55 64 56 65
REMARK SMILES IDX 57 66 58 67 59 68 6 69 7 70 8 71 9 73 10 74 11 75 26 76
REMARK SMILES IDX 12 77 25 78 13 79 14 80 15 81 16 82 17 83 18 84 19 85 20 86
REMARK SMILES IDX 24 87 21 88 23 89 22 90
REMARK H PARENT 3 6 80 24 50 35 7 72
REMARK Flexibility Score: inf
ROOT
ATOM      1  C   UNL A   1      38.158  19.895  25.031  1.00  0.00     0.042 C 
ENDROOT
BRANCH   1   2
ATOM      2  C   UNL A   1      39.253  20.417  25.955  1.00  0.00     0.118 C 
BRANCH   2   3
ATOM      3  N   UNL A   1      40.353  19.477  26.119  1.00  0.00    -0.352 N 
ATOM      4  O   UNL A   1      42.489  18.783  26.260  1.00  0.00    -0.269 OA
ATOM      5  C   UNL A   1      41.690  19.716  26.322  1.00  0.00     0.251 C 
ATOM      6  H   UNL A   1      40.100  18.527  26.078  1.00  0.00     0.163 HD
BRANCH   5   7
ATOM      7  C   UNL A   1      42.169  21.088  26.589  1.00  0.00     0.039 A 
ATOM      8  C   UNL A   1      42.376  21.989  25.543  1.00  0.00     0.014 A 
ATOM      9  C   UNL A   1      42.396  21.486  27.911  1.00  0.00     0.014 A 
ATOM     10  C   UNL A   1      42.949  23.229  25.801  1.00  0.00     0.010 A 
ATOM     11  C   UNL A   1      42.889  22.767  28.176  1.00  0.00     0.010 A 
ATOM     12  C   UNL A   1      43.199  23.638  27.120  1.00  0.00    -0.014 A 
BRANCH  12  13
ATOM     13  C   UNL A   1      43.728  25.003  27.371  1.00  0.00     0.031 A 
ATOM     14  C   UNL A   1      45.169  25.341  27.104  1.00  0.00     0.074 A 
ATOM     15  C   UNL A   1      42.882  25.950  27.822  1.00  0.00     0.049 A 
ATOM     16  N   UNL A   1      45.782  26.490  27.249  1.00  0.00    -0.248 NA
ATOM     17  C   UNL A   1      46.036  24.257  26.616  1.00  0.00     0.031 C 
ATOM     18  C   UNL A   1      41.463  25.738  28.123  1.00  0.00     0.029 A 
ATOM     19  N   UNL A   1      43.082  27.279  28.088  1.00  0.00    -0.354 N 
ATOM     20  C   UNL A   1      47.106  26.264  26.893  1.00  0.00     0.074 A 
ATOM     21  C   UNL A   1      47.214  24.862  26.544  1.00  0.00     0.031 C 
ATOM     22  C   UNL A   1      40.910  26.904  28.484  1.00  0.00     0.029 A 
ATOM     23  C   UNL A   1      41.945  27.932  28.504  1.00  0.00     0.049 A 
ATOM     24  H   UNL A   1      43.954  27.724  27.990  1.00  0.00     0.167 HD
ATOM     25  C   UNL A   1      48.136  27.145  26.855  1.00  0.00     0.031 A 
ATOM     26  C   UNL A   1      41.754  29.211  28.876  1.00  0.00     0.031 A 
ATOM     27  C   UNL A   1      48.022  28.537  27.205  1.00  0.00     0.049 A 
ATOM     28  C   UNL A   1      42.917  30.158  28.851  1.00  0.00     0.074 A 
ATOM     29  C   UNL A   1      49.002  29.516  27.172  1.00  0.00     0.029 A 
ATOM     30  N   UNL A   1      46.862  29.151  27.654  1.00  0.00    -0.354 N 
ATOM     31  N   UNL A   1      44.154  29.930  28.483  1.00  0.00    -0.248 NA
ATOM     32  C   UNL A   1      42.658  31.535  29.292  1.00  0.00     0.031 C 
ATOM     33  C   UNL A   1      48.446  30.709  27.648  1.00  0.00     0.029 A 
ATOM     34  C   UNL A   1      47.107  30.487  27.925  1.00  0.00     0.049 A 
ATOM     35  H   UNL A   1      45.993  28.703  27.764  1.00  0.00     0.167 HD
ATOM     36  C   UNL A   1      44.820  31.139  28.635  1.00  0.00     0.074 A 
ATOM     37  C   UNL A   1      43.843  32.099  29.108  1.00  0.00     0.031 C 
ATOM     38  C   UNL A   1      46.126  31.427  28.404  1.00  0.00     0.031 A 
BRANCH  25  39
ATOM     39  C   UNL A   1      49.489  26.621  26.448  1.00  0.00    -0.014 A 
ATOM     40  C   UNL A   1      49.957  26.756  25.129  1.00  0.00     0.010 A 
ATOM     41  C   UNL A   1      50.325  26.026  27.411  1.00  0.00     0.010 A 
ATOM     42  C   UNL A   1      51.219  26.272  24.771  1.00  0.00     0.020 A 
ATOM     43  C   UNL A   1      51.597  25.561  27.064  1.00  0.00     0.020 A 
ATOM     44  C   UNL A   1      52.028  25.672  25.740  1.00  0.00     0.054 A 
BRANCH  44  45
ATOM     45  S   UNL A   1      53.667  25.062  25.252  1.00  0.00     0.124 S 
ATOM     46  O   UNL A   1      54.530  25.695  26.245  1.00  0.00    -0.237 OA
ATOM     47  O   UNL A   1      53.521  23.615  25.377  1.00  0.00    -0.237 OA
ATOM     48  O   UNL A   1      53.826  25.554  23.885  1.00  0.00    -0.744 OA
ENDBRANCH  44  45
ENDBRANCH  25  39
BRANCH  26  49
ATOM     49  C   UNL A   1      40.404  29.654  29.316  1.00  0.00    -0.014 A 
ATOM     50  C   UNL A   1      40.113  29.821  30.680  1.00  0.00     0.010 A 
ATOM     51  C   UNL A   1      39.413  29.950  28.361  1.00  0.00     0.010 A 
ATOM     52  C   UNL A   1      38.851  30.267  31.083  1.00  0.00     0.020 A 
ATOM     53  C   UNL A   1      38.160  30.423  28.759  1.00  0.00     0.020 A 
ATOM     54  C   UNL A   1      37.885  30.568  30.119  1.00  0.00     0.054 A 
BRANCH  54  55
ATOM     55  S   UNL A   1      36.275  31.207  30.660  1.00  0.00     0.124 S 
ATOM     56  O   UNL A   1      35.482  31.102  29.441  1.00  0.00    -0.237 OA
ATOM     57  O   UNL A   1      35.913  30.284  31.734  1.00  0.00    -0.237 OA
ATOM     58  O   UNL A   1      36.579  32.568  31.098  1.00  0.00    -0.744 OA
ENDBRANCH  54  55
ENDBRANCH  26  49
BRANCH  38  59
ATOM     59  C   UNL A   1      46.565  32.846  28.642  1.00  0.00    -0.014 A 
ATOM     60  C   UNL A   1      46.468  33.815  27.628  1.00  0.00     0.010 A 
ATOM     61  C   UNL A   1      47.047  33.221  29.909  1.00  0.00     0.010 A 
ATOM     62  C   UNL A   1      46.875  35.131  27.869  1.00  0.00     0.020 A 
ATOM     63  C   UNL A   1      47.430  34.540  30.161  1.00  0.00     0.020 A 
ATOM     64  C   UNL A   1      47.356  35.483  29.134  1.00  0.00     0.054 A 
BRANCH  64  65
ATOM     65  S   UNL A   1      47.842  37.205  29.436  1.00  0.00     0.124 S 
ATOM     66  O   UNL A   1      47.021  37.926  28.467  1.00  0.00    -0.237 OA
ATOM     67  O   UNL A   1      47.478  37.401  30.838  1.00  0.00    -0.237 OA
ATOM     68  O   UNL A   1      49.278  37.211  29.165  1.00  0.00    -0.744 OA
ENDBRANCH  64  65
ENDBRANCH  38  59
ENDBRANCH  12  13
ENDBRANCH   5   7
ENDBRANCH   2   3
ENDBRANCH   1   2
BRANCH   1  69
ATOM     69  C   UNL A   1      37.088  20.924  24.694  1.00  0.00     0.117 C 
BRANCH  69  70
ATOM     70  N   UNL A   1      35.758  20.435  25.007  1.00  0.00    -0.356 N 
ATOM     71  C   UNL A   1      34.694  21.045  25.589  1.00  0.00     0.223 C 
ATOM     72  H   UNL A   1      35.600  19.497  24.753  1.00  0.00     0.163 HD
ATOM     73  O   UNL A   1      33.695  20.360  25.807  1.00  0.00    -0.275 OA
BRANCH  71  74
ATOM     74  C   UNL A   1      34.755  22.522  25.945  1.00  0.00     0.082 C 
ATOM     75  C   UNL A   1      33.830  22.846  27.129  1.00  0.00     0.035 C 
ATOM     76  C   UNL A   1      34.451  23.365  24.693  1.00  0.00     0.035 C 
ATOM     77  C   UNL A   1      32.366  23.007  26.715  1.00  0.00     0.120 C 
ATOM     78  C   UNL A   1      32.956  23.456  24.389  1.00  0.00     0.120 C 
ATOM     79  N   UNL A   1      32.262  23.924  25.584  1.00  0.00    -0.342 N 
ATOM     80  C   UNL A   1      31.734  25.193  25.766  1.00  0.00     0.232 C 
ATOM     81  O   UNL A   1      31.346  25.583  26.872  1.00  0.00    -0.274 OA
BRANCH  80  82
ATOM     82  C   UNL A   1      31.614  26.120  24.563  1.00  0.00     0.169 C 
BRANCH  82  83
ATOM     83  S   UNL A   1      29.885  26.536  24.153  1.00  0.00    -0.147 SA
BRANCH  83  84
ATOM     84  C   UNL A   1      30.144  27.725  22.799  1.00  0.00     0.105 C 
BRANCH  84  85
ATOM     85  C   UNL A   1      29.495  29.068  23.013  1.00  0.00    -0.038 A 
ATOM     86  C   UNL A   1      30.050  30.031  23.871  1.00  0.00     0.004 A 
ATOM     87  C   UNL A   1      28.262  29.347  22.404  1.00  0.00     0.004 A 
ATOM     88  C   UNL A   1      29.408  31.251  24.088  1.00  0.00     0.000 A 
ATOM     89  C   UNL A   1      27.612  30.561  22.635  1.00  0.00     0.000 A 
ATOM     90  C   UNL A   1      28.188  31.514  23.472  1.00  0.00     0.000 A 
ENDBRANCH  84  85
ENDBRANCH  83  84
ENDBRANCH  82  83
ENDBRANCH  80  82
ENDBRANCH  71  74
ENDBRANCH  69  70
ENDBRANCH   1  69
TORSDOF 17
ENDMDL
MODEL 3
REMARK VINA RESULT:     -11.4      6.476     12.330
REMARK SMILES O=C(NCCCNC(=O)C1CCN(C(=O)CSCc2ccccc2)CC1)c1ccc(-c2c3nc(c(-c4ccc(S(=O)(=O)[O-])cc4)c4ccc([nH]4)c(-c4ccc(S(=O)(=O)[O-])cc4)c4nc(c(-c5ccc(S(=O)(=O)[O-])cc5)c5ccc2[nH]5)C=C4)C=C3)cc1
REMARK SMILES IDX 5 1 4 2 3 3 1 4 2 5 27 7 28 8 86 9 29 10 85 11 30 12 31 13
REMARK SMILES IDX 32 14 79 15 33 16 84 17 78 18 80 19 34 20 83 21 77 22 76 23
REMARK SMILES IDX 35 25 65 26 46 27 64 28 47 29 50 30 63 31 81 32 48 33 49 34
REMARK SMILES IDX 62 36 82 37 51 38 36 39 37 40 45 41 38 42 44 43 39 44 40 45
REMARK SMILES IDX 41 46 42 47 43 48 66 49 67 50 75 51 68 52 74 53 69 54 70 55
REMARK SMILES IDX 71 56 72 57 73 58 52 59 53 60 61 61 54 62 60 63 55 64 56 65
REMARK SMILES IDX 57 66 58 67 59 68 6 69 7 70 8 71 9 73 10 74 11 75 26 76
REMARK SMILES IDX 12 77 25 78 13 79 14 80 15 81 16 82 17 83 18 84 19 85 20 86
REMARK SMILES IDX 24 87 21 88 23 89 22 90
REMARK H PARENT 3 6 80 24 50 35 7 72
REMARK Flexibility Score: inf
ROOT
ATOM      1  C   UNL A   1      39.491  22.210  26.439  1.00  0.00     0.042 C 
ENDROOT
BRANCH   1   2
ATOM      2  C   UNL A   1      39.963  23.576  26.926  1.00  0.00     0.118 C 
BRANCH   2   3
ATOM      3  N   UNL A   1      40.805  24.264  25.957  1.00  0.00    -0.352 N 
ATOM      4  O   UNL A   1      41.853  25.997  24.976  1.00  0.00    -0.269 OA
ATOM      5  C   UNL A   1      41.304  25.544  25.978  1.00  0.00     0.251 C 
ATOM      6  H   UNL A   1      41.053  23.733  25.167  1.00  0.00     0.163 HD
BRANCH   5   7
ATOM      7  C   UNL A   1      41.161  26.378  27.190  1.00  0.00     0.039 A 
ATOM      8  C   UNL A   1      40.177  26.096  28.139  1.00  0.00     0.014 A 
ATOM      9  C   UNL A   1      42.039  27.449  27.388  1.00  0.00     0.014 A 
ATOM     10  C   UNL A   1      39.973  26.966  29.203  1.00  0.00     0.010 A 
ATOM     11  C   UNL A   1      41.889  28.272  28.509  1.00  0.00     0.010 A 
ATOM     12  C   UNL A   1      40.834  28.056  29.408  1.00  0.00    -0.014 A 
BRANCH  12  13
ATOM     13  C   UNL A   1      40.647  28.916  30.604  1.00  0.00     0.031 A 
ATOM     14  C   UNL A   1      41.539  28.780  31.809  1.00  0.00     0.074 A 
ATOM     15  C   UNL A   1      39.674  29.847  30.584  1.00  0.00     0.049 A 
ATOM     16  N   UNL A   1      41.521  29.468  32.923  1.00  0.00    -0.248 NA
ATOM     17  C   UNL A   1      42.578  27.740  31.763  1.00  0.00     0.031 C 
ATOM     18  C   UNL A   1      38.742  30.068  29.474  1.00  0.00     0.029 A 
ATOM     19  N   UNL A   1      39.315  30.792  31.510  1.00  0.00    -0.354 N 
ATOM     20  C   UNL A   1      42.529  28.933  33.718  1.00  0.00     0.074 A 
ATOM     21  C   UNL A   1      43.125  27.848  32.967  1.00  0.00     0.031 C 
ATOM     22  C   UNL A   1      37.954  31.113  29.762  1.00  0.00     0.029 A 
ATOM     23  C   UNL A   1      38.277  31.595  31.100  1.00  0.00     0.049 A 
ATOM     24  H   UNL A   1      39.758  30.887  32.383  1.00  0.00     0.167 HD
ATOM     25  C   UNL A   1      42.923  29.315  34.957  1.00  0.00     0.031 A 
ATOM     26  C   UNL A   1      37.640  32.597  31.732  1.00  0.00     0.031 A 
ATOM     27  C   UNL A   1      42.325  30.395  35.699  1.00  0.00     0.049 A 
ATOM     28  C   UNL A   1      38.079  32.982  33.115  1.00  0.00     0.074 A 
ATOM     29  C   UNL A   1      42.673  30.875  36.951  1.00  0.00     0.029 A 
ATOM     30  N   UNL A   1      41.254  31.161  35.264  1.00  0.00    -0.354 N 
ATOM     31  N   UNL A   1      39.053  32.482  33.836  1.00  0.00    -0.248 NA
ATOM     32  C   UNL A   1      37.333  34.065  33.768  1.00  0.00     0.031 C 
ATOM     33  C   UNL A   1      41.781  31.898  37.291  1.00  0.00     0.029 A 
ATOM     34  C   UNL A   1      40.912  32.092  36.230  1.00  0.00     0.049 A 
ATOM     35  H   UNL A   1      40.802  31.057  34.395  1.00  0.00     0.167 HD
ATOM     36  C   UNL A   1      39.046  33.199  35.025  1.00  0.00     0.074 A 
ATOM     37  C   UNL A   1      37.986  34.181  34.916  1.00  0.00     0.031 C 
ATOM     38  C   UNL A   1      39.847  33.056  36.110  1.00  0.00     0.031 A 
BRANCH  25  39
ATOM     39  C   UNL A   1      44.040  28.539  35.605  1.00  0.00    -0.014 A 
ATOM     40  C   UNL A   1      43.779  27.401  36.390  1.00  0.00     0.010 A 
ATOM     41  C   UNL A   1      45.376  28.927  35.388  1.00  0.00     0.010 A 
ATOM     42  C   UNL A   1      44.830  26.688  36.976  1.00  0.00     0.020 A 
ATOM     43  C   UNL A   1      46.431  28.203  35.953  1.00  0.00     0.020 A 
ATOM     44  C   UNL A   1      46.148  27.098  36.758  1.00  0.00     0.054 A 
BRANCH  44  45
ATOM     45  S   UNL A   1      47.493  26.148  37.522  1.00  0.00     0.124 S 
ATOM     46  O   UNL A   1      47.215  26.325  38.944  1.00  0.00    -0.237 OA
ATOM     47  O   UNL A   1      47.271  24.802  37.002  1.00  0.00    -0.237 OA
ATOM     48  O   UNL A   1      48.703  26.809  37.037  1.00  0.00    -0.744 OA
ENDBRANCH  44  45
ENDBRANCH  25  39
BRANCH  26  49
ATOM     49  C   UNL A   1      36.511  33.292  31.058  1.00  0.00    -0.014 A 
ATOM     50  C   UNL A   1      35.249  33.370  31.669  1.00  0.00     0.010 A 
ATOM     51  C   UNL A   1      36.710  33.915  29.811  1.00  0.00     0.010 A 
ATOM     52  C   UNL A   1      34.202  34.052  31.043  1.00  0.00     0.020 A 
ATOM     53  C   UNL A   1      35.673  34.621  29.195  1.00  0.00     0.020 A 
ATOM     54  C   UNL A   1      34.423  34.675  29.811  1.00  0.00     0.054 A 
BRANCH  54  55
ATOM     55  S   UNL A   1      33.069  35.608  29.045  1.00  0.00     0.124 S 
ATOM     56  O   UNL A   1      32.340  36.096  30.210  1.00  0.00    -0.237 OA
ATOM     57  O   UNL A   1      33.781  36.623  28.271  1.00  0.00    -0.237 OA
ATOM     58  O   UNL A   1      32.372  34.602  28.244  1.00  0.00    -0.744 OA
ENDBRANCH  54  55
ENDBRANCH  26  49
BRANCH  38  59
ATOM     59  C   UNL A   1      39.618  33.999  37.259  1.00  0.00    -0.014 A 
ATOM     60  C   UNL A   1      39.196  33.526  38.514  1.00  0.00     0.010 A 
ATOM     61  C   UNL A   1      39.865  35.373  37.089  1.00  0.00     0.010 A 
ATOM     62  C   UNL A   1      38.995  34.417  39.572  1.00  0.00     0.020 A 
ATOM     63  C   UNL A   1      39.690  36.263  38.151  1.00  0.00     0.020 A 
ATOM     64  C   UNL A   1      39.241  35.780  39.382  1.00  0.00     0.054 A 
BRANCH  64  65
ATOM     65  S   UNL A   1      39.011  36.913  40.780  1.00  0.00     0.124 S 
ATOM     66  O   UNL A   1      38.445  38.090  40.127  1.00  0.00    -0.237 OA
ATOM     67  O   UNL A   1      38.094  36.174  41.646  1.00  0.00    -0.237 OA
ATOM     68  O   UNL A   1      40.360  37.084  41.314  1.00  0.00    -0.744 OA
ENDBRANCH  64  65
ENDBRANCH  38  59
ENDBRANCH  12  13
ENDBRANCH   5   7
ENDBRANCH   2   3
ENDBRANCH   1   2
BRANCH   1  69
ATOM     69  C   UNL A   1      38.012  22.154  26.084  1.00  0.00     0.117 C 
BRANCH  69  70
ATOM     70  N   UNL A   1      37.777  22.544  24.706  1.00  0.00    -0.356 N 
ATOM     71  C   UNL A   1      36.625  22.758  24.021  1.00  0.00     0.223 C 
ATOM     72  H   UNL A   1      38.596  22.675  24.176  1.00  0.00     0.163 HD
ATOM     73  O   UNL A   1      36.716  23.009  22.819  1.00  0.00    -0.275 OA
BRANCH  71  74
ATOM     74  C   UNL A   1      35.283  22.689  24.733  1.00  0.00     0.082 C 
ATOM     75  C   UNL A   1      34.174  22.212  23.781  1.00  0.00     0.035 C 
ATOM     76  C   UNL A   1      34.976  24.050  25.383  1.00  0.00     0.035 C 
ATOM     77  C   UNL A   1      33.639  23.329  22.881  1.00  0.00     0.120 C 
ATOM     78  C   UNL A   1      34.443  25.077  24.385  1.00  0.00     0.120 C 
ATOM     79  N   UNL A   1      33.301  24.500  23.684  1.00  0.00    -0.342 N 
ATOM     80  C   UNL A   1      31.971  24.838  23.891  1.00  0.00     0.232 C 
ATOM     81  O   UNL A   1      31.049  24.168  23.416  1.00  0.00    -0.274 OA
BRANCH  80  82
ATOM     82  C   UNL A   1      31.647  26.080  24.712  1.00  0.00     0.169 C 
BRANCH  82  83
ATOM     83  S   UNL A   1      31.986  27.634  23.817  1.00  0.00    -0.147 SA
BRANCH  83  84
ATOM     84  C   UNL A   1      30.732  27.538  22.501  1.00  0.00     0.105 C 
BRANCH  84  85
ATOM     85  C   UNL A   1      29.694  28.629  22.544  1.00  0.00    -0.038 A 
ATOM     86  C   UNL A   1      28.386  28.390  22.995  1.00  0.00     0.004 A 
ATOM     87  C   UNL A   1      30.007  29.904  22.049  1.00  0.00     0.004 A 
ATOM     88  C   UNL A   1      27.429  29.405  22.984  1.00  0.00     0.000 A 
ATOM     89  C   UNL A   1      29.045  30.915  22.023  1.00  0.00     0.000 A 
ATOM     90  C   UNL A   1      27.757  30.667  22.495  1.00  0.00     0.000 A 
ENDBRANCH  84  85
ENDBRANCH  83  84
ENDBRANCH  82  83
ENDBRANCH  80  82
ENDBRANCH  71  74
ENDBRANCH  69  70
ENDBRANCH   1  69
TORSDOF 17
ENDMDL
