MODEL 1
REMARK VINA RESULT:     -11.3      0.000      0.000
REMARK SMILES Cc1nn(C)cc1CNC(=O)[C@H]1[C@@H]2CC[C@@H](C2)[C@@H]1C(=O)NCCCNC(=O)c1ccc(-c2c3nc(c(-c4ccc(S(=O)(=O)[O-])cc4)c4ccc([nH]4)c(-c4ccc(S(=O)(=O)[O-])cc4)c4nc(c(-c5ccc(S(=O)(=O)[O-])cc5)c5ccc2[nH]5)C=C4)C=C3)cc1
REMARK SMILES IDX 23 1 22 2 21 3 19 4 20 5 18 7 12 8 13 9 14 10 17 11 16 12
REMARK SMILES IDX 15 13 10 14 9 15 11 17 8 18 7 19 1 20 2 21 3 22 4 23 6 24
REMARK SMILES IDX 5 25 24 26 25 27 26 28 27 30 28 31 29 32 87 33 30 34 86 35
REMARK SMILES IDX 31 36 32 37 33 38 80 39 34 40 85 41 79 42 81 43 35 44 84 45
REMARK SMILES IDX 78 46 77 47 36 49 66 50 47 51 65 52 48 53 51 54 64 55 82 56
REMARK SMILES IDX 49 57 50 58 63 60 83 61 52 62 37 63 38 64 46 65 39 66 45 67
REMARK SMILES IDX 40 68 41 69 42 70 43 71 44 72 67 73 68 74 76 75 69 76 75 77
REMARK SMILES IDX 70 78 71 79 72 80 73 81 74 82 53 83 54 84 62 85 55 86 61 87
REMARK SMILES IDX 56 88 57 89 58 90 59 91 60 92
REMARK H PARENT 21 6 9 16 25 29 81 48 51 59
REMARK Flexibility Score: inf
ROOT
ATOM      1  C   UNL A   1      35.818  23.699  26.048  1.00  0.00     0.042 C 
ENDROOT
BRANCH   1   2
ATOM      2  C   UNL A   1      34.484  23.886  25.357  1.00  0.00     0.117 C 
BRANCH   2   3
ATOM      3  N   UNL A   1      34.492  24.946  24.368  1.00  0.00    -0.356 N 
ATOM      4  C   UNL A   1      33.815  26.109  24.247  1.00  0.00     0.224 C 
ATOM      5  O   UNL A   1      34.102  26.798  23.259  1.00  0.00    -0.275 OA
ATOM      6  H   UNL A   1      35.124  24.786  23.630  1.00  0.00     0.163 HD
BRANCH   4   7
ATOM      7  C   UNL A   1      32.710  26.593  25.176  1.00  0.00     0.094 C 
ATOM      8  C   UNL A   1      31.638  27.615  24.752  1.00  0.00     0.094 C 
ATOM      9  C   UNL A   1      31.669  28.621  25.942  1.00  0.00     0.002 C 
ATOM     10  C   UNL A   1      32.955  29.475  25.888  1.00  0.00     0.005 C 
ATOM     11  C   UNL A   1      31.993  27.721  27.139  1.00  0.00     0.009 C 
ATOM     12  C   UNL A   1      33.269  27.176  26.499  1.00  0.00     0.002 C 
ATOM     13  C   UNL A   1      34.056  28.471  26.259  1.00  0.00     0.005 C 
BRANCH   8  14
ATOM     14  C   UNL A   1      30.278  26.946  24.570  1.00  0.00     0.224 C 
ATOM     15  N   UNL A   1      29.535  27.248  23.466  1.00  0.00    -0.352 N 
ATOM     16  H   UNL A   1      28.678  26.766  23.402  1.00  0.00     0.163 HD
ATOM     17  O   UNL A   1      29.812  26.154  25.388  1.00  0.00    -0.275 OA
BRANCH  15  18
ATOM     18  C   UNL A   1      29.799  28.160  22.369  1.00  0.00     0.155 C 
BRANCH  18  19
ATOM     19  C   UNL A   1      29.080  29.439  22.608  1.00  0.00     0.012 A 
ATOM     20  C   UNL A   1      26.706  28.627  23.405  1.00  0.00     0.069 C 
ATOM     21  C   UNL A   1      27.738  29.635  23.052  1.00  0.00     0.064 A 
ATOM     22  N   UNL A   1      27.425  30.935  23.140  1.00  0.00    -0.178 NA
ATOM     23  N   UNL A   1      28.560  31.569  22.808  1.00  0.00    -0.275 N 
ATOM     24  C   UNL A   1      29.575  30.724  22.489  1.00  0.00     0.114 A 
ATOM     25  C   UNL A   1      28.597  33.010  22.794  1.00  0.00     0.173 C 
ENDBRANCH  18  19
ENDBRANCH  15  18
ENDBRANCH   8  14
ENDBRANCH   4   7
ENDBRANCH   2   3
ENDBRANCH   1   2
BRANCH   1  26
ATOM     26  C   UNL A   1      36.985  23.736  25.086  1.00  0.00     0.118 C 
BRANCH  26  27
ATOM     27  N   UNL A   1      38.027  22.785  25.451  1.00  0.00    -0.352 N 
ATOM     28  C   UNL A   1      39.220  22.984  26.107  1.00  0.00     0.251 C 
ATOM     29  H   UNL A   1      37.850  21.852  25.187  1.00  0.00     0.163 HD
ATOM     30  O   UNL A   1      40.076  22.108  26.090  1.00  0.00    -0.269 OA
BRANCH  28  31
ATOM     31  C   UNL A   1      39.470  24.265  26.804  1.00  0.00     0.039 A 
ATOM     32  C   UNL A   1      38.969  24.460  28.094  1.00  0.00     0.014 A 
ATOM     33  C   UNL A   1      40.213  25.270  26.187  1.00  0.00     0.014 A 
ATOM     34  C   UNL A   1      39.289  25.631  28.786  1.00  0.00     0.010 A 
ATOM     35  C   UNL A   1      40.649  26.360  26.925  1.00  0.00     0.010 A 
ATOM     36  C   UNL A   1      40.174  26.568  28.225  1.00  0.00    -0.014 A 
BRANCH  36  37
ATOM     37  C   UNL A   1      40.596  27.790  28.957  1.00  0.00     0.031 A 
ATOM     38  C   UNL A   1      41.929  27.818  29.660  1.00  0.00     0.074 A 
ATOM     39  C   UNL A   1      39.750  28.835  29.061  1.00  0.00     0.049 A 
ATOM     40  N   UNL A   1      42.437  28.748  30.426  1.00  0.00    -0.248 NA
ATOM     41  C   UNL A   1      42.790  26.629  29.518  1.00  0.00     0.031 C 
ATOM     42  C   UNL A   1      38.407  28.905  28.478  1.00  0.00     0.029 A 
ATOM     43  N   UNL A   1      39.890  30.039  29.706  1.00  0.00    -0.354 N 
ATOM     44  C   UNL A   1      43.652  28.243  30.879  1.00  0.00     0.074 A 
ATOM     45  C   UNL A   1      43.781  26.905  30.352  1.00  0.00     0.031 C 
ATOM     46  C   UNL A   1      37.863  30.098  28.764  1.00  0.00     0.029 A 
ATOM     47  C   UNL A   1      38.792  30.860  29.591  1.00  0.00     0.049 A 
ATOM     48  H   UNL A   1      40.701  30.291  30.203  1.00  0.00     0.167 HD
ATOM     49  C   UNL A   1      44.590  28.849  31.644  1.00  0.00     0.031 A 
ATOM     50  C   UNL A   1      38.554  32.083  30.105  1.00  0.00     0.031 A 
ATOM     51  C   UNL A   1      44.471  30.195  32.135  1.00  0.00     0.049 A 
ATOM     52  C   UNL A   1      39.620  32.741  30.938  1.00  0.00     0.074 A 
ATOM     53  C   UNL A   1      45.401  30.932  32.846  1.00  0.00     0.029 A 
ATOM     54  N   UNL A   1      43.359  31.004  31.966  1.00  0.00    -0.354 N 
ATOM     55  N   UNL A   1      40.800  32.281  31.280  1.00  0.00    -0.248 NA
ATOM     56  C   UNL A   1      39.329  34.090  31.444  1.00  0.00     0.031 C 
ATOM     57  C   UNL A   1      44.826  32.165  33.163  1.00  0.00     0.029 A 
ATOM     58  C   UNL A   1      43.565  32.222  32.588  1.00  0.00     0.049 A 
ATOM     59  H   UNL A   1      42.543  30.749  31.477  1.00  0.00     0.167 HD
ATOM     60  C   UNL A   1      41.402  33.294  32.017  1.00  0.00     0.074 A 
ATOM     61  C   UNL A   1      40.465  34.398  32.055  1.00  0.00     0.031 C 
ATOM     62  C   UNL A   1      42.621  33.311  32.611  1.00  0.00     0.031 A 
BRANCH  49  63
ATOM     63  C   UNL A   1      45.826  28.065  31.998  1.00  0.00    -0.014 A 
ATOM     64  C   UNL A   1      45.879  27.262  33.152  1.00  0.00     0.010 A 
ATOM     65  C   UNL A   1      46.932  28.084  31.128  1.00  0.00     0.010 A 
ATOM     66  C   UNL A   1      47.025  26.519  33.446  1.00  0.00     0.020 A 
ATOM     67  C   UNL A   1      48.068  27.318  31.402  1.00  0.00     0.020 A 
ATOM     68  C   UNL A   1      48.111  26.549  32.567  1.00  0.00     0.054 A 
BRANCH  68  69
ATOM     69  S   UNL A   1      49.564  25.533  32.949  1.00  0.00     0.124 S 
ATOM     70  O   UNL A   1      50.435  26.496  33.619  1.00  0.00    -0.237 OA
ATOM     71  O   UNL A   1      49.007  24.489  33.804  1.00  0.00    -0.237 OA
ATOM     72  O   UNL A   1      50.028  25.082  31.639  1.00  0.00    -0.744 OA
ENDBRANCH  68  69
ENDBRANCH  49  63
BRANCH  50  73
ATOM     73  C   UNL A   1      37.255  32.763  29.846  1.00  0.00    -0.014 A 
ATOM     74  C   UNL A   1      36.182  32.632  30.746  1.00  0.00     0.010 A 
ATOM     75  C   UNL A   1      37.084  33.550  28.692  1.00  0.00     0.010 A 
ATOM     76  C   UNL A   1      34.954  33.249  30.481  1.00  0.00     0.020 A 
ATOM     77  C   UNL A   1      35.870  34.197  28.441  1.00  0.00     0.020 A 
ATOM     78  C   UNL A   1      34.807  34.030  29.331  1.00  0.00     0.054 A 
BRANCH  78  79
ATOM     79  S   UNL A   1      33.218  34.851  29.026  1.00  0.00     0.124 S 
ATOM     80  O   UNL A   1      32.611  34.838  30.353  1.00  0.00    -0.237 OA
ATOM     81  O   UNL A   1      33.633  36.161  28.529  1.00  0.00    -0.237 OA
ATOM     82  O   UNL A   1      32.575  33.991  28.034  1.00  0.00    -0.744 OA
ENDBRANCH  78  79
ENDBRANCH  50  73
BRANCH  62  83
ATOM     83  C   UNL A   1      43.033  34.573  33.320  1.00  0.00    -0.014 A 
ATOM     84  C   UNL A   1      42.832  34.734  34.702  1.00  0.00     0.010 A 
ATOM     85  C   UNL A   1      43.695  35.584  32.600  1.00  0.00     0.010 A 
ATOM     86  C   UNL A   1      43.256  35.899  35.344  1.00  0.00     0.020 A 
ATOM     87  C   UNL A   1      44.149  36.736  33.245  1.00  0.00     0.020 A 
ATOM     88  C   UNL A   1      43.914  36.892  34.612  1.00  0.00     0.054 A 
BRANCH  88  89
ATOM     89  S   UNL A   1      44.499  38.372  35.479  1.00  0.00     0.124 S 
ATOM     90  O   UNL A   1      45.949  38.236  35.369  1.00  0.00    -0.237 OA
ATOM     91  O   UNL A   1      43.908  39.456  34.699  1.00  0.00    -0.237 OA
ATOM     92  O   UNL A   1      43.961  38.220  36.830  1.00  0.00    -0.744 OA
ENDBRANCH  88  89
ENDBRANCH  62  83
ENDBRANCH  36  37
ENDBRANCH  28  31
ENDBRANCH  26  27
ENDBRANCH   1  26
TORSDOF 16
ENDMDL
MODEL 2
REMARK VINA RESULT:     -11.2      2.851      9.128
REMARK SMILES Cc1nn(C)cc1CNC(=O)[C@H]1[C@@H]2CC[C@@H](C2)[C@@H]1C(=O)NCCCNC(=O)c1ccc(-c2c3nc(c(-c4ccc(S(=O)(=O)[O-])cc4)c4ccc([nH]4)c(-c4ccc(S(=O)(=O)[O-])cc4)c4nc(c(-c5ccc(S(=O)(=O)[O-])cc5)c5ccc2[nH]5)C=C4)C=C3)cc1
REMARK SMILES IDX 23 1 22 2 21 3 19 4 20 5 18 7 12 8 13 9 14 10 17 11 16 12
REMARK SMILES IDX 15 13 10 14 9 15 11 17 8 18 7 19 1 20 2 21 3 22 4 23 6 24
REMARK SMILES IDX 5 25 24 26 25 27 26 28 27 30 28 31 29 32 87 33 30 34 86 35
REMARK SMILES IDX 31 36 32 37 33 38 80 39 34 40 85 41 79 42 81 43 35 44 84 45
REMARK SMILES IDX 78 46 77 47 36 49 66 50 47 51 65 52 48 53 51 54 64 55 82 56
REMARK SMILES IDX 49 57 50 58 63 60 83 61 52 62 37 63 38 64 46 65 39 66 45 67
REMARK SMILES IDX 40 68 41 69 42 70 43 71 44 72 67 73 68 74 76 75 69 76 75 77
REMARK SMILES IDX 70 78 71 79 72 80 73 81 74 82 53 83 54 84 62 85 55 86 61 87
REMARK SMILES IDX 56 88 57 89 58 90 59 91 60 92
REMARK H PARENT 21 6 9 16 25 29 81 48 51 59
REMARK Flexibility Score: inf
ROOT
ATOM      1  C   UNL A   1      33.913  28.724  25.416  1.00  0.00     0.042 C 
ENDROOT
BRANCH   1   2
ATOM      2  C   UNL A   1      33.965  27.352  24.779  1.00  0.00     0.117 C 
BRANCH   2   3
ATOM      3  N   UNL A   1      33.717  26.274  25.716  1.00  0.00    -0.356 N 
ATOM      4  C   UNL A   1      33.962  24.944  25.689  1.00  0.00     0.224 C 
ATOM      5  O   UNL A   1      33.629  24.316  26.702  1.00  0.00    -0.275 OA
ATOM      6  H   UNL A   1      33.279  26.571  26.546  1.00  0.00     0.163 HD
BRANCH   4   7
ATOM      7  C   UNL A   1      34.544  24.173  24.512  1.00  0.00     0.094 C 
ATOM      8  C   UNL A   1      33.862  22.939  23.892  1.00  0.00     0.094 C 
ATOM      9  C   UNL A   1      35.045  21.927  23.816  1.00  0.00     0.002 C 
ATOM     10  C   UNL A   1      35.400  21.412  25.229  1.00  0.00     0.005 C 
ATOM     11  C   UNL A   1      36.250  22.833  23.548  1.00  0.00     0.009 C 
ATOM     12  C   UNL A   1      35.992  23.694  24.784  1.00  0.00     0.002 C 
ATOM     13  C   UNL A   1      36.040  22.638  25.896  1.00  0.00     0.005 C 
BRANCH   8  14
ATOM     14  C   UNL A   1      33.266  23.265  22.525  1.00  0.00     0.224 C 
ATOM     15  N   UNL A   1      31.923  23.490  22.425  1.00  0.00    -0.352 N 
ATOM     16  H   UNL A   1      31.610  23.713  21.519  1.00  0.00     0.163 HD
ATOM     17  O   UNL A   1      33.944  23.320  21.500  1.00  0.00    -0.275 OA
BRANCH  15  18
ATOM     18  C   UNL A   1      30.881  23.454  23.434  1.00  0.00     0.155 C 
BRANCH  18  19
ATOM     19  C   UNL A   1      30.687  24.819  23.991  1.00  0.00     0.012 A 
ATOM     20  C   UNL A   1      30.285  24.347  26.549  1.00  0.00     0.069 C 
ATOM     21  C   UNL A   1      30.424  25.200  25.341  1.00  0.00     0.064 A 
ATOM     22  N   UNL A   1      30.291  26.527  25.470  1.00  0.00    -0.178 NA
ATOM     23  N   UNL A   1      30.515  27.001  24.234  1.00  0.00    -0.275 N 
ATOM     24  C   UNL A   1      30.761  26.025  23.320  1.00  0.00     0.114 A 
ATOM     25  C   UNL A   1      30.453  28.420  23.990  1.00  0.00     0.173 C 
ENDBRANCH  18  19
ENDBRANCH  15  18
ENDBRANCH   8  14
ENDBRANCH   4   7
ENDBRANCH   2   3
ENDBRANCH   1   2
BRANCH   1  26
ATOM     26  C   UNL A   1      33.697  28.666  26.912  1.00  0.00     0.118 C 
BRANCH  26  27
ATOM     27  N   UNL A   1      33.614  29.995  27.506  1.00  0.00    -0.352 N 
ATOM     28  C   UNL A   1      34.497  30.654  28.331  1.00  0.00     0.251 C 
ATOM     29  H   UNL A   1      32.798  30.499  27.283  1.00  0.00     0.163 HD
ATOM     30  O   UNL A   1      34.131  31.657  28.933  1.00  0.00    -0.269 OA
BRANCH  28  31
ATOM     31  C   UNL A   1      35.870  30.133  28.502  1.00  0.00     0.039 A 
ATOM     32  C   UNL A   1      36.772  30.193  27.437  1.00  0.00     0.014 A 
ATOM     33  C   UNL A   1      36.273  29.597  29.725  1.00  0.00     0.014 A 
ATOM     34  C   UNL A   1      38.095  29.790  27.633  1.00  0.00     0.010 A 
ATOM     35  C   UNL A   1      37.615  29.337  29.958  1.00  0.00     0.010 A 
ATOM     36  C   UNL A   1      38.540  29.406  28.910  1.00  0.00    -0.014 A 
BRANCH  36  37
ATOM     37  C   UNL A   1      39.954  29.040  29.175  1.00  0.00     0.031 A 
ATOM     38  C   UNL A   1      40.903  30.072  29.729  1.00  0.00     0.074 A 
ATOM     39  C   UNL A   1      40.404  27.813  28.839  1.00  0.00     0.049 A 
ATOM     40  N   UNL A   1      42.190  29.978  29.941  1.00  0.00    -0.248 NA
ATOM     41  C   UNL A   1      40.342  31.397  30.052  1.00  0.00     0.031 C 
ATOM     42  C   UNL A   1      39.599  26.747  28.237  1.00  0.00     0.029 A 
ATOM     43  N   UNL A   1      41.655  27.259  28.946  1.00  0.00    -0.354 N 
ATOM     44  C   UNL A   1      42.592  31.233  30.386  1.00  0.00     0.074 A 
ATOM     45  C   UNL A   1      41.429  32.089  30.360  1.00  0.00     0.031 C 
ATOM     46  C   UNL A   1      40.367  25.660  28.060  1.00  0.00     0.029 A 
ATOM     47  C   UNL A   1      41.729  25.964  28.487  1.00  0.00     0.049 A 
ATOM     48  H   UNL A   1      42.428  27.742  29.319  1.00  0.00     0.167 HD
ATOM     49  C   UNL A   1      43.816  31.633  30.805  1.00  0.00     0.031 A 
ATOM     50  C   UNL A   1      42.777  25.121  28.404  1.00  0.00     0.031 A 
ATOM     51  C   UNL A   1      44.962  30.767  30.864  1.00  0.00     0.049 A 
ATOM     52  C   UNL A   1      44.122  25.584  28.892  1.00  0.00     0.074 A 
ATOM     53  C   UNL A   1      46.224  31.049  31.352  1.00  0.00     0.029 A 
ATOM     54  N   UNL A   1      44.984  29.453  30.421  1.00  0.00    -0.354 N 
ATOM     55  N   UNL A   1      44.461  26.748  29.393  1.00  0.00    -0.248 NA
ATOM     56  C   UNL A   1      45.225  24.616  28.817  1.00  0.00     0.031 C 
ATOM     57  C   UNL A   1      47.030  29.926  31.146  1.00  0.00     0.029 A 
ATOM     58  C   UNL A   1      46.248  28.921  30.595  1.00  0.00     0.049 A 
ATOM     59  H   UNL A   1      44.215  28.972  30.039  1.00  0.00     0.167 HD
ATOM     60  C   UNL A   1      45.809  26.642  29.718  1.00  0.00     0.074 A 
ATOM     61  C   UNL A   1      46.217  25.296  29.375  1.00  0.00     0.031 C 
ATOM     62  C   UNL A   1      46.635  27.576  30.252  1.00  0.00     0.031 A 
BRANCH  49  63
ATOM     63  C   UNL A   1      43.982  33.068  31.234  1.00  0.00    -0.014 A 
ATOM     64  C   UNL A   1      44.244  34.086  30.299  1.00  0.00     0.010 A 
ATOM     65  C   UNL A   1      43.811  33.411  32.588  1.00  0.00     0.010 A 
ATOM     66  C   UNL A   1      44.364  35.414  30.714  1.00  0.00     0.020 A 
ATOM     67  C   UNL A   1      43.899  34.742  33.002  1.00  0.00     0.020 A 
ATOM     68  C   UNL A   1      44.187  35.735  32.063  1.00  0.00     0.054 A 
BRANCH  68  69
ATOM     69  S   UNL A   1      44.297  37.474  32.564  1.00  0.00     0.124 S 
ATOM     70  O   UNL A   1      44.124  38.165  31.287  1.00  0.00    -0.237 OA
ATOM     71  O   UNL A   1      43.188  37.606  33.504  1.00  0.00    -0.237 OA
ATOM     72  O   UNL A   1      45.629  37.584  33.153  1.00  0.00    -0.744 OA
ENDBRANCH  68  69
ENDBRANCH  49  63
BRANCH  50  73
ATOM     73  C   UNL A   1      42.595  23.755  27.838  1.00  0.00    -0.014 A 
ATOM     74  C   UNL A   1      42.774  23.516  26.463  1.00  0.00     0.010 A 
ATOM     75  C   UNL A   1      42.241  22.682  28.676  1.00  0.00     0.010 A 
ATOM     76  C   UNL A   1      42.573  22.237  25.934  1.00  0.00     0.020 A 
ATOM     77  C   UNL A   1      42.072  21.395  28.156  1.00  0.00     0.020 A 
ATOM     78  C   UNL A   1      42.225  21.184  26.784  1.00  0.00     0.054 A 
BRANCH  78  79
ATOM     79  S   UNL A   1      42.005  19.526  26.082  1.00  0.00     0.124 S 
ATOM     80  O   UNL A   1      42.913  19.557  24.941  1.00  0.00    -0.237 OA
ATOM     81  O   UNL A   1      42.405  18.660  27.189  1.00  0.00    -0.237 OA
ATOM     82  O   UNL A   1      40.582  19.482  25.750  1.00  0.00    -0.744 OA
ENDBRANCH  78  79
ENDBRANCH  50  73
BRANCH  62  83
ATOM     83  C   UNL A   1      48.055  27.167  30.536  1.00  0.00    -0.014 A 
ATOM     84  C   UNL A   1      49.101  27.491  29.654  1.00  0.00     0.010 A 
ATOM     85  C   UNL A   1      48.354  26.506  31.742  1.00  0.00     0.010 A 
ATOM     86  C   UNL A   1      50.416  27.133  29.959  1.00  0.00     0.020 A 
ATOM     87  C   UNL A   1      49.672  26.175  32.065  1.00  0.00     0.020 A 
ATOM     88  C   UNL A   1      50.693  26.479  31.163  1.00  0.00     0.054 A 
BRANCH  88  89
ATOM     89  S   UNL A   1      52.415  26.070  31.557  1.00  0.00     0.124 S 
ATOM     90  O   UNL A   1      53.030  26.040  30.232  1.00  0.00    -0.237 OA
ATOM     91  O   UNL A   1      52.820  27.181  32.413  1.00  0.00    -0.237 OA
ATOM     92  O   UNL A   1      52.321  24.775  32.229  1.00  0.00    -0.744 OA
ENDBRANCH  88  89
ENDBRANCH  62  83
ENDBRANCH  36  37
ENDBRANCH  28  31
ENDBRANCH  26  27
ENDBRANCH   1  26
TORSDOF 16
ENDMDL
MODEL 3
REMARK VINA RESULT:     -11.2      3.331      4.692
REMARK SMILES Cc1nn(C)cc1CNC(=O)[C@H]1[C@@H]2CC[C@@H](C2)[C@@H]1C(=O)NCCCNC(=O)c1ccc(-c2c3nc(c(-c4ccc(S(=O)(=O)[O-])cc4)c4ccc([nH]4)c(-c4ccc(S(=O)(=O)[O-])cc4)c4nc(c(-c5ccc(S(=O)(=O)[O-])cc5)c5ccc2[nH]5)C=C4)C=C3)cc1
REMARK SMILES IDX 23 1 22 2 21 3 19 4 20 5 18 7 12 8 13 9 14 10 17 11 16 12
REMARK SMILES IDX 15 13 10 14 9 15 11 17 8 18 7 19 1 20 2 21 3 22 4 23 6 24
REMARK SMILES IDX 5 25 24 26 25 27 26 28 27 30 28 31 29 32 87 33 30 34 86 35
REMARK SMILES IDX 31 36 32 37 33 38 80 39 34 40 85 41 79 42 81 43 35 44 84 45
REMARK SMILES IDX 78 46 77 47 36 49 66 50 47 51 65 52 48 53 51 54 64 55 82 56
REMARK SMILES IDX 49 57 50 58 63 60 83 61 52 62 37 63 38 64 46 65 39 66 45 67
REMARK SMILES IDX 40 68 41 69 42 70 43 71 44 72 67 73 68 74 76 75 69 76 75 77
REMARK SMILES IDX 70 78 71 79 72 80 73 81 74 82 53 83 54 84 62 85 55 86 61 87
REMARK SMILES IDX 56 88 57 89 58 90 59 91 60 92
REMARK H PARENT 21 6 9 16 25 29 81 48 51 59
REMARK Flexibility Score: inf
ROOT
ATOM      1  C   UNL A   1      37.206  23.734  25.294  1.00  0.00     0.042 C 
ENDROOT
BRANCH   1   2
ATOM      2  C   UNL A   1      35.749  24.090  25.497  1.00  0.00     0.117 C 
BRANCH   2   3
ATOM      3  N   UNL A   1      35.084  24.509  24.279  1.00  0.00    -0.356 N 
ATOM      4  C   UNL A   1      34.032  25.319  24.026  1.00  0.00     0.224 C 
ATOM      5  O   UNL A   1      33.747  25.473  22.831  1.00  0.00    -0.275 OA
ATOM      6  H   UNL A   1      35.481  24.123  23.465  1.00  0.00     0.163 HD
BRANCH   4   7
ATOM      7  C   UNL A   1      33.157  25.990  25.075  1.00  0.00     0.094 C 
ATOM      8  C   UNL A   1      31.708  26.439  24.804  1.00  0.00     0.094 C 
ATOM      9  C   UNL A   1      31.715  27.893  25.365  1.00  0.00     0.002 C 
ATOM     10  C   UNL A   1      32.512  28.825  24.426  1.00  0.00     0.005 C 
ATOM     11  C   UNL A   1      32.690  27.799  26.542  1.00  0.00     0.009 C 
ATOM     12  C   UNL A   1      33.825  27.254  25.676  1.00  0.00     0.002 C 
ATOM     13  C   UNL A   1      33.964  28.371  24.634  1.00  0.00     0.005 C 
BRANCH   8  14
ATOM     14  C   UNL A   1      30.707  25.530  25.512  1.00  0.00     0.224 C 
ATOM     15  N   UNL A   1      30.427  24.307  24.974  1.00  0.00    -0.352 N 
ATOM     16  H   UNL A   1      29.788  23.766  25.492  1.00  0.00     0.163 HD
ATOM     17  O   UNL A   1      30.126  25.859  26.545  1.00  0.00    -0.275 OA
BRANCH  15  18
ATOM     18  C   UNL A   1      30.916  23.673  23.765  1.00  0.00     0.155 C 
BRANCH  18  19
ATOM     19  C   UNL A   1      31.806  22.538  24.129  1.00  0.00     0.012 A 
ATOM     20  C   UNL A   1      31.930  21.162  21.888  1.00  0.00     0.069 C 
ATOM     21  C   UNL A   1      32.238  21.451  23.312  1.00  0.00     0.064 A 
ATOM     22  N   UNL A   1      33.028  20.603  23.985  1.00  0.00    -0.178 NA
ATOM     23  N   UNL A   1      33.147  21.160  25.200  1.00  0.00    -0.275 N 
ATOM     24  C   UNL A   1      32.443  22.315  25.334  1.00  0.00     0.114 A 
ATOM     25  C   UNL A   1      33.943  20.509  26.211  1.00  0.00     0.173 C 
ENDBRANCH  18  19
ENDBRANCH  15  18
ENDBRANCH   8  14
ENDBRANCH   4   7
ENDBRANCH   2   3
ENDBRANCH   1   2
BRANCH   1  26
ATOM     26  C   UNL A   1      38.068  24.096  26.483  1.00  0.00     0.118 C 
BRANCH  26  27
ATOM     27  N   UNL A   1      39.490  23.983  26.185  1.00  0.00    -0.352 N 
ATOM     28  C   UNL A   1      40.534  24.816  26.514  1.00  0.00     0.251 C 
ATOM     29  H   UNL A   1      39.743  23.186  25.665  1.00  0.00     0.163 HD
ATOM     30  O   UNL A   1      41.615  24.686  25.952  1.00  0.00    -0.269 OA
BRANCH  28  31
ATOM     31  C   UNL A   1      40.336  25.878  27.525  1.00  0.00     0.039 A 
ATOM     32  C   UNL A   1      39.473  25.658  28.601  1.00  0.00     0.014 A 
ATOM     33  C   UNL A   1      41.018  27.089  27.417  1.00  0.00     0.014 A 
ATOM     34  C   UNL A   1      39.363  26.624  29.604  1.00  0.00     0.010 A 
ATOM     35  C   UNL A   1      41.020  27.979  28.482  1.00  0.00     0.010 A 
ATOM     36  C   UNL A   1      40.176  27.770  29.578  1.00  0.00    -0.014 A 
BRANCH  36  37
ATOM     37  C   UNL A   1      40.142  28.786  30.661  1.00  0.00     0.031 A 
ATOM     38  C   UNL A   1      41.029  28.622  31.869  1.00  0.00     0.074 A 
ATOM     39  C   UNL A   1      39.256  29.802  30.601  1.00  0.00     0.049 A 
ATOM     40  N   UNL A   1      41.080  29.343  32.958  1.00  0.00    -0.248 NA
ATOM     41  C   UNL A   1      41.955  27.474  31.872  1.00  0.00     0.031 C 
ATOM     42  C   UNL A   1      38.300  30.035  29.515  1.00  0.00     0.029 A 
ATOM     43  N   UNL A   1      39.009  30.827  31.480  1.00  0.00    -0.354 N 
ATOM     44  C   UNL A   1      42.012  28.719  33.781  1.00  0.00     0.074 A 
ATOM     45  C   UNL A   1      42.460  27.531  33.095  1.00  0.00     0.031 C 
ATOM     46  C   UNL A   1      37.596  31.147  29.777  1.00  0.00     0.029 A 
ATOM     47  C   UNL A   1      38.012  31.681  31.070  1.00  0.00     0.049 A 
ATOM     48  H   UNL A   1      39.501  30.940  32.325  1.00  0.00     0.167 HD
ATOM     49  C   UNL A   1      42.474  29.114  34.991  1.00  0.00     0.031 A 
ATOM     50  C   UNL A   1      37.480  32.762  31.672  1.00  0.00     0.031 A 
ATOM     51  C   UNL A   1      42.050  30.318  35.653  1.00  0.00     0.049 A 
ATOM     52  C   UNL A   1      38.023  33.190  33.009  1.00  0.00     0.074 A 
ATOM     53  C   UNL A   1      42.518  30.853  36.839  1.00  0.00     0.029 A 
ATOM     54  N   UNL A   1      41.063  31.173  35.186  1.00  0.00    -0.354 N 
ATOM     55  N   UNL A   1      38.969  32.635  33.730  1.00  0.00    -0.248 NA
ATOM     56  C   UNL A   1      37.438  34.397  33.608  1.00  0.00     0.031 C 
ATOM     57  C   UNL A   1      41.769  31.997  37.124  1.00  0.00     0.029 A 
ATOM     58  C   UNL A   1      40.884  32.214  36.078  1.00  0.00     0.049 A 
ATOM     59  H   UNL A   1      40.564  31.054  34.346  1.00  0.00     0.167 HD
ATOM     60  C   UNL A   1      39.110  33.442  34.853  1.00  0.00     0.074 A 
ATOM     61  C   UNL A   1      38.168  34.532  34.707  1.00  0.00     0.031 C 
ATOM     62  C   UNL A   1      39.944  33.293  35.912  1.00  0.00     0.031 A 
BRANCH  49  63
ATOM     63  C   UNL A   1      43.489  28.239  35.679  1.00  0.00    -0.014 A 
ATOM     64  C   UNL A   1      44.866  28.384  35.432  1.00  0.00     0.010 A 
ATOM     65  C   UNL A   1      43.060  27.298  36.634  1.00  0.00     0.010 A 
ATOM     66  C   UNL A   1      45.793  27.583  36.104  1.00  0.00     0.020 A 
ATOM     67  C   UNL A   1      43.986  26.518  37.330  1.00  0.00     0.020 A 
ATOM     68  C   UNL A   1      45.348  26.657  37.051  1.00  0.00     0.054 A 
BRANCH  68  69
ATOM     69  S   UNL A   1      46.578  25.668  37.944  1.00  0.00     0.124 S 
ATOM     70  O   UNL A   1      47.779  26.490  37.808  1.00  0.00    -0.237 OA
ATOM     71  O   UNL A   1      46.015  25.598  39.290  1.00  0.00    -0.237 OA
ATOM     72  O   UNL A   1      46.605  24.404  37.215  1.00  0.00    -0.744 OA
ENDBRANCH  68  69
ENDBRANCH  49  63
BRANCH  50  73
ATOM     73  C   UNL A   1      36.375  33.516  31.017  1.00  0.00    -0.014 A 
ATOM     74  C   UNL A   1      36.521  34.018  29.712  1.00  0.00     0.010 A 
ATOM     75  C   UNL A   1      35.164  33.735  31.700  1.00  0.00     0.010 A 
ATOM     76  C   UNL A   1      35.490  34.750  29.113  1.00  0.00     0.020 A 
ATOM     77  C   UNL A   1      34.119  34.436  31.093  1.00  0.00     0.020 A 
ATOM     78  C   UNL A   1      34.294  34.953  29.808  1.00  0.00     0.054 A 
BRANCH  78  79
ATOM     79  S   UNL A   1      32.957  35.874  28.999  1.00  0.00     0.124 S 
ATOM     80  O   UNL A   1      33.690  36.932  28.312  1.00  0.00    -0.237 OA
ATOM     81  O   UNL A   1      32.352  34.859  28.139  1.00  0.00    -0.237 OA
ATOM     82  O   UNL A   1      32.121  36.313  30.115  1.00  0.00    -0.744 OA
ENDBRANCH  78  79
ENDBRANCH  50  73
BRANCH  62  83
ATOM     83  C   UNL A   1      39.908  34.353  36.980  1.00  0.00    -0.014 A 
ATOM     84  C   UNL A   1      40.594  35.570  36.827  1.00  0.00     0.010 A 
ATOM     85  C   UNL A   1      39.116  34.152  38.126  1.00  0.00     0.010 A 
ATOM     86  C   UNL A   1      40.515  36.554  37.815  1.00  0.00     0.020 A 
ATOM     87  C   UNL A   1      39.009  35.145  39.101  1.00  0.00     0.020 A 
ATOM     88  C   UNL A   1      39.721  36.336  38.945  1.00  0.00     0.054 A 
BRANCH  88  89
ATOM     89  S   UNL A   1      39.596  37.648  40.189  1.00  0.00     0.124 S 
ATOM     90  O   UNL A   1      39.076  36.922  41.345  1.00  0.00    -0.237 OA
ATOM     91  O   UNL A   1      40.976  38.111  40.306  1.00  0.00    -0.237 OA
ATOM     92  O   UNL A   1      38.671  38.609  39.591  1.00  0.00    -0.744 OA
ENDBRANCH  88  89
ENDBRANCH  62  83
ENDBRANCH  36  37
ENDBRANCH  28  31
ENDBRANCH  26  27
ENDBRANCH   1  26
TORSDOF 16
ENDMDL
