MODEL 1
REMARK VINA RESULT:     -12.3      0.000      0.000
REMARK SMILES CCCN1CCC[C@@]2(CCN(c3ccc(C(=O)NCCCNC(=O)c4ccc(-c5c6nc(c(-c7ccc(S(=O)(=O)[O-])cc7)c7ccc([nH]7)c(-c7ccc(S(=O)(=O)[O-])cc7)c7nc(c(-c8ccc(S(=O)(=O)[O-])cc8)c8ccc5[nH]8)C=C7)C=C6)cc4)cn3)C2)C1=O
REMARK SMILES IDX 20 1 19 2 18 3 16 4 17 5 15 7 12 8 13 9 86 10 14 11 85 12
REMARK SMILES IDX 11 13 4 14 5 15 88 16 6 17 8 18 89 19 7 20 9 21 87 22 10 23
REMARK SMILES IDX 3 24 2 25 1 26 21 27 22 28 23 29 24 31 25 32 26 33 84 34
REMARK SMILES IDX 27 35 83 36 28 37 29 38 30 39 77 40 31 41 82 42 76 43 78 44
REMARK SMILES IDX 32 45 81 46 75 47 74 48 33 50 63 51 44 52 62 53 45 54 48 55
REMARK SMILES IDX 61 56 79 57 46 58 47 59 60 61 80 62 49 63 34 64 35 65 43 66
REMARK SMILES IDX 36 67 42 68 37 69 38 70 39 71 40 72 41 73 64 74 65 75 73 76
REMARK SMILES IDX 66 77 72 78 67 79 68 80 69 81 70 82 71 83 50 84 51 85 59 86
REMARK SMILES IDX 52 87 58 88 53 89 54 90 55 91 56 92 57 93
REMARK H PARENT 18 6 22 30 78 49 48 60
REMARK Flexibility Score: inf
ROOT
ATOM      1  C   UNL A   1      40.430  22.273  27.339  1.00  0.00     0.042 C 
ENDROOT
BRANCH   1   2
ATOM      2  C   UNL A   1      39.251  22.797  26.518  1.00  0.00     0.118 C 
BRANCH   2   3
ATOM      3  N   UNL A   1      38.638  21.747  25.723  1.00  0.00    -0.352 N 
ATOM      4  C   UNL A   1      37.377  21.593  25.201  1.00  0.00     0.252 C 
ATOM      5  O   UNL A   1      37.185  20.618  24.473  1.00  0.00    -0.269 OA
ATOM      6  H   UNL A   1      39.245  20.999  25.520  1.00  0.00     0.163 HD
BRANCH   4   7
ATOM      7  C   UNL A   1      36.261  22.541  25.437  1.00  0.00     0.058 A 
ATOM      8  C   UNL A   1      34.027  24.107  25.999  1.00  0.00     0.128 A 
ATOM      9  C   UNL A   1      35.053  24.606  25.205  1.00  0.00     0.048 A 
ATOM     10  N   UNL A   1      34.108  22.880  26.544  1.00  0.00    -0.239 NA
ATOM     11  C   UNL A   1      36.187  23.839  24.956  1.00  0.00     0.019 A 
ATOM     12  C   UNL A   1      35.203  22.125  26.241  1.00  0.00     0.127 A 
BRANCH   8  13
ATOM     13  N   UNL A   1      32.933  24.900  26.222  1.00  0.00    -0.356 N 
ATOM     14  N   UNL A   1      31.888  28.603  24.386  1.00  0.00    -0.342 N 
ATOM     15  C   UNL A   1      31.855  29.697  25.344  1.00  0.00     0.119 C 
ATOM     16  C   UNL A   1      31.329  27.370  24.709  1.00  0.00     0.230 C 
ATOM     17  C   UNL A   1      32.252  29.257  26.743  1.00  0.00     0.023 C 
ATOM     18  C   UNL A   1      31.623  26.889  26.136  1.00  0.00     0.069 C 
ATOM     19  O   UNL A   1      30.774  26.664  23.869  1.00  0.00    -0.274 OA
ATOM     20  C   UNL A   1      31.440  28.029  27.149  1.00  0.00     0.021 C 
ATOM     21  C   UNL A   1      30.779  25.650  26.495  1.00  0.00     0.040 C 
ATOM     22  C   UNL A   1      33.077  26.347  26.157  1.00  0.00     0.135 C 
ATOM     23  C   UNL A   1      31.585  24.480  25.918  1.00  0.00     0.119 C 
BRANCH  14  24
ATOM     24  C   UNL A   1      32.257  28.866  22.999  1.00  0.00     0.119 C 
BRANCH  24  25
ATOM     25  C   UNL A   1      33.653  28.414  22.577  1.00  0.00     0.018 C 
ATOM     26  C   UNL A   1      33.731  26.940  22.214  1.00  0.00     0.006 C 
ENDBRANCH  24  25
ENDBRANCH  14  24
ENDBRANCH   8  13
ENDBRANCH   4   7
ENDBRANCH   2   3
ENDBRANCH   1   2
BRANCH   1  27
ATOM     27  C   UNL A   1      41.596  23.256  27.423  1.00  0.00     0.118 C 
BRANCH  27  28
ATOM     28  N   UNL A   1      41.667  24.112  26.248  1.00  0.00    -0.352 N 
ATOM     29  C   UNL A   1      41.397  25.450  26.106  1.00  0.00     0.251 C 
ATOM     30  H   UNL A   1      41.955  23.659  25.423  1.00  0.00     0.163 HD
ATOM     31  O   UNL A   1      41.289  25.918  24.976  1.00  0.00    -0.269 OA
BRANCH  29  32
ATOM     32  C   UNL A   1      41.229  26.323  27.289  1.00  0.00     0.039 A 
ATOM     33  C   UNL A   1      42.181  27.320  27.525  1.00  0.00     0.014 A 
ATOM     34  C   UNL A   1      40.182  26.132  28.195  1.00  0.00     0.014 A 
ATOM     35  C   UNL A   1      42.055  28.153  28.641  1.00  0.00     0.010 A 
ATOM     36  C   UNL A   1      40.019  27.006  29.269  1.00  0.00     0.010 A 
ATOM     37  C   UNL A   1      40.957  28.022  29.505  1.00  0.00    -0.014 A 
BRANCH  37  38
ATOM     38  C   UNL A   1      40.772  28.946  30.653  1.00  0.00     0.031 A 
ATOM     39  C   UNL A   1      41.620  28.810  31.889  1.00  0.00     0.074 A 
ATOM     40  C   UNL A   1      39.797  29.875  30.602  1.00  0.00     0.049 A 
ATOM     41  N   UNL A   1      41.572  29.498  33.001  1.00  0.00    -0.248 NA
ATOM     42  C   UNL A   1      42.640  27.748  31.884  1.00  0.00     0.031 C 
ATOM     43  C   UNL A   1      38.881  30.078  29.476  1.00  0.00     0.029 A 
ATOM     44  N   UNL A   1      39.409  30.819  31.518  1.00  0.00    -0.354 N 
ATOM     45  C   UNL A   1      42.540  28.946  33.832  1.00  0.00     0.074 A 
ATOM     46  C   UNL A   1      43.128  27.836  33.114  1.00  0.00     0.031 C 
ATOM     47  C   UNL A   1      38.057  31.100  29.759  1.00  0.00     0.029 A 
ATOM     48  C   UNL A   1      38.357  31.598  31.097  1.00  0.00     0.049 A 
ATOM     49  H   UNL A   1      39.843  30.929  32.395  1.00  0.00     0.167 HD
ATOM     50  C   UNL A   1      42.915  29.336  35.075  1.00  0.00     0.031 A 
ATOM     51  C   UNL A   1      37.702  32.598  31.717  1.00  0.00     0.031 A 
ATOM     52  C   UNL A   1      42.333  30.446  35.781  1.00  0.00     0.049 A 
ATOM     53  C   UNL A   1      38.137  33.013  33.095  1.00  0.00     0.074 A 
ATOM     54  C   UNL A   1      42.681  30.957  37.020  1.00  0.00     0.029 A 
ATOM     55  N   UNL A   1      41.278  31.217  35.314  1.00  0.00    -0.354 N 
ATOM     56  N   UNL A   1      39.099  32.520  33.839  1.00  0.00    -0.248 NA
ATOM     57  C   UNL A   1      37.407  34.128  33.713  1.00  0.00     0.031 C 
ATOM     58  C   UNL A   1      41.805  32.005  37.323  1.00  0.00     0.029 A 
ATOM     59  C   UNL A   1      40.949  32.184  36.249  1.00  0.00     0.049 A 
ATOM     60  H   UNL A   1      40.829  31.094  34.447  1.00  0.00     0.167 HD
ATOM     61  C   UNL A   1      39.105  33.280  35.002  1.00  0.00     0.074 A 
ATOM     62  C   UNL A   1      38.062  34.275  34.857  1.00  0.00     0.031 C 
ATOM     63  C   UNL A   1      39.905  33.166  36.091  1.00  0.00     0.031 A 
BRANCH  50  64
ATOM     64  C   UNL A   1      44.008  28.550  35.752  1.00  0.00    -0.014 A 
ATOM     65  C   UNL A   1      45.363  28.886  35.572  1.00  0.00     0.010 A 
ATOM     66  C   UNL A   1      43.677  27.487  36.611  1.00  0.00     0.010 A 
ATOM     67  C   UNL A   1      46.366  28.146  36.203  1.00  0.00     0.020 A 
ATOM     68  C   UNL A   1      44.676  26.762  37.268  1.00  0.00     0.020 A 
ATOM     69  C   UNL A   1      46.016  27.085  37.044  1.00  0.00     0.054 A 
BRANCH  69  70
ATOM     70  S   UNL A   1      47.339  26.153  37.865  1.00  0.00     0.124 S 
ATOM     71  O   UNL A   1      47.871  25.354  36.764  1.00  0.00    -0.237 OA
ATOM     72  O   UNL A   1      48.220  27.210  38.355  1.00  0.00    -0.237 OA
ATOM     73  O   UNL A   1      46.641  25.397  38.901  1.00  0.00    -0.744 OA
ENDBRANCH  69  70
ENDBRANCH  50  64
BRANCH  51  74
ATOM     74  C   UNL A   1      36.579  33.287  31.028  1.00  0.00    -0.014 A 
ATOM     75  C   UNL A   1      35.293  33.300  31.597  1.00  0.00     0.010 A 
ATOM     76  C   UNL A   1      36.794  33.957  29.809  1.00  0.00     0.010 A 
ATOM     77  C   UNL A   1      34.240  33.959  30.955  1.00  0.00     0.020 A 
ATOM     78  C   UNL A   1      35.749  34.638  29.177  1.00  0.00     0.020 A 
ATOM     79  C   UNL A   1      34.476  34.626  29.750  1.00  0.00     0.054 A 
BRANCH  79  80
ATOM     80  S   UNL A   1      33.110  35.525  28.965  1.00  0.00     0.124 S 
ATOM     81  O   UNL A   1      32.488  34.484  28.153  1.00  0.00    -0.237 OA
ATOM     82  O   UNL A   1      32.331  35.983  30.113  1.00  0.00    -0.237 OA
ATOM     83  O   UNL A   1      33.783  36.584  28.217  1.00  0.00    -0.744 OA
ENDBRANCH  79  80
ENDBRANCH  51  74
BRANCH  63  84
ATOM     84  C   UNL A   1      39.704  34.160  37.203  1.00  0.00    -0.014 A 
ATOM     85  C   UNL A   1      39.018  33.810  38.379  1.00  0.00     0.010 A 
ATOM     86  C   UNL A   1      40.258  35.448  37.089  1.00  0.00     0.010 A 
ATOM     87  C   UNL A   1      38.862  34.742  39.408  1.00  0.00     0.020 A 
ATOM     88  C   UNL A   1      40.127  36.374  38.126  1.00  0.00     0.020 A 
ATOM     89  C   UNL A   1      39.417  36.019  39.275  1.00  0.00     0.054 A 
BRANCH  89  90
ATOM     90  S   UNL A   1      39.239  37.196  40.643  1.00  0.00     0.124 S 
ATOM     91  O   UNL A   1      40.616  37.644  40.838  1.00  0.00    -0.237 OA
ATOM     92  O   UNL A   1      38.325  38.194  40.092  1.00  0.00    -0.237 OA
ATOM     93  O   UNL A   1      38.688  36.388  41.728  1.00  0.00    -0.744 OA
ENDBRANCH  89  90
ENDBRANCH  63  84
ENDBRANCH  37  38
ENDBRANCH  29  32
ENDBRANCH  27  28
ENDBRANCH   1  27
TORSDOF 16
ENDMDL
MODEL 2
REMARK VINA RESULT:     -11.8      6.079     12.044
REMARK SMILES CCCN1CCC[C@@]2(CCN(c3ccc(C(=O)NCCCNC(=O)c4ccc(-c5c6nc(c(-c7ccc(S(=O)(=O)[O-])cc7)c7ccc([nH]7)c(-c7ccc(S(=O)(=O)[O-])cc7)c7nc(c(-c8ccc(S(=O)(=O)[O-])cc8)c8ccc5[nH]8)C=C7)C=C6)cc4)cn3)C2)C1=O
REMARK SMILES IDX 20 1 19 2 18 3 16 4 17 5 15 7 12 8 13 9 86 10 14 11 85 12
REMARK SMILES IDX 11 13 4 14 5 15 88 16 6 17 8 18 89 19 7 20 9 21 87 22 10 23
REMARK SMILES IDX 3 24 2 25 1 26 21 27 22 28 23 29 24 31 25 32 26 33 84 34
REMARK SMILES IDX 27 35 83 36 28 37 29 38 30 39 77 40 31 41 82 42 76 43 78 44
REMARK SMILES IDX 32 45 81 46 75 47 74 48 33 50 63 51 44 52 62 53 45 54 48 55
REMARK SMILES IDX 61 56 79 57 46 58 47 59 60 61 80 62 49 63 34 64 35 65 43 66
REMARK SMILES IDX 36 67 42 68 37 69 38 70 39 71 40 72 41 73 64 74 65 75 73 76
REMARK SMILES IDX 66 77 72 78 67 79 68 80 69 81 70 82 71 83 50 84 51 85 59 86
REMARK SMILES IDX 52 87 58 88 53 89 54 90 55 91 56 92 57 93
REMARK H PARENT 18 6 22 30 78 49 48 60
REMARK Flexibility Score: inf
ROOT
ATOM      1  C   UNL A   1      34.274  31.791  28.412  1.00  0.00     0.042 C 
ENDROOT
BRANCH   1   2
ATOM      2  C   UNL A   1      34.009  30.632  27.449  1.00  0.00     0.118 C 
BRANCH   2   3
ATOM      3  N   UNL A   1      32.791  30.833  26.684  1.00  0.00    -0.352 N 
ATOM      4  C   UNL A   1      32.132  30.054  25.765  1.00  0.00     0.252 C 
ATOM      5  O   UNL A   1      31.046  30.466  25.353  1.00  0.00    -0.269 OA
ATOM      6  H   UNL A   1      32.353  31.697  26.857  1.00  0.00     0.163 HD
BRANCH   4   7
ATOM      7  C   UNL A   1      32.634  28.746  25.275  1.00  0.00     0.058 A 
ATOM      8  C   UNL A   1      33.583  26.407  24.097  1.00  0.00     0.128 A 
ATOM      9  C   UNL A   1      33.166  26.407  25.423  1.00  0.00     0.048 A 
ATOM     10  N   UNL A   1      33.575  27.539  23.369  1.00  0.00    -0.239 NA
ATOM     11  C   UNL A   1      32.729  27.584  26.024  1.00  0.00     0.019 A 
ATOM     12  C   UNL A   1      33.091  28.669  23.962  1.00  0.00     0.127 A 
BRANCH   8  13
ATOM     13  N   UNL A   1      34.011  25.228  23.550  1.00  0.00    -0.356 N 
ATOM     14  N   UNL A   1      34.726  21.488  25.468  1.00  0.00    -0.342 N 
ATOM     15  C   UNL A   1      36.122  21.088  25.381  1.00  0.00     0.119 C 
ATOM     16  C   UNL A   1      34.077  22.017  24.357  1.00  0.00     0.230 C 
ATOM     17  C   UNL A   1      36.981  22.125  24.678  1.00  0.00     0.023 C 
ATOM     18  C   UNL A   1      34.909  23.020  23.548  1.00  0.00     0.069 C 
ATOM     19  O   UNL A   1      32.886  21.807  24.135  1.00  0.00    -0.274 OA
ATOM     20  C   UNL A   1      36.342  22.508  23.344  1.00  0.00     0.021 C 
ATOM     21  C   UNL A   1      34.221  23.371  22.213  1.00  0.00     0.040 C 
ATOM     22  C   UNL A   1      34.898  24.366  24.318  1.00  0.00     0.135 C 
ATOM     23  C   UNL A   1      33.230  24.478  22.594  1.00  0.00     0.119 C 
BRANCH  14  24
ATOM     24  C   UNL A   1      33.931  21.091  26.625  1.00  0.00     0.119 C 
BRANCH  24  25
ATOM     25  C   UNL A   1      33.746  22.149  27.710  1.00  0.00     0.018 C 
ATOM     26  C   UNL A   1      32.621  23.128  27.419  1.00  0.00     0.006 C 
ENDBRANCH  24  25
ENDBRANCH  14  24
ENDBRANCH   8  13
ENDBRANCH   4   7
ENDBRANCH   2   3
ENDBRANCH   1   2
BRANCH   1  27
ATOM     27  C   UNL A   1      35.668  31.758  29.033  1.00  0.00     0.118 C 
BRANCH  27  28
ATOM     28  N   UNL A   1      35.631  31.316  30.419  1.00  0.00    -0.352 N 
ATOM     29  C   UNL A   1      36.504  30.524  31.123  1.00  0.00     0.251 C 
ATOM     30  H   UNL A   1      34.856  31.636  30.935  1.00  0.00     0.163 HD
ATOM     31  O   UNL A   1      36.156  30.078  32.212  1.00  0.00    -0.269 OA
BRANCH  29  32
ATOM     32  C   UNL A   1      37.844  30.200  30.583  1.00  0.00     0.039 A 
ATOM     33  C   UNL A   1      38.860  29.856  31.478  1.00  0.00     0.014 A 
ATOM     34  C   UNL A   1      38.121  30.291  29.216  1.00  0.00     0.014 A 
ATOM     35  C   UNL A   1      40.139  29.556  30.999  1.00  0.00     0.010 A 
ATOM     36  C   UNL A   1      39.377  29.926  28.733  1.00  0.00     0.010 A 
ATOM     37  C   UNL A   1      40.400  29.560  29.620  1.00  0.00    -0.014 A 
BRANCH  37  38
ATOM     38  C   UNL A   1      41.733  29.173  29.092  1.00  0.00     0.031 A 
ATOM     39  C   UNL A   1      42.837  30.191  28.984  1.00  0.00     0.074 A 
ATOM     40  C   UNL A   1      41.930  27.913  28.656  1.00  0.00     0.049 A 
ATOM     41  N   UNL A   1      44.048  30.045  28.511  1.00  0.00    -0.248 NA
ATOM     42  C   UNL A   1      42.534  31.555  29.447  1.00  0.00     0.031 C 
ATOM     43  C   UNL A   1      40.925  26.847  28.669  1.00  0.00     0.029 A 
ATOM     44  N   UNL A   1      43.039  27.316  28.113  1.00  0.00    -0.354 N 
ATOM     45  C   UNL A   1      44.646  31.297  28.603  1.00  0.00     0.074 A 
ATOM     46  C   UNL A   1      43.649  32.201  29.135  1.00  0.00     0.031 C 
ATOM     47  C   UNL A   1      41.473  25.721  28.182  1.00  0.00     0.029 A 
ATOM     48  C   UNL A   1      42.851  25.994  27.787  1.00  0.00     0.049 A 
ATOM     49  H   UNL A   1      43.890  27.790  27.970  1.00  0.00     0.167 HD
ATOM     50  C   UNL A   1      45.914  31.658  28.288  1.00  0.00     0.031 A 
ATOM     51  C   UNL A   1      43.688  25.099  27.229  1.00  0.00     0.031 A 
ATOM     52  C   UNL A   1      46.903  30.752  27.767  1.00  0.00     0.049 A 
ATOM     53  C   UNL A   1      45.090  25.524  26.888  1.00  0.00     0.074 A 
ATOM     54  C   UNL A   1      48.232  31.007  27.470  1.00  0.00     0.029 A 
ATOM     55  N   UNL A   1      46.675  29.418  27.463  1.00  0.00    -0.354 N 
ATOM     56  N   UNL A   1      45.656  26.697  27.044  1.00  0.00    -0.248 NA
ATOM     57  C   UNL A   1      45.970  24.500  26.307  1.00  0.00     0.031 C 
ATOM     58  C   UNL A   1      48.793  29.840  26.940  1.00  0.00     0.029 A 
ATOM     59  C   UNL A   1      47.831  28.843  26.961  1.00  0.00     0.049 A 
ATOM     60  H   UNL A   1      45.818  28.950  27.586  1.00  0.00     0.167 HD
ATOM     61  C   UNL A   1      46.966  26.546  26.604  1.00  0.00     0.074 A 
ATOM     62  C   UNL A   1      47.111  25.165  26.190  1.00  0.00     0.031 C 
ATOM     63  C   UNL A   1      47.959  27.467  26.550  1.00  0.00     0.031 A 
BRANCH  50  64
ATOM     64  C   UNL A   1      46.300  33.100  28.495  1.00  0.00    -0.014 A 
ATOM     65  C   UNL A   1      46.067  34.065  27.497  1.00  0.00     0.010 A 
ATOM     66  C   UNL A   1      46.866  33.505  29.717  1.00  0.00     0.010 A 
ATOM     67  C   UNL A   1      46.435  35.397  27.701  1.00  0.00     0.020 A 
ATOM     68  C   UNL A   1      47.208  34.843  29.937  1.00  0.00     0.020 A 
ATOM     69  C   UNL A   1      47.007  35.777  28.919  1.00  0.00     0.054 A 
BRANCH  69  70
ATOM     70  S   UNL A   1      47.457  37.518  29.163  1.00  0.00     0.124 S 
ATOM     71  O   UNL A   1      48.626  37.407  30.033  1.00  0.00    -0.237 OA
ATOM     72  O   UNL A   1      47.729  37.973  27.803  1.00  0.00    -0.237 OA
ATOM     73  O   UNL A   1      46.271  38.099  29.786  1.00  0.00    -0.744 OA
ENDBRANCH  69  70
ENDBRANCH  50  64
BRANCH  51  74
ATOM     74  C   UNL A   1      43.225  23.708  26.976  1.00  0.00    -0.014 A 
ATOM     75  C   UNL A   1      42.864  23.301  25.680  1.00  0.00     0.010 A 
ATOM     76  C   UNL A   1      43.168  22.775  28.028  1.00  0.00     0.010 A 
ATOM     77  C   UNL A   1      42.441  21.990  25.441  1.00  0.00     0.020 A 
ATOM     78  C   UNL A   1      42.770  21.456  27.788  1.00  0.00     0.020 A 
ATOM     79  C   UNL A   1      42.400  21.075  26.497  1.00  0.00     0.054 A 
BRANCH  79  80
ATOM     80  S   UNL A   1      41.906  19.363  26.153  1.00  0.00     0.124 S 
ATOM     81  O   UNL A   1      42.292  18.682  27.385  1.00  0.00    -0.237 OA
ATOM     82  O   UNL A   1      40.469  19.489  25.923  1.00  0.00    -0.237 OA
ATOM     83  O   UNL A   1      42.690  19.013  24.971  1.00  0.00    -0.744 OA
ENDBRANCH  79  80
ENDBRANCH  51  74
BRANCH  63  84
ATOM     84  C   UNL A   1      49.302  27.007  26.052  1.00  0.00    -0.014 A 
ATOM     85  C   UNL A   1      49.652  27.114  24.694  1.00  0.00     0.010 A 
ATOM     86  C   UNL A   1      50.247  26.508  26.967  1.00  0.00     0.010 A 
ATOM     87  C   UNL A   1      50.913  26.701  24.257  1.00  0.00     0.020 A 
ATOM     88  C   UNL A   1      51.518  26.119  26.538  1.00  0.00     0.020 A 
ATOM     89  C   UNL A   1      51.838  26.205  25.181  1.00  0.00     0.054 A 
BRANCH  89  90
ATOM     90  S   UNL A   1      53.483  25.717  24.596  1.00  0.00     0.124 S 
ATOM     91  O   UNL A   1      54.359  26.501  25.463  1.00  0.00    -0.237 OA
ATOM     92  O   UNL A   1      53.493  24.275  24.830  1.00  0.00    -0.237 OA
ATOM     93  O   UNL A   1      53.483  26.113  23.189  1.00  0.00    -0.744 OA
ENDBRANCH  89  90
ENDBRANCH  63  84
ENDBRANCH  37  38
ENDBRANCH  29  32
ENDBRANCH  27  28
ENDBRANCH   1  27
TORSDOF 16
ENDMDL
MODEL 3
REMARK VINA RESULT:     -11.8      4.306     12.299
REMARK SMILES CCCN1CCC[C@@]2(CCN(c3ccc(C(=O)NCCCNC(=O)c4ccc(-c5c6nc(c(-c7ccc(S(=O)(=O)[O-])cc7)c7ccc([nH]7)c(-c7ccc(S(=O)(=O)[O-])cc7)c7nc(c(-c8ccc(S(=O)(=O)[O-])cc8)c8ccc5[nH]8)C=C7)C=C6)cc4)cn3)C2)C1=O
REMARK SMILES IDX 20 1 19 2 18 3 16 4 17 5 15 7 12 8 13 9 86 10 14 11 85 12
REMARK SMILES IDX 11 13 4 14 5 15 88 16 6 17 8 18 89 19 7 20 9 21 87 22 10 23
REMARK SMILES IDX 3 24 2 25 1 26 21 27 22 28 23 29 24 31 25 32 26 33 84 34
REMARK SMILES IDX 27 35 83 36 28 37 29 38 30 39 77 40 31 41 82 42 76 43 78 44
REMARK SMILES IDX 32 45 81 46 75 47 74 48 33 50 63 51 44 52 62 53 45 54 48 55
REMARK SMILES IDX 61 56 79 57 46 58 47 59 60 61 80 62 49 63 34 64 35 65 43 66
REMARK SMILES IDX 36 67 42 68 37 69 38 70 39 71 40 72 41 73 64 74 65 75 73 76
REMARK SMILES IDX 66 77 72 78 67 79 68 80 69 81 70 82 71 83 50 84 51 85 59 86
REMARK SMILES IDX 52 87 58 88 53 89 54 90 55 91 56 92 57 93
REMARK H PARENT 18 6 22 30 78 49 48 60
REMARK Flexibility Score: inf
ROOT
ATOM      1  C   UNL A   1      33.679  34.255  28.034  1.00  0.00     0.042 C 
ENDROOT
BRANCH   1   2
ATOM      2  C   UNL A   1      33.973  35.420  28.980  1.00  0.00     0.118 C 
BRANCH   2   3
ATOM      3  N   UNL A   1      32.969  35.534  30.023  1.00  0.00    -0.352 N 
ATOM      4  C   UNL A   1      32.993  35.265  31.370  1.00  0.00     0.252 C 
ATOM      5  O   UNL A   1      31.991  35.563  32.021  1.00  0.00    -0.269 OA
ATOM      6  H   UNL A   1      32.100  35.868  29.702  1.00  0.00     0.163 HD
BRANCH   4   7
ATOM      7  C   UNL A   1      34.158  34.676  32.076  1.00  0.00     0.058 A 
ATOM      8  C   UNL A   1      36.417  33.835  33.472  1.00  0.00     0.128 A 
ATOM      9  C   UNL A   1      35.686  32.932  32.707  1.00  0.00     0.048 A 
ATOM     10  N   UNL A   1      36.029  35.118  33.586  1.00  0.00    -0.239 NA
ATOM     11  C   UNL A   1      34.535  33.343  32.042  1.00  0.00     0.019 A 
ATOM     12  C   UNL A   1      34.929  35.511  32.881  1.00  0.00     0.127 A 
BRANCH   8  13
ATOM     13  N   UNL A   1      37.539  33.383  34.114  1.00  0.00    -0.356 N 
ATOM     14  N   UNL A   1      38.062  32.411  38.231  1.00  0.00    -0.342 N 
ATOM     15  C   UNL A   1      39.037  33.277  38.877  1.00  0.00     0.119 C 
ATOM     16  C   UNL A   1      38.314  31.891  36.966  1.00  0.00     0.230 C 
ATOM     17  C   UNL A   1      39.581  34.340  37.939  1.00  0.00     0.023 C 
ATOM     18  C   UNL A   1      38.937  32.887  35.978  1.00  0.00     0.069 C 
ATOM     19  O   UNL A   1      37.931  30.772  36.631  1.00  0.00    -0.274 OA
ATOM     20  C   UNL A   1      40.064  33.689  36.644  1.00  0.00     0.021 C 
ATOM     21  C   UNL A   1      39.408  32.179  34.691  1.00  0.00     0.040 C 
ATOM     22  C   UNL A   1      37.804  33.819  35.477  1.00  0.00     0.135 C 
ATOM     23  C   UNL A   1      38.139  32.099  33.834  1.00  0.00     0.119 C 
BRANCH  14  24
ATOM     24  C   UNL A   1      36.951  31.868  39.006  1.00  0.00     0.119 C 
BRANCH  24  25
ATOM     25  C   UNL A   1      37.243  31.552  40.471  1.00  0.00     0.018 C 
ATOM     26  C   UNL A   1      36.327  32.276  41.444  1.00  0.00     0.006 C 
ENDBRANCH  24  25
ENDBRANCH  14  24
ENDBRANCH   8  13
ENDBRANCH   4   7
ENDBRANCH   2   3
ENDBRANCH   1   2
BRANCH   1  27
ATOM     27  C   UNL A   1      34.436  32.977  28.390  1.00  0.00     0.118 C 
BRANCH  27  28
ATOM     28  N   UNL A   1      33.736  31.788  27.927  1.00  0.00    -0.352 N 
ATOM     29  C   UNL A   1      34.208  30.528  27.657  1.00  0.00     0.251 C 
ATOM     30  H   UNL A   1      32.769  31.906  27.785  1.00  0.00     0.163 HD
ATOM     31  O   UNL A   1      33.489  29.742  27.047  1.00  0.00    -0.269 OA
BRANCH  29  32
ATOM     32  C   UNL A   1      35.564  30.114  28.083  1.00  0.00     0.039 A 
ATOM     33  C   UNL A   1      36.589  30.103  27.132  1.00  0.00     0.014 A 
ATOM     34  C   UNL A   1      35.819  29.681  29.387  1.00  0.00     0.014 A 
ATOM     35  C   UNL A   1      37.877  29.706  27.502  1.00  0.00     0.010 A 
ATOM     36  C   UNL A   1      37.117  29.351  29.772  1.00  0.00     0.010 A 
ATOM     37  C   UNL A   1      38.158  29.355  28.832  1.00  0.00    -0.014 A 
BRANCH  37  38
ATOM     38  C   UNL A   1      39.537  29.000  29.255  1.00  0.00     0.031 A 
ATOM     39  C   UNL A   1      40.385  29.992  30.005  1.00  0.00     0.074 A 
ATOM     40  C   UNL A   1      40.045  27.800  28.912  1.00  0.00     0.049 A 
ATOM     41  N   UNL A   1      41.621  29.873  30.418  1.00  0.00    -0.248 NA
ATOM     42  C   UNL A   1      39.774  31.296  30.311  1.00  0.00     0.031 C 
ATOM     43  C   UNL A   1      39.337  26.769  28.149  1.00  0.00     0.029 A 
ATOM     44  N   UNL A   1      41.276  27.245  29.155  1.00  0.00    -0.354 N 
ATOM     45  C   UNL A   1      41.941  31.086  31.017  1.00  0.00     0.074 A 
ATOM     46  C   UNL A   1      40.784  31.944  30.873  1.00  0.00     0.031 C 
ATOM     47  C   UNL A   1      40.135  25.698  28.010  1.00  0.00     0.029 A 
ATOM     48  C   UNL A   1      41.423  25.979  28.637  1.00  0.00     0.049 A 
ATOM     49  H   UNL A   1      41.987  27.709  29.652  1.00  0.00     0.167 HD
ATOM     50  C   UNL A   1      43.087  31.449  31.642  1.00  0.00     0.031 A 
ATOM     51  C   UNL A   1      42.475  25.139  28.659  1.00  0.00     0.031 A 
ATOM     52  C   UNL A   1      44.231  30.588  31.790  1.00  0.00     0.049 A 
ATOM     53  C   UNL A   1      43.735  25.563  29.359  1.00  0.00     0.074 A 
ATOM     54  C   UNL A   1      45.419  30.841  32.456  1.00  0.00     0.029 A 
ATOM     55  N   UNL A   1      44.334  29.310  31.262  1.00  0.00    -0.354 N 
ATOM     56  N   UNL A   1      43.994  26.692  29.977  1.00  0.00    -0.248 NA
ATOM     57  C   UNL A   1      44.841  24.596  29.377  1.00  0.00     0.031 C 
ATOM     58  C   UNL A   1      46.258  29.734  32.289  1.00  0.00     0.029 A 
ATOM     59  C   UNL A   1      45.573  28.770  31.568  1.00  0.00     0.049 A 
ATOM     60  H   UNL A   1      43.632  28.853  30.745  1.00  0.00     0.167 HD
ATOM     61  C   UNL A   1      45.284  26.560  30.478  1.00  0.00     0.074 A 
ATOM     62  C   UNL A   1      45.746  25.238  30.104  1.00  0.00     0.031 C 
ATOM     63  C   UNL A   1      46.019  27.453  31.185  1.00  0.00     0.031 A 
BRANCH  50  64
ATOM     64  C   UNL A   1      43.160  32.842  32.212  1.00  0.00    -0.014 A 
ATOM     65  C   UNL A   1      42.866  33.089  33.566  1.00  0.00     0.010 A 
ATOM     66  C   UNL A   1      43.567  33.912  31.395  1.00  0.00     0.010 A 
ATOM     67  C   UNL A   1      42.934  34.387  34.080  1.00  0.00     0.020 A 
ATOM     68  C   UNL A   1      43.665  35.208  31.913  1.00  0.00     0.020 A 
ATOM     69  C   UNL A   1      43.329  35.439  33.248  1.00  0.00     0.054 A 
BRANCH  69  70
ATOM     70  S   UNL A   1      43.426  37.111  33.947  1.00  0.00     0.124 S 
ATOM     71  O   UNL A   1      43.732  37.913  32.765  1.00  0.00    -0.237 OA
ATOM     72  O   UNL A   1      42.091  37.303  34.507  1.00  0.00    -0.237 OA
ATOM     73  O   UNL A   1      44.502  37.014  34.930  1.00  0.00    -0.744 OA
ENDBRANCH  69  70
ENDBRANCH  50  64
BRANCH  51  74
ATOM     74  C   UNL A   1      42.369  23.804  28.011  1.00  0.00    -0.014 A 
ATOM     75  C   UNL A   1      42.964  23.570  26.759  1.00  0.00     0.010 A 
ATOM     76  C   UNL A   1      41.694  22.750  28.655  1.00  0.00     0.010 A 
ATOM     77  C   UNL A   1      42.876  22.311  26.156  1.00  0.00     0.020 A 
ATOM     78  C   UNL A   1      41.626  21.484  28.068  1.00  0.00     0.020 A 
ATOM     79  C   UNL A   1      42.209  21.275  26.817  1.00  0.00     0.054 A 
BRANCH  79  80
ATOM     80  S   UNL A   1      42.159  19.635  26.044  1.00  0.00     0.124 S 
ATOM     81  O   UNL A   1      43.062  19.804  24.911  1.00  0.00    -0.237 OA
ATOM     82  O   UNL A   1      42.642  18.766  27.114  1.00  0.00    -0.237 OA
ATOM     83  O   UNL A   1      40.749  19.462  25.701  1.00  0.00    -0.744 OA
ENDBRANCH  79  80
ENDBRANCH  51  74
BRANCH  63  84
ATOM     84  C   UNL A   1      47.390  27.022  31.630  1.00  0.00    -0.014 A 
ATOM     85  C   UNL A   1      48.528  27.297  30.851  1.00  0.00     0.010 A 
ATOM     86  C   UNL A   1      47.546  26.378  32.871  1.00  0.00     0.010 A 
ATOM     87  C   UNL A   1      49.796  26.906  31.293  1.00  0.00     0.020 A 
ATOM     88  C   UNL A   1      48.813  26.010  33.328  1.00  0.00     0.020 A 
ATOM     89  C   UNL A   1      49.930  26.264  32.528  1.00  0.00     0.054 A 
BRANCH  89  90
ATOM     90  S   UNL A   1      51.589  25.807  33.099  1.00  0.00     0.124 S 
ATOM     91  O   UNL A   1      52.383  25.966  31.883  1.00  0.00    -0.237 OA
ATOM     92  O   UNL A   1      51.849  26.787  34.152  1.00  0.00    -0.237 OA
ATOM     93  O   UNL A   1      51.430  24.431  33.564  1.00  0.00    -0.744 OA
ENDBRANCH  89  90
ENDBRANCH  63  84
ENDBRANCH  37  38
ENDBRANCH  29  32
ENDBRANCH  27  28
ENDBRANCH   1  27
TORSDOF 16
ENDMDL
