MODEL 1
REMARK VINA RESULT:     -12.0      0.000      0.000
REMARK SMILES Cc1nc(C[N@H+]2Cc3ccccc3C[C@@H]2C(=O)NCCCNC(=O)c2ccc(-c3c4nc(c(-c5ccc(S(=O)(=O)[O-])cc5)c5ccc([nH]5)c(-c5ccc(S(=O)(=O)[O-])cc5)c5nc(c(-c6ccc(S(=O)(=O)[O-])cc6)c6ccc3[nH]6)C=C5)C=C4)cc2)sc1C
REMARK SMILES IDX 20 1 19 2 18 3 16 4 17 5 15 7 6 8 7 9 8 11 14 12 9 13 13 14
REMARK SMILES IDX 10 15 12 16 11 17 5 18 4 19 1 20 2 21 3 22 86 23 85 24 87 25
REMARK SMILES IDX 21 26 22 27 23 28 24 30 25 31 26 32 84 33 27 34 83 35 28 36
REMARK SMILES IDX 29 37 30 38 77 39 31 40 82 41 76 42 78 43 32 44 81 45 75 46
REMARK SMILES IDX 74 47 33 49 63 50 44 51 62 52 45 53 48 54 61 55 79 56 46 57
REMARK SMILES IDX 47 58 60 60 80 61 49 62 34 63 35 64 43 65 36 66 42 67 37 68
REMARK SMILES IDX 38 69 39 70 40 71 41 72 64 73 65 74 73 75 66 76 72 77 67 78
REMARK SMILES IDX 68 79 69 80 70 81 71 82 50 83 51 84 59 85 52 86 58 87 53 88
REMARK SMILES IDX 54 89 55 90 56 91 57 92
REMARK H PARENT 18 6 6 10 22 29 78 48 48 59
REMARK Flexibility Score: inf
ROOT
ATOM      1  C   UNL A   1      32.213  27.816  26.706  1.00  0.00     0.042 C 
ENDROOT
BRANCH   1   2
ATOM      2  C   UNL A   1      31.536  28.529  25.539  1.00  0.00     0.118 C 
BRANCH   2   3
ATOM      3  N   UNL A   1      32.420  28.637  24.398  1.00  0.00    -0.351 N 
ATOM      4  C   UNL A   1      32.318  28.209  23.112  1.00  0.00     0.278 C 
ATOM      5  O   UNL A   1      33.318  28.438  22.414  1.00  0.00    -0.268 OA
ATOM      6  H   UNL A   1      33.259  29.115  24.591  1.00  0.00     0.163 HD
BRANCH   4   7
ATOM      7  C   UNL A   1      31.014  27.648  22.477  1.00  0.00     0.279 C 
ATOM      8  N   UNL A   1      29.878  27.550  23.435  1.00  0.00    -0.315 N 
ATOM      9  C   UNL A   1      29.620  26.214  23.996  1.00  0.00     0.300 C 
ATOM     10  H   UNL A   1      30.199  28.099  24.232  1.00  0.00     0.349 HD
ATOM     11  C   UNL A   1      30.789  25.259  23.955  1.00  0.00     0.010 A 
ATOM     12  C   UNL A   1      31.351  26.308  21.775  1.00  0.00     0.111 C 
ATOM     13  C   UNL A   1      31.005  24.315  24.962  1.00  0.00     0.010 A 
ATOM     14  C   UNL A   1      31.609  25.252  22.816  1.00  0.00    -0.033 A 
ATOM     15  C   UNL A   1      32.036  23.382  24.835  1.00  0.00     0.001 A 
ATOM     16  C   UNL A   1      32.625  24.305  22.682  1.00  0.00     0.004 A 
ATOM     17  C   UNL A   1      32.840  23.375  23.696  1.00  0.00     0.000 A 
BRANCH   8  18
ATOM     18  C   UNL A   1      28.634  28.170  22.908  1.00  0.00     0.332 C 
BRANCH  18  19
ATOM     19  C   UNL A   1      28.732  29.641  22.566  1.00  0.00     0.148 A 
ATOM     20  C   UNL A   1      27.888  32.236  20.241  1.00  0.00     0.068 C 
ATOM     21  C   UNL A   1      28.416  31.522  21.431  1.00  0.00     0.052 A 
ATOM     22  N   UNL A   1      28.427  30.143  21.386  1.00  0.00    -0.240 NA
ATOM     23  C   UNL A   1      28.863  32.061  22.625  1.00  0.00     0.025 A 
ATOM     24  S   UNL A   1      29.239  30.799  23.727  1.00  0.00    -0.118 S 
ATOM     25  C   UNL A   1      28.992  33.488  23.019  1.00  0.00     0.058 C 
ENDBRANCH  18  19
ENDBRANCH   8  18
ENDBRANCH   4   7
ENDBRANCH   2   3
ENDBRANCH   1   2
BRANCH   1  26
ATOM     26  C   UNL A   1      33.578  28.400  27.070  1.00  0.00     0.118 C 
BRANCH  26  27
ATOM     27  N   UNL A   1      33.502  29.804  27.459  1.00  0.00    -0.352 N 
ATOM     28  C   UNL A   1      34.403  30.589  28.131  1.00  0.00     0.251 C 
ATOM     29  H   UNL A   1      32.670  30.261  27.198  1.00  0.00     0.163 HD
ATOM     30  O   UNL A   1      34.055  31.699  28.533  1.00  0.00    -0.269 OA
BRANCH  28  31
ATOM     31  C   UNL A   1      35.776  30.108  28.385  1.00  0.00     0.039 A 
ATOM     32  C   UNL A   1      36.707  30.136  27.343  1.00  0.00     0.014 A 
ATOM     33  C   UNL A   1      36.143  29.604  29.636  1.00  0.00     0.014 A 
ATOM     34  C   UNL A   1      38.021  29.723  27.574  1.00  0.00     0.010 A 
ATOM     35  C   UNL A   1      37.470  29.265  29.886  1.00  0.00     0.010 A 
ATOM     36  C   UNL A   1      38.424  29.320  28.858  1.00  0.00    -0.014 A 
BRANCH  36  37
ATOM     37  C   UNL A   1      39.836  28.963  29.147  1.00  0.00     0.031 A 
ATOM     38  C   UNL A   1      40.771  29.984  29.739  1.00  0.00     0.074 A 
ATOM     39  C   UNL A   1      40.296  27.740  28.813  1.00  0.00     0.049 A 
ATOM     40  N   UNL A   1      42.050  29.878  29.994  1.00  0.00    -0.248 NA
ATOM     41  C   UNL A   1      40.201  31.300  30.064  1.00  0.00     0.031 C 
ATOM     42  C   UNL A   1      39.498  26.674  28.202  1.00  0.00     0.029 A 
ATOM     43  N   UNL A   1      41.547  27.189  28.932  1.00  0.00    -0.354 N 
ATOM     44  C   UNL A   1      42.440  31.116  30.493  1.00  0.00     0.074 A 
ATOM     45  C   UNL A   1      41.274  31.972  30.458  1.00  0.00     0.031 C 
ATOM     46  C   UNL A   1      40.272  25.591  28.024  1.00  0.00     0.029 A 
ATOM     47  C   UNL A   1      41.630  25.899  28.462  1.00  0.00     0.049 A 
ATOM     48  H   UNL A   1      42.313  27.671  29.319  1.00  0.00     0.167 HD
ATOM     49  C   UNL A   1      43.655  31.501  30.955  1.00  0.00     0.031 A 
ATOM     50  C   UNL A   1      42.681  25.061  28.377  1.00  0.00     0.031 A 
ATOM     51  C   UNL A   1      44.811  30.646  30.991  1.00  0.00     0.049 A 
ATOM     52  C   UNL A   1      44.025  25.520  28.873  1.00  0.00     0.074 A 
ATOM     53  C   UNL A   1      46.072  30.925  31.488  1.00  0.00     0.029 A 
ATOM     54  N   UNL A   1      44.852  29.346  30.508  1.00  0.00    -0.354 N 
ATOM     55  N   UNL A   1      44.358  26.674  29.401  1.00  0.00    -0.248 NA
ATOM     56  C   UNL A   1      45.133  24.561  28.771  1.00  0.00     0.031 C 
ATOM     57  C   UNL A   1      46.892  29.818  31.248  1.00  0.00     0.029 A 
ATOM     58  C   UNL A   1      46.124  28.821  30.668  1.00  0.00     0.049 A 
ATOM     59  H   UNL A   1      44.089  28.867  30.109  1.00  0.00     0.167 HD
ATOM     60  C   UNL A   1      45.707  26.567  29.724  1.00  0.00     0.074 A 
ATOM     61  C   UNL A   1      46.123  25.232  29.344  1.00  0.00     0.031 C 
ATOM     62  C   UNL A   1      46.525  27.490  30.287  1.00  0.00     0.031 A 
BRANCH  49  63
ATOM     63  C   UNL A   1      43.797  32.918  31.450  1.00  0.00    -0.014 A 
ATOM     64  C   UNL A   1      43.547  33.250  32.795  1.00  0.00     0.010 A 
ATOM     65  C   UNL A   1      44.232  33.925  30.569  1.00  0.00     0.010 A 
ATOM     66  C   UNL A   1      43.687  34.567  33.238  1.00  0.00     0.020 A 
ATOM     67  C   UNL A   1      44.404  35.239  31.017  1.00  0.00     0.020 A 
ATOM     68  C   UNL A   1      44.115  35.554  32.345  1.00  0.00     0.054 A 
BRANCH  68  69
ATOM     69  S   UNL A   1      44.311  37.250  32.957  1.00  0.00     0.124 S 
ATOM     70  O   UNL A   1      43.817  38.037  31.829  1.00  0.00    -0.237 OA
ATOM     71  O   UNL A   1      43.467  37.260  34.148  1.00  0.00    -0.237 OA
ATOM     72  O   UNL A   1      45.746  37.364  33.212  1.00  0.00    -0.744 OA
ENDBRANCH  68  69
ENDBRANCH  49  63
BRANCH  50  73
ATOM     73  C   UNL A   1      42.502  23.697  27.806  1.00  0.00    -0.014 A 
ATOM     74  C   UNL A   1      42.684  23.468  26.430  1.00  0.00     0.010 A 
ATOM     75  C   UNL A   1      42.159  22.615  28.637  1.00  0.00     0.010 A 
ATOM     76  C   UNL A   1      42.507  22.188  25.895  1.00  0.00     0.020 A 
ATOM     77  C   UNL A   1      42.012  21.330  28.111  1.00  0.00     0.020 A 
ATOM     78  C   UNL A   1      42.176  21.126  26.740  1.00  0.00     0.054 A 
BRANCH  78  79
ATOM     79  S   UNL A   1      42.000  19.466  26.031  1.00  0.00     0.124 S 
ATOM     80  O   UNL A   1      40.562  19.387  25.793  1.00  0.00    -0.237 OA
ATOM     81  O   UNL A   1      42.836  19.544  24.835  1.00  0.00    -0.237 OA
ATOM     82  O   UNL A   1      42.510  18.588  27.081  1.00  0.00    -0.744 OA
ENDBRANCH  78  79
ENDBRANCH  50  73
BRANCH  62  83
ATOM     83  C   UNL A   1      47.947  27.081  30.568  1.00  0.00    -0.014 A 
ATOM     84  C   UNL A   1      48.976  27.309  29.637  1.00  0.00     0.010 A 
ATOM     85  C   UNL A   1      48.269  26.513  31.817  1.00  0.00     0.010 A 
ATOM     86  C   UNL A   1      50.293  26.950  29.936  1.00  0.00     0.020 A 
ATOM     87  C   UNL A   1      49.589  26.183  32.132  1.00  0.00     0.020 A 
ATOM     88  C   UNL A   1      50.592  26.391  31.184  1.00  0.00     0.054 A 
BRANCH  88  89
ATOM     89  S   UNL A   1      52.316  25.982  31.566  1.00  0.00     0.124 S 
ATOM     90  O   UNL A   1      52.202  24.610  32.053  1.00  0.00    -0.237 OA
ATOM     91  O   UNL A   1      52.976  26.137  30.272  1.00  0.00    -0.237 OA
ATOM     92  O   UNL A   1      52.693  26.971  32.573  1.00  0.00    -0.744 OA
ENDBRANCH  88  89
ENDBRANCH  62  83
ENDBRANCH  36  37
ENDBRANCH  28  31
ENDBRANCH  26  27
ENDBRANCH   1  26
TORSDOF 15
ENDMDL
MODEL 2
REMARK VINA RESULT:     -11.7      3.534     10.054
REMARK SMILES Cc1nc(C[N@H+]2Cc3ccccc3C[C@@H]2C(=O)NCCCNC(=O)c2ccc(-c3c4nc(c(-c5ccc(S(=O)(=O)[O-])cc5)c5ccc([nH]5)c(-c5ccc(S(=O)(=O)[O-])cc5)c5nc(c(-c6ccc(S(=O)(=O)[O-])cc6)c6ccc3[nH]6)C=C5)C=C4)cc2)sc1C
REMARK SMILES IDX 20 1 19 2 18 3 16 4 17 5 15 7 6 8 7 9 8 11 14 12 9 13 13 14
REMARK SMILES IDX 10 15 12 16 11 17 5 18 4 19 1 20 2 21 3 22 86 23 85 24 87 25
REMARK SMILES IDX 21 26 22 27 23 28 24 30 25 31 26 32 84 33 27 34 83 35 28 36
REMARK SMILES IDX 29 37 30 38 77 39 31 40 82 41 76 42 78 43 32 44 81 45 75 46
REMARK SMILES IDX 74 47 33 49 63 50 44 51 62 52 45 53 48 54 61 55 79 56 46 57
REMARK SMILES IDX 47 58 60 60 80 61 49 62 34 63 35 64 43 65 36 66 42 67 37 68
REMARK SMILES IDX 38 69 39 70 40 71 41 72 64 73 65 74 73 75 66 76 72 77 67 78
REMARK SMILES IDX 68 79 69 80 70 81 71 82 50 83 51 84 59 85 52 86 58 87 53 88
REMARK SMILES IDX 54 89 55 90 56 91 57 92
REMARK H PARENT 18 6 6 10 22 29 78 48 48 59
REMARK Flexibility Score: inf
ROOT
ATOM      1  C   UNL A   1      35.865  23.207  24.006  1.00  0.00     0.042 C 
ENDROOT
BRANCH   1   2
ATOM      2  C   UNL A   1      35.283  21.846  24.377  1.00  0.00     0.118 C 
BRANCH   2   3
ATOM      3  N   UNL A   1      34.743  21.846  25.720  1.00  0.00    -0.351 N 
ATOM      4  C   UNL A   1      33.490  21.652  26.208  1.00  0.00     0.278 C 
ATOM      5  O   UNL A   1      33.391  21.785  27.437  1.00  0.00    -0.268 OA
ATOM      6  H   UNL A   1      35.416  22.022  26.417  1.00  0.00     0.163 HD
BRANCH   4   7
ATOM      7  C   UNL A   1      32.295  21.122  25.364  1.00  0.00     0.279 C 
ATOM      8  N   UNL A   1      32.641  20.859  23.939  1.00  0.00    -0.315 N 
ATOM      9  C   UNL A   1      32.249  21.900  22.977  1.00  0.00     0.300 C 
ATOM     10  H   UNL A   1      33.660  20.888  23.939  1.00  0.00     0.349 HD
ATOM     11  C   UNL A   1      32.031  23.273  23.563  1.00  0.00     0.010 A 
ATOM     12  C   UNL A   1      31.103  22.096  25.543  1.00  0.00     0.111 C 
ATOM     13  C   UNL A   1      32.345  24.436  22.854  1.00  0.00     0.010 A 
ATOM     14  C   UNL A   1      31.393  23.377  24.809  1.00  0.00    -0.033 A 
ATOM     15  C   UNL A   1      32.032  25.687  23.390  1.00  0.00     0.001 A 
ATOM     16  C   UNL A   1      31.062  24.628  25.333  1.00  0.00     0.004 A 
ATOM     17  C   UNL A   1      31.388  25.781  24.624  1.00  0.00     0.000 A 
BRANCH   8  18
ATOM     18  C   UNL A   1      32.210  19.508  23.489  1.00  0.00     0.332 C 
BRANCH  18  19
ATOM     19  C   UNL A   1      32.830  18.344  24.231  1.00  0.00     0.148 A 
ATOM     20  C   UNL A   1      32.291  15.162  25.792  1.00  0.00     0.068 C 
ATOM     21  C   UNL A   1      32.951  16.382  25.260  1.00  0.00     0.052 A 
ATOM     22  N   UNL A   1      32.133  17.416  24.856  1.00  0.00    -0.240 NA
ATOM     23  C   UNL A   1      34.303  16.608  25.065  1.00  0.00     0.025 A 
ATOM     24  S   UNL A   1      34.531  18.127  24.297  1.00  0.00    -0.118 S 
ATOM     25  C   UNL A   1      35.457  15.729  25.384  1.00  0.00     0.058 C 
ENDBRANCH  18  19
ENDBRANCH   8  18
ENDBRANCH   4   7
ENDBRANCH   2   3
ENDBRANCH   1   2
BRANCH   1  26
ATOM     26  C   UNL A   1      36.884  23.732  25.019  1.00  0.00     0.118 C 
BRANCH  26  27
ATOM     27  N   UNL A   1      37.881  22.730  25.381  1.00  0.00    -0.352 N 
ATOM     28  C   UNL A   1      39.075  22.865  26.043  1.00  0.00     0.251 C 
ATOM     29  H   UNL A   1      37.662  21.810  25.107  1.00  0.00     0.163 HD
ATOM     30  O   UNL A   1      39.860  21.918  26.070  1.00  0.00    -0.269 OA
BRANCH  28  31
ATOM     31  C   UNL A   1      39.426  24.136  26.708  1.00  0.00     0.039 A 
ATOM     32  C   UNL A   1      38.995  24.356  28.019  1.00  0.00     0.014 A 
ATOM     33  C   UNL A   1      40.155  25.121  26.037  1.00  0.00     0.014 A 
ATOM     34  C   UNL A   1      39.351  25.534  28.678  1.00  0.00     0.010 A 
ATOM     35  C   UNL A   1      40.573  26.261  26.721  1.00  0.00     0.010 A 
ATOM     36  C   UNL A   1      40.175  26.480  28.048  1.00  0.00    -0.014 A 
BRANCH  36  37
ATOM     37  C   UNL A   1      40.641  27.696  28.762  1.00  0.00     0.031 A 
ATOM     38  C   UNL A   1      42.004  27.727  29.401  1.00  0.00     0.074 A 
ATOM     39  C   UNL A   1      39.808  28.749  28.896  1.00  0.00     0.049 A 
ATOM     40  N   UNL A   1      42.553  28.670  30.123  1.00  0.00    -0.248 NA
ATOM     41  C   UNL A   1      42.850  26.537  29.225  1.00  0.00     0.031 C 
ATOM     42  C   UNL A   1      38.450  28.829  28.352  1.00  0.00     0.029 A 
ATOM     43  N   UNL A   1      39.979  29.951  29.535  1.00  0.00    -0.354 N 
ATOM     44  C   UNL A   1      43.799  28.181  30.500  1.00  0.00     0.074 A 
ATOM     45  C   UNL A   1      43.903  26.839  29.969  1.00  0.00     0.031 C 
ATOM     46  C   UNL A   1      37.922  30.025  28.659  1.00  0.00     0.029 A 
ATOM     47  C   UNL A   1      38.881  30.777  29.461  1.00  0.00     0.049 A 
ATOM     48  H   UNL A   1      40.809  30.200  30.002  1.00  0.00     0.167 HD
ATOM     49  C   UNL A   1      44.774  28.799  31.210  1.00  0.00     0.031 A 
ATOM     50  C   UNL A   1      38.663  31.997  29.990  1.00  0.00     0.031 A 
ATOM     51  C   UNL A   1      44.666  30.134  31.734  1.00  0.00     0.049 A 
ATOM     52  C   UNL A   1      39.751  32.651  30.796  1.00  0.00     0.074 A 
ATOM     53  C   UNL A   1      45.618  30.868  32.420  1.00  0.00     0.029 A 
ATOM     54  N   UNL A   1      43.540  30.938  31.634  1.00  0.00    -0.354 N 
ATOM     55  N   UNL A   1      40.947  32.197  31.086  1.00  0.00    -0.248 NA
ATOM     56  C   UNL A   1      39.465  33.987  31.336  1.00  0.00     0.031 C 
ATOM     57  C   UNL A   1      45.046  32.089  32.791  1.00  0.00     0.029 A 
ATOM     58  C   UNL A   1      43.762  32.147  32.273  1.00  0.00     0.049 A 
ATOM     59  H   UNL A   1      42.704  30.685  31.178  1.00  0.00     0.167 HD
ATOM     60  C   UNL A   1      41.567  33.206  31.817  1.00  0.00     0.074 A 
ATOM     61  C   UNL A   1      40.619  34.297  31.910  1.00  0.00     0.031 C 
ATOM     62  C   UNL A   1      42.811  33.226  32.357  1.00  0.00     0.031 A 
BRANCH  49  63
ATOM     63  C   UNL A   1      46.042  28.028  31.472  1.00  0.00    -0.014 A 
ATOM     64  C   UNL A   1      46.180  27.216  32.615  1.00  0.00     0.010 A 
ATOM     65  C   UNL A   1      47.096  28.077  30.541  1.00  0.00     0.010 A 
ATOM     66  C   UNL A   1      47.361  26.506  32.841  1.00  0.00     0.020 A 
ATOM     67  C   UNL A   1      48.267  27.342  30.749  1.00  0.00     0.020 A 
ATOM     68  C   UNL A   1      48.398  26.573  31.906  1.00  0.00     0.054 A 
BRANCH  68  69
ATOM     69  S   UNL A   1      49.910  25.620  32.216  1.00  0.00     0.124 S 
ATOM     70  O   UNL A   1      50.204  25.081  30.891  1.00  0.00    -0.237 OA
ATOM     71  O   UNL A   1      50.837  26.638  32.700  1.00  0.00    -0.237 OA
ATOM     72  O   UNL A   1      49.499  24.632  33.212  1.00  0.00    -0.744 OA
ENDBRANCH  68  69
ENDBRANCH  49  63
BRANCH  50  73
ATOM     73  C   UNL A   1      37.359  32.682  29.766  1.00  0.00    -0.014 A 
ATOM     74  C   UNL A   1      36.285  32.484  30.653  1.00  0.00     0.010 A 
ATOM     75  C   UNL A   1      37.188  33.548  28.671  1.00  0.00     0.010 A 
ATOM     76  C   UNL A   1      35.060  33.122  30.436  1.00  0.00     0.020 A 
ATOM     77  C   UNL A   1      35.975  34.212  28.469  1.00  0.00     0.020 A 
ATOM     78  C   UNL A   1      34.914  33.986  29.347  1.00  0.00     0.054 A 
BRANCH  78  79
ATOM     79  S   UNL A   1      33.331  34.840  29.114  1.00  0.00     0.124 S 
ATOM     80  O   UNL A   1      32.778  34.830  30.465  1.00  0.00    -0.237 OA
ATOM     81  O   UNL A   1      33.750  36.147  28.611  1.00  0.00    -0.237 OA
ATOM     82  O   UNL A   1      32.630  34.004  28.143  1.00  0.00    -0.744 OA
ENDBRANCH  78  79
ENDBRANCH  50  73
BRANCH  62  83
ATOM     83  C   UNL A   1      43.242  34.483  33.066  1.00  0.00    -0.014 A 
ATOM     84  C   UNL A   1      43.890  35.528  32.383  1.00  0.00     0.010 A 
ATOM     85  C   UNL A   1      42.938  34.645  34.432  1.00  0.00     0.010 A 
ATOM     86  C   UNL A   1      44.249  36.697  33.058  1.00  0.00     0.020 A 
ATOM     87  C   UNL A   1      43.268  35.825  35.102  1.00  0.00     0.020 A 
ATOM     88  C   UNL A   1      43.934  36.840  34.413  1.00  0.00     0.054 A 
BRANCH  88  89
ATOM     89  S   UNL A   1      44.367  38.388  35.252  1.00  0.00     0.124 S 
ATOM     90  O   UNL A   1      43.931  38.124  36.620  1.00  0.00    -0.237 OA
ATOM     91  O   UNL A   1      45.812  38.464  35.056  1.00  0.00    -0.237 OA
ATOM     92  O   UNL A   1      43.594  39.400  34.536  1.00  0.00    -0.744 OA
ENDBRANCH  88  89
ENDBRANCH  62  83
ENDBRANCH  36  37
ENDBRANCH  28  31
ENDBRANCH  26  27
ENDBRANCH   1  26
TORSDOF 15
ENDMDL
MODEL 3
REMARK VINA RESULT:     -11.7      1.758      3.974
REMARK SMILES Cc1nc(C[N@H+]2Cc3ccccc3C[C@@H]2C(=O)NCCCNC(=O)c2ccc(-c3c4nc(c(-c5ccc(S(=O)(=O)[O-])cc5)c5ccc([nH]5)c(-c5ccc(S(=O)(=O)[O-])cc5)c5nc(c(-c6ccc(S(=O)(=O)[O-])cc6)c6ccc3[nH]6)C=C5)C=C4)cc2)sc1C
REMARK SMILES IDX 20 1 19 2 18 3 16 4 17 5 15 7 6 8 7 9 8 11 14 12 9 13 13 14
REMARK SMILES IDX 10 15 12 16 11 17 5 18 4 19 1 20 2 21 3 22 86 23 85 24 87 25
REMARK SMILES IDX 21 26 22 27 23 28 24 30 25 31 26 32 84 33 27 34 83 35 28 36
REMARK SMILES IDX 29 37 30 38 77 39 31 40 82 41 76 42 78 43 32 44 81 45 75 46
REMARK SMILES IDX 74 47 33 49 63 50 44 51 62 52 45 53 48 54 61 55 79 56 46 57
REMARK SMILES IDX 47 58 60 60 80 61 49 62 34 63 35 64 43 65 36 66 42 67 37 68
REMARK SMILES IDX 38 69 39 70 40 71 41 72 64 73 65 74 73 75 66 76 72 77 67 78
REMARK SMILES IDX 68 79 69 80 70 81 71 82 50 83 51 84 59 85 52 86 58 87 53 88
REMARK SMILES IDX 54 89 55 90 56 91 57 92
REMARK H PARENT 18 6 6 10 22 29 78 48 48 59
REMARK Flexibility Score: inf
ROOT
ATOM      1  C   UNL A   1      33.598  27.888  25.851  1.00  0.00     0.042 C 
ENDROOT
BRANCH   1   2
ATOM      2  C   UNL A   1      33.396  26.392  25.627  1.00  0.00     0.118 C 
BRANCH   2   3
ATOM      3  N   UNL A   1      32.137  25.938  26.177  1.00  0.00    -0.351 N 
ATOM      4  C   UNL A   1      31.035  25.376  25.613  1.00  0.00     0.278 C 
ATOM      5  O   UNL A   1      30.104  25.165  26.404  1.00  0.00    -0.268 OA
ATOM      6  H   UNL A   1      32.064  26.059  27.152  1.00  0.00     0.163 HD
BRANCH   4   7
ATOM      7  C   UNL A   1      30.972  24.854  24.149  1.00  0.00     0.279 C 
ATOM      8  N   UNL A   1      32.194  25.158  23.353  1.00  0.00    -0.315 N 
ATOM      9  C   UNL A   1      32.102  26.313  22.447  1.00  0.00     0.300 C 
ATOM     10  H   UNL A   1      32.866  25.450  24.063  1.00  0.00     0.349 HD
ATOM     11  C   UNL A   1      31.032  27.321  22.790  1.00  0.00     0.010 A 
ATOM     12  C   UNL A   1      29.664  25.374  23.502  1.00  0.00     0.111 C 
ATOM     13  C   UNL A   1      31.207  28.689  22.563  1.00  0.00     0.010 A 
ATOM     14  C   UNL A   1      29.791  26.852  23.246  1.00  0.00    -0.033 A 
ATOM     15  C   UNL A   1      30.155  29.576  22.797  1.00  0.00     0.001 A 
ATOM     16  C   UNL A   1      28.734  27.738  23.459  1.00  0.00     0.004 A 
ATOM     17  C   UNL A   1      28.921  29.101  23.239  1.00  0.00     0.000 A 
BRANCH   8  18
ATOM     18  C   UNL A   1      32.734  23.960  22.659  1.00  0.00     0.332 C 
BRANCH  18  19
ATOM     19  C   UNL A   1      33.549  23.018  23.519  1.00  0.00     0.148 A 
ATOM     20  C   UNL A   1      33.842  19.723  24.898  1.00  0.00     0.068 C 
ATOM     21  C   UNL A   1      34.129  21.135  24.538  1.00  0.00     0.052 A 
ATOM     22  N   UNL A   1      33.106  21.859  23.961  1.00  0.00    -0.240 NA
ATOM     23  C   UNL A   1      35.322  21.824  24.662  1.00  0.00     0.025 A 
ATOM     24  S   UNL A   1      35.162  23.390  23.975  1.00  0.00    -0.118 S 
ATOM     25  C   UNL A   1      36.614  21.368  25.236  1.00  0.00     0.058 C 
ENDBRANCH  18  19
ENDBRANCH   8  18
ENDBRANCH   4   7
ENDBRANCH   2   3
ENDBRANCH   1   2
BRANCH   1  26
ATOM     26  C   UNL A   1      33.426  28.316  27.310  1.00  0.00     0.118 C 
BRANCH  26  27
ATOM     27  N   UNL A   1      33.406  29.766  27.470  1.00  0.00    -0.352 N 
ATOM     28  C   UNL A   1      34.348  30.615  27.991  1.00  0.00     0.251 C 
ATOM     29  H   UNL A   1      32.584  30.206  27.152  1.00  0.00     0.163 HD
ATOM     30  O   UNL A   1      34.047  31.787  28.216  1.00  0.00    -0.269 OA
BRANCH  28  31
ATOM     31  C   UNL A   1      35.710  30.130  28.297  1.00  0.00     0.039 A 
ATOM     32  C   UNL A   1      36.670  30.126  27.282  1.00  0.00     0.014 A 
ATOM     33  C   UNL A   1      36.036  29.654  29.570  1.00  0.00     0.014 A 
ATOM     34  C   UNL A   1      37.973  29.709  27.561  1.00  0.00     0.010 A 
ATOM     35  C   UNL A   1      37.353  29.312  29.866  1.00  0.00     0.010 A 
ATOM     36  C   UNL A   1      38.336  29.334  28.865  1.00  0.00    -0.014 A 
BRANCH  36  37
ATOM     37  C   UNL A   1      39.737  28.974  29.204  1.00  0.00     0.031 A 
ATOM     38  C   UNL A   1      40.647  29.988  29.844  1.00  0.00     0.074 A 
ATOM     39  C   UNL A   1      40.210  27.756  28.871  1.00  0.00     0.049 A 
ATOM     40  N   UNL A   1      41.915  29.880  30.147  1.00  0.00    -0.248 NA
ATOM     41  C   UNL A   1      40.064  31.300  30.165  1.00  0.00     0.031 C 
ATOM     42  C   UNL A   1      39.437  26.697  28.217  1.00  0.00     0.029 A 
ATOM     43  N   UNL A   1      41.456  27.204  29.032  1.00  0.00    -0.354 N 
ATOM     44  C   UNL A   1      42.285  31.111  30.677  1.00  0.00     0.074 A 
ATOM     45  C   UNL A   1      41.120  31.966  30.608  1.00  0.00     0.031 C 
ATOM     46  C   UNL A   1      40.218  25.617  28.055  1.00  0.00     0.029 A 
ATOM     47  C   UNL A   1      41.558  25.920  28.548  1.00  0.00     0.049 A 
ATOM     48  H   UNL A   1      42.206  27.681  29.454  1.00  0.00     0.167 HD
ATOM     49  C   UNL A   1      43.480  31.490  31.189  1.00  0.00     0.031 A 
ATOM     50  C   UNL A   1      42.613  25.084  28.493  1.00  0.00     0.031 A 
ATOM     51  C   UNL A   1      44.635  30.635  31.258  1.00  0.00     0.049 A 
ATOM     52  C   UNL A   1      43.936  25.537  29.046  1.00  0.00     0.074 A 
ATOM     53  C   UNL A   1      45.876  30.909  31.807  1.00  0.00     0.029 A 
ATOM     54  N   UNL A   1      44.696  29.342  30.761  1.00  0.00    -0.354 N 
ATOM     55  N   UNL A   1      44.248  26.684  29.602  1.00  0.00    -0.248 NA
ATOM     56  C   UNL A   1      45.048  24.580  28.974  1.00  0.00     0.031 C 
ATOM     57  C   UNL A   1      46.706  29.805  31.585  1.00  0.00     0.029 A 
ATOM     58  C   UNL A   1      45.962  28.815  30.963  1.00  0.00     0.049 A 
ATOM     59  H   UNL A   1      43.950  28.868  30.327  1.00  0.00     0.167 HD
ATOM     60  C   UNL A   1      45.583  26.574  29.974  1.00  0.00     0.074 A 
ATOM     61  C   UNL A   1      46.015  25.244  29.593  1.00  0.00     0.031 C 
ATOM     62  C   UNL A   1      46.378  27.489  30.580  1.00  0.00     0.031 A 
BRANCH  49  63
ATOM     63  C   UNL A   1      43.603  32.901  31.708  1.00  0.00    -0.014 A 
ATOM     64  C   UNL A   1      44.082  33.940  30.887  1.00  0.00     0.010 A 
ATOM     65  C   UNL A   1      43.191  33.202  33.019  1.00  0.00     0.010 A 
ATOM     66  C   UNL A   1      44.185  35.243  31.382  1.00  0.00     0.020 A 
ATOM     67  C   UNL A   1      43.264  34.511  33.507  1.00  0.00     0.020 A 
ATOM     68  C   UNL A   1      43.776  35.519  32.690  1.00  0.00     0.054 A 
BRANCH  68  69
ATOM     69  S   UNL A   1      43.900  37.225  33.295  1.00  0.00     0.124 S 
ATOM     70  O   UNL A   1      43.811  37.992  32.055  1.00  0.00    -0.237 OA
ATOM     71  O   UNL A   1      42.748  37.333  34.184  1.00  0.00    -0.237 OA
ATOM     72  O   UNL A   1      45.202  37.265  33.958  1.00  0.00    -0.744 OA
ENDBRANCH  68  69
ENDBRANCH  49  63
BRANCH  50  73
ATOM     73  C   UNL A   1      42.457  23.727  27.898  1.00  0.00    -0.014 A 
ATOM     74  C   UNL A   1      42.616  23.531  26.514  1.00  0.00     0.010 A 
ATOM     75  C   UNL A   1      42.160  22.620  28.714  1.00  0.00     0.010 A 
ATOM     76  C   UNL A   1      42.461  22.258  25.956  1.00  0.00     0.020 A 
ATOM     77  C   UNL A   1      42.035  21.342  28.164  1.00  0.00     0.020 A 
ATOM     78  C   UNL A   1      42.175  21.171  26.786  1.00  0.00     0.054 A 
BRANCH  78  79
ATOM     79  S   UNL A   1      42.027  19.521  26.046  1.00  0.00     0.124 S 
ATOM     80  O   UNL A   1      42.529  18.662  27.114  1.00  0.00    -0.237 OA
ATOM     81  O   UNL A   1      40.595  19.424  25.776  1.00  0.00    -0.237 OA
ATOM     82  O   UNL A   1      42.873  19.602  24.857  1.00  0.00    -0.744 OA
ENDBRANCH  78  79
ENDBRANCH  50  73
BRANCH  62  83
ATOM     83  C   UNL A   1      47.789  27.078  30.911  1.00  0.00    -0.014 A 
ATOM     84  C   UNL A   1      48.095  26.385  32.096  1.00  0.00     0.010 A 
ATOM     85  C   UNL A   1      48.819  27.339  29.986  1.00  0.00     0.010 A 
ATOM     86  C   UNL A   1      49.407  25.986  32.362  1.00  0.00     0.020 A 
ATOM     87  C   UNL A   1      50.126  26.914  30.235  1.00  0.00     0.020 A 
ATOM     88  C   UNL A   1      50.415  26.251  31.428  1.00  0.00     0.054 A 
BRANCH  88  89
ATOM     89  S   UNL A   1      52.100  25.677  31.776  1.00  0.00     0.124 S 
ATOM     90  O   UNL A   1      52.773  25.928  30.505  1.00  0.00    -0.237 OA
ATOM     91  O   UNL A   1      52.508  26.538  32.884  1.00  0.00    -0.237 OA
ATOM     92  O   UNL A   1      51.923  24.269  32.121  1.00  0.00    -0.744 OA
ENDBRANCH  88  89
ENDBRANCH  62  83
ENDBRANCH  36  37
ENDBRANCH  28  31
ENDBRANCH  26  27
ENDBRANCH   1  26
TORSDOF 15
ENDMDL
