MODEL 1
REMARK VINA RESULT:     -10.7      0.000      0.000
REMARK SMILES CC(=O)NS(=O)(=O)c1ccc(-c2ccn(C(F)F)c(=O)c2)cc1C(=O)NCCCNC(=O)c1ccc(-c2c3nc(c(-c4ccc(S(=O)(=O)[O-])cc4)c4ccc([nH]4)c(-c4ccc(S(=O)(=O)[O-])cc4)c4nc(c(-c5ccc(S(=O)(=O)[O-])cc5)c5ccc2[nH]5)C=C4)C=C3)cc1
REMARK SMILES IDX 28 1 27 2 26 3 24 4 25 5 23 7 8 8 9 9 10 10 22 11 11 12 5 13
REMARK SMILES IDX 6 14 7 15 4 16 1 17 2 18 3 19 12 21 13 22 21 23 14 24 19 25
REMARK SMILES IDX 15 26 20 27 16 28 17 29 18 30 29 31 30 32 31 33 32 35 33 36
REMARK SMILES IDX 34 37 92 38 35 39 91 40 36 41 37 42 38 43 85 44 39 45 90 46
REMARK SMILES IDX 84 47 86 48 40 49 89 50 83 51 82 52 41 54 71 55 52 56 70 57
REMARK SMILES IDX 53 58 56 59 69 60 87 61 54 62 55 63 68 65 88 66 57 67 42 68
REMARK SMILES IDX 43 69 51 70 44 71 50 72 45 73 46 74 47 75 48 76 49 77 72 78
REMARK SMILES IDX 73 79 81 80 74 81 80 82 75 83 76 84 77 85 78 86 79 87 58 88
REMARK SMILES IDX 59 89 67 90 60 91 66 92 61 93 62 94 63 95 64 96 65 97
REMARK H PARENT 26 6 4 20 30 34 86 53 56 64
REMARK Flexibility Score: inf
ROOT
ATOM      1  C   UNL A   1      36.909  30.312  33.252  1.00  0.00     0.042 C 
ENDROOT
BRANCH   1   2
ATOM      2  C   UNL A   1      38.082  31.106  33.821  1.00  0.00     0.118 C 
BRANCH   2   3
ATOM      3  N   UNL A   1      37.730  32.450  34.247  1.00  0.00    -0.352 N 
ATOM      4  C   UNL A   1      37.443  33.571  33.520  1.00  0.00     0.252 C 
ATOM      5  O   UNL A   1      37.108  34.601  34.099  1.00  0.00    -0.269 OA
ATOM      6  H   UNL A   1      37.691  32.574  35.223  1.00  0.00     0.163 HD
BRANCH   4   7
ATOM      7  C   UNL A   1      37.571  33.617  32.053  1.00  0.00     0.060 A 
ATOM      8  C   UNL A   1      36.519  33.688  31.143  1.00  0.00     0.100 A 
ATOM      9  C   UNL A   1      36.796  33.782  29.766  1.00  0.00     0.024 A 
ATOM     10  C   UNL A   1      38.104  33.938  29.313  1.00  0.00     0.010 A 
ATOM     11  C   UNL A   1      38.888  33.810  31.587  1.00  0.00     0.024 A 
ATOM     12  C   UNL A   1      39.158  34.027  30.227  1.00  0.00    -0.017 A 
BRANCH   8  13
ATOM     13  S   UNL A   1      34.819  33.915  31.582  1.00  0.00     0.264 S 
ATOM     14  O   UNL A   1      34.731  35.223  32.188  1.00  0.00    -0.201 OA
ATOM     15  O   UNL A   1      34.413  32.737  32.316  1.00  0.00    -0.201 OA
BRANCH  13  16
ATOM     16  N   UNL A   1      33.942  33.950  30.186  1.00  0.00    -0.249 N 
ATOM     17  C   UNL A   1      32.612  36.044  30.577  1.00  0.00     0.115 C 
ATOM     18  C   UNL A   1      33.164  34.991  29.658  1.00  0.00     0.230 C 
ATOM     19  O   UNL A   1      32.892  34.968  28.464  1.00  0.00    -0.274 OA
ATOM     20  H   UNL A   1      33.968  33.125  29.649  1.00  0.00     0.183 HD
ENDBRANCH  13  16
ENDBRANCH   8  13
BRANCH  12  21
ATOM     21  C   UNL A   1      40.497  34.487  29.798  1.00  0.00    -0.011 A 
ATOM     22  C   UNL A   1      41.718  34.241  30.540  1.00  0.00     0.027 A 
ATOM     23  C   UNL A   1      40.556  35.264  28.699  1.00  0.00     0.080 A 
ATOM     24  C   UNL A   1      42.872  34.800  30.156  1.00  0.00     0.095 A 
ATOM     25  C   UNL A   1      41.835  35.868  28.241  1.00  0.00     0.255 A 
ATOM     26  N   UNL A   1      42.938  35.609  29.036  1.00  0.00    -0.258 N 
ATOM     27  O   UNL A   1      41.828  36.552  27.223  1.00  0.00    -0.269 OA
BRANCH  26  28
ATOM     28  C   UNL A   1      44.178  36.225  28.642  1.00  0.00     0.451 C 
ATOM     29  F   UNL A   1      44.550  35.825  27.402  1.00  0.00    -0.185 F 
ATOM     30  F   UNL A   1      44.068  37.577  28.629  1.00  0.00    -0.185 F 
ENDBRANCH  26  28
ENDBRANCH  12  21
ENDBRANCH   4   7
ENDBRANCH   2   3
ENDBRANCH   1   2
BRANCH   1  31
ATOM     31  C   UNL A   1      37.215  29.477  32.004  1.00  0.00     0.118 C 
BRANCH  31  32
ATOM     32  N   UNL A   1      36.395  29.813  30.850  1.00  0.00    -0.352 N 
ATOM     33  C   UNL A   1      36.721  30.123  29.553  1.00  0.00     0.251 C 
ATOM     34  H   UNL A   1      35.427  29.819  31.034  1.00  0.00     0.163 HD
ATOM     35  O   UNL A   1      35.841  30.559  28.813  1.00  0.00    -0.269 OA
BRANCH  33  36
ATOM     36  C   UNL A   1      38.099  29.965  29.040  1.00  0.00     0.039 A 
ATOM     37  C   UNL A   1      39.170  30.249  29.895  1.00  0.00     0.014 A 
ATOM     38  C   UNL A   1      38.348  29.598  27.717  1.00  0.00     0.014 A 
ATOM     39  C   UNL A   1      40.485  30.073  29.453  1.00  0.00     0.010 A 
ATOM     40  C   UNL A   1      39.658  29.368  27.295  1.00  0.00     0.010 A 
ATOM     41  C   UNL A   1      40.738  29.577  28.167  1.00  0.00    -0.014 A 
BRANCH  41  42
ATOM     42  C   UNL A   1      42.107  29.233  27.708  1.00  0.00     0.031 A 
ATOM     43  C   UNL A   1      42.431  27.831  27.278  1.00  0.00     0.074 A 
ATOM     44  C   UNL A   1      43.099  30.141  27.786  1.00  0.00     0.049 A 
ATOM     45  N   UNL A   1      43.598  27.247  27.199  1.00  0.00    -0.248 NA
ATOM     46  C   UNL A   1      41.293  26.968  26.931  1.00  0.00     0.031 C 
ATOM     47  C   UNL A   1      42.952  31.538  28.197  1.00  0.00     0.029 A 
ATOM     48  N   UNL A   1      44.442  30.006  27.538  1.00  0.00    -0.354 N 
ATOM     49  C   UNL A   1      43.331  25.918  26.904  1.00  0.00     0.074 A 
ATOM     50  C   UNL A   1      41.895  25.800  26.743  1.00  0.00     0.031 C 
ATOM     51  C   UNL A   1      44.151  32.140  28.145  1.00  0.00     0.029 A 
ATOM     52  C   UNL A   1      45.157  31.159  27.752  1.00  0.00     0.049 A 
ATOM     53  H   UNL A   1      44.854  29.165  27.235  1.00  0.00     0.167 HD
ATOM     54  C   UNL A   1      44.201  24.882  26.831  1.00  0.00     0.031 A 
ATOM     55  C   UNL A   1      46.479  31.398  27.669  1.00  0.00     0.031 A 
ATOM     56  C   UNL A   1      45.628  25.012  26.932  1.00  0.00     0.049 A 
ATOM     57  C   UNL A   1      47.421  30.276  27.359  1.00  0.00     0.074 A 
ATOM     58  C   UNL A   1      46.595  24.021  26.977  1.00  0.00     0.029 A 
ATOM     59  N   UNL A   1      46.300  26.224  26.953  1.00  0.00    -0.354 N 
ATOM     60  N   UNL A   1      47.157  28.998  27.238  1.00  0.00    -0.248 NA
ATOM     61  C   UNL A   1      48.838  30.625  27.187  1.00  0.00     0.031 C 
ATOM     62  C   UNL A   1      47.856  24.640  26.985  1.00  0.00     0.029 A 
ATOM     63  C   UNL A   1      47.667  26.012  26.948  1.00  0.00     0.049 A 
ATOM     64  H   UNL A   1      45.866  27.108  26.968  1.00  0.00     0.167 HD
ATOM     65  C   UNL A   1      48.380  28.383  27.010  1.00  0.00     0.074 A 
ATOM     66  C   UNL A   1      49.380  29.432  26.969  1.00  0.00     0.031 C 
ATOM     67  C   UNL A   1      48.650  27.061  26.880  1.00  0.00     0.031 A 
BRANCH  54  68
ATOM     68  C   UNL A   1      43.598  23.517  26.710  1.00  0.00    -0.014 A 
ATOM     69  C   UNL A   1      43.037  22.863  27.817  1.00  0.00     0.010 A 
ATOM     70  C   UNL A   1      43.640  22.861  25.465  1.00  0.00     0.010 A 
ATOM     71  C   UNL A   1      42.566  21.551  27.695  1.00  0.00     0.020 A 
ATOM     72  C   UNL A   1      43.166  21.555  25.338  1.00  0.00     0.020 A 
ATOM     73  C   UNL A   1      42.653  20.900  26.460  1.00  0.00     0.054 A 
BRANCH  73  74
ATOM     74  S   UNL A   1      42.094  19.183  26.285  1.00  0.00     0.124 S 
ATOM     75  O   UNL A   1      40.695  19.362  25.905  1.00  0.00    -0.237 OA
ATOM     76  O   UNL A   1      42.961  18.644  25.240  1.00  0.00    -0.237 OA
ATOM     77  O   UNL A   1      42.316  18.631  27.620  1.00  0.00    -0.744 OA
ENDBRANCH  73  74
ENDBRANCH  54  68
BRANCH  55  78
ATOM     78  C   UNL A   1      46.977  32.774  27.907  1.00  0.00    -0.014 A 
ATOM     79  C   UNL A   1      47.176  33.640  26.819  1.00  0.00     0.010 A 
ATOM     80  C   UNL A   1      47.165  33.246  29.215  1.00  0.00     0.010 A 
ATOM     81  C   UNL A   1      47.544  34.970  27.036  1.00  0.00     0.020 A 
ATOM     82  C   UNL A   1      47.527  34.578  29.435  1.00  0.00     0.020 A 
ATOM     83  C   UNL A   1      47.713  35.432  28.344  1.00  0.00     0.054 A 
BRANCH  83  84
ATOM     84  S   UNL A   1      48.079  37.184  28.642  1.00  0.00     0.124 S 
ATOM     85  O   UNL A   1      47.301  37.838  27.594  1.00  0.00    -0.237 OA
ATOM     86  O   UNL A   1      47.602  37.397  30.007  1.00  0.00    -0.237 OA
ATOM     87  O   UNL A   1      49.530  37.244  28.484  1.00  0.00    -0.744 OA
ENDBRANCH  83  84
ENDBRANCH  55  78
BRANCH  67  88
ATOM     88  C   UNL A   1      50.086  26.681  26.678  1.00  0.00    -0.014 A 
ATOM     89  C   UNL A   1      50.608  26.559  25.379  1.00  0.00     0.010 A 
ATOM     90  C   UNL A   1      50.918  26.449  27.785  1.00  0.00     0.010 A 
ATOM     91  C   UNL A   1      51.942  26.188  25.188  1.00  0.00     0.020 A 
ATOM     92  C   UNL A   1      52.252  26.077  27.597  1.00  0.00     0.020 A 
ATOM     93  C   UNL A   1      52.752  25.936  26.299  1.00  0.00     0.054 A 
BRANCH  93  94
ATOM     94  S   UNL A   1      54.488  25.471  26.051  1.00  0.00     0.124 S 
ATOM     95  O   UNL A   1      55.100  26.756  25.724  1.00  0.00    -0.237 OA
ATOM     96  O   UNL A   1      54.869  24.904  27.341  1.00  0.00    -0.237 OA
ATOM     97  O   UNL A   1      54.424  24.511  24.951  1.00  0.00    -0.744 OA
ENDBRANCH  93  94
ENDBRANCH  67  88
ENDBRANCH  41  42
ENDBRANCH  33  36
ENDBRANCH  31  32
ENDBRANCH   1  31
TORSDOF 17
ENDMDL
MODEL 2
REMARK VINA RESULT:     -10.3      5.451     13.536
REMARK SMILES CC(=O)NS(=O)(=O)c1ccc(-c2ccn(C(F)F)c(=O)c2)cc1C(=O)NCCCNC(=O)c1ccc(-c2c3nc(c(-c4ccc(S(=O)(=O)[O-])cc4)c4ccc([nH]4)c(-c4ccc(S(=O)(=O)[O-])cc4)c4nc(c(-c5ccc(S(=O)(=O)[O-])cc5)c5ccc2[nH]5)C=C4)C=C3)cc1
REMARK SMILES IDX 28 1 27 2 26 3 24 4 25 5 23 7 8 8 9 9 10 10 22 11 11 12 5 13
REMARK SMILES IDX 6 14 7 15 4 16 1 17 2 18 3 19 12 21 13 22 21 23 14 24 19 25
REMARK SMILES IDX 15 26 20 27 16 28 17 29 18 30 29 31 30 32 31 33 32 35 33 36
REMARK SMILES IDX 34 37 92 38 35 39 91 40 36 41 37 42 38 43 85 44 39 45 90 46
REMARK SMILES IDX 84 47 86 48 40 49 89 50 83 51 82 52 41 54 71 55 52 56 70 57
REMARK SMILES IDX 53 58 56 59 69 60 87 61 54 62 55 63 68 65 88 66 57 67 42 68
REMARK SMILES IDX 43 69 51 70 44 71 50 72 45 73 46 74 47 75 48 76 49 77 72 78
REMARK SMILES IDX 73 79 81 80 74 81 80 82 75 83 76 84 77 85 78 86 79 87 58 88
REMARK SMILES IDX 59 89 67 90 60 91 66 92 61 93 62 94 63 95 64 96 65 97
REMARK H PARENT 26 6 4 20 30 34 86 53 56 64
REMARK Flexibility Score: inf
ROOT
ATOM      1  C   UNL A   1      46.404  26.465  25.029  1.00  0.00     0.042 C 
ENDROOT
BRANCH   1   2
ATOM      2  C   UNL A   1      47.676  27.086  25.601  1.00  0.00     0.118 C 
BRANCH   2   3
ATOM      3  N   UNL A   1      48.647  26.110  26.066  1.00  0.00    -0.352 N 
ATOM      4  C   UNL A   1      48.596  25.224  27.104  1.00  0.00     0.252 C 
ATOM      5  O   UNL A   1      49.524  24.439  27.281  1.00  0.00    -0.269 OA
ATOM      6  H   UNL A   1      49.482  26.082  25.546  1.00  0.00     0.163 HD
BRANCH   4   7
ATOM      7  C   UNL A   1      47.484  25.201  28.071  1.00  0.00     0.060 A 
ATOM      8  C   UNL A   1      47.302  26.090  29.128  1.00  0.00     0.100 A 
ATOM      9  C   UNL A   1      46.158  25.980  29.941  1.00  0.00     0.024 A 
ATOM     10  C   UNL A   1      45.142  25.081  29.620  1.00  0.00     0.010 A 
ATOM     11  C   UNL A   1      46.434  24.320  27.735  1.00  0.00     0.024 A 
ATOM     12  C   UNL A   1      45.240  24.293  28.470  1.00  0.00    -0.017 A 
BRANCH   8  13
ATOM     13  S   UNL A   1      48.286  27.534  29.413  1.00  0.00     0.264 S 
ATOM     14  O   UNL A   1      48.030  28.421  28.302  1.00  0.00    -0.201 OA
ATOM     15  O   UNL A   1      49.630  27.079  29.693  1.00  0.00    -0.201 OA
BRANCH  13  16
ATOM     16  N   UNL A   1      47.721  28.264  30.778  1.00  0.00    -0.249 N 
ATOM     17  C   UNL A   1      49.262  30.245  30.865  1.00  0.00     0.115 C 
ATOM     18  C   UNL A   1      47.992  29.550  31.269  1.00  0.00     0.230 C 
ATOM     19  O   UNL A   1      47.216  30.042  32.079  1.00  0.00    -0.274 OA
ATOM     20  H   UNL A   1      47.107  27.722  31.326  1.00  0.00     0.183 HD
ENDBRANCH  13  16
ENDBRANCH   8  13
BRANCH  12  21
ATOM     21  C   UNL A   1      44.062  23.563  27.950  1.00  0.00    -0.011 A 
ATOM     22  C   UNL A   1      42.979  23.071  28.779  1.00  0.00     0.027 A 
ATOM     23  C   UNL A   1      44.058  23.259  26.638  1.00  0.00     0.080 A 
ATOM     24  C   UNL A   1      42.014  22.306  28.255  1.00  0.00     0.095 A 
ATOM     25  C   UNL A   1      42.978  22.436  26.033  1.00  0.00     0.255 A 
ATOM     26  N   UNL A   1      42.011  21.978  26.911  1.00  0.00    -0.258 N 
ATOM     27  O   UNL A   1      43.022  22.207  24.829  1.00  0.00    -0.269 OA
BRANCH  26  28
ATOM     28  C   UNL A   1      40.982  21.137  26.358  1.00  0.00     0.451 C 
ATOM     29  F   UNL A   1      40.342  20.444  27.331  1.00  0.00    -0.185 F 
ATOM     30  F   UNL A   1      40.057  21.871  25.691  1.00  0.00    -0.185 F 
ENDBRANCH  26  28
ENDBRANCH  12  21
ENDBRANCH   4   7
ENDBRANCH   2   3
ENDBRANCH   1   2
BRANCH   1  31
ATOM     31  C   UNL A   1      45.087  27.017  25.586  1.00  0.00     0.118 C 
BRANCH  31  32
ATOM     32  N   UNL A   1      43.898  26.428  24.989  1.00  0.00    -0.352 N 
ATOM     33  C   UNL A   1      42.615  26.282  25.454  1.00  0.00     0.251 C 
ATOM     34  H   UNL A   1      44.040  26.066  24.084  1.00  0.00     0.163 HD
ATOM     35  O   UNL A   1      41.836  25.570  24.823  1.00  0.00    -0.269 OA
BRANCH  33  36
ATOM     36  C   UNL A   1      42.162  26.941  26.698  1.00  0.00     0.039 A 
ATOM     37  C   UNL A   1      41.463  26.182  27.643  1.00  0.00     0.014 A 
ATOM     38  C   UNL A   1      42.363  28.305  26.918  1.00  0.00     0.014 A 
ATOM     39  C   UNL A   1      41.054  26.765  28.847  1.00  0.00     0.010 A 
ATOM     40  C   UNL A   1      42.004  28.872  28.141  1.00  0.00     0.010 A 
ATOM     41  C   UNL A   1      41.370  28.101  29.128  1.00  0.00    -0.014 A 
BRANCH  41  42
ATOM     42  C   UNL A   1      41.090  28.718  30.449  1.00  0.00     0.031 A 
ATOM     43  C   UNL A   1      39.902  29.617  30.628  1.00  0.00     0.074 A 
ATOM     44  C   UNL A   1      41.963  28.575  31.466  1.00  0.00     0.049 A 
ATOM     45  N   UNL A   1      39.686  30.518  31.552  1.00  0.00    -0.248 NA
ATOM     46  C   UNL A   1      38.840  29.517  29.616  1.00  0.00     0.031 C 
ATOM     47  C   UNL A   1      43.171  27.749  31.448  1.00  0.00     0.029 A 
ATOM     48  N   UNL A   1      41.969  29.146  32.714  1.00  0.00    -0.354 N 
ATOM     49  C   UNL A   1      38.522  31.170  31.172  1.00  0.00     0.074 A 
ATOM     50  C   UNL A   1      38.037  30.509  29.976  1.00  0.00     0.031 C 
ATOM     51  C   UNL A   1      43.785  27.843  32.637  1.00  0.00     0.029 A 
ATOM     52  C   UNL A   1      43.047  28.778  33.480  1.00  0.00     0.049 A 
ATOM     53  H   UNL A   1      41.268  29.761  33.029  1.00  0.00     0.167 HD
ATOM     54  C   UNL A   1      37.943  32.255  31.741  1.00  0.00     0.031 A 
ATOM     55  C   UNL A   1      43.419  29.168  34.714  1.00  0.00     0.031 A 
ATOM     56  C   UNL A   1      38.392  32.870  32.960  1.00  0.00     0.049 A 
ATOM     57  C   UNL A   1      42.629  30.217  35.433  1.00  0.00     0.074 A 
ATOM     58  C   UNL A   1      37.947  34.032  33.568  1.00  0.00     0.029 A 
ATOM     59  N   UNL A   1      39.365  32.334  33.788  1.00  0.00    -0.354 N 
ATOM     60  N   UNL A   1      41.623  30.930  34.988  1.00  0.00    -0.248 NA
ATOM     61  C   UNL A   1      43.032  30.524  36.812  1.00  0.00     0.031 C 
ATOM     62  C   UNL A   1      38.629  34.176  34.787  1.00  0.00     0.029 A 
ATOM     63  C   UNL A   1      39.495  33.105  34.931  1.00  0.00     0.049 A 
ATOM     64  H   UNL A   1      39.888  31.524  33.592  1.00  0.00     0.167 HD
ATOM     65  C   UNL A   1      41.292  31.796  36.022  1.00  0.00     0.074 A 
ATOM     66  C   UNL A   1      42.178  31.491  37.128  1.00  0.00     0.031 C 
ATOM     67  C   UNL A   1      40.358  32.778  36.035  1.00  0.00     0.031 A 
BRANCH  54  68
ATOM     68  C   UNL A   1      36.809  32.874  30.984  1.00  0.00    -0.014 A 
ATOM     69  C   UNL A   1      37.035  33.715  29.883  1.00  0.00     0.010 A 
ATOM     70  C   UNL A   1      35.491  32.642  31.422  1.00  0.00     0.010 A 
ATOM     71  C   UNL A   1      35.961  34.353  29.255  1.00  0.00     0.020 A 
ATOM     72  C   UNL A   1      34.417  33.274  30.794  1.00  0.00     0.020 A 
ATOM     73  C   UNL A   1      34.661  34.144  29.728  1.00  0.00     0.054 A 
BRANCH  73  74
ATOM     74  S   UNL A   1      33.256  34.997  28.962  1.00  0.00     0.124 S 
ATOM     75  O   UNL A   1      32.384  35.226  30.112  1.00  0.00    -0.237 OA
ATOM     76  O   UNL A   1      33.855  36.198  28.385  1.00  0.00    -0.237 OA
ATOM     77  O   UNL A   1      32.771  34.019  27.991  1.00  0.00    -0.744 OA
ENDBRANCH  73  74
ENDBRANCH  54  68
BRANCH  55  78
ATOM     78  C   UNL A   1      44.621  28.556  35.328  1.00  0.00    -0.014 A 
ATOM     79  C   UNL A   1      44.508  27.336  36.015  1.00  0.00     0.010 A 
ATOM     80  C   UNL A   1      45.885  29.141  35.153  1.00  0.00     0.010 A 
ATOM     81  C   UNL A   1      45.648  26.698  36.508  1.00  0.00     0.020 A 
ATOM     82  C   UNL A   1      47.028  28.501  35.640  1.00  0.00     0.020 A 
ATOM     83  C   UNL A   1      46.902  27.283  36.313  1.00  0.00     0.054 A 
BRANCH  83  84
ATOM     84  S   UNL A   1      48.399  26.407  36.849  1.00  0.00     0.124 S 
ATOM     85  O   UNL A   1      47.843  25.298  37.616  1.00  0.00    -0.237 OA
ATOM     86  O   UNL A   1      49.041  26.042  35.587  1.00  0.00    -0.237 OA
ATOM     87  O   UNL A   1      49.109  27.421  37.624  1.00  0.00    -0.744 OA
ENDBRANCH  83  84
ENDBRANCH  55  78
BRANCH  67  88
ATOM     88  C   UNL A   1      40.249  33.589  37.290  1.00  0.00    -0.014 A 
ATOM     89  C   UNL A   1      39.322  33.232  38.285  1.00  0.00     0.010 A 
ATOM     90  C   UNL A   1      41.074  34.710  37.481  1.00  0.00     0.010 A 
ATOM     91  C   UNL A   1      39.207  33.996  39.448  1.00  0.00     0.020 A 
ATOM     92  C   UNL A   1      40.960  35.478  38.643  1.00  0.00     0.020 A 
ATOM     93  C   UNL A   1      40.017  35.123  39.614  1.00  0.00     0.054 A 
BRANCH  93  94
ATOM     94  S   UNL A   1      39.879  36.107  41.132  1.00  0.00     0.124 S 
ATOM     95  O   UNL A   1      40.124  35.104  42.164  1.00  0.00    -0.237 OA
ATOM     96  O   UNL A   1      40.924  37.114  40.974  1.00  0.00    -0.237 OA
ATOM     97  O   UNL A   1      38.513  36.623  41.074  1.00  0.00    -0.744 OA
ENDBRANCH  93  94
ENDBRANCH  67  88
ENDBRANCH  41  42
ENDBRANCH  33  36
ENDBRANCH  31  32
ENDBRANCH   1  31
TORSDOF 17
ENDMDL
MODEL 3
REMARK VINA RESULT:     -10.2      2.614      4.291
REMARK SMILES CC(=O)NS(=O)(=O)c1ccc(-c2ccn(C(F)F)c(=O)c2)cc1C(=O)NCCCNC(=O)c1ccc(-c2c3nc(c(-c4ccc(S(=O)(=O)[O-])cc4)c4ccc([nH]4)c(-c4ccc(S(=O)(=O)[O-])cc4)c4nc(c(-c5ccc(S(=O)(=O)[O-])cc5)c5ccc2[nH]5)C=C4)C=C3)cc1
REMARK SMILES IDX 28 1 27 2 26 3 24 4 25 5 23 7 8 8 9 9 10 10 22 11 11 12 5 13
REMARK SMILES IDX 6 14 7 15 4 16 1 17 2 18 3 19 12 21 13 22 21 23 14 24 19 25
REMARK SMILES IDX 15 26 20 27 16 28 17 29 18 30 29 31 30 32 31 33 32 35 33 36
REMARK SMILES IDX 34 37 92 38 35 39 91 40 36 41 37 42 38 43 85 44 39 45 90 46
REMARK SMILES IDX 84 47 86 48 40 49 89 50 83 51 82 52 41 54 71 55 52 56 70 57
REMARK SMILES IDX 53 58 56 59 69 60 87 61 54 62 55 63 68 65 88 66 57 67 42 68
REMARK SMILES IDX 43 69 51 70 44 71 50 72 45 73 46 74 47 75 48 76 49 77 72 78
REMARK SMILES IDX 73 79 81 80 74 81 80 82 75 83 76 84 77 85 78 86 79 87 58 88
REMARK SMILES IDX 59 89 67 90 60 91 66 92 61 93 62 94 63 95 64 96 65 97
REMARK H PARENT 26 6 4 20 30 34 86 53 56 64
REMARK Flexibility Score: inf
ROOT
ATOM      1  C   UNL A   1      38.082  31.731  34.919  1.00  0.00     0.042 C 
ENDROOT
BRANCH   1   2
ATOM      2  C   UNL A   1      39.359  32.253  35.575  1.00  0.00     0.118 C 
BRANCH   2   3
ATOM      3  N   UNL A   1      39.350  33.685  35.819  1.00  0.00    -0.352 N 
ATOM      4  C   UNL A   1      39.460  34.739  34.956  1.00  0.00     0.252 C 
ATOM      5  O   UNL A   1      39.366  35.887  35.383  1.00  0.00    -0.269 OA
ATOM      6  H   UNL A   1      39.248  33.940  36.764  1.00  0.00     0.163 HD
BRANCH   4   7
ATOM      7  C   UNL A   1      39.744  34.561  33.522  1.00  0.00     0.060 A 
ATOM      8  C   UNL A   1      40.997  34.324  32.960  1.00  0.00     0.100 A 
ATOM      9  C   UNL A   1      41.110  34.118  31.572  1.00  0.00     0.024 A 
ATOM     10  C   UNL A   1      39.971  34.015  30.775  1.00  0.00     0.010 A 
ATOM     11  C   UNL A   1      38.598  34.420  32.711  1.00  0.00     0.024 A 
ATOM     12  C   UNL A   1      38.701  34.093  31.351  1.00  0.00    -0.017 A 
BRANCH   8  13
ATOM     13  S   UNL A   1      42.475  34.017  33.885  1.00  0.00     0.264 S 
ATOM     14  O   UNL A   1      43.535  33.876  32.915  1.00  0.00    -0.201 OA
ATOM     15  O   UNL A   1      42.179  32.944  34.808  1.00  0.00    -0.201 OA
BRANCH  13  16
ATOM     16  N   UNL A   1      42.793  35.363  34.782  1.00  0.00    -0.249 N 
ATOM     17  C   UNL A   1      43.376  36.968  32.941  1.00  0.00     0.115 C 
ATOM     18  C   UNL A   1      42.955  36.690  34.357  1.00  0.00     0.230 C 
ATOM     19  O   UNL A   1      42.822  37.587  35.180  1.00  0.00    -0.274 OA
ATOM     20  H   UNL A   1      42.880  35.215  35.751  1.00  0.00     0.183 HD
ENDBRANCH  13  16
ENDBRANCH   8  13
BRANCH  12  21
ATOM     21  C   UNL A   1      37.497  33.693  30.588  1.00  0.00    -0.011 A 
ATOM     22  C   UNL A   1      37.429  33.649  29.140  1.00  0.00     0.027 A 
ATOM     23  C   UNL A   1      36.375  33.452  31.294  1.00  0.00     0.080 A 
ATOM     24  C   UNL A   1      36.268  33.404  28.521  1.00  0.00     0.095 A 
ATOM     25  C   UNL A   1      35.084  33.148  30.622  1.00  0.00     0.255 A 
ATOM     26  N   UNL A   1      35.109  33.168  29.239  1.00  0.00    -0.258 N 
ATOM     27  O   UNL A   1      34.101  32.920  31.320  1.00  0.00    -0.269 OA
BRANCH  26  28
ATOM     28  C   UNL A   1      33.860  32.927  28.566  1.00  0.00     0.451 C 
ATOM     29  F   UNL A   1      33.719  33.740  27.490  1.00  0.00    -0.185 F 
ATOM     30  F   UNL A   1      33.778  31.644  28.134  1.00  0.00    -0.185 F 
ENDBRANCH  26  28
ENDBRANCH  12  21
ENDBRANCH   4   7
ENDBRANCH   2   3
ENDBRANCH   1   2
BRANCH   1  31
ATOM     31  C   UNL A   1      38.244  30.476  34.056  1.00  0.00     0.118 C 
BRANCH  31  32
ATOM     32  N   UNL A   1      37.096  30.187  33.209  1.00  0.00    -0.352 N 
ATOM     33  C   UNL A   1      36.997  29.858  31.881  1.00  0.00     0.251 C 
ATOM     34  H   UNL A   1      36.230  30.237  33.676  1.00  0.00     0.163 HD
ATOM     35  O   UNL A   1      35.884  29.851  31.357  1.00  0.00    -0.269 OA
BRANCH  33  36
ATOM     36  C   UNL A   1      38.191  29.535  31.071  1.00  0.00     0.039 A 
ATOM     37  C   UNL A   1      38.313  30.105  29.798  1.00  0.00     0.014 A 
ATOM     38  C   UNL A   1      39.160  28.637  31.521  1.00  0.00     0.014 A 
ATOM     39  C   UNL A   1      39.448  29.851  29.022  1.00  0.00     0.010 A 
ATOM     40  C   UNL A   1      40.317  28.428  30.771  1.00  0.00     0.010 A 
ATOM     41  C   UNL A   1      40.485  29.054  29.526  1.00  0.00    -0.014 A 
BRANCH  41  42
ATOM     42  C   UNL A   1      41.770  28.879  28.803  1.00  0.00     0.031 A 
ATOM     43  C   UNL A   1      42.095  27.572  28.142  1.00  0.00     0.074 A 
ATOM     44  C   UNL A   1      42.705  29.848  28.835  1.00  0.00     0.049 A 
ATOM     45  N   UNL A   1      43.262  27.097  27.792  1.00  0.00    -0.248 NA
ATOM     46  C   UNL A   1      40.966  26.667  27.878  1.00  0.00     0.031 C 
ATOM     47  C   UNL A   1      42.551  31.169  29.448  1.00  0.00     0.029 A 
ATOM     48  N   UNL A   1      43.989  29.854  28.350  1.00  0.00    -0.354 N 
ATOM     49  C   UNL A   1      43.026  25.797  27.370  1.00  0.00     0.074 A 
ATOM     50  C   UNL A   1      41.593  25.584  27.437  1.00  0.00     0.031 C 
ATOM     51  C   UNL A   1      43.684  31.867  29.277  1.00  0.00     0.029 A 
ATOM     52  C   UNL A   1      44.662  31.026  28.594  1.00  0.00     0.049 A 
ATOM     53  H   UNL A   1      44.390  29.092  27.873  1.00  0.00     0.167 HD
ATOM     54  C   UNL A   1      43.929  24.852  27.014  1.00  0.00     0.031 A 
ATOM     55  C   UNL A   1      45.932  31.380  28.324  1.00  0.00     0.031 A 
ATOM     56  C   UNL A   1      45.341  25.084  26.892  1.00  0.00     0.049 A 
ATOM     57  C   UNL A   1      46.869  30.384  27.713  1.00  0.00     0.074 A 
ATOM     58  C   UNL A   1      46.358  24.176  26.642  1.00  0.00     0.029 A 
ATOM     59  N   UNL A   1      45.933  26.335  26.962  1.00  0.00    -0.354 N 
ATOM     60  N   UNL A   1      46.663  29.113  27.469  1.00  0.00    -0.248 NA
ATOM     61  C   UNL A   1      48.211  30.865  27.356  1.00  0.00     0.031 C 
ATOM     62  C   UNL A   1      47.561  24.889  26.522  1.00  0.00     0.029 A 
ATOM     63  C   UNL A   1      47.289  26.236  26.701  1.00  0.00     0.049 A 
ATOM     64  H   UNL A   1      45.458  27.171  27.168  1.00  0.00     0.167 HD
ATOM     65  C   UNL A   1      47.861  28.631  26.959  1.00  0.00     0.074 A 
ATOM     66  C   UNL A   1      48.774  29.755  26.892  1.00  0.00     0.031 C 
ATOM     67  C   UNL A   1      48.181  27.361  26.610  1.00  0.00     0.031 A 
BRANCH  54  68
ATOM     68  C   UNL A   1      43.395  23.467  26.814  1.00  0.00    -0.014 A 
ATOM     69  C   UNL A   1      42.881  22.718  27.884  1.00  0.00     0.010 A 
ATOM     70  C   UNL A   1      43.456  22.892  25.531  1.00  0.00     0.010 A 
ATOM     71  C   UNL A   1      42.477  21.394  27.685  1.00  0.00     0.020 A 
ATOM     72  C   UNL A   1      43.049  21.573  25.328  1.00  0.00     0.020 A 
ATOM     73  C   UNL A   1      42.582  20.825  26.412  1.00  0.00     0.054 A 
BRANCH  73  74
ATOM     74  S   UNL A   1      42.111  19.095  26.136  1.00  0.00     0.124 S 
ATOM     75  O   UNL A   1      43.026  18.704  25.067  1.00  0.00    -0.237 OA
ATOM     76  O   UNL A   1      42.355  18.462  27.429  1.00  0.00    -0.237 OA
ATOM     77  O   UNL A   1      40.705  19.199  25.752  1.00  0.00    -0.744 OA
ENDBRANCH  73  74
ENDBRANCH  54  68
BRANCH  55  78
ATOM     78  C   UNL A   1      46.382  32.753  28.657  1.00  0.00    -0.014 A 
ATOM     79  C   UNL A   1      47.043  32.993  29.873  1.00  0.00     0.010 A 
ATOM     80  C   UNL A   1      46.231  33.795  27.730  1.00  0.00     0.010 A 
ATOM     81  C   UNL A   1      47.563  34.259  30.153  1.00  0.00     0.020 A 
ATOM     82  C   UNL A   1      46.756  35.061  28.005  1.00  0.00     0.020 A 
ATOM     83  C   UNL A   1      47.421  35.284  29.214  1.00  0.00     0.054 A 
BRANCH  83  84
ATOM     84  S   UNL A   1      48.191  36.898  29.518  1.00  0.00     0.124 S 
ATOM     85  O   UNL A   1      49.430  36.792  28.755  1.00  0.00    -0.237 OA
ATOM     86  O   UNL A   1      47.206  37.842  28.993  1.00  0.00    -0.237 OA
ATOM     87  O   UNL A   1      48.343  36.918  30.971  1.00  0.00    -0.744 OA
ENDBRANCH  83  84
ENDBRANCH  55  78
BRANCH  67  88
ATOM     88  C   UNL A   1      49.578  27.127  26.122  1.00  0.00    -0.014 A 
ATOM     89  C   UNL A   1      49.881  27.254  24.755  1.00  0.00     0.010 A 
ATOM     90  C   UNL A   1      50.595  26.780  27.028  1.00  0.00     0.010 A 
ATOM     91  C   UNL A   1      51.179  27.019  24.296  1.00  0.00     0.020 A 
ATOM     92  C   UNL A   1      51.894  26.544  26.571  1.00  0.00     0.020 A 
ATOM     93  C   UNL A   1      52.174  26.652  25.205  1.00  0.00     0.054 A 
BRANCH  93  94
ATOM     94  S   UNL A   1      53.864  26.363  24.610  1.00  0.00     0.124 S 
ATOM     95  O   UNL A   1      53.921  24.905  24.562  1.00  0.00    -0.237 OA
ATOM     96  O   UNL A   1      53.882  27.035  23.314  1.00  0.00    -0.237 OA
ATOM     97  O   UNL A   1      54.694  26.988  25.639  1.00  0.00    -0.744 OA
ENDBRANCH  93  94
ENDBRANCH  67  88
ENDBRANCH  41  42
ENDBRANCH  33  36
ENDBRANCH  31  32
ENDBRANCH   1  31
TORSDOF 17
ENDMDL
