MODEL 1
REMARK VINA RESULT:     -11.7      0.000      0.000
REMARK SMILES C#Cc1cc(Cl)cc2c1O[C@H](C(F)(F)F)C(C(=O)NCCCNC(=O)c1ccc(-c3c4nc(c(-c5ccc(S(=O)(=O)[O-])cc5)c5ccc([nH]5)c(-c5ccc(S(=O)(=O)[O-])cc5)c5nc(c(-c6ccc(S(=O)(=O)[O-])cc6)c6ccc3[nH]6)C=C5)C=C4)cc1)=C2
REMARK SMILES IDX 22 1 21 2 20 3 19 4 17 5 18 6 16 8 3 9 4 10 9 11 5 12 8 13
REMARK SMILES IDX 10 14 6 15 7 16 86 17 11 18 2 19 1 20 12 21 13 22 14 23
REMARK SMILES IDX 15 24 23 25 24 26 25 28 26 29 27 30 85 31 28 32 84 33 29 34
REMARK SMILES IDX 30 35 31 36 78 37 32 38 83 39 77 40 79 41 33 42 82 43 76 44
REMARK SMILES IDX 75 45 34 47 64 48 45 49 63 50 46 51 49 52 62 53 80 54 47 55
REMARK SMILES IDX 48 56 61 58 81 59 50 60 35 61 36 62 44 63 37 64 43 65 38 66
REMARK SMILES IDX 39 67 40 68 41 69 42 70 65 71 66 72 74 73 67 74 73 75 68 76
REMARK SMILES IDX 69 77 70 78 71 79 72 80 51 81 52 82 60 83 53 84 59 85 54 86
REMARK SMILES IDX 55 87 56 88 57 89 58 90
REMARK H PARENT 19 7 23 27 79 46 49 57
REMARK Flexibility Score: inf
ROOT
ATOM      1  C   UNL A   1      33.454  28.442  27.071  1.00  0.00     0.118 C 
ENDROOT
BRANCH   1   2
ATOM      2  C   UNL A   1      33.984  28.200  25.668  1.00  0.00     0.042 C 
BRANCH   2   3
ATOM      3  C   UNL A   1      32.980  27.439  24.822  1.00  0.00     0.118 C 
BRANCH   3   4
ATOM      4  N   UNL A   1      31.965  26.783  25.636  1.00  0.00    -0.352 N 
ATOM      5  C   UNL A   1      31.711  25.532  26.086  1.00  0.00     0.251 C 
ATOM      6  O   UNL A   1      30.714  25.415  26.805  1.00  0.00    -0.270 OA
ATOM      7  H   UNL A   1      31.280  27.421  25.940  1.00  0.00     0.163 HD
BRANCH   5   8
ATOM      8  C   UNL A   1      32.543  24.335  25.775  1.00  0.00     0.067 C 
ATOM      9  C   UNL A   1      34.906  20.917  25.158  1.00  0.00     0.068 A 
ATOM     10  C   UNL A   1      36.290  20.995  25.299  1.00  0.00     0.041 A 
ATOM     11  C   UNL A   1      34.120  22.049  25.409  1.00  0.00     0.143 A 
ATOM     12  C   UNL A   1      36.872  22.200  25.694  1.00  0.00     0.043 A 
ATOM     13  C   UNL A   1      34.702  23.257  25.806  1.00  0.00     0.020 A 
ATOM     14  O   UNL A   1      32.766  21.905  25.298  1.00  0.00    -0.474 OA
ATOM     15  Cl  UNL A   1      38.582  22.294  25.874  1.00  0.00    -0.084 Cl
ATOM     16  C   UNL A   1      36.089  23.329  25.950  1.00  0.00     0.032 A 
ATOM     17  C   UNL A   1      33.846  24.402  26.101  1.00  0.00     0.025 C 
ATOM     18  C   UNL A   1      31.995  23.110  25.106  1.00  0.00     0.314 C 
BRANCH   9  19
ATOM     19  C   UNL A   1      34.290  19.688  24.750  1.00  0.00    -0.067 C 
ATOM     20  C   UNL A   1      33.749  18.691  24.351  1.00  0.00     0.010 C 
ENDBRANCH   9  19
BRANCH  18  21
ATOM     21  C   UNL A   1      31.745  23.324  23.599  1.00  0.00     0.429 C 
ATOM     22  F   UNL A   1      32.440  24.395  23.146  1.00  0.00    -0.167 F 
ATOM     23  F   UNL A   1      32.137  22.267  22.848  1.00  0.00    -0.167 F 
ATOM     24  F   UNL A   1      30.439  23.534  23.316  1.00  0.00    -0.167 F 
ENDBRANCH  18  21
ENDBRANCH   5   8
ENDBRANCH   3   4
ENDBRANCH   2   3
ENDBRANCH   1   2
BRANCH   1  25
ATOM     25  N   UNL A   1      33.433  29.866  27.406  1.00  0.00    -0.352 N 
ATOM     26  C   UNL A   1      34.359  30.628  28.076  1.00  0.00     0.251 C 
ATOM     27  H   UNL A   1      32.632  30.354  27.106  1.00  0.00     0.163 HD
ATOM     28  O   UNL A   1      34.054  31.737  28.501  1.00  0.00    -0.269 OA
BRANCH  26  29
ATOM     29  C   UNL A   1      35.712  30.084  28.288  1.00  0.00     0.039 A 
ATOM     30  C   UNL A   1      36.643  30.128  27.251  1.00  0.00     0.014 A 
ATOM     31  C   UNL A   1      36.059  29.567  29.536  1.00  0.00     0.014 A 
ATOM     32  C   UNL A   1      37.954  29.726  27.502  1.00  0.00     0.010 A 
ATOM     33  C   UNL A   1      37.387  29.292  29.817  1.00  0.00     0.010 A 
ATOM     34  C   UNL A   1      38.346  29.350  28.799  1.00  0.00    -0.014 A 
BRANCH  34  35
ATOM     35  C   UNL A   1      39.751  28.991  29.102  1.00  0.00     0.031 A 
ATOM     36  C   UNL A   1      40.636  29.979  29.810  1.00  0.00     0.074 A 
ATOM     37  C   UNL A   1      40.229  27.793  28.713  1.00  0.00     0.049 A 
ATOM     38  N   UNL A   1      41.884  29.843  30.175  1.00  0.00    -0.248 NA
ATOM     39  C   UNL A   1      40.059  31.296  30.131  1.00  0.00     0.031 C 
ATOM     40  C   UNL A   1      39.471  26.776  27.978  1.00  0.00     0.029 A 
ATOM     41  N   UNL A   1      41.461  27.219  28.895  1.00  0.00    -0.354 N 
ATOM     42  C   UNL A   1      42.233  31.050  30.769  1.00  0.00     0.074 A 
ATOM     43  C   UNL A   1      41.101  31.936  30.640  1.00  0.00     0.031 C 
ATOM     44  C   UNL A   1      40.234  25.681  27.830  1.00  0.00     0.029 A 
ATOM     45  C   UNL A   1      41.548  25.934  28.411  1.00  0.00     0.049 A 
ATOM     46  H   UNL A   1      42.212  27.682  29.330  1.00  0.00     0.167 HD
ATOM     47  C   UNL A   1      43.382  31.379  31.401  1.00  0.00     0.031 A 
ATOM     48  C   UNL A   1      42.570  25.055  28.442  1.00  0.00     0.031 A 
ATOM     49  C   UNL A   1      44.502  30.488  31.532  1.00  0.00     0.049 A 
ATOM     50  C   UNL A   1      43.856  25.462  29.109  1.00  0.00     0.074 A 
ATOM     51  C   UNL A   1      45.700  30.710  32.185  1.00  0.00     0.029 A 
ATOM     52  N   UNL A   1      44.561  29.210  30.999  1.00  0.00    -0.354 N 
ATOM     53  N   UNL A   1      44.142  26.583  29.727  1.00  0.00    -0.248 NA
ATOM     54  C   UNL A   1      44.954  24.486  29.090  1.00  0.00     0.031 C 
ATOM     55  C   UNL A   1      46.510  29.591  31.989  1.00  0.00     0.029 A 
ATOM     56  C   UNL A   1      45.791  28.643  31.279  1.00  0.00     0.049 A 
ATOM     57  H   UNL A   1      43.837  28.772  30.496  1.00  0.00     0.167 HD
ATOM     58  C   UNL A   1      45.444  26.438  30.193  1.00  0.00     0.074 A 
ATOM     59  C   UNL A   1      45.883  25.115  29.799  1.00  0.00     0.031 C 
ATOM     60  C   UNL A   1      46.207  27.320  30.883  1.00  0.00     0.031 A 
BRANCH  47  61
ATOM     61  C   UNL A   1      43.480  32.752  32.011  1.00  0.00    -0.014 A 
ATOM     62  C   UNL A   1      43.941  33.846  31.255  1.00  0.00     0.010 A 
ATOM     63  C   UNL A   1      43.051  32.966  33.333  1.00  0.00     0.010 A 
ATOM     64  C   UNL A   1      43.999  35.121  31.819  1.00  0.00     0.020 A 
ATOM     65  C   UNL A   1      43.076  34.247  33.890  1.00  0.00     0.020 A 
ATOM     66  C   UNL A   1      43.561  35.315  33.133  1.00  0.00     0.054 A 
BRANCH  66  67
ATOM     67  S   UNL A   1      43.612  36.991  33.819  1.00  0.00     0.124 S 
ATOM     68  O   UNL A   1      43.698  37.809  32.612  1.00  0.00    -0.237 OA
ATOM     69  O   UNL A   1      42.349  37.074  34.546  1.00  0.00    -0.237 OA
ATOM     70  O   UNL A   1      44.812  36.989  34.654  1.00  0.00    -0.744 OA
ENDBRANCH  66  67
ENDBRANCH  47  61
BRANCH  48  71
ATOM     71  C   UNL A   1      42.401  23.699  27.849  1.00  0.00    -0.014 A 
ATOM     72  C   UNL A   1      42.723  23.464  26.500  1.00  0.00     0.010 A 
ATOM     73  C   UNL A   1      41.946  22.625  28.637  1.00  0.00     0.010 A 
ATOM     74  C   UNL A   1      42.581  22.187  25.949  1.00  0.00     0.020 A 
ATOM     75  C   UNL A   1      41.833  21.340  28.098  1.00  0.00     0.020 A 
ATOM     76  C   UNL A   1      42.144  21.131  26.753  1.00  0.00     0.054 A 
BRANCH  76  77
ATOM     77  S   UNL A   1      42.020  19.474  26.026  1.00  0.00     0.124 S 
ATOM     78  O   UNL A   1      40.584  19.348  25.797  1.00  0.00    -0.237 OA
ATOM     79  O   UNL A   1      42.845  19.598  24.827  1.00  0.00    -0.237 OA
ATOM     80  O   UNL A   1      42.567  18.601  27.062  1.00  0.00    -0.744 OA
ENDBRANCH  76  77
ENDBRANCH  48  71
BRANCH  60  81
ATOM     81  C   UNL A   1      47.595  26.896  31.281  1.00  0.00    -0.014 A 
ATOM     82  C   UNL A   1      47.808  26.098  32.418  1.00  0.00     0.010 A 
ATOM     83  C   UNL A   1      48.680  27.191  30.434  1.00  0.00     0.010 A 
ATOM     84  C   UNL A   1      49.084  25.605  32.702  1.00  0.00     0.020 A 
ATOM     85  C   UNL A   1      49.949  26.673  30.697  1.00  0.00     0.020 A 
ATOM     86  C   UNL A   1      50.143  25.885  31.833  1.00  0.00     0.054 A 
BRANCH  86  87
ATOM     87  S   UNL A   1      51.765  25.156  32.182  1.00  0.00     0.124 S 
ATOM     88  O   UNL A   1      51.453  23.730  32.238  1.00  0.00    -0.237 OA
ATOM     89  O   UNL A   1      52.558  25.580  31.031  1.00  0.00    -0.237 OA
ATOM     90  O   UNL A   1      52.152  25.757  33.456  1.00  0.00    -0.744 OA
ENDBRANCH  86  87
ENDBRANCH  60  81
ENDBRANCH  34  35
ENDBRANCH  26  29
ENDBRANCH   1  25
TORSDOF 15
ENDMDL
MODEL 2
REMARK VINA RESULT:     -11.5      2.872      9.342
REMARK SMILES C#Cc1cc(Cl)cc2c1O[C@H](C(F)(F)F)C(C(=O)NCCCNC(=O)c1ccc(-c3c4nc(c(-c5ccc(S(=O)(=O)[O-])cc5)c5ccc([nH]5)c(-c5ccc(S(=O)(=O)[O-])cc5)c5nc(c(-c6ccc(S(=O)(=O)[O-])cc6)c6ccc3[nH]6)C=C5)C=C4)cc1)=C2
REMARK SMILES IDX 22 1 21 2 20 3 19 4 17 5 18 6 16 8 3 9 4 10 9 11 5 12 8 13
REMARK SMILES IDX 10 14 6 15 7 16 86 17 11 18 2 19 1 20 12 21 13 22 14 23
REMARK SMILES IDX 15 24 23 25 24 26 25 28 26 29 27 30 85 31 28 32 84 33 29 34
REMARK SMILES IDX 30 35 31 36 78 37 32 38 83 39 77 40 79 41 33 42 82 43 76 44
REMARK SMILES IDX 75 45 34 47 64 48 45 49 63 50 46 51 49 52 62 53 80 54 47 55
REMARK SMILES IDX 48 56 61 58 81 59 50 60 35 61 36 62 44 63 37 64 43 65 38 66
REMARK SMILES IDX 39 67 40 68 41 69 42 70 65 71 66 72 74 73 67 74 73 75 68 76
REMARK SMILES IDX 69 77 70 78 71 79 72 80 51 81 52 82 60 83 53 84 59 85 54 86
REMARK SMILES IDX 55 87 56 88 57 89 58 90
REMARK H PARENT 19 7 23 27 79 46 49 57
REMARK Flexibility Score: inf
ROOT
ATOM      1  C   UNL A   1      36.854  23.645  25.095  1.00  0.00     0.118 C 
ENDROOT
BRANCH   1   2
ATOM      2  C   UNL A   1      35.753  23.743  26.138  1.00  0.00     0.042 C 
BRANCH   2   3
ATOM      3  C   UNL A   1      34.432  23.228  25.598  1.00  0.00     0.118 C 
BRANCH   3   4
ATOM      4  N   UNL A   1      34.346  23.361  24.149  1.00  0.00    -0.352 N 
ATOM      5  C   UNL A   1      33.874  24.269  23.263  1.00  0.00     0.251 C 
ATOM      6  O   UNL A   1      34.035  23.988  22.072  1.00  0.00    -0.270 OA
ATOM      7  H   UNL A   1      34.735  22.580  23.692  1.00  0.00     0.163 HD
BRANCH   5   8
ATOM      8  C   UNL A   1      33.198  25.544  23.636  1.00  0.00     0.067 C 
ATOM      9  C   UNL A   1      31.471  29.266  24.538  1.00  0.00     0.068 A 
ATOM     10  C   UNL A   1      32.044  30.078  25.514  1.00  0.00     0.041 A 
ATOM     11  C   UNL A   1      32.078  28.046  24.210  1.00  0.00     0.143 A 
ATOM     12  C   UNL A   1      33.217  29.667  26.148  1.00  0.00     0.043 A 
ATOM     13  C   UNL A   1      33.254  27.633  24.843  1.00  0.00     0.020 A 
ATOM     14  O   UNL A   1      31.499  27.310  23.215  1.00  0.00    -0.474 OA
ATOM     15  Cl  UNL A   1      33.927  30.675  27.350  1.00  0.00    -0.084 Cl
ATOM     16  C   UNL A   1      33.826  28.453  25.818  1.00  0.00     0.032 A 
ATOM     17  C   UNL A   1      33.880  26.377  24.443  1.00  0.00     0.025 C 
ATOM     18  C   UNL A   1      31.816  25.902  23.176  1.00  0.00     0.314 C 
BRANCH   9  19
ATOM     19  C   UNL A   1      30.265  29.671  23.878  1.00  0.00    -0.067 C 
ATOM     20  C   UNL A   1      29.284  29.997  23.263  1.00  0.00     0.010 C 
ENDBRANCH   9  19
BRANCH  18  21
ATOM     21  C   UNL A   1      30.724  25.109  23.922  1.00  0.00     0.429 C 
ATOM     22  F   UNL A   1      30.208  24.140  23.126  1.00  0.00    -0.167 F 
ATOM     23  F   UNL A   1      31.192  24.486  25.030  1.00  0.00    -0.167 F 
ATOM     24  F   UNL A   1      29.699  25.894  24.326  1.00  0.00    -0.167 F 
ENDBRANCH  18  21
ENDBRANCH   5   8
ENDBRANCH   3   4
ENDBRANCH   2   3
ENDBRANCH   1   2
BRANCH   1  25
ATOM     25  N   UNL A   1      37.893  22.693  25.490  1.00  0.00    -0.352 N 
ATOM     26  C   UNL A   1      39.090  22.909  26.126  1.00  0.00     0.251 C 
ATOM     27  H   UNL A   1      37.704  21.753  25.266  1.00  0.00     0.163 HD
ATOM     28  O   UNL A   1      39.951  22.036  26.134  1.00  0.00    -0.269 OA
BRANCH  26  29
ATOM     29  C   UNL A   1      39.327  24.207  26.781  1.00  0.00     0.039 A 
ATOM     30  C   UNL A   1      38.901  24.406  28.095  1.00  0.00     0.014 A 
ATOM     31  C   UNL A   1      40.010  25.211  26.095  1.00  0.00     0.014 A 
ATOM     32  C   UNL A   1      39.240  25.592  28.744  1.00  0.00     0.010 A 
ATOM     33  C   UNL A   1      40.456  26.328  26.781  1.00  0.00     0.010 A 
ATOM     34  C   UNL A   1      40.060  26.540  28.107  1.00  0.00    -0.014 A 
BRANCH  34  35
ATOM     35  C   UNL A   1      40.493  27.772  28.807  1.00  0.00     0.031 A 
ATOM     36  C   UNL A   1      41.887  27.861  29.365  1.00  0.00     0.074 A 
ATOM     37  C   UNL A   1      39.623  28.790  28.962  1.00  0.00     0.049 A 
ATOM     38  N   UNL A   1      42.454  28.857  29.993  1.00  0.00    -0.248 NA
ATOM     39  C   UNL A   1      42.751  26.676  29.221  1.00  0.00     0.031 C 
ATOM     40  C   UNL A   1      38.231  28.792  28.502  1.00  0.00     0.029 A 
ATOM     41  N   UNL A   1      39.783  30.025  29.535  1.00  0.00    -0.354 N 
ATOM     42  C   UNL A   1      43.733  28.419  30.312  1.00  0.00     0.074 A 
ATOM     43  C   UNL A   1      43.834  27.043  29.888  1.00  0.00     0.031 C 
ATOM     44  C   UNL A   1      37.687  29.993  28.753  1.00  0.00     0.029 A 
ATOM     45  C   UNL A   1      38.670  30.828  29.436  1.00  0.00     0.049 A 
ATOM     46  H   UNL A   1      40.615  30.311  29.976  1.00  0.00     0.167 HD
ATOM     47  C   UNL A   1      44.748  29.114  30.873  1.00  0.00     0.031 A 
ATOM     48  C   UNL A   1      38.468  32.097  29.841  1.00  0.00     0.031 A 
ATOM     49  C   UNL A   1      44.643  30.486  31.284  1.00  0.00     0.049 A 
ATOM     50  C   UNL A   1      39.599  32.834  30.506  1.00  0.00     0.074 A 
ATOM     51  C   UNL A   1      45.623  31.294  31.829  1.00  0.00     0.029 A 
ATOM     52  N   UNL A   1      43.489  31.250  31.197  1.00  0.00    -0.354 N 
ATOM     53  N   UNL A   1      40.824  32.425  30.734  1.00  0.00    -0.248 NA
ATOM     54  C   UNL A   1      39.325  34.204  30.962  1.00  0.00     0.031 C 
ATOM     55  C   UNL A   1      45.044  32.527  32.135  1.00  0.00     0.029 A 
ATOM     56  C   UNL A   1      43.725  32.513  31.711  1.00  0.00     0.049 A 
ATOM     57  H   UNL A   1      42.632  30.941  30.825  1.00  0.00     0.167 HD
ATOM     58  C   UNL A   1      41.475  33.495  31.338  1.00  0.00     0.074 A 
ATOM     59  C   UNL A   1      40.513  34.574  31.424  1.00  0.00     0.031 C 
ATOM     60  C   UNL A   1      42.753  33.576  31.782  1.00  0.00     0.031 A 
BRANCH  47  61
ATOM     61  C   UNL A   1      46.064  28.406  31.060  1.00  0.00    -0.014 A 
ATOM     62  C   UNL A   1      47.049  28.437  30.055  1.00  0.00     0.010 A 
ATOM     63  C   UNL A   1      46.345  27.755  32.274  1.00  0.00     0.010 A 
ATOM     64  C   UNL A   1      48.277  27.804  30.250  1.00  0.00     0.020 A 
ATOM     65  C   UNL A   1      47.586  27.149  32.485  1.00  0.00     0.020 A 
ATOM     66  C   UNL A   1      48.541  27.167  31.467  1.00  0.00     0.054 A 
BRANCH  66  67
ATOM     67  S   UNL A   1      50.162  26.392  31.700  1.00  0.00     0.124 S 
ATOM     68  O   UNL A   1      50.040  25.836  33.045  1.00  0.00    -0.237 OA
ATOM     69  O   UNL A   1      50.203  25.413  30.618  1.00  0.00    -0.237 OA
ATOM     70  O   UNL A   1      51.102  27.503  31.570  1.00  0.00    -0.744 OA
ENDBRANCH  66  67
ENDBRANCH  47  61
BRANCH  48  71
ATOM     71  C   UNL A   1      37.154  32.754  29.598  1.00  0.00    -0.014 A 
ATOM     72  C   UNL A   1      36.135  32.693  30.567  1.00  0.00     0.010 A 
ATOM     73  C   UNL A   1      36.921  33.471  28.410  1.00  0.00     0.010 A 
ATOM     74  C   UNL A   1      34.907  33.325  30.346  1.00  0.00     0.020 A 
ATOM     75  C   UNL A   1      35.706  34.132  28.199  1.00  0.00     0.020 A 
ATOM     76  C   UNL A   1      34.703  34.047  29.167  1.00  0.00     0.054 A 
BRANCH  76  77
ATOM     77  S   UNL A   1      33.120  34.900  28.930  1.00  0.00     0.124 S 
ATOM     78  O   UNL A   1      33.544  36.183  28.378  1.00  0.00    -0.237 OA
ATOM     79  O   UNL A   1      32.422  34.010  28.006  1.00  0.00    -0.237 OA
ATOM     80  O   UNL A   1      32.555  34.955  30.277  1.00  0.00    -0.744 OA
ENDBRANCH  76  77
ENDBRANCH  48  71
BRANCH  60  81
ATOM     81  C   UNL A   1      43.211  34.875  32.390  1.00  0.00    -0.014 A 
ATOM     82  C   UNL A   1      43.683  35.924  31.582  1.00  0.00     0.010 A 
ATOM     83  C   UNL A   1      43.041  35.092  33.770  1.00  0.00     0.010 A 
ATOM     84  C   UNL A   1      43.981  37.166  32.146  1.00  0.00     0.020 A 
ATOM     85  C   UNL A   1      43.307  36.342  34.332  1.00  0.00     0.020 A 
ATOM     86  C   UNL A   1      43.779  37.371  33.514  1.00  0.00     0.054 A 
BRANCH  86  87
ATOM     87  S   UNL A   1      44.090  39.021  34.198  1.00  0.00     0.124 S 
ATOM     88  O   UNL A   1      43.988  38.781  35.635  1.00  0.00    -0.237 OA
ATOM     89  O   UNL A   1      45.432  39.321  33.705  1.00  0.00    -0.237 OA
ATOM     90  O   UNL A   1      43.024  39.841  33.628  1.00  0.00    -0.744 OA
ENDBRANCH  86  87
ENDBRANCH  60  81
ENDBRANCH  34  35
ENDBRANCH  26  29
ENDBRANCH   1  25
TORSDOF 15
ENDMDL
MODEL 3
REMARK VINA RESULT:     -11.2      4.267      6.802
REMARK SMILES C#Cc1cc(Cl)cc2c1O[C@H](C(F)(F)F)C(C(=O)NCCCNC(=O)c1ccc(-c3c4nc(c(-c5ccc(S(=O)(=O)[O-])cc5)c5ccc([nH]5)c(-c5ccc(S(=O)(=O)[O-])cc5)c5nc(c(-c6ccc(S(=O)(=O)[O-])cc6)c6ccc3[nH]6)C=C5)C=C4)cc1)=C2
REMARK SMILES IDX 22 1 21 2 20 3 19 4 17 5 18 6 16 8 3 9 4 10 9 11 5 12 8 13
REMARK SMILES IDX 10 14 6 15 7 16 86 17 11 18 2 19 1 20 12 21 13 22 14 23
REMARK SMILES IDX 15 24 23 25 24 26 25 28 26 29 27 30 85 31 28 32 84 33 29 34
REMARK SMILES IDX 30 35 31 36 78 37 32 38 83 39 77 40 79 41 33 42 82 43 76 44
REMARK SMILES IDX 75 45 34 47 64 48 45 49 63 50 46 51 49 52 62 53 80 54 47 55
REMARK SMILES IDX 48 56 61 58 81 59 50 60 35 61 36 62 44 63 37 64 43 65 38 66
REMARK SMILES IDX 39 67 40 68 41 69 42 70 65 71 66 72 74 73 67 74 73 75 68 76
REMARK SMILES IDX 69 77 70 78 71 79 72 80 51 81 52 82 60 83 53 84 59 85 54 86
REMARK SMILES IDX 55 87 56 88 57 89 58 90
REMARK H PARENT 19 7 23 27 79 46 49 57
REMARK Flexibility Score: inf
ROOT
ATOM      1  C   UNL A   1      34.151  32.174  28.690  1.00  0.00     0.118 C 
ENDROOT
BRANCH   1   2
ATOM      2  C   UNL A   1      35.116  33.089  27.956  1.00  0.00     0.042 C 
BRANCH   2   3
ATOM      3  C   UNL A   1      35.581  34.229  28.843  1.00  0.00     0.118 C 
BRANCH   3   4
ATOM      4  N   UNL A   1      34.637  34.502  29.920  1.00  0.00    -0.352 N 
ATOM      5  C   UNL A   1      34.591  34.339  31.262  1.00  0.00     0.251 C 
ATOM      6  O   UNL A   1      33.569  34.752  31.817  1.00  0.00    -0.270 OA
ATOM      7  H   UNL A   1      33.812  34.916  29.579  1.00  0.00     0.163 HD
BRANCH   5   8
ATOM      8  C   UNL A   1      35.671  33.712  32.077  1.00  0.00     0.067 C 
ATOM      9  C   UNL A   1      38.874  31.974  34.166  1.00  0.00     0.068 A 
ATOM     10  C   UNL A   1      39.201  30.637  33.948  1.00  0.00     0.041 A 
ATOM     11  C   UNL A   1      37.834  32.560  33.434  1.00  0.00     0.143 A 
ATOM     12  C   UNL A   1      38.491  29.903  32.999  1.00  0.00     0.043 A 
ATOM     13  C   UNL A   1      37.122  31.826  32.480  1.00  0.00     0.020 A 
ATOM     14  O   UNL A   1      37.585  33.885  33.655  1.00  0.00    -0.474 OA
ATOM     15  Cl  UNL A   1      38.900  28.253  32.726  1.00  0.00    -0.084 Cl
ATOM     16  C   UNL A   1      37.456  30.487  32.263  1.00  0.00     0.032 A 
ATOM     17  C   UNL A   1      36.074  32.483  31.706  1.00  0.00     0.025 C 
ATOM     18  C   UNL A   1      36.281  34.376  33.275  1.00  0.00     0.314 C 
BRANCH   9  19
ATOM     19  C   UNL A   1      39.592  32.743  35.140  1.00  0.00    -0.067 C 
ATOM     20  C   UNL A   1      40.132  33.402  35.989  1.00  0.00     0.010 C 
ENDBRANCH   9  19
BRANCH  18  21
ATOM     21  C   UNL A   1      35.347  34.353  34.502  1.00  0.00     0.429 C 
ATOM     22  F   UNL A   1      34.680  35.527  34.618  1.00  0.00    -0.167 F 
ATOM     23  F   UNL A   1      34.404  33.384  34.423  1.00  0.00    -0.167 F 
ATOM     24  F   UNL A   1      36.016  34.146  35.659  1.00  0.00    -0.167 F 
ENDBRANCH  18  21
ENDBRANCH   5   8
ENDBRANCH   3   4
ENDBRANCH   2   3
ENDBRANCH   1   2
BRANCH   1  25
ATOM     25  N   UNL A   1      33.745  31.037  27.863  1.00  0.00    -0.352 N 
ATOM     26  C   UNL A   1      34.500  30.028  27.319  1.00  0.00     0.251 C 
ATOM     27  H   UNL A   1      32.781  30.989  27.665  1.00  0.00     0.163 HD
ATOM     28  O   UNL A   1      34.035  29.317  26.434  1.00  0.00    -0.269 OA
BRANCH  26  29
ATOM     29  C   UNL A   1      35.876  29.826  27.803  1.00  0.00     0.039 A 
ATOM     30  C   UNL A   1      36.090  29.300  29.077  1.00  0.00     0.014 A 
ATOM     31  C   UNL A   1      36.952  30.127  26.967  1.00  0.00     0.014 A 
ATOM     32  C   UNL A   1      37.391  28.998  29.475  1.00  0.00     0.010 A 
ATOM     33  C   UNL A   1      38.226  29.707  27.313  1.00  0.00     0.010 A 
ATOM     34  C   UNL A   1      38.463  29.155  28.577  1.00  0.00    -0.014 A 
BRANCH  34  35
ATOM     35  C   UNL A   1      39.842  28.770  28.956  1.00  0.00     0.031 A 
ATOM     36  C   UNL A   1      40.702  29.738  29.722  1.00  0.00     0.074 A 
ATOM     37  C   UNL A   1      40.323  27.567  28.584  1.00  0.00     0.049 A 
ATOM     38  N   UNL A   1      41.924  29.578  30.156  1.00  0.00    -0.248 NA
ATOM     39  C   UNL A   1      40.129  31.062  30.022  1.00  0.00     0.031 C 
ATOM     40  C   UNL A   1      39.591  26.569  27.798  1.00  0.00     0.029 A 
ATOM     41  N   UNL A   1      41.533  26.972  28.830  1.00  0.00    -0.354 N 
ATOM     42  C   UNL A   1      42.259  30.774  30.779  1.00  0.00     0.074 A 
ATOM     43  C   UNL A   1      41.150  31.679  30.595  1.00  0.00     0.031 C 
ATOM     44  C   UNL A   1      40.343  25.463  27.683  1.00  0.00     0.029 A 
ATOM     45  C   UNL A   1      41.626  25.689  28.340  1.00  0.00     0.049 A 
ATOM     46  H   UNL A   1      42.266  27.419  29.311  1.00  0.00     0.167 HD
ATOM     47  C   UNL A   1      43.375  31.079  31.478  1.00  0.00     0.031 A 
ATOM     48  C   UNL A   1      42.631  24.793  28.421  1.00  0.00     0.031 A 
ATOM     49  C   UNL A   1      44.471  30.169  31.665  1.00  0.00     0.049 A 
ATOM     50  C   UNL A   1      43.882  25.173  29.164  1.00  0.00     0.074 A 
ATOM     51  C   UNL A   1      45.633  30.365  32.387  1.00  0.00     0.029 A 
ATOM     52  N   UNL A   1      44.540  28.894  31.124  1.00  0.00    -0.354 N 
ATOM     53  N   UNL A   1      44.151  26.284  29.807  1.00  0.00    -0.248 NA
ATOM     54  C   UNL A   1      44.965  24.179  29.198  1.00  0.00     0.031 C 
ATOM     55  C   UNL A   1      46.436  29.234  32.227  1.00  0.00     0.029 A 
ATOM     56  C   UNL A   1      45.742  28.304  31.469  1.00  0.00     0.049 A 
ATOM     57  H   UNL A   1      43.838  28.472  30.577  1.00  0.00     0.167 HD
ATOM     58  C   UNL A   1      45.422  26.114  30.345  1.00  0.00     0.074 A 
ATOM     59  C   UNL A   1      45.862  24.787  29.965  1.00  0.00     0.031 C 
ATOM     60  C   UNL A   1      46.159  26.978  31.084  1.00  0.00     0.031 A 
BRANCH  47  61
ATOM     61  C   UNL A   1      43.461  32.445  32.105  1.00  0.00    -0.014 A 
ATOM     62  C   UNL A   1      43.950  33.544  31.375  1.00  0.00     0.010 A 
ATOM     63  C   UNL A   1      42.991  32.648  33.415  1.00  0.00     0.010 A 
ATOM     64  C   UNL A   1      43.997  34.813  31.954  1.00  0.00     0.020 A 
ATOM     65  C   UNL A   1      43.005  33.923  33.986  1.00  0.00     0.020 A 
ATOM     66  C   UNL A   1      43.519  34.996  33.255  1.00  0.00     0.054 A 
BRANCH  66  67
ATOM     67  S   UNL A   1      43.556  36.665  33.961  1.00  0.00     0.124 S 
ATOM     68  O   UNL A   1      43.707  37.494  32.767  1.00  0.00    -0.237 OA
ATOM     69  O   UNL A   1      42.262  36.755  34.629  1.00  0.00    -0.237 OA
ATOM     70  O   UNL A   1      44.716  36.641  34.850  1.00  0.00    -0.744 OA
ENDBRANCH  66  67
ENDBRANCH  47  61
BRANCH  48  71
ATOM     71  C   UNL A   1      42.474  23.445  27.808  1.00  0.00    -0.014 A 
ATOM     72  C   UNL A   1      43.018  23.170  26.541  1.00  0.00     0.010 A 
ATOM     73  C   UNL A   1      41.805  22.418  28.499  1.00  0.00     0.010 A 
ATOM     74  C   UNL A   1      42.886  21.898  25.972  1.00  0.00     0.020 A 
ATOM     75  C   UNL A   1      41.698  21.137  27.948  1.00  0.00     0.020 A 
ATOM     76  C   UNL A   1      42.234  20.887  26.684  1.00  0.00     0.054 A 
BRANCH  76  77
ATOM     77  S   UNL A   1      42.123  19.234  25.946  1.00  0.00     0.124 S 
ATOM     78  O   UNL A   1      42.618  18.384  27.023  1.00  0.00    -0.237 OA
ATOM     79  O   UNL A   1      40.697  19.120  25.652  1.00  0.00    -0.237 OA
ATOM     80  O   UNL A   1      42.988  19.324  24.771  1.00  0.00    -0.744 OA
ENDBRANCH  76  77
ENDBRANCH  48  71
BRANCH  60  81
ATOM     81  C   UNL A   1      47.515  26.527  31.557  1.00  0.00    -0.014 A 
ATOM     82  C   UNL A   1      47.663  25.827  32.766  1.00  0.00     0.010 A 
ATOM     83  C   UNL A   1      48.632  26.693  30.716  1.00  0.00     0.010 A 
ATOM     84  C   UNL A   1      48.906  25.303  33.128  1.00  0.00     0.020 A 
ATOM     85  C   UNL A   1      49.868  26.143  31.059  1.00  0.00     0.020 A 
ATOM     86  C   UNL A   1      49.997  25.453  32.267  1.00  0.00     0.054 A 
BRANCH  86  87
ATOM     87  S   UNL A   1      51.574  24.684  32.724  1.00  0.00     0.124 S 
ATOM     88  O   UNL A   1      52.536  25.498  31.987  1.00  0.00    -0.237 OA
ATOM     89  O   UNL A   1      51.596  24.846  34.175  1.00  0.00    -0.237 OA
ATOM     90  O   UNL A   1      51.438  23.306  32.257  1.00  0.00    -0.744 OA
ENDBRANCH  86  87
ENDBRANCH  60  81
ENDBRANCH  34  35
ENDBRANCH  26  29
ENDBRANCH   1  25
TORSDOF 15
ENDMDL
