MODEL 1
REMARK VINA RESULT:      -9.8      0.000      0.000
REMARK SMILES Cc1cc(C(=O)N[C@@H]2CC2(C)C)sc1/C=C/C(=O)NCCCNC(=O)c1ccc(-c2c3nc(c(-c4ccc(S(=O)(=O)[O-])cc4)c4ccc([nH]4)c(-c4ccc(S(=O)(=O)[O-])cc4)c4nc(c(-c5ccc(S(=O)(=O)[O-])cc5)c5ccc2[nH]5)C=C4)C=C3)cc1
REMARK SMILES IDX 21 1 20 2 19 3 17 4 18 5 16 7 15 8 14 9 1 10 2 11 3 12 4 13
REMARK SMILES IDX 13 14 5 15 6 16 7 17 8 19 9 20 10 21 11 22 12 23 22 24 23 25
REMARK SMILES IDX 24 26 25 28 26 29 27 30 85 31 28 32 84 33 29 34 30 35 31 36
REMARK SMILES IDX 78 37 32 38 83 39 77 40 79 41 33 42 82 43 76 44 75 45 34 47
REMARK SMILES IDX 64 48 45 49 63 50 46 51 49 52 62 53 80 54 47 55 48 56 61 58
REMARK SMILES IDX 81 59 50 60 35 61 36 62 44 63 37 64 43 65 38 66 39 67 40 68
REMARK SMILES IDX 41 69 42 70 65 71 66 72 74 73 67 74 73 75 68 76 69 77 70 78
REMARK SMILES IDX 71 79 72 80 51 81 52 82 60 83 53 84 59 85 54 86 55 87 56 88
REMARK SMILES IDX 57 89 58 90
REMARK H PARENT 19 6 7 18 23 27 79 46 49 57
REMARK Flexibility Score: inf
ROOT
ATOM      1  C   UNL A   1      34.112  33.895  29.301  1.00  0.00     0.042 C 
ENDROOT
BRANCH   1   2
ATOM      2  C   UNL A   1      34.845  33.771  30.633  1.00  0.00     0.118 C 
BRANCH   2   3
ATOM      3  N   UNL A   1      34.579  34.909  31.493  1.00  0.00    -0.352 N 
ATOM      4  C   UNL A   1      35.156  35.275  32.668  1.00  0.00     0.244 C 
ATOM      5  O   UNL A   1      34.861  36.354  33.178  1.00  0.00    -0.270 OA
ATOM      6  H   UNL A   1      33.869  35.511  31.175  1.00  0.00     0.163 HD
BRANCH   4   7
ATOM      7  C   UNL A   1      36.227  34.459  33.278  1.00  0.00     0.072 C 
ATOM      8  C   UNL A   1      37.480  34.296  32.825  1.00  0.00     0.025 C 
BRANCH   8   9
ATOM      9  C   UNL A   1      38.395  33.532  33.598  1.00  0.00     0.031 A 
ATOM     10  C   UNL A   1      40.050  35.315  34.439  1.00  0.00     0.046 C 
ATOM     11  C   UNL A   1      39.457  33.945  34.392  1.00  0.00    -0.032 A 
ATOM     12  C   UNL A   1      39.846  32.878  35.273  1.00  0.00     0.029 A 
ATOM     13  C   UNL A   1      39.093  31.727  35.093  1.00  0.00     0.093 A 
ATOM     14  S   UNL A   1      38.335  31.812  33.575  1.00  0.00    -0.130 S 
BRANCH  13  15
ATOM     15  C   UNL A   1      39.117  30.549  35.926  1.00  0.00     0.261 C 
ATOM     16  O   UNL A   1      38.167  30.288  36.676  1.00  0.00    -0.268 OA
ATOM     17  N   UNL A   1      40.097  29.578  35.906  1.00  0.00    -0.348 N 
ATOM     18  H   UNL A   1      39.872  28.877  36.559  1.00  0.00     0.164 HD
BRANCH  17  19
ATOM     19  C   UNL A   1      41.329  29.243  35.260  1.00  0.00     0.088 C 
ATOM     20  C   UNL A   1      42.083  29.916  34.163  1.00  0.00     0.034 C 
ATOM     21  C   UNL A   1      41.483  28.552  33.915  1.00  0.00    -0.013 C 
ATOM     22  C   UNL A   1      42.468  27.415  33.783  1.00  0.00     0.013 C 
ATOM     23  C   UNL A   1      40.316  28.429  32.972  1.00  0.00     0.013 C 
ENDBRANCH  17  19
ENDBRANCH  13  15
ENDBRANCH   8   9
ENDBRANCH   4   7
ENDBRANCH   2   3
ENDBRANCH   1   2
BRANCH   1  24
ATOM     24  C   UNL A   1      34.695  33.013  28.204  1.00  0.00     0.118 C 
BRANCH  24  25
ATOM     25  N   UNL A   1      33.920  31.797  28.016  1.00  0.00    -0.352 N 
ATOM     26  C   UNL A   1      34.336  30.494  27.901  1.00  0.00     0.251 C 
ATOM     27  H   UNL A   1      32.946  31.929  27.963  1.00  0.00     0.163 HD
ATOM     28  O   UNL A   1      33.541  29.649  27.499  1.00  0.00    -0.269 OA
BRANCH  26  29
ATOM     29  C   UNL A   1      35.722  30.102  28.244  1.00  0.00     0.039 A 
ATOM     30  C   UNL A   1      36.690  30.100  27.234  1.00  0.00     0.014 A 
ATOM     31  C   UNL A   1      36.066  29.687  29.533  1.00  0.00     0.014 A 
ATOM     32  C   UNL A   1      38.005  29.730  27.528  1.00  0.00     0.010 A 
ATOM     33  C   UNL A   1      37.392  29.395  29.843  1.00  0.00     0.010 A 
ATOM     34  C   UNL A   1      38.374  29.400  28.842  1.00  0.00    -0.014 A 
BRANCH  34  35
ATOM     35  C   UNL A   1      39.777  29.050  29.185  1.00  0.00     0.031 A 
ATOM     36  C   UNL A   1      40.674  30.068  29.841  1.00  0.00     0.074 A 
ATOM     37  C   UNL A   1      40.262  27.838  28.853  1.00  0.00     0.049 A 
ATOM     38  N   UNL A   1      41.939  29.968  30.160  1.00  0.00    -0.248 NA
ATOM     39  C   UNL A   1      40.078  31.376  30.158  1.00  0.00     0.031 C 
ATOM     40  C   UNL A   1      39.506  26.779  28.179  1.00  0.00     0.029 A 
ATOM     41  N   UNL A   1      41.508  27.293  29.031  1.00  0.00    -0.354 N 
ATOM     42  C   UNL A   1      42.294  31.201  30.697  1.00  0.00     0.074 A 
ATOM     43  C   UNL A   1      41.125  32.048  30.615  1.00  0.00     0.031 C 
ATOM     44  C   UNL A   1      40.297  25.706  28.023  1.00  0.00     0.029 A 
ATOM     45  C   UNL A   1      41.624  26.010  28.548  1.00  0.00     0.049 A 
ATOM     46  H   UNL A   1      42.251  27.774  29.464  1.00  0.00     0.167 HD
ATOM     47  C   UNL A   1      43.480  31.587  31.226  1.00  0.00     0.031 A 
ATOM     48  C   UNL A   1      42.680  25.175  28.522  1.00  0.00     0.031 A 
ATOM     49  C   UNL A   1      44.638  30.737  31.315  1.00  0.00     0.049 A 
ATOM     50  C   UNL A   1      43.986  25.625  29.115  1.00  0.00     0.074 A 
ATOM     51  C   UNL A   1      45.870  31.019  31.880  1.00  0.00     0.029 A 
ATOM     52  N   UNL A   1      44.707  29.441  30.828  1.00  0.00    -0.354 N 
ATOM     53  N   UNL A   1      44.285  26.777  29.669  1.00  0.00    -0.248 NA
ATOM     54  C   UNL A   1      45.093  24.660  29.092  1.00  0.00     0.031 C 
ATOM     55  C   UNL A   1      46.700  29.909  31.692  1.00  0.00     0.029 A 
ATOM     56  C   UNL A   1      45.967  28.915  31.062  1.00  0.00     0.049 A 
ATOM     57  H   UNL A   1      43.971  28.965  30.383  1.00  0.00     0.167 HD
ATOM     58  C   UNL A   1      45.607  26.665  30.083  1.00  0.00     0.074 A 
ATOM     59  C   UNL A   1      46.044  25.329  29.730  1.00  0.00     0.031 C 
ATOM     60  C   UNL A   1      46.388  27.585  30.701  1.00  0.00     0.031 A 
BRANCH  47  61
ATOM     61  C   UNL A   1      43.582  32.998  31.748  1.00  0.00    -0.014 A 
ATOM     62  C   UNL A   1      43.454  33.275  33.121  1.00  0.00     0.010 A 
ATOM     63  C   UNL A   1      43.843  34.057  30.859  1.00  0.00     0.010 A 
ATOM     64  C   UNL A   1      43.539  34.589  33.590  1.00  0.00     0.020 A 
ATOM     65  C   UNL A   1      43.958  35.370  31.328  1.00  0.00     0.020 A 
ATOM     66  C   UNL A   1      43.786  35.629  32.689  1.00  0.00     0.054 A 
BRANCH  66  67
ATOM     67  S   UNL A   1      43.907  37.322  33.328  1.00  0.00     0.124 S 
ATOM     68  O   UNL A   1      43.887  38.109  32.097  1.00  0.00    -0.237 OA
ATOM     69  O   UNL A   1      42.714  37.436  34.163  1.00  0.00    -0.237 OA
ATOM     70  O   UNL A   1      45.175  37.331  34.052  1.00  0.00    -0.744 OA
ENDBRANCH  66  67
ENDBRANCH  47  61
BRANCH  48  71
ATOM     71  C   UNL A   1      42.535  23.818  27.928  1.00  0.00    -0.014 A 
ATOM     72  C   UNL A   1      42.138  22.729  28.724  1.00  0.00     0.010 A 
ATOM     73  C   UNL A   1      42.769  23.612  26.556  1.00  0.00     0.010 A 
ATOM     74  C   UNL A   1      41.989  21.457  28.162  1.00  0.00     0.020 A 
ATOM     75  C   UNL A   1      42.595  22.349  25.986  1.00  0.00     0.020 A 
ATOM     76  C   UNL A   1      42.216  21.276  26.795  1.00  0.00     0.054 A 
BRANCH  76  77
ATOM     77  S   UNL A   1      41.958  19.631  26.076  1.00  0.00     0.124 S 
ATOM     78  O   UNL A   1      40.530  19.652  25.775  1.00  0.00    -0.237 OA
ATOM     79  O   UNL A   1      42.850  19.646  24.920  1.00  0.00    -0.237 OA
ATOM     80  O   UNL A   1      42.358  18.723  27.150  1.00  0.00    -0.744 OA
ENDBRANCH  76  77
ENDBRANCH  48  71
BRANCH  60  81
ATOM     81  C   UNL A   1      47.788  27.170  31.064  1.00  0.00    -0.014 A 
ATOM     82  C   UNL A   1      48.062  26.510  32.275  1.00  0.00     0.010 A 
ATOM     83  C   UNL A   1      48.838  27.401  30.156  1.00  0.00     0.010 A 
ATOM     84  C   UNL A   1      49.367  26.116  32.585  1.00  0.00     0.020 A 
ATOM     85  C   UNL A   1      50.139  26.984  30.450  1.00  0.00     0.020 A 
ATOM     86  C   UNL A   1      50.398  26.357  31.671  1.00  0.00     0.054 A 
BRANCH  86  87
ATOM     87  S   UNL A   1      52.075  25.801  32.078  1.00  0.00     0.124 S 
ATOM     88  O   UNL A   1      52.357  26.555  33.296  1.00  0.00    -0.237 OA
ATOM     89  O   UNL A   1      51.902  24.362  32.255  1.00  0.00    -0.237 OA
ATOM     90  O   UNL A   1      52.861  26.189  30.910  1.00  0.00    -0.744 OA
ENDBRANCH  86  87
ENDBRANCH  60  81
ENDBRANCH  34  35
ENDBRANCH  26  29
ENDBRANCH  24  25
ENDBRANCH   1  24
TORSDOF 16
ENDMDL
MODEL 2
REMARK VINA RESULT:      -9.8      4.094      7.483
REMARK SMILES Cc1cc(C(=O)N[C@@H]2CC2(C)C)sc1/C=C/C(=O)NCCCNC(=O)c1ccc(-c2c3nc(c(-c4ccc(S(=O)(=O)[O-])cc4)c4ccc([nH]4)c(-c4ccc(S(=O)(=O)[O-])cc4)c4nc(c(-c5ccc(S(=O)(=O)[O-])cc5)c5ccc2[nH]5)C=C4)C=C3)cc1
REMARK SMILES IDX 21 1 20 2 19 3 17 4 18 5 16 7 15 8 14 9 1 10 2 11 3 12 4 13
REMARK SMILES IDX 13 14 5 15 6 16 7 17 8 19 9 20 10 21 11 22 12 23 22 24 23 25
REMARK SMILES IDX 24 26 25 28 26 29 27 30 85 31 28 32 84 33 29 34 30 35 31 36
REMARK SMILES IDX 78 37 32 38 83 39 77 40 79 41 33 42 82 43 76 44 75 45 34 47
REMARK SMILES IDX 64 48 45 49 63 50 46 51 49 52 62 53 80 54 47 55 48 56 61 58
REMARK SMILES IDX 81 59 50 60 35 61 36 62 44 63 37 64 43 65 38 66 39 67 40 68
REMARK SMILES IDX 41 69 42 70 65 71 66 72 74 73 67 74 73 75 68 76 69 77 70 78
REMARK SMILES IDX 71 79 72 80 51 81 52 82 60 83 53 84 59 85 54 86 55 87 56 88
REMARK SMILES IDX 57 89 58 90
REMARK H PARENT 19 6 7 18 23 27 79 46 49 57
REMARK Flexibility Score: inf
ROOT
ATOM      1  C   UNL A   1      33.033  27.583  26.356  1.00  0.00     0.042 C 
ENDROOT
BRANCH   1   2
ATOM      2  C   UNL A   1      32.060  27.587  25.182  1.00  0.00     0.118 C 
BRANCH   2   3
ATOM      3  N   UNL A   1      32.749  27.789  23.921  1.00  0.00    -0.352 N 
ATOM      4  C   UNL A   1      33.499  26.928  23.183  1.00  0.00     0.244 C 
ATOM      5  O   UNL A   1      33.897  27.271  22.072  1.00  0.00    -0.270 OA
ATOM      6  H   UNL A   1      32.660  28.692  23.540  1.00  0.00     0.163 HD
BRANCH   4   7
ATOM      7  C   UNL A   1      33.734  25.541  23.637  1.00  0.00     0.072 C 
ATOM      8  C   UNL A   1      33.850  24.446  22.870  1.00  0.00     0.025 C 
BRANCH   8   9
ATOM      9  C   UNL A   1      34.159  23.205  23.489  1.00  0.00     0.031 A 
ATOM     10  C   UNL A   1      36.664  22.923  22.973  1.00  0.00     0.046 C 
ATOM     11  C   UNL A   1      35.380  22.562  23.644  1.00  0.00    -0.032 A 
ATOM     12  C   UNL A   1      35.266  21.545  24.654  1.00  0.00     0.029 A 
ATOM     13  C   UNL A   1      33.988  21.452  25.186  1.00  0.00     0.093 A 
ATOM     14  S   UNL A   1      32.905  22.207  24.118  1.00  0.00    -0.130 S 
BRANCH  13  15
ATOM     15  C   UNL A   1      33.590  20.660  26.324  1.00  0.00     0.261 C 
ATOM     16  O   UNL A   1      33.661  21.122  27.470  1.00  0.00    -0.268 OA
ATOM     17  N   UNL A   1      33.018  19.405  26.261  1.00  0.00    -0.348 N 
ATOM     18  H   UNL A   1      32.830  19.089  27.174  1.00  0.00     0.164 HD
BRANCH  17  19
ATOM     19  C   UNL A   1      32.604  18.410  25.322  1.00  0.00     0.088 C 
ATOM     20  C   UNL A   1      32.685  16.921  25.361  1.00  0.00     0.034 C 
ATOM     21  C   UNL A   1      33.495  17.676  24.333  1.00  0.00    -0.013 C 
ATOM     22  C   UNL A   1      33.038  17.531  22.901  1.00  0.00     0.013 C 
ATOM     23  C   UNL A   1      34.993  17.714  24.470  1.00  0.00     0.013 C 
ENDBRANCH  17  19
ENDBRANCH  13  15
ENDBRANCH   8   9
ENDBRANCH   4   7
ENDBRANCH   2   3
ENDBRANCH   1   2
BRANCH   1  24
ATOM     24  C   UNL A   1      34.201  28.545  26.180  1.00  0.00     0.118 C 
BRANCH  24  25
ATOM     25  N   UNL A   1      33.926  29.846  26.768  1.00  0.00    -0.352 N 
ATOM     26  C   UNL A   1      34.612  30.543  27.731  1.00  0.00     0.251 C 
ATOM     27  H   UNL A   1      33.123  30.298  26.420  1.00  0.00     0.163 HD
ATOM     28  O   UNL A   1      34.075  31.510  28.263  1.00  0.00    -0.269 OA
BRANCH  26  29
ATOM     29  C   UNL A   1      35.977  30.137  28.139  1.00  0.00     0.039 A 
ATOM     30  C   UNL A   1      36.176  29.658  29.438  1.00  0.00     0.014 A 
ATOM     31  C   UNL A   1      37.068  30.274  27.277  1.00  0.00     0.014 A 
ATOM     32  C   UNL A   1      37.454  29.273  29.852  1.00  0.00     0.010 A 
ATOM     33  C   UNL A   1      38.326  29.817  27.663  1.00  0.00     0.010 A 
ATOM     34  C   UNL A   1      38.536  29.324  28.959  1.00  0.00    -0.014 A 
BRANCH  34  35
ATOM     35  C   UNL A   1      39.893  28.874  29.364  1.00  0.00     0.031 A 
ATOM     36  C   UNL A   1      40.808  29.805  30.116  1.00  0.00     0.074 A 
ATOM     37  C   UNL A   1      40.324  27.649  29.005  1.00  0.00     0.049 A 
ATOM     38  N   UNL A   1      42.044  29.614  30.502  1.00  0.00    -0.248 NA
ATOM     39  C   UNL A   1      40.272  31.133  30.459  1.00  0.00     0.031 C 
ATOM     40  C   UNL A   1      39.549  26.669  28.241  1.00  0.00     0.029 A 
ATOM     41  N   UNL A   1      41.524  27.021  29.228  1.00  0.00    -0.354 N 
ATOM     42  C   UNL A   1      42.438  30.799  31.114  1.00  0.00     0.074 A 
ATOM     43  C   UNL A   1      41.328  31.719  31.006  1.00  0.00     0.031 C 
ATOM     44  C   UNL A   1      40.283  25.556  28.081  1.00  0.00     0.029 A 
ATOM     45  C   UNL A   1      41.592  25.756  28.694  1.00  0.00     0.049 A 
ATOM     46  H   UNL A   1      42.266  27.437  29.724  1.00  0.00     0.167 HD
ATOM     47  C   UNL A   1      43.611  31.088  31.727  1.00  0.00     0.031 A 
ATOM     48  C   UNL A   1      42.597  24.859  28.690  1.00  0.00     0.031 A 
ATOM     49  C   UNL A   1      44.710  30.166  31.843  1.00  0.00     0.049 A 
ATOM     50  C   UNL A   1      43.890  25.202  29.376  1.00  0.00     0.074 A 
ATOM     51  C   UNL A   1      45.920  30.348  32.489  1.00  0.00     0.029 A 
ATOM     52  N   UNL A   1      44.731  28.890  31.302  1.00  0.00    -0.354 N 
ATOM     53  N   UNL A   1      44.222  26.308  29.999  1.00  0.00    -0.248 NA
ATOM     54  C   UNL A   1      44.937  24.172  29.372  1.00  0.00     0.031 C 
ATOM     55  C   UNL A   1      46.693  29.198  32.298  1.00  0.00     0.029 A 
ATOM     56  C   UNL A   1      45.942  28.278  31.582  1.00  0.00     0.049 A 
ATOM     57  H   UNL A   1      43.996  28.480  30.793  1.00  0.00     0.167 HD
ATOM     58  C   UNL A   1      45.508  26.098  30.481  1.00  0.00     0.074 A 
ATOM     59  C   UNL A   1      45.887  24.754  30.093  1.00  0.00     0.031 C 
ATOM     60  C   UNL A   1      46.305  26.941  31.184  1.00  0.00     0.031 A 
BRANCH  47  61
ATOM     61  C   UNL A   1      43.765  32.467  32.318  1.00  0.00    -0.014 A 
ATOM     62  C   UNL A   1      44.321  33.521  31.568  1.00  0.00     0.010 A 
ATOM     63  C   UNL A   1      43.318  32.723  33.628  1.00  0.00     0.010 A 
ATOM     64  C   UNL A   1      44.470  34.791  32.133  1.00  0.00     0.020 A 
ATOM     65  C   UNL A   1      43.438  34.000  34.185  1.00  0.00     0.020 A 
ATOM     66  C   UNL A   1      44.031  35.021  33.439  1.00  0.00     0.054 A 
BRANCH  66  67
ATOM     67  S   UNL A   1      44.221  36.683  34.140  1.00  0.00     0.124 S 
ATOM     68  O   UNL A   1      43.132  37.409  33.492  1.00  0.00    -0.237 OA
ATOM     69  O   UNL A   1      44.053  36.449  35.572  1.00  0.00    -0.237 OA
ATOM     70  O   UNL A   1      45.566  37.081  33.730  1.00  0.00    -0.744 OA
ENDBRANCH  66  67
ENDBRANCH  47  61
BRANCH  48  71
ATOM     71  C   UNL A   1      42.408  23.539  28.027  1.00  0.00    -0.014 A 
ATOM     72  C   UNL A   1      43.256  23.139  26.980  1.00  0.00     0.010 A 
ATOM     73  C   UNL A   1      41.394  22.664  28.458  1.00  0.00     0.010 A 
ATOM     74  C   UNL A   1      43.086  21.894  26.367  1.00  0.00     0.020 A 
ATOM     75  C   UNL A   1      41.239  21.408  27.866  1.00  0.00     0.020 A 
ATOM     76  C   UNL A   1      42.079  21.035  26.816  1.00  0.00     0.054 A 
BRANCH  76  77
ATOM     77  S   UNL A   1      41.917  19.400  26.047  1.00  0.00     0.124 S 
ATOM     78  O   UNL A   1      42.723  19.550  24.841  1.00  0.00    -0.237 OA
ATOM     79  O   UNL A   1      42.466  18.513  27.070  1.00  0.00    -0.237 OA
ATOM     80  O   UNL A   1      40.478  19.268  25.828  1.00  0.00    -0.744 OA
ENDBRANCH  76  77
ENDBRANCH  48  71
BRANCH  60  81
ATOM     81  C   UNL A   1      47.653  26.426  31.608  1.00  0.00    -0.014 A 
ATOM     82  C   UNL A   1      48.799  26.649  30.824  1.00  0.00     0.010 A 
ATOM     83  C   UNL A   1      47.783  25.751  32.835  1.00  0.00     0.010 A 
ATOM     84  C   UNL A   1      50.045  26.178  31.245  1.00  0.00     0.020 A 
ATOM     85  C   UNL A   1      49.032  25.301  33.273  1.00  0.00     0.020 A 
ATOM     86  C   UNL A   1      50.154  25.505  32.467  1.00  0.00     0.054 A 
BRANCH  86  87
ATOM     87  S   UNL A   1      51.788  24.938  33.010  1.00  0.00     0.124 S 
ATOM     88  O   UNL A   1      52.581  25.085  31.793  1.00  0.00    -0.237 OA
ATOM     89  O   UNL A   1      52.110  25.871  34.087  1.00  0.00    -0.237 OA
ATOM     90  O   UNL A   1      51.552  23.561  33.437  1.00  0.00    -0.744 OA
ENDBRANCH  86  87
ENDBRANCH  60  81
ENDBRANCH  34  35
ENDBRANCH  26  29
ENDBRANCH  24  25
ENDBRANCH   1  24
TORSDOF 16
ENDMDL
MODEL 3
REMARK VINA RESULT:      -9.7      4.152     11.370
REMARK SMILES Cc1cc(C(=O)N[C@@H]2CC2(C)C)sc1/C=C/C(=O)NCCCNC(=O)c1ccc(-c2c3nc(c(-c4ccc(S(=O)(=O)[O-])cc4)c4ccc([nH]4)c(-c4ccc(S(=O)(=O)[O-])cc4)c4nc(c(-c5ccc(S(=O)(=O)[O-])cc5)c5ccc2[nH]5)C=C4)C=C3)cc1
REMARK SMILES IDX 21 1 20 2 19 3 17 4 18 5 16 7 15 8 14 9 1 10 2 11 3 12 4 13
REMARK SMILES IDX 13 14 5 15 6 16 7 17 8 19 9 20 10 21 11 22 12 23 22 24 23 25
REMARK SMILES IDX 24 26 25 28 26 29 27 30 85 31 28 32 84 33 29 34 30 35 31 36
REMARK SMILES IDX 78 37 32 38 83 39 77 40 79 41 33 42 82 43 76 44 75 45 34 47
REMARK SMILES IDX 64 48 45 49 63 50 46 51 49 52 62 53 80 54 47 55 48 56 61 58
REMARK SMILES IDX 81 59 50 60 35 61 36 62 44 63 37 64 43 65 38 66 39 67 40 68
REMARK SMILES IDX 41 69 42 70 65 71 66 72 74 73 67 74 73 75 68 76 69 77 70 78
REMARK SMILES IDX 71 79 72 80 51 81 52 82 60 83 53 84 59 85 54 86 55 87 56 88
REMARK SMILES IDX 57 89 58 90
REMARK H PARENT 19 6 7 18 23 27 79 46 49 57
REMARK Flexibility Score: inf
ROOT
ATOM      1  C   UNL A   1      35.363  23.862  24.624  1.00  0.00     0.042 C 
ENDROOT
BRANCH   1   2
ATOM      2  C   UNL A   1      34.262  22.808  24.538  1.00  0.00     0.118 C 
BRANCH   2   3
ATOM      3  N   UNL A   1      33.710  22.509  25.846  1.00  0.00    -0.352 N 
ATOM      4  C   UNL A   1      32.791  23.183  26.587  1.00  0.00     0.244 C 
ATOM      5  O   UNL A   1      32.369  22.685  27.628  1.00  0.00    -0.270 OA
ATOM      6  H   UNL A   1      34.056  21.688  26.263  1.00  0.00     0.163 HD
BRANCH   4   7
ATOM      7  C   UNL A   1      32.194  24.443  26.097  1.00  0.00     0.072 C 
ATOM      8  C   UNL A   1      32.013  25.578  26.790  1.00  0.00     0.025 C 
BRANCH   8   9
ATOM      9  C   UNL A   1      31.494  26.717  26.117  1.00  0.00     0.031 A 
ATOM     10  C   UNL A   1      32.514  28.671  27.445  1.00  0.00     0.046 C 
ATOM     11  C   UNL A   1      31.764  28.066  26.304  1.00  0.00    -0.032 A 
ATOM     12  C   UNL A   1      31.314  28.812  25.160  1.00  0.00     0.029 A 
ATOM     13  C   UNL A   1      30.717  28.014  24.196  1.00  0.00     0.093 A 
ATOM     14  S   UNL A   1      30.275  26.540  24.915  1.00  0.00    -0.130 S 
BRANCH  13  15
ATOM     15  C   UNL A   1      30.319  28.425  22.871  1.00  0.00     0.261 C 
ATOM     16  O   UNL A   1      30.505  27.683  21.898  1.00  0.00    -0.268 OA
ATOM     17  N   UNL A   1      29.629  29.581  22.569  1.00  0.00    -0.348 N 
ATOM     18  H   UNL A   1      29.470  29.620  21.598  1.00  0.00     0.164 HD
BRANCH  17  19
ATOM     19  C   UNL A   1      29.065  30.742  23.185  1.00  0.00     0.088 C 
ATOM     20  C   UNL A   1      27.648  31.139  23.433  1.00  0.00     0.034 C 
ATOM     21  C   UNL A   1      28.483  31.951  22.470  1.00  0.00    -0.013 C 
ATOM     22  C   UNL A   1      28.866  33.335  22.938  1.00  0.00     0.013 C 
ATOM     23  C   UNL A   1      28.161  31.897  21.001  1.00  0.00     0.013 C 
ENDBRANCH  17  19
ENDBRANCH  13  15
ENDBRANCH   8   9
ENDBRANCH   4   7
ENDBRANCH   2   3
ENDBRANCH   1   2
BRANCH   1  24
ATOM     24  C   UNL A   1      36.146  23.815  25.930  1.00  0.00     0.118 C 
BRANCH  24  25
ATOM     25  N   UNL A   1      37.214  22.829  25.887  1.00  0.00    -0.352 N 
ATOM     26  C   UNL A   1      38.553  22.964  26.158  1.00  0.00     0.251 C 
ATOM     27  H   UNL A   1      36.932  21.923  25.625  1.00  0.00     0.163 HD
ATOM     28  O   UNL A   1      39.322  22.068  25.822  1.00  0.00    -0.269 OA
BRANCH  26  29
ATOM     29  C   UNL A   1      39.076  24.173  26.835  1.00  0.00     0.039 A 
ATOM     30  C   UNL A   1      39.836  25.083  26.094  1.00  0.00     0.014 A 
ATOM     31  C   UNL A   1      38.871  24.391  28.200  1.00  0.00     0.014 A 
ATOM     32  C   UNL A   1      40.347  26.230  26.708  1.00  0.00     0.010 A 
ATOM     33  C   UNL A   1      39.313  25.572  28.793  1.00  0.00     0.010 A 
ATOM     34  C   UNL A   1      40.067  26.498  28.057  1.00  0.00    -0.014 A 
BRANCH  34  35
ATOM     35  C   UNL A   1      40.560  27.735  28.716  1.00  0.00     0.031 A 
ATOM     36  C   UNL A   1      41.959  27.792  29.273  1.00  0.00     0.074 A 
ATOM     37  C   UNL A   1      39.731  28.786  28.867  1.00  0.00     0.049 A 
ATOM     38  N   UNL A   1      42.545  28.759  29.932  1.00  0.00    -0.248 NA
ATOM     39  C   UNL A   1      42.800  26.599  29.084  1.00  0.00     0.031 C 
ATOM     40  C   UNL A   1      38.340  28.841  28.408  1.00  0.00     0.029 A 
ATOM     41  N   UNL A   1      39.933  30.009  29.455  1.00  0.00    -0.354 N 
ATOM     42  C   UNL A   1      43.813  28.286  30.252  1.00  0.00     0.074 A 
ATOM     43  C   UNL A   1      43.893  26.929  29.757  1.00  0.00     0.031 C 
ATOM     44  C   UNL A   1      37.824  30.043  28.709  1.00  0.00     0.029 A 
ATOM     45  C   UNL A   1      38.830  30.829  29.417  1.00  0.00     0.049 A 
ATOM     46  H   UNL A   1      40.788  30.276  29.865  1.00  0.00     0.167 HD
ATOM     47  C   UNL A   1      44.825  28.928  30.883  1.00  0.00     0.031 A 
ATOM     48  C   UNL A   1      38.643  32.072  29.903  1.00  0.00     0.031 A 
ATOM     49  C   UNL A   1      44.745  30.282  31.364  1.00  0.00     0.049 A 
ATOM     50  C   UNL A   1      39.780  32.765  30.600  1.00  0.00     0.074 A 
ATOM     51  C   UNL A   1      45.732  31.038  31.972  1.00  0.00     0.029 A 
ATOM     52  N   UNL A   1      43.615  31.082  31.291  1.00  0.00    -0.354 N 
ATOM     53  N   UNL A   1      40.991  32.320  30.843  1.00  0.00    -0.248 NA
ATOM     54  C   UNL A   1      39.532  34.132  31.077  1.00  0.00     0.031 C 
ATOM     55  C   UNL A   1      45.184  32.280  32.309  1.00  0.00     0.029 A 
ATOM     56  C   UNL A   1      43.873  32.318  31.860  1.00  0.00     0.049 A 
ATOM     57  H   UNL A   1      42.756  30.810  30.895  1.00  0.00     0.167 HD
ATOM     58  C   UNL A   1      41.656  33.361  31.479  1.00  0.00     0.074 A 
ATOM     59  C   UNL A   1      40.718  34.463  31.569  1.00  0.00     0.031 C 
ATOM     60  C   UNL A   1      42.928  33.402  31.946  1.00  0.00     0.031 A 
BRANCH  47  61
ATOM     61  C   UNL A   1      46.109  28.165  31.093  1.00  0.00    -0.014 A 
ATOM     62  C   UNL A   1      47.134  28.190  30.129  1.00  0.00     0.010 A 
ATOM     63  C   UNL A   1      46.309  27.442  32.284  1.00  0.00     0.010 A 
ATOM     64  C   UNL A   1      48.314  27.469  30.331  1.00  0.00     0.020 A 
ATOM     65  C   UNL A   1      47.501  26.744  32.502  1.00  0.00     0.020 A 
ATOM     66  C   UNL A   1      48.488  26.747  31.514  1.00  0.00     0.054 A 
BRANCH  66  67
ATOM     67  S   UNL A   1      50.036  25.834  31.756  1.00  0.00     0.124 S 
ATOM     68  O   UNL A   1      50.875  26.833  32.414  1.00  0.00    -0.237 OA
ATOM     69  O   UNL A   1      49.621  24.714  32.597  1.00  0.00    -0.237 OA
ATOM     70  O   UNL A   1      50.443  25.474  30.400  1.00  0.00    -0.744 OA
ENDBRANCH  66  67
ENDBRANCH  47  61
BRANCH  48  71
ATOM     71  C   UNL A   1      37.328  32.745  29.726  1.00  0.00    -0.014 A 
ATOM     72  C   UNL A   1      36.349  32.675  30.732  1.00  0.00     0.010 A 
ATOM     73  C   UNL A   1      37.057  33.485  28.560  1.00  0.00     0.010 A 
ATOM     74  C   UNL A   1      35.119  33.319  30.571  1.00  0.00     0.020 A 
ATOM     75  C   UNL A   1      35.839  34.152  28.407  1.00  0.00     0.020 A 
ATOM     76  C   UNL A   1      34.873  34.057  29.409  1.00  0.00     0.054 A 
BRANCH  76  77
ATOM     77  S   UNL A   1      33.294  34.935  29.249  1.00  0.00     0.124 S 
ATOM     78  O   UNL A   1      32.583  34.108  28.280  1.00  0.00    -0.237 OA
ATOM     79  O   UNL A   1      32.773  34.902  30.614  1.00  0.00    -0.237 OA
ATOM     80  O   UNL A   1      33.687  36.260  28.774  1.00  0.00    -0.744 OA
ENDBRANCH  76  77
ENDBRANCH  48  71
BRANCH  60  81
ATOM     81  C   UNL A   1      43.394  34.691  32.568  1.00  0.00    -0.014 A 
ATOM     82  C   UNL A   1      43.308  34.904  33.955  1.00  0.00     0.010 A 
ATOM     83  C   UNL A   1      43.974  35.682  31.756  1.00  0.00     0.010 A 
ATOM     84  C   UNL A   1      43.765  36.101  34.514  1.00  0.00     0.020 A 
ATOM     85  C   UNL A   1      44.456  36.869  32.315  1.00  0.00     0.020 A 
ATOM     86  C   UNL A   1      44.334  37.077  33.690  1.00  0.00     0.054 A 
BRANCH  86  87
ATOM     87  S   UNL A   1      44.955  38.604  34.445  1.00  0.00     0.124 S 
ATOM     88  O   UNL A   1      46.387  38.334  34.542  1.00  0.00    -0.237 OA
ATOM     89  O   UNL A   1      44.572  39.623  33.472  1.00  0.00    -0.237 OA
ATOM     90  O   UNL A   1      44.246  38.673  35.721  1.00  0.00    -0.744 OA
ENDBRANCH  86  87
ENDBRANCH  60  81
ENDBRANCH  34  35
ENDBRANCH  26  29
ENDBRANCH  24  25
ENDBRANCH   1  24
TORSDOF 16
ENDMDL
