MODEL 1
REMARK VINA RESULT:     -12.6      0.000      0.000
REMARK SMILES Nc1ncc(C(=O)NCCCNC(=O)c2ccc(-c3c4nc(c(-c5ccc(S(=O)(=O)[O-])cc5)c5ccc([nH]5)c(-c5ccc(S(=O)(=O)[O-])cc5)c5nc(c(-c6ccc(S(=O)(=O)[O-])cc6)c6ccc3[nH]6)C=C5)C=C4)cc2)c(-c2ccccc2)n1
REMARK SMILES IDX 11 1 10 2 9 3 8 4 6 5 7 6 5 8 2 9 3 10 82 11 4 12 75 13 1 14
REMARK SMILES IDX 76 17 77 18 81 19 78 20 80 21 79 22 12 23 13 24 14 26 15 27
REMARK SMILES IDX 16 28 74 29 17 30 73 31 18 32 19 33 20 34 67 35 21 36 72 37
REMARK SMILES IDX 66 38 68 39 22 40 71 41 65 42 64 43 23 45 53 46 34 47 52 48
REMARK SMILES IDX 35 49 38 50 51 51 69 52 36 53 37 54 50 56 70 57 39 58 24 59
REMARK SMILES IDX 25 60 33 61 26 62 32 63 27 64 28 65 29 66 30 67 31 68 54 69
REMARK SMILES IDX 55 70 63 71 56 72 62 73 57 74 58 75 59 76 60 77 61 78 40 79
REMARK SMILES IDX 41 80 49 81 42 82 48 83 43 84 44 85 45 86 46 87 47 88
REMARK H PARENT 8 7 1 15 1 16 12 25 68 44 38 55
REMARK Flexibility Score: inf
ROOT
ATOM      1  C   UNL A   1      37.858  24.024  26.107  1.00  0.00     0.118 C 
ENDROOT
BRANCH   1   2
ATOM      2  C   UNL A   1      37.089  23.276  25.023  1.00  0.00     0.042 C 
BRANCH   2   3
ATOM      3  C   UNL A   1      36.683  21.860  25.397  1.00  0.00     0.118 C 
BRANCH   3   4
ATOM      4  N   UNL A   1      35.659  21.723  26.409  1.00  0.00    -0.352 N 
ATOM      5  C   UNL A   1      34.356  21.301  26.298  1.00  0.00     0.255 C 
ATOM      6  O   UNL A   1      33.723  21.176  27.350  1.00  0.00    -0.269 OA
ATOM      7  H   UNL A   1      35.938  21.973  27.319  1.00  0.00     0.163 HD
BRANCH   5   8
ATOM      8  C   UNL A   1      33.621  21.075  25.029  1.00  0.00     0.084 A 
ATOM      9  C   UNL A   1      32.202  21.103  22.686  1.00  0.00     0.220 A 
ATOM     10  N   UNL A   1      32.480  22.276  23.245  1.00  0.00    -0.221 NA
ATOM     11  N   UNL A   1      32.558  19.927  23.199  1.00  0.00    -0.212 NA
ATOM     12  C   UNL A   1      33.175  22.230  24.405  1.00  0.00     0.131 A 
ATOM     13  C   UNL A   1      33.253  19.910  24.373  1.00  0.00     0.089 A 
BRANCH   9  14
ATOM     14  N   UNL A   1      31.531  21.097  21.500  1.00  0.00    -0.368 N 
ATOM     15  H   UNL A   1      30.736  20.525  21.388  1.00  0.00     0.159 HD
ATOM     16  H   UNL A   1      31.839  21.661  20.755  1.00  0.00     0.159 HD
ENDBRANCH   9  14
BRANCH  13  17
ATOM     17  C   UNL A   1      33.569  18.535  24.780  1.00  0.00     0.001 A 
ATOM     18  C   UNL A   1      34.762  17.891  24.418  1.00  0.00     0.010 A 
ATOM     19  C   UNL A   1      32.620  17.809  25.533  1.00  0.00     0.010 A 
ATOM     20  C   UNL A   1      34.951  16.535  24.715  1.00  0.00     0.001 A 
ATOM     21  C   UNL A   1      32.802  16.454  25.811  1.00  0.00     0.001 A 
ATOM     22  C   UNL A   1      33.962  15.814  25.386  1.00  0.00     0.000 A 
ENDBRANCH  13  17
ENDBRANCH   5   8
ENDBRANCH   3   4
ENDBRANCH   2   3
ENDBRANCH   1   2
BRANCH   1  23
ATOM     23  N   UNL A   1      39.301  23.793  26.107  1.00  0.00    -0.352 N 
ATOM     24  C   UNL A   1      40.373  24.424  26.693  1.00  0.00     0.251 C 
ATOM     25  H   UNL A   1      39.564  23.011  25.568  1.00  0.00     0.163 HD
ATOM     26  O   UNL A   1      41.504  24.016  26.421  1.00  0.00    -0.269 OA
BRANCH  24  27
ATOM     27  C   UNL A   1      40.228  25.601  27.587  1.00  0.00     0.039 A 
ATOM     28  C   UNL A   1      39.356  25.511  28.681  1.00  0.00     0.014 A 
ATOM     29  C   UNL A   1      40.899  26.798  27.367  1.00  0.00     0.014 A 
ATOM     30  C   UNL A   1      39.255  26.566  29.599  1.00  0.00     0.010 A 
ATOM     31  C   UNL A   1      40.894  27.795  28.340  1.00  0.00     0.010 A 
ATOM     32  C   UNL A   1      40.081  27.692  29.476  1.00  0.00    -0.014 A 
BRANCH  32  33
ATOM     33  C   UNL A   1      40.140  28.766  30.508  1.00  0.00     0.031 A 
ATOM     34  C   UNL A   1      41.076  28.636  31.684  1.00  0.00     0.074 A 
ATOM     35  C   UNL A   1      39.263  29.790  30.463  1.00  0.00     0.049 A 
ATOM     36  N   UNL A   1      41.124  29.343  32.785  1.00  0.00    -0.248 NA
ATOM     37  C   UNL A   1      42.058  27.539  31.635  1.00  0.00     0.031 C 
ATOM     38  C   UNL A   1      38.271  30.019  29.407  1.00  0.00     0.029 A 
ATOM     39  N   UNL A   1      39.048  30.824  31.342  1.00  0.00    -0.354 N 
ATOM     40  C   UNL A   1      42.100  28.746  33.576  1.00  0.00     0.074 A 
ATOM     41  C   UNL A   1      42.588  27.596  32.848  1.00  0.00     0.031 C 
ATOM     42  C   UNL A   1      37.575  31.131  29.687  1.00  0.00     0.029 A 
ATOM     43  C   UNL A   1      38.024  31.665  30.967  1.00  0.00     0.049 A 
ATOM     44  H   UNL A   1      39.576  30.952  32.162  1.00  0.00     0.167 HD
ATOM     45  C   UNL A   1      42.563  29.129  34.792  1.00  0.00     0.031 A 
ATOM     46  C   UNL A   1      37.487  32.733  31.590  1.00  0.00     0.031 A 
ATOM     47  C   UNL A   1      42.110  30.300  35.493  1.00  0.00     0.049 A 
ATOM     48  C   UNL A   1      38.029  33.150  32.929  1.00  0.00     0.074 A 
ATOM     49  C   UNL A   1      42.572  30.817  36.691  1.00  0.00     0.029 A 
ATOM     50  N   UNL A   1      41.100  31.143  35.056  1.00  0.00    -0.354 N 
ATOM     51  N   UNL A   1      38.984  32.599  33.638  1.00  0.00    -0.248 NA
ATOM     52  C   UNL A   1      37.420  34.334  33.552  1.00  0.00     0.031 C 
ATOM     53  C   UNL A   1      41.812  31.950  37.000  1.00  0.00     0.029 A 
ATOM     54  C   UNL A   1      40.911  32.166  35.970  1.00  0.00     0.049 A 
ATOM     55  H   UNL A   1      40.592  31.030  34.221  1.00  0.00     0.167 HD
ATOM     56  C   UNL A   1      39.107  33.382  34.779  1.00  0.00     0.074 A 
ATOM     57  C   UNL A   1      38.139  34.453  34.660  1.00  0.00     0.031 C 
ATOM     58  C   UNL A   1      39.945  33.226  35.834  1.00  0.00     0.031 A 
BRANCH  45  59
ATOM     59  C   UNL A   1      43.619  28.270  35.439  1.00  0.00    -0.014 A 
ATOM     60  C   UNL A   1      44.988  28.537  35.255  1.00  0.00     0.010 A 
ATOM     61  C   UNL A   1      43.239  27.200  36.271  1.00  0.00     0.010 A 
ATOM     62  C   UNL A   1      45.955  27.720  35.846  1.00  0.00     0.020 A 
ATOM     63  C   UNL A   1      44.204  26.399  36.889  1.00  0.00     0.020 A 
ATOM     64  C   UNL A   1      45.556  26.652  36.655  1.00  0.00     0.054 A 
BRANCH  64  65
ATOM     65  S   UNL A   1      46.835  25.617  37.420  1.00  0.00     0.124 S 
ATOM     66  O   UNL A   1      47.202  24.732  36.317  1.00  0.00    -0.237 OA
ATOM     67  O   UNL A   1      47.850  26.593  37.806  1.00  0.00    -0.237 OA
ATOM     68  O   UNL A   1      46.140  24.972  38.531  1.00  0.00    -0.744 OA
ENDBRANCH  64  65
ENDBRANCH  45  59
BRANCH  46  69
ATOM     69  C   UNL A   1      36.376  33.487  30.948  1.00  0.00    -0.014 A 
ATOM     70  C   UNL A   1      35.222  33.810  31.685  1.00  0.00     0.010 A 
ATOM     71  C   UNL A   1      36.470  33.904  29.608  1.00  0.00     0.010 A 
ATOM     72  C   UNL A   1      34.178  34.522  31.090  1.00  0.00     0.020 A 
ATOM     73  C   UNL A   1      35.439  34.639  29.016  1.00  0.00     0.020 A 
ATOM     74  C   UNL A   1      34.294  34.935  29.759  1.00  0.00     0.054 A 
BRANCH  74  75
ATOM     75  S   UNL A   1      32.949  35.908  29.025  1.00  0.00     0.124 S 
ATOM     76  O   UNL A   1      32.341  34.946  28.113  1.00  0.00    -0.237 OA
ATOM     77  O   UNL A   1      32.148  36.270  30.192  1.00  0.00    -0.237 OA
ATOM     78  O   UNL A   1      33.645  37.024  28.388  1.00  0.00    -0.744 OA
ENDBRANCH  74  75
ENDBRANCH  46  69
BRANCH  58  79
ATOM     79  C   UNL A   1      39.876  34.252  36.932  1.00  0.00    -0.014 A 
ATOM     80  C   UNL A   1      40.476  35.515  36.784  1.00  0.00     0.010 A 
ATOM     81  C   UNL A   1      39.141  33.972  38.098  1.00  0.00     0.010 A 
ATOM     82  C   UNL A   1      40.360  36.473  37.793  1.00  0.00     0.020 A 
ATOM     83  C   UNL A   1      39.000  34.937  39.098  1.00  0.00     0.020 A 
ATOM     84  C   UNL A   1      39.619  36.179  38.943  1.00  0.00     0.054 A 
BRANCH  84  85
ATOM     85  S   UNL A   1      39.431  37.462  40.212  1.00  0.00     0.124 S 
ATOM     86  O   UNL A   1      38.803  36.722  41.303  1.00  0.00    -0.237 OA
ATOM     87  O   UNL A   1      40.811  37.881  40.450  1.00  0.00    -0.237 OA
ATOM     88  O   UNL A   1      38.585  38.464  39.568  1.00  0.00    -0.744 OA
ENDBRANCH  84  85
ENDBRANCH  58  79
ENDBRANCH  32  33
ENDBRANCH  24  27
ENDBRANCH   1  23
TORSDOF 15
ENDMDL
MODEL 2
REMARK VINA RESULT:     -12.4      7.174     12.685
REMARK SMILES Nc1ncc(C(=O)NCCCNC(=O)c2ccc(-c3c4nc(c(-c5ccc(S(=O)(=O)[O-])cc5)c5ccc([nH]5)c(-c5ccc(S(=O)(=O)[O-])cc5)c5nc(c(-c6ccc(S(=O)(=O)[O-])cc6)c6ccc3[nH]6)C=C5)C=C4)cc2)c(-c2ccccc2)n1
REMARK SMILES IDX 11 1 10 2 9 3 8 4 6 5 7 6 5 8 2 9 3 10 82 11 4 12 75 13 1 14
REMARK SMILES IDX 76 17 77 18 81 19 78 20 80 21 79 22 12 23 13 24 14 26 15 27
REMARK SMILES IDX 16 28 74 29 17 30 73 31 18 32 19 33 20 34 67 35 21 36 72 37
REMARK SMILES IDX 66 38 68 39 22 40 71 41 65 42 64 43 23 45 53 46 34 47 52 48
REMARK SMILES IDX 35 49 38 50 51 51 69 52 36 53 37 54 50 56 70 57 39 58 24 59
REMARK SMILES IDX 25 60 33 61 26 62 32 63 27 64 28 65 29 66 30 67 31 68 54 69
REMARK SMILES IDX 55 70 63 71 56 72 62 73 57 74 58 75 59 76 60 77 61 78 40 79
REMARK SMILES IDX 41 80 49 81 42 82 48 83 43 84 44 85 45 86 46 87 47 88
REMARK H PARENT 8 7 1 15 1 16 12 25 68 44 38 55
REMARK Flexibility Score: inf
ROOT
ATOM      1  C   UNL A   1      34.761  29.414  27.432  1.00  0.00     0.118 C 
ENDROOT
BRANCH   1   2
ATOM      2  C   UNL A   1      33.289  29.147  27.137  1.00  0.00     0.042 C 
BRANCH   2   3
ATOM      3  C   UNL A   1      33.021  27.859  26.377  1.00  0.00     0.118 C 
BRANCH   3   4
ATOM      4  N   UNL A   1      31.731  27.237  26.586  1.00  0.00    -0.352 N 
ATOM      5  C   UNL A   1      30.925  26.553  25.709  1.00  0.00     0.255 C 
ATOM      6  O   UNL A   1      29.912  26.028  26.181  1.00  0.00    -0.269 OA
ATOM      7  H   UNL A   1      31.375  27.318  27.500  1.00  0.00     0.163 HD
BRANCH   5   8
ATOM      8  C   UNL A   1      31.114  26.472  24.239  1.00  0.00     0.084 A 
ATOM      9  C   UNL A   1      31.774  26.015  21.620  1.00  0.00     0.220 A 
ATOM     10  N   UNL A   1      32.362  25.256  22.539  1.00  0.00    -0.221 NA
ATOM     11  N   UNL A   1      30.902  26.983  21.896  1.00  0.00    -0.212 NA
ATOM     12  C   UNL A   1      32.022  25.510  23.824  1.00  0.00     0.131 A 
ATOM     13  C   UNL A   1      30.582  27.221  23.200  1.00  0.00     0.089 A 
BRANCH   9  14
ATOM     14  N   UNL A   1      32.060  25.777  20.310  1.00  0.00    -0.368 N 
ATOM     15  H   UNL A   1      32.588  26.430  19.795  1.00  0.00     0.159 HD
ATOM     16  H   UNL A   1      31.738  24.955  19.875  1.00  0.00     0.159 HD
ENDBRANCH   9  14
BRANCH  13  17
ATOM     17  C   UNL A   1      29.602  28.309  23.313  1.00  0.00     0.001 A 
ATOM     18  C   UNL A   1      28.228  28.118  23.107  1.00  0.00     0.010 A 
ATOM     19  C   UNL A   1      30.059  29.614  23.601  1.00  0.00     0.010 A 
ATOM     20  C   UNL A   1      27.356  29.215  23.091  1.00  0.00     0.001 A 
ATOM     21  C   UNL A   1      29.193  30.707  23.566  1.00  0.00     0.001 A 
ATOM     22  C   UNL A   1      27.844  30.508  23.292  1.00  0.00     0.000 A 
ENDBRANCH  13  17
ENDBRANCH   5   8
ENDBRANCH   3   4
ENDBRANCH   2   3
ENDBRANCH   1   2
BRANCH   1  23
ATOM     23  N   UNL A   1      35.009  30.278  28.584  1.00  0.00    -0.352 N 
ATOM     24  C   UNL A   1      36.103  30.523  29.381  1.00  0.00     0.251 C 
ATOM     25  H   UNL A   1      34.218  30.801  28.848  1.00  0.00     0.163 HD
ATOM     26  O   UNL A   1      35.957  31.270  30.350  1.00  0.00    -0.269 OA
BRANCH  24  27
ATOM     27  C   UNL A   1      37.425  29.886  29.156  1.00  0.00     0.039 A 
ATOM     28  C   UNL A   1      37.967  29.899  27.863  1.00  0.00     0.014 A 
ATOM     29  C   UNL A   1      38.136  29.252  30.168  1.00  0.00     0.014 A 
ATOM     30  C   UNL A   1      39.250  29.387  27.623  1.00  0.00     0.010 A 
ATOM     31  C   UNL A   1      39.455  28.856  29.960  1.00  0.00     0.010 A 
ATOM     32  C   UNL A   1      40.037  28.926  28.687  1.00  0.00    -0.014 A 
BRANCH  32  33
ATOM     33  C   UNL A   1      41.464  28.527  28.522  1.00  0.00     0.031 A 
ATOM     34  C   UNL A   1      42.553  29.572  28.562  1.00  0.00     0.074 A 
ATOM     35  C   UNL A   1      41.774  27.254  28.203  1.00  0.00     0.049 A 
ATOM     36  N   UNL A   1      43.815  29.466  28.230  1.00  0.00    -0.248 NA
ATOM     37  C   UNL A   1      42.159  30.926  28.989  1.00  0.00     0.031 C 
ATOM     38  C   UNL A   1      40.819  26.147  28.086  1.00  0.00     0.029 A 
ATOM     39  N   UNL A   1      42.982  26.676  27.896  1.00  0.00    -0.354 N 
ATOM     40  C   UNL A   1      44.349  30.743  28.358  1.00  0.00     0.074 A 
ATOM     41  C   UNL A   1      43.267  31.615  28.756  1.00  0.00     0.031 C 
ATOM     42  C   UNL A   1      41.479  25.026  27.759  1.00  0.00     0.029 A 
ATOM     43  C   UNL A   1      42.892  25.338  27.584  1.00  0.00     0.049 A 
ATOM     44  H   UNL A   1      43.832  27.171  27.899  1.00  0.00     0.167 HD
ATOM     45  C   UNL A   1      45.629  31.153  28.179  1.00  0.00     0.031 A 
ATOM     46  C   UNL A   1      43.832  24.462  27.179  1.00  0.00     0.031 A 
ATOM     47  C   UNL A   1      46.714  30.275  27.830  1.00  0.00     0.049 A 
ATOM     48  C   UNL A   1      45.248  24.934  27.004  1.00  0.00     0.074 A 
ATOM     49  C   UNL A   1      48.058  30.578  27.704  1.00  0.00     0.029 A 
ATOM     50  N   UNL A   1      46.582  28.922  27.563  1.00  0.00    -0.354 N 
ATOM     51  N   UNL A   1      45.742  26.137  27.176  1.00  0.00    -0.248 NA
ATOM     52  C   UNL A   1      46.236  23.931  26.581  1.00  0.00     0.031 C 
ATOM     53  C   UNL A   1      48.734  29.415  27.318  1.00  0.00     0.029 A 
ATOM     54  C   UNL A   1      47.818  28.378  27.254  1.00  0.00     0.049 A 
ATOM     55  H   UNL A   1      45.735  28.421  27.588  1.00  0.00     0.167 HD
ATOM     56  C   UNL A   1      47.100  26.030  26.905  1.00  0.00     0.074 A 
ATOM     57  C   UNL A   1      47.354  24.643  26.572  1.00  0.00     0.031 C 
ATOM     58  C   UNL A   1      48.053  26.995  26.927  1.00  0.00     0.031 A 
BRANCH  45  59
ATOM     59  C   UNL A   1      45.925  32.619  28.362  1.00  0.00    -0.014 A 
ATOM     60  C   UNL A   1      45.796  33.527  27.294  1.00  0.00     0.010 A 
ATOM     61  C   UNL A   1      46.306  33.104  29.627  1.00  0.00     0.010 A 
ATOM     62  C   UNL A   1      46.093  34.880  27.475  1.00  0.00     0.020 A 
ATOM     63  C   UNL A   1      46.574  34.464  29.819  1.00  0.00     0.020 A 
ATOM     64  C   UNL A   1      46.485  35.339  28.735  1.00  0.00     0.054 A 
BRANCH  64  65
ATOM     65  S   UNL A   1      46.851  37.104  28.943  1.00  0.00     0.124 S 
ATOM     66  O   UNL A   1      48.222  37.068  29.448  1.00  0.00    -0.237 OA
ATOM     67  O   UNL A   1      46.696  37.625  27.588  1.00  0.00    -0.237 OA
ATOM     68  O   UNL A   1      45.845  37.556  29.901  1.00  0.00    -0.744 OA
ENDBRANCH  64  65
ENDBRANCH  45  59
BRANCH  46  69
ATOM     69  C   UNL A   1      43.463  23.044  26.916  1.00  0.00    -0.014 A 
ATOM     70  C   UNL A   1      43.688  22.478  25.648  1.00  0.00     0.010 A 
ATOM     71  C   UNL A   1      42.906  22.246  27.931  1.00  0.00     0.010 A 
ATOM     72  C   UNL A   1      43.348  21.145  25.397  1.00  0.00     0.020 A 
ATOM     73  C   UNL A   1      42.589  20.906  27.692  1.00  0.00     0.020 A 
ATOM     74  C   UNL A   1      42.803  20.366  26.422  1.00  0.00     0.054 A 
BRANCH  74  75
ATOM     75  S   UNL A   1      42.424  18.624  26.087  1.00  0.00     0.124 S 
ATOM     76  O   UNL A   1      41.012  18.683  25.727  1.00  0.00    -0.237 OA
ATOM     77  O   UNL A   1      43.343  18.303  24.999  1.00  0.00    -0.237 OA
ATOM     78  O   UNL A   1      42.720  17.962  27.357  1.00  0.00    -0.744 OA
ENDBRANCH  74  75
ENDBRANCH  46  69
BRANCH  58  79
ATOM     79  C   UNL A   1      49.465  26.584  26.611  1.00  0.00    -0.014 A 
ATOM     80  C   UNL A   1      50.320  26.095  27.615  1.00  0.00     0.010 A 
ATOM     81  C   UNL A   1      49.916  26.620  25.279  1.00  0.00     0.010 A 
ATOM     82  C   UNL A   1      51.612  25.671  27.294  1.00  0.00     0.020 A 
ATOM     83  C   UNL A   1      51.198  26.172  24.951  1.00  0.00     0.020 A 
ATOM     84  C   UNL A   1      52.042  25.709  25.963  1.00  0.00     0.054 A 
BRANCH  84  85
ATOM     85  S   UNL A   1      53.701  25.095  25.565  1.00  0.00     0.124 S 
ATOM     86  O   UNL A   1      53.452  23.675  25.330  1.00  0.00    -0.237 OA
ATOM     87  O   UNL A   1      54.056  25.875  24.380  1.00  0.00    -0.237 OA
ATOM     88  O   UNL A   1      54.481  25.404  26.761  1.00  0.00    -0.744 OA
ENDBRANCH  84  85
ENDBRANCH  58  79
ENDBRANCH  32  33
ENDBRANCH  24  27
ENDBRANCH   1  23
TORSDOF 15
ENDMDL
MODEL 3
REMARK VINA RESULT:     -12.2      4.886     10.445
REMARK SMILES Nc1ncc(C(=O)NCCCNC(=O)c2ccc(-c3c4nc(c(-c5ccc(S(=O)(=O)[O-])cc5)c5ccc([nH]5)c(-c5ccc(S(=O)(=O)[O-])cc5)c5nc(c(-c6ccc(S(=O)(=O)[O-])cc6)c6ccc3[nH]6)C=C5)C=C4)cc2)c(-c2ccccc2)n1
REMARK SMILES IDX 11 1 10 2 9 3 8 4 6 5 7 6 5 8 2 9 3 10 82 11 4 12 75 13 1 14
REMARK SMILES IDX 76 17 77 18 81 19 78 20 80 21 79 22 12 23 13 24 14 26 15 27
REMARK SMILES IDX 16 28 74 29 17 30 73 31 18 32 19 33 20 34 67 35 21 36 72 37
REMARK SMILES IDX 66 38 68 39 22 40 71 41 65 42 64 43 23 45 53 46 34 47 52 48
REMARK SMILES IDX 35 49 38 50 51 51 69 52 36 53 37 54 50 56 70 57 39 58 24 59
REMARK SMILES IDX 25 60 33 61 26 62 32 63 27 64 28 65 29 66 30 67 31 68 54 69
REMARK SMILES IDX 55 70 63 71 56 72 62 73 57 74 58 75 59 76 60 77 61 78 40 79
REMARK SMILES IDX 41 80 49 81 42 82 48 83 43 84 44 85 45 86 46 87 47 88
REMARK H PARENT 8 7 1 15 1 16 12 25 68 44 38 55
REMARK Flexibility Score: inf
ROOT
ATOM      1  C   UNL A   1      34.030  27.604  26.475  1.00  0.00     0.118 C 
ENDROOT
BRANCH   1   2
ATOM      2  C   UNL A   1      33.029  26.949  25.529  1.00  0.00     0.042 C 
BRANCH   2   3
ATOM      3  C   UNL A   1      33.240  25.459  25.318  1.00  0.00     0.118 C 
BRANCH   3   4
ATOM      4  N   UNL A   1      33.720  25.048  24.017  1.00  0.00    -0.352 N 
ATOM      5  C   UNL A   1      33.874  23.789  23.487  1.00  0.00     0.255 C 
ATOM      6  O   UNL A   1      34.207  23.725  22.300  1.00  0.00    -0.269 OA
ATOM      7  H   UNL A   1      33.978  25.785  23.418  1.00  0.00     0.163 HD
BRANCH   5   8
ATOM      8  C   UNL A   1      33.769  22.513  24.236  1.00  0.00     0.084 A 
ATOM      9  C   UNL A   1      33.145  20.160  25.492  1.00  0.00     0.220 A 
ATOM     10  N   UNL A   1      32.196  20.730  24.758  1.00  0.00    -0.221 NA
ATOM     11  N   UNL A   1      34.365  20.666  25.662  1.00  0.00    -0.212 NA
ATOM     12  C   UNL A   1      32.530  21.895  24.156  1.00  0.00     0.131 A 
ATOM     13  C   UNL A   1      34.674  21.845  25.048  1.00  0.00     0.089 A 
BRANCH   9  14
ATOM     14  N   UNL A   1      32.867  18.970  26.094  1.00  0.00    -0.368 N 
ATOM     15  H   UNL A   1      33.596  18.431  26.479  1.00  0.00     0.159 HD
ATOM     16  H   UNL A   1      31.938  18.646  26.142  1.00  0.00     0.159 HD
ENDBRANCH   9  14
BRANCH  13  17
ATOM     17  C   UNL A   1      36.058  22.243  25.335  1.00  0.00     0.001 A 
ATOM     18  C   UNL A   1      37.153  21.395  25.116  1.00  0.00     0.010 A 
ATOM     19  C   UNL A   1      36.301  23.518  25.893  1.00  0.00     0.010 A 
ATOM     20  C   UNL A   1      38.435  21.773  25.537  1.00  0.00     0.001 A 
ATOM     21  C   UNL A   1      37.574  23.885  26.328  1.00  0.00     0.001 A 
ATOM     22  C   UNL A   1      38.638  23.004  26.165  1.00  0.00     0.000 A 
ENDBRANCH  13  17
ENDBRANCH   5   8
ENDBRANCH   3   4
ENDBRANCH   2   3
ENDBRANCH   1   2
BRANCH   1  23
ATOM     23  N   UNL A   1      33.665  28.947  26.921  1.00  0.00    -0.352 N 
ATOM     24  C   UNL A   1      34.326  29.945  27.597  1.00  0.00     0.251 C 
ATOM     25  H   UNL A   1      32.741  29.191  26.684  1.00  0.00     0.163 HD
ATOM     26  O   UNL A   1      33.691  30.957  27.899  1.00  0.00    -0.269 OA
BRANCH  24  27
ATOM     27  C   UNL A   1      35.743  29.830  28.025  1.00  0.00     0.039 A 
ATOM     28  C   UNL A   1      36.018  29.458  29.348  1.00  0.00     0.014 A 
ATOM     29  C   UNL A   1      36.808  30.101  27.174  1.00  0.00     0.014 A 
ATOM     30  C   UNL A   1      37.340  29.252  29.770  1.00  0.00     0.010 A 
ATOM     31  C   UNL A   1      38.110  29.778  27.553  1.00  0.00     0.010 A 
ATOM     32  C   UNL A   1      38.396  29.340  28.852  1.00  0.00    -0.014 A 
BRANCH  32  33
ATOM     33  C   UNL A   1      39.798  28.969  29.198  1.00  0.00     0.031 A 
ATOM     34  C   UNL A   1      40.733  30.000  29.783  1.00  0.00     0.074 A 
ATOM     35  C   UNL A   1      40.273  27.751  28.866  1.00  0.00     0.049 A 
ATOM     36  N   UNL A   1      42.030  29.942  29.949  1.00  0.00    -0.248 NA
ATOM     37  C   UNL A   1      40.135  31.283  30.192  1.00  0.00     0.031 C 
ATOM     38  C   UNL A   1      39.495  26.669  28.254  1.00  0.00     0.029 A 
ATOM     39  N   UNL A   1      41.536  27.222  28.975  1.00  0.00    -0.354 N 
ATOM     40  C   UNL A   1      42.407  31.190  30.432  1.00  0.00     0.074 A 
ATOM     41  C   UNL A   1      41.209  31.999  30.490  1.00  0.00     0.031 C 
ATOM     42  C   UNL A   1      40.288  25.604  28.067  1.00  0.00     0.029 A 
ATOM     43  C   UNL A   1      41.643  25.939  28.487  1.00  0.00     0.049 A 
ATOM     44  H   UNL A   1      42.294  27.713  29.366  1.00  0.00     0.167 HD
ATOM     45  C   UNL A   1      43.635  31.622  30.810  1.00  0.00     0.031 A 
ATOM     46  C   UNL A   1      42.712  25.127  28.367  1.00  0.00     0.031 A 
ATOM     47  C   UNL A   1      44.816  30.801  30.796  1.00  0.00     0.049 A 
ATOM     48  C   UNL A   1      44.061  25.621  28.810  1.00  0.00     0.074 A 
ATOM     49  C   UNL A   1      46.090  31.120  31.234  1.00  0.00     0.029 A 
ATOM     50  N   UNL A   1      44.868  29.497  30.332  1.00  0.00    -0.354 N 
ATOM     51  N   UNL A   1      44.387  26.790  29.307  1.00  0.00    -0.248 NA
ATOM     52  C   UNL A   1      45.187  24.685  28.676  1.00  0.00     0.031 C 
ATOM     53  C   UNL A   1      46.922  30.022  30.994  1.00  0.00     0.029 A 
ATOM     54  C   UNL A   1      46.155  29.002  30.455  1.00  0.00     0.049 A 
ATOM     55  H   UNL A   1      44.103  28.996  29.967  1.00  0.00     0.167 HD
ATOM     56  C   UNL A   1      45.751  26.722  29.567  1.00  0.00     0.074 A 
ATOM     57  C   UNL A   1      46.186  25.394  29.186  1.00  0.00     0.031 C 
ATOM     58  C   UNL A   1      46.571  27.676  30.073  1.00  0.00     0.031 A 
BRANCH  45  59
ATOM     59  C   UNL A   1      43.761  33.050  31.274  1.00  0.00    -0.014 A 
ATOM     60  C   UNL A   1      43.724  33.377  32.642  1.00  0.00     0.010 A 
ATOM     61  C   UNL A   1      43.952  34.079  30.333  1.00  0.00     0.010 A 
ATOM     62  C   UNL A   1      43.822  34.708  33.056  1.00  0.00     0.020 A 
ATOM     63  C   UNL A   1      44.082  35.409  30.744  1.00  0.00     0.020 A 
ATOM     64  C   UNL A   1      43.995  35.716  32.104  1.00  0.00     0.054 A 
BRANCH  64  65
ATOM     65  S   UNL A   1      44.134  37.434  32.671  1.00  0.00     0.124 S 
ATOM     66  O   UNL A   1      43.028  37.524  33.623  1.00  0.00    -0.237 OA
ATOM     67  O   UNL A   1      45.470  37.471  33.258  1.00  0.00    -0.237 OA
ATOM     68  O   UNL A   1      43.971  38.217  31.450  1.00  0.00    -0.744 OA
ENDBRANCH  64  65
ENDBRANCH  45  59
BRANCH  46  69
ATOM     69  C   UNL A   1      42.546  23.758  27.808  1.00  0.00    -0.014 A 
ATOM     70  C   UNL A   1      42.298  22.669  28.665  1.00  0.00     0.010 A 
ATOM     71  C   UNL A   1      42.616  23.533  26.422  1.00  0.00     0.010 A 
ATOM     72  C   UNL A   1      42.136  21.382  28.146  1.00  0.00     0.020 A 
ATOM     73  C   UNL A   1      42.429  22.251  25.896  1.00  0.00     0.020 A 
ATOM     74  C   UNL A   1      42.200  21.181  26.763  1.00  0.00     0.054 A 
BRANCH  74  75
ATOM     75  S   UNL A   1      41.930  19.510  26.110  1.00  0.00     0.124 S 
ATOM     76  O   UNL A   1      42.403  18.674  27.207  1.00  0.00    -0.237 OA
ATOM     77  O   UNL A   1      40.489  19.492  25.873  1.00  0.00    -0.237 OA
ATOM     78  O   UNL A   1      42.752  19.482  24.900  1.00  0.00    -0.744 OA
ENDBRANCH  74  75
ENDBRANCH  46  69
BRANCH  58  79
ATOM     79  C   UNL A   1      48.016  27.313  30.274  1.00  0.00    -0.014 A 
ATOM     80  C   UNL A   1      48.972  27.560  29.272  1.00  0.00     0.010 A 
ATOM     81  C   UNL A   1      48.433  26.783  31.508  1.00  0.00     0.010 A 
ATOM     82  C   UNL A   1      50.319  27.263  29.495  1.00  0.00     0.020 A 
ATOM     83  C   UNL A   1      49.783  26.509  31.744  1.00  0.00     0.020 A 
ATOM     84  C   UNL A   1      50.716  26.741  30.732  1.00  0.00     0.054 A 
BRANCH  84  85
ATOM     85  S   UNL A   1      52.478  26.421  31.017  1.00  0.00     0.124 S 
ATOM     86  O   UNL A   1      52.441  25.178  31.783  1.00  0.00    -0.237 OA
ATOM     87  O   UNL A   1      53.008  26.307  29.660  1.00  0.00    -0.237 OA
ATOM     88  O   UNL A   1      52.928  27.598  31.758  1.00  0.00    -0.744 OA
ENDBRANCH  84  85
ENDBRANCH  58  79
ENDBRANCH  32  33
ENDBRANCH  24  27
ENDBRANCH   1  23
TORSDOF 15
ENDMDL
