MODEL 1
REMARK VINA RESULT:      -9.1      0.000      0.000
REMARK SMILES C=CCN(CC(=O)NCCCNC(=O)c1ccc(-c2c3nc(c(-c4ccc(S(=O)(=O)[O-])cc4)c4ccc([nH]4)c(-c4ccc(S(=O)(=O)[O-])cc4)c4nc(c(-c5ccc(S(=O)(=O)[O-])cc5)c5ccc2[nH]5)C=C4)C=C3)cc1)C(=O)C[NH3+]
REMARK SMILES IDX 9 1 8 2 6 3 7 4 5 6 4 7 3 8 2 9 1 10 75 11 76 12 77 13 78 14
REMARK SMILES IDX 10 18 11 19 12 20 13 21 14 23 15 24 16 25 74 26 17 27 73 28
REMARK SMILES IDX 18 29 19 30 20 31 67 32 21 33 72 34 66 35 68 36 22 37 71 38
REMARK SMILES IDX 65 39 64 40 23 42 53 43 34 44 52 45 35 46 38 47 51 48 69 49
REMARK SMILES IDX 36 50 37 51 50 53 70 54 39 55 24 56 25 57 33 58 26 59 32 60
REMARK SMILES IDX 27 61 28 62 29 63 30 64 31 65 54 66 55 67 63 68 56 69 62 70
REMARK SMILES IDX 57 71 58 72 59 73 60 74 61 75 40 76 41 77 49 78 42 79 48 80
REMARK SMILES IDX 43 81 44 82 45 83 46 84 47 85
REMARK H PARENT 8 5 78 15 78 16 78 17 12 22 68 41 38 52
REMARK Flexibility Score: inf
ROOT
ATOM      1  C   UNL A   1      31.780  26.720  26.066  1.00  0.00     0.117 C 
ENDROOT
BRANCH   1   2
ATOM      2  N   UNL A   1      31.272  25.477  26.606  1.00  0.00    -0.354 N 
ATOM      3  C   UNL A   1      31.902  24.278  26.768  1.00  0.00     0.239 C 
ATOM      4  O   UNL A   1      31.329  23.432  27.461  1.00  0.00    -0.273 OA
ATOM      5  H   UNL A   1      30.334  25.500  26.901  1.00  0.00     0.163 HD
BRANCH   3   6
ATOM      6  C   UNL A   1      33.309  24.025  26.200  1.00  0.00     0.220 C 
BRANCH   6   7
ATOM      7  N   UNL A   1      33.354  23.138  25.029  1.00  0.00    -0.325 N 
BRANCH   7   8
ATOM      8  C   UNL A   1      33.838  23.682  23.765  1.00  0.00     0.147 C 
BRANCH   8   9
ATOM      9  C   UNL A   1      33.792  25.181  23.766  1.00  0.00    -0.014 C 
ATOM     10  C   UNL A   1      33.588  25.904  22.655  1.00  0.00     0.006 C 
ENDBRANCH   8   9
ENDBRANCH   7   8
BRANCH   7  11
ATOM     11  C   UNL A   1      32.981  21.794  25.070  1.00  0.00     0.278 C 
ATOM     12  O   UNL A   1      32.100  21.342  24.333  1.00  0.00    -0.268 OA
BRANCH  11  13
ATOM     13  C   UNL A   1      33.642  20.859  26.093  1.00  0.00     0.360 C 
BRANCH  13  14
ATOM     14  N   UNL A   1      34.833  20.196  25.539  1.00  0.00    -0.350 N 
ATOM     15  H   UNL A   1      34.666  19.192  25.479  1.00  0.00     0.344 HD
ATOM     16  H   UNL A   1      35.633  20.373  26.145  1.00  0.00     0.344 HD
ATOM     17  H   UNL A   1      35.024  20.565  24.608  1.00  0.00     0.344 HD
ENDBRANCH  13  14
ENDBRANCH  11  13
ENDBRANCH   7  11
ENDBRANCH   6   7
ENDBRANCH   3   6
ENDBRANCH   1   2
BRANCH   1  18
ATOM     18  C   UNL A   1      31.971  27.795  27.130  1.00  0.00     0.042 C 
BRANCH  18  19
ATOM     19  C   UNL A   1      33.370  28.403  27.159  1.00  0.00     0.118 C 
BRANCH  19  20
ATOM     20  N   UNL A   1      33.353  29.846  27.366  1.00  0.00    -0.352 N 
ATOM     21  C   UNL A   1      34.291  30.674  27.929  1.00  0.00     0.251 C 
ATOM     22  H   UNL A   1      32.538  30.298  27.048  1.00  0.00     0.163 HD
ATOM     23  O   UNL A   1      33.986  31.840  28.182  1.00  0.00    -0.269 OA
BRANCH  21  24
ATOM     24  C   UNL A   1      35.645  30.178  28.249  1.00  0.00     0.039 A 
ATOM     25  C   UNL A   1      36.615  30.164  27.242  1.00  0.00     0.014 A 
ATOM     26  C   UNL A   1      35.958  29.704  29.525  1.00  0.00     0.014 A 
ATOM     27  C   UNL A   1      37.916  29.746  27.536  1.00  0.00     0.010 A 
ATOM     28  C   UNL A   1      37.272  29.361  29.836  1.00  0.00     0.010 A 
ATOM     29  C   UNL A   1      38.266  29.381  28.846  1.00  0.00    -0.014 A 
BRANCH  29  30
ATOM     30  C   UNL A   1      39.666  29.039  29.208  1.00  0.00     0.031 A 
ATOM     31  C   UNL A   1      40.558  30.063  29.857  1.00  0.00     0.074 A 
ATOM     32  C   UNL A   1      40.157  27.826  28.883  1.00  0.00     0.049 A 
ATOM     33  N   UNL A   1      41.825  29.971  30.171  1.00  0.00    -0.248 NA
ATOM     34  C   UNL A   1      39.954  31.368  30.172  1.00  0.00     0.031 C 
ATOM     35  C   UNL A   1      39.404  26.757  28.220  1.00  0.00     0.029 A 
ATOM     36  N   UNL A   1      41.408  27.289  29.055  1.00  0.00    -0.354 N 
ATOM     37  C   UNL A   1      42.174  31.207  30.704  1.00  0.00     0.074 A 
ATOM     38  C   UNL A   1      40.997  32.046  30.627  1.00  0.00     0.031 C 
ATOM     39  C   UNL A   1      40.201  25.688  28.064  1.00  0.00     0.029 A 
ATOM     40  C   UNL A   1      41.533  26.008  28.566  1.00  0.00     0.049 A 
ATOM     41  H   UNL A   1      42.148  27.775  29.487  1.00  0.00     0.167 HD
ATOM     42  C   UNL A   1      43.361  31.603  31.225  1.00  0.00     0.031 A 
ATOM     43  C   UNL A   1      42.601  25.188  28.513  1.00  0.00     0.031 A 
ATOM     44  C   UNL A   1      44.526  30.762  31.300  1.00  0.00     0.049 A 
ATOM     45  C   UNL A   1      43.916  25.661  29.070  1.00  0.00     0.074 A 
ATOM     46  C   UNL A   1      45.759  31.052  31.859  1.00  0.00     0.029 A 
ATOM     47  N   UNL A   1      44.610  29.472  30.797  1.00  0.00    -0.354 N 
ATOM     48  N   UNL A   1      44.207  26.809  29.634  1.00  0.00    -0.248 NA
ATOM     49  C   UNL A   1      45.046  24.724  28.991  1.00  0.00     0.031 C 
ATOM     50  C   UNL A   1      46.606  29.962  31.637  1.00  0.00     0.029 A 
ATOM     51  C   UNL A   1      45.882  28.965  31.003  1.00  0.00     0.049 A 
ATOM     52  H   UNL A   1      43.874  28.988  30.358  1.00  0.00     0.167 HD
ATOM     53  C   UNL A   1      45.545  26.721  30.002  1.00  0.00     0.074 A 
ATOM     54  C   UNL A   1      46.001  25.404  29.612  1.00  0.00     0.031 C 
ATOM     55  C   UNL A   1      46.324  27.650  30.611  1.00  0.00     0.031 A 
BRANCH  42  56
ATOM     56  C   UNL A   1      43.462  33.014  31.743  1.00  0.00    -0.014 A 
ATOM     57  C   UNL A   1      43.126  33.327  33.074  1.00  0.00     0.010 A 
ATOM     58  C   UNL A   1      43.948  34.034  30.905  1.00  0.00     0.010 A 
ATOM     59  C   UNL A   1      43.233  34.640  33.540  1.00  0.00     0.020 A 
ATOM     60  C   UNL A   1      44.087  35.342  31.377  1.00  0.00     0.020 A 
ATOM     61  C   UNL A   1      43.712  35.639  32.688  1.00  0.00     0.054 A 
BRANCH  61  62
ATOM     62  S   UNL A   1      43.863  37.329  33.331  1.00  0.00     0.124 S 
ATOM     63  O   UNL A   1      45.171  37.289  33.979  1.00  0.00    -0.237 OA
ATOM     64  O   UNL A   1      43.789  38.140  32.118  1.00  0.00    -0.237 OA
ATOM     65  O   UNL A   1      42.725  37.461  34.236  1.00  0.00    -0.744 OA
ENDBRANCH  61  62
ENDBRANCH  42  56
BRANCH  43  66
ATOM     66  C   UNL A   1      42.467  23.833  27.909  1.00  0.00    -0.014 A 
ATOM     67  C   UNL A   1      42.734  23.630  26.544  1.00  0.00     0.010 A 
ATOM     68  C   UNL A   1      42.083  22.735  28.700  1.00  0.00     0.010 A 
ATOM     69  C   UNL A   1      42.601  22.359  25.977  1.00  0.00     0.020 A 
ATOM     70  C   UNL A   1      41.979  21.456  28.143  1.00  0.00     0.020 A 
ATOM     71  C   UNL A   1      42.228  21.278  26.782  1.00  0.00     0.054 A 
BRANCH  71  72
ATOM     72  S   UNL A   1      42.111  19.631  26.033  1.00  0.00     0.124 S 
ATOM     73  O   UNL A   1      40.690  19.541  25.714  1.00  0.00    -0.237 OA
ATOM     74  O   UNL A   1      43.013  19.741  24.889  1.00  0.00    -0.237 OA
ATOM     75  O   UNL A   1      42.572  18.738  27.095  1.00  0.00    -0.744 OA
ENDBRANCH  71  72
ENDBRANCH  43  66
BRANCH  55  76
ATOM     76  C   UNL A   1      47.746  27.267  30.927  1.00  0.00    -0.014 A 
ATOM     77  C   UNL A   1      48.080  26.625  32.132  1.00  0.00     0.010 A 
ATOM     78  C   UNL A   1      48.752  27.493  29.968  1.00  0.00     0.010 A 
ATOM     79  C   UNL A   1      49.400  26.236  32.383  1.00  0.00     0.020 A 
ATOM     80  C   UNL A   1      50.065  27.079  30.203  1.00  0.00     0.020 A 
ATOM     81  C   UNL A   1      50.383  26.462  31.415  1.00  0.00     0.054 A 
BRANCH  81  82
ATOM     82  S   UNL A   1      52.074  25.894  31.740  1.00  0.00     0.124 S 
ATOM     83  O   UNL A   1      52.479  26.758  32.846  1.00  0.00    -0.237 OA
ATOM     84  O   UNL A   1      51.879  24.488  32.082  1.00  0.00    -0.237 OA
ATOM     85  O   UNL A   1      52.770  26.131  30.478  1.00  0.00    -0.744 OA
ENDBRANCH  81  82
ENDBRANCH  55  76
ENDBRANCH  29  30
ENDBRANCH  21  24
ENDBRANCH  19  20
ENDBRANCH  18  19
ENDBRANCH   1  18
TORSDOF 19
ENDMDL
MODEL 2
REMARK VINA RESULT:      -8.8      2.550      9.213
REMARK SMILES C=CCN(CC(=O)NCCCNC(=O)c1ccc(-c2c3nc(c(-c4ccc(S(=O)(=O)[O-])cc4)c4ccc([nH]4)c(-c4ccc(S(=O)(=O)[O-])cc4)c4nc(c(-c5ccc(S(=O)(=O)[O-])cc5)c5ccc2[nH]5)C=C4)C=C3)cc1)C(=O)C[NH3+]
REMARK SMILES IDX 9 1 8 2 6 3 7 4 5 6 4 7 3 8 2 9 1 10 75 11 76 12 77 13 78 14
REMARK SMILES IDX 10 18 11 19 12 20 13 21 14 23 15 24 16 25 74 26 17 27 73 28
REMARK SMILES IDX 18 29 19 30 20 31 67 32 21 33 72 34 66 35 68 36 22 37 71 38
REMARK SMILES IDX 65 39 64 40 23 42 53 43 34 44 52 45 35 46 38 47 51 48 69 49
REMARK SMILES IDX 36 50 37 51 50 53 70 54 39 55 24 56 25 57 33 58 26 59 32 60
REMARK SMILES IDX 27 61 28 62 29 63 30 64 31 65 54 66 55 67 63 68 56 69 62 70
REMARK SMILES IDX 57 71 58 72 59 73 60 74 61 75 40 76 41 77 49 78 42 79 48 80
REMARK SMILES IDX 43 81 44 82 45 83 46 84 47 85
REMARK H PARENT 8 5 78 15 78 16 78 17 12 22 68 41 38 52
REMARK Flexibility Score: inf
ROOT
ATOM      1  C   UNL A   1      34.560  23.123  25.876  1.00  0.00     0.117 C 
ENDROOT
BRANCH   1   2
ATOM      2  N   UNL A   1      33.478  23.514  26.754  1.00  0.00    -0.354 N 
ATOM      3  C   UNL A   1      32.142  23.611  26.497  1.00  0.00     0.239 C 
ATOM      4  O   UNL A   1      31.391  23.743  27.469  1.00  0.00    -0.273 OA
ATOM      5  H   UNL A   1      33.745  23.742  27.673  1.00  0.00     0.163 HD
BRANCH   3   6
ATOM      6  C   UNL A   1      31.583  23.459  25.071  1.00  0.00     0.220 C 
BRANCH   6   7
ATOM      7  N   UNL A   1      31.245  24.723  24.401  1.00  0.00    -0.325 N 
BRANCH   7   8
ATOM      8  C   UNL A   1      31.541  24.853  22.978  1.00  0.00     0.147 C 
BRANCH   8   9
ATOM      9  C   UNL A   1      33.006  24.680  22.710  1.00  0.00    -0.014 C 
ATOM     10  C   UNL A   1      33.927  25.576  23.095  1.00  0.00     0.006 C 
ENDBRANCH   8   9
ENDBRANCH   7   8
BRANCH   7  11
ATOM     11  C   UNL A   1      30.633  25.795  25.049  1.00  0.00     0.278 C 
ATOM     12  O   UNL A   1      29.406  25.909  25.102  1.00  0.00    -0.268 OA
BRANCH  11  13
ATOM     13  C   UNL A   1      31.505  26.897  25.670  1.00  0.00     0.360 C 
BRANCH  13  14
ATOM     14  N   UNL A   1      31.233  27.065  27.106  1.00  0.00    -0.350 N 
ATOM     15  H   UNL A   1      31.404  26.184  27.590  1.00  0.00     0.344 HD
ATOM     16  H   UNL A   1      30.261  27.343  27.238  1.00  0.00     0.344 HD
ATOM     17  H   UNL A   1      31.847  27.786  27.486  1.00  0.00     0.344 HD
ENDBRANCH  13  14
ENDBRANCH  11  13
ENDBRANCH   7  11
ENDBRANCH   6   7
ENDBRANCH   3   6
ENDBRANCH   1   2
BRANCH   1  18
ATOM     18  C   UNL A   1      35.808  23.980  26.055  1.00  0.00     0.042 C 
BRANCH  18  19
ATOM     19  C   UNL A   1      36.875  23.759  24.987  1.00  0.00     0.118 C 
BRANCH  19  20
ATOM     20  N   UNL A   1      37.871  22.771  25.383  1.00  0.00    -0.352 N 
ATOM     21  C   UNL A   1      39.040  22.920  26.086  1.00  0.00     0.251 C 
ATOM     22  H   UNL A   1      37.672  21.848  25.102  1.00  0.00     0.163 HD
ATOM     23  O   UNL A   1      39.832  21.978  26.139  1.00  0.00    -0.269 OA
BRANCH  21  24
ATOM     24  C   UNL A   1      39.362  24.195  26.759  1.00  0.00     0.039 A 
ATOM     25  C   UNL A   1      38.907  24.404  28.064  1.00  0.00     0.014 A 
ATOM     26  C   UNL A   1      40.086  25.194  26.104  1.00  0.00     0.014 A 
ATOM     27  C   UNL A   1      39.242  25.583  28.736  1.00  0.00     0.010 A 
ATOM     28  C   UNL A   1      40.485  26.333  26.801  1.00  0.00     0.010 A 
ATOM     29  C   UNL A   1      40.070  26.538  28.125  1.00  0.00    -0.014 A 
BRANCH  29  30
ATOM     30  C   UNL A   1      40.531  27.747  28.858  1.00  0.00     0.031 A 
ATOM     31  C   UNL A   1      41.875  27.760  29.535  1.00  0.00     0.074 A 
ATOM     32  C   UNL A   1      39.706  28.806  28.975  1.00  0.00     0.049 A 
ATOM     33  N   UNL A   1      42.411  28.691  30.283  1.00  0.00    -0.248 NA
ATOM     34  C   UNL A   1      42.716  26.563  29.372  1.00  0.00     0.031 C 
ATOM     35  C   UNL A   1      38.364  28.902  28.393  1.00  0.00     0.029 A 
ATOM     36  N   UNL A   1      39.867  30.001  29.630  1.00  0.00    -0.354 N 
ATOM     37  C   UNL A   1      43.641  28.188  30.692  1.00  0.00     0.074 A 
ATOM     38  C   UNL A   1      43.751  26.851  30.148  1.00  0.00     0.031 C 
ATOM     39  C   UNL A   1      37.836  30.099  28.699  1.00  0.00     0.029 A 
ATOM     40  C   UNL A   1      38.776  30.835  29.538  1.00  0.00     0.049 A 
ATOM     41  H   UNL A   1      40.687  30.239  30.121  1.00  0.00     0.167 HD
ATOM     42  C   UNL A   1      44.599  28.789  31.438  1.00  0.00     0.031 A 
ATOM     43  C   UNL A   1      38.548  32.048  30.079  1.00  0.00     0.031 A 
ATOM     44  C   UNL A   1      44.484  30.119  31.975  1.00  0.00     0.049 A 
ATOM     45  C   UNL A   1      39.615  32.682  30.930  1.00  0.00     0.074 A 
ATOM     46  C   UNL A   1      45.421  30.838  32.697  1.00  0.00     0.029 A 
ATOM     47  N   UNL A   1      43.364  30.930  31.856  1.00  0.00    -0.354 N 
ATOM     48  N   UNL A   1      40.800  32.217  31.246  1.00  0.00    -0.248 NA
ATOM     49  C   UNL A   1      39.316  34.007  31.490  1.00  0.00     0.031 C 
ATOM     50  C   UNL A   1      44.845  32.056  33.069  1.00  0.00     0.029 A 
ATOM     51  C   UNL A   1      43.575  32.128  32.519  1.00  0.00     0.049 A 
ATOM     52  H   UNL A   1      42.541  30.690  31.372  1.00  0.00     0.167 HD
ATOM     53  C   UNL A   1      41.399  33.207  32.019  1.00  0.00     0.074 A 
ATOM     54  C   UNL A   1      40.453  34.298  32.109  1.00  0.00     0.031 C 
ATOM     55  C   UNL A   1      42.625  33.209  32.601  1.00  0.00     0.031 A 
BRANCH  42  56
ATOM     56  C   UNL A   1      45.852  28.006  31.731  1.00  0.00    -0.014 A 
ATOM     57  C   UNL A   1      45.986  27.263  32.920  1.00  0.00     0.010 A 
ATOM     58  C   UNL A   1      46.892  27.970  30.785  1.00  0.00     0.010 A 
ATOM     59  C   UNL A   1      47.153  26.536  33.173  1.00  0.00     0.020 A 
ATOM     60  C   UNL A   1      48.047  27.218  31.020  1.00  0.00     0.020 A 
ATOM     61  C   UNL A   1      48.176  26.520  32.221  1.00  0.00     0.054 A 
BRANCH  61  62
ATOM     62  S   UNL A   1      49.668  25.547  32.567  1.00  0.00     0.124 S 
ATOM     63  O   UNL A   1      50.142  25.234  31.222  1.00  0.00    -0.237 OA
ATOM     64  O   UNL A   1      50.495  26.488  33.320  1.00  0.00    -0.237 OA
ATOM     65  O   UNL A   1      49.171  24.407  33.332  1.00  0.00    -0.744 OA
ENDBRANCH  61  62
ENDBRANCH  42  56
BRANCH  43  66
ATOM     66  C   UNL A   1      37.254  32.741  29.829  1.00  0.00    -0.014 A 
ATOM     67  C   UNL A   1      37.066  33.504  28.664  1.00  0.00     0.010 A 
ATOM     68  C   UNL A   1      36.197  32.634  30.752  1.00  0.00     0.010 A 
ATOM     69  C   UNL A   1      35.853  34.160  28.433  1.00  0.00     0.020 A 
ATOM     70  C   UNL A   1      34.972  33.263  30.510  1.00  0.00     0.020 A 
ATOM     71  C   UNL A   1      34.812  34.032  29.357  1.00  0.00     0.054 A 
BRANCH  71  72
ATOM     72  S   UNL A   1      33.232  34.853  29.011  1.00  0.00     0.124 S 
ATOM     73  O   UNL A   1      32.581  34.826  30.317  1.00  0.00    -0.237 OA
ATOM     74  O   UNL A   1      33.657  36.169  28.541  1.00  0.00    -0.237 OA
ATOM     75  O   UNL A   1      32.621  34.004  27.990  1.00  0.00    -0.744 OA
ENDBRANCH  71  72
ENDBRANCH  43  66
BRANCH  55  76
ATOM     76  C   UNL A   1      43.034  34.443  33.360  1.00  0.00    -0.014 A 
ATOM     77  C   UNL A   1      42.836  34.547  34.749  1.00  0.00     0.010 A 
ATOM     78  C   UNL A   1      43.690  35.487  32.681  1.00  0.00     0.010 A 
ATOM     79  C   UNL A   1      43.267  35.683  35.440  1.00  0.00     0.020 A 
ATOM     80  C   UNL A   1      44.149  36.610  33.374  1.00  0.00     0.020 A 
ATOM     81  C   UNL A   1      43.924  36.705  34.749  1.00  0.00     0.054 A 
BRANCH  81  82
ATOM     82  S   UNL A   1      44.527  38.140  35.680  1.00  0.00     0.124 S 
ATOM     83  O   UNL A   1      44.084  39.254  34.845  1.00  0.00    -0.237 OA
ATOM     84  O   UNL A   1      43.837  38.003  36.961  1.00  0.00    -0.237 OA
ATOM     85  O   UNL A   1      45.973  37.938  35.734  1.00  0.00    -0.744 OA
ENDBRANCH  81  82
ENDBRANCH  55  76
ENDBRANCH  29  30
ENDBRANCH  21  24
ENDBRANCH  19  20
ENDBRANCH  18  19
ENDBRANCH   1  18
TORSDOF 19
ENDMDL
MODEL 3
REMARK VINA RESULT:      -8.8      3.144      4.056
REMARK SMILES C=CCN(CC(=O)NCCCNC(=O)c1ccc(-c2c3nc(c(-c4ccc(S(=O)(=O)[O-])cc4)c4ccc([nH]4)c(-c4ccc(S(=O)(=O)[O-])cc4)c4nc(c(-c5ccc(S(=O)(=O)[O-])cc5)c5ccc2[nH]5)C=C4)C=C3)cc1)C(=O)C[NH3+]
REMARK SMILES IDX 9 1 8 2 6 3 7 4 5 6 4 7 3 8 2 9 1 10 75 11 76 12 77 13 78 14
REMARK SMILES IDX 10 18 11 19 12 20 13 21 14 23 15 24 16 25 74 26 17 27 73 28
REMARK SMILES IDX 18 29 19 30 20 31 67 32 21 33 72 34 66 35 68 36 22 37 71 38
REMARK SMILES IDX 65 39 64 40 23 42 53 43 34 44 52 45 35 46 38 47 51 48 69 49
REMARK SMILES IDX 36 50 37 51 50 53 70 54 39 55 24 56 25 57 33 58 26 59 32 60
REMARK SMILES IDX 27 61 28 62 29 63 30 64 31 65 54 66 55 67 63 68 56 69 62 70
REMARK SMILES IDX 57 71 58 72 59 73 60 74 61 75 40 76 41 77 49 78 42 79 48 80
REMARK SMILES IDX 43 81 44 82 45 83 46 84 47 85
REMARK H PARENT 8 5 78 15 78 16 78 17 12 22 68 41 38 52
REMARK Flexibility Score: inf
ROOT
ATOM      1  C   UNL A   1      32.906  30.051  27.128  1.00  0.00     0.117 C 
ENDROOT
BRANCH   1   2
ATOM      2  N   UNL A   1      32.313  28.779  27.480  1.00  0.00    -0.354 N 
ATOM      3  C   UNL A   1      31.610  27.903  26.706  1.00  0.00     0.239 C 
ATOM      4  O   UNL A   1      31.405  26.779  27.175  1.00  0.00    -0.273 OA
ATOM      5  H   UNL A   1      32.437  28.503  28.417  1.00  0.00     0.163 HD
BRANCH   3   6
ATOM      6  C   UNL A   1      31.180  28.262  25.273  1.00  0.00     0.220 C 
BRANCH   6   7
ATOM      7  N   UNL A   1      31.767  27.419  24.221  1.00  0.00    -0.325 N 
BRANCH   7   8
ATOM      8  C   UNL A   1      33.220  27.316  24.146  1.00  0.00     0.147 C 
BRANCH   8   9
ATOM      9  C   UNL A   1      33.683  25.925  24.461  1.00  0.00    -0.014 C 
ATOM     10  C   UNL A   1      34.366  25.620  25.574  1.00  0.00     0.006 C 
ENDBRANCH   8   9
ENDBRANCH   7   8
BRANCH   7  11
ATOM     11  C   UNL A   1      31.004  26.694  23.305  1.00  0.00     0.278 C 
ATOM     12  O   UNL A   1      31.209  26.762  22.090  1.00  0.00    -0.268 OA
BRANCH  11  13
ATOM     13  C   UNL A   1      29.842  25.826  23.812  1.00  0.00     0.360 C 
BRANCH  13  14
ATOM     14  N   UNL A   1      30.297  24.813  24.776  1.00  0.00    -0.350 N 
ATOM     15  H   UNL A   1      30.900  24.140  24.304  1.00  0.00     0.344 HD
ATOM     16  H   UNL A   1      29.489  24.329  25.168  1.00  0.00     0.344 HD
ATOM     17  H   UNL A   1      30.817  25.267  25.527  1.00  0.00     0.344 HD
ENDBRANCH  13  14
ENDBRANCH  11  13
ENDBRANCH   7  11
ENDBRANCH   6   7
ENDBRANCH   3   6
ENDBRANCH   1   2
BRANCH   1  18
ATOM     18  C   UNL A   1      34.397  29.949  26.829  1.00  0.00     0.042 C 
BRANCH  18  19
ATOM     19  C   UNL A   1      35.218  29.330  27.956  1.00  0.00     0.118 C 
BRANCH  19  20
ATOM     20  N   UNL A   1      35.359  30.218  29.103  1.00  0.00    -0.352 N 
ATOM     21  C   UNL A   1      36.434  30.443  29.926  1.00  0.00     0.251 C 
ATOM     22  H   UNL A   1      34.554  30.741  29.322  1.00  0.00     0.163 HD
ATOM     23  O   UNL A   1      36.272  31.093  30.960  1.00  0.00    -0.269 OA
BRANCH  21  24
ATOM     24  C   UNL A   1      37.769  29.903  29.593  1.00  0.00     0.039 A 
ATOM     25  C   UNL A   1      38.208  29.955  28.267  1.00  0.00     0.014 A 
ATOM     26  C   UNL A   1      38.577  29.324  30.574  1.00  0.00     0.014 A 
ATOM     27  C   UNL A   1      39.486  29.496  27.940  1.00  0.00     0.010 A 
ATOM     28  C   UNL A   1      39.879  28.938  30.261  1.00  0.00     0.010 A 
ATOM     29  C   UNL A   1      40.349  29.022  28.942  1.00  0.00    -0.014 A 
BRANCH  29  30
ATOM     30  C   UNL A   1      41.750  28.631  28.638  1.00  0.00     0.031 A 
ATOM     31  C   UNL A   1      42.845  29.663  28.630  1.00  0.00     0.074 A 
ATOM     32  C   UNL A   1      42.023  27.356  28.295  1.00  0.00     0.049 A 
ATOM     33  N   UNL A   1      44.107  29.524  28.313  1.00  0.00    -0.248 NA
ATOM     34  C   UNL A   1      42.468  31.037  29.005  1.00  0.00     0.031 C 
ATOM     35  C   UNL A   1      41.043  26.268  28.231  1.00  0.00     0.029 A 
ATOM     36  N   UNL A   1      43.202  26.759  27.925  1.00  0.00    -0.354 N 
ATOM     37  C   UNL A   1      44.670  30.789  28.432  1.00  0.00     0.074 A 
ATOM     38  C   UNL A   1      43.603  31.692  28.806  1.00  0.00     0.031 C 
ATOM     39  C   UNL A   1      41.665  25.135  27.868  1.00  0.00     0.029 A 
ATOM     40  C   UNL A   1      43.075  25.422  27.624  1.00  0.00     0.049 A 
ATOM     41  H   UNL A   1      44.059  27.242  27.879  1.00  0.00     0.167 HD
ATOM     42  C   UNL A   1      45.962  31.163  28.262  1.00  0.00     0.031 A 
ATOM     43  C   UNL A   1      43.985  24.529  27.186  1.00  0.00     0.031 A 
ATOM     44  C   UNL A   1      47.019  30.260  27.893  1.00  0.00     0.049 A 
ATOM     45  C   UNL A   1      45.406  24.975  26.976  1.00  0.00     0.074 A 
ATOM     46  C   UNL A   1      48.369  30.530  27.749  1.00  0.00     0.029 A 
ATOM     47  N   UNL A   1      46.849  28.914  27.600  1.00  0.00    -0.354 N 
ATOM     48  N   UNL A   1      45.933  26.162  27.163  1.00  0.00    -0.248 NA
ATOM     49  C   UNL A   1      46.357  23.960  26.503  1.00  0.00     0.031 C 
ATOM     50  C   UNL A   1      49.004  29.365  27.309  1.00  0.00     0.029 A 
ATOM     51  C   UNL A   1      48.062  28.349  27.246  1.00  0.00     0.049 A 
ATOM     52  H   UNL A   1      45.991  28.432  27.639  1.00  0.00     0.167 HD
ATOM     53  C   UNL A   1      47.283  26.028  26.858  1.00  0.00     0.074 A 
ATOM     54  C   UNL A   1      47.494  24.644  26.490  1.00  0.00     0.031 C 
ATOM     55  C   UNL A   1      48.260  26.969  26.882  1.00  0.00     0.031 A 
BRANCH  42  56
ATOM     56  C   UNL A   1      46.302  32.617  28.462  1.00  0.00    -0.014 A 
ATOM     57  C   UNL A   1      46.336  33.514  27.377  1.00  0.00     0.010 A 
ATOM     58  C   UNL A   1      46.542  33.108  29.759  1.00  0.00     0.010 A 
ATOM     59  C   UNL A   1      46.646  34.861  27.581  1.00  0.00     0.020 A 
ATOM     60  C   UNL A   1      46.820  34.461  29.971  1.00  0.00     0.020 A 
ATOM     61  C   UNL A   1      46.887  35.326  28.877  1.00  0.00     0.054 A 
BRANCH  61  62
ATOM     62  S   UNL A   1      47.262  37.085  29.112  1.00  0.00     0.124 S 
ATOM     63  O   UNL A   1      47.632  37.497  27.761  1.00  0.00    -0.237 OA
ATOM     64  O   UNL A   1      45.995  37.619  29.605  1.00  0.00    -0.237 OA
ATOM     65  O   UNL A   1      48.354  37.082  30.082  1.00  0.00    -0.744 OA
ENDBRANCH  61  62
ENDBRANCH  42  56
BRANCH  43  66
ATOM     66  C   UNL A   1      43.576  23.123  26.919  1.00  0.00    -0.014 A 
ATOM     67  C   UNL A   1      43.855  22.520  25.680  1.00  0.00     0.010 A 
ATOM     68  C   UNL A   1      42.913  22.372  27.908  1.00  0.00     0.010 A 
ATOM     69  C   UNL A   1      43.464  21.201  25.428  1.00  0.00     0.020 A 
ATOM     70  C   UNL A   1      42.549  21.043  27.672  1.00  0.00     0.020 A 
ATOM     71  C   UNL A   1      42.816  20.470  26.428  1.00  0.00     0.054 A 
BRANCH  71  72
ATOM     72  S   UNL A   1      42.364  18.745  26.094  1.00  0.00     0.124 S 
ATOM     73  O   UNL A   1      40.960  18.865  25.717  1.00  0.00    -0.237 OA
ATOM     74  O   UNL A   1      43.281  18.382  25.017  1.00  0.00    -0.237 OA
ATOM     75  O   UNL A   1      42.615  18.072  27.367  1.00  0.00    -0.744 OA
ENDBRANCH  71  72
ENDBRANCH  43  66
BRANCH  55  76
ATOM     76  C   UNL A   1      49.658  26.531  26.533  1.00  0.00    -0.014 A 
ATOM     77  C   UNL A   1      50.145  26.615  25.216  1.00  0.00     0.010 A 
ATOM     78  C   UNL A   1      50.521  26.093  27.556  1.00  0.00     0.010 A 
ATOM     79  C   UNL A   1      51.461  26.247  24.925  1.00  0.00     0.020 A 
ATOM     80  C   UNL A   1      51.847  25.755  27.274  1.00  0.00     0.020 A 
ATOM     81  C   UNL A   1      52.305  25.823  25.956  1.00  0.00     0.054 A 
BRANCH  81  82
ATOM     82  S   UNL A   1      54.026  25.410  25.561  1.00  0.00     0.124 S 
ATOM     83  O   UNL A   1      54.585  25.134  26.882  1.00  0.00    -0.237 OA
ATOM     84  O   UNL A   1      53.883  24.250  24.685  1.00  0.00    -0.237 OA
ATOM     85  O   UNL A   1      54.533  26.615  24.910  1.00  0.00    -0.744 OA
ENDBRANCH  81  82
ENDBRANCH  55  76
ENDBRANCH  29  30
ENDBRANCH  21  24
ENDBRANCH  19  20
ENDBRANCH  18  19
ENDBRANCH   1  18
TORSDOF 19
ENDMDL
