MODEL 1
REMARK VINA RESULT:     -11.0      0.000      0.000
REMARK SMILES COCCCN1C(=O)CC[C@@H](C(=O)NCCCNC(=O)c2ccc(-c3c4nc(c(-c5ccc(S(=O)(=O)[O-])cc5)c5ccc([nH]5)c(-c5ccc(S(=O)(=O)[O-])cc5)c5nc(c(-c6ccc(S(=O)(=O)[O-])cc6)c6ccc3[nH]6)C=C5)C=C4)cc2)[C@@H]1c1ccc(F)cc1
REMARK SMILES IDX 15 1 14 2 12 3 13 4 11 6 6 7 7 8 81 9 8 10 9 11 10 12 5 13
REMARK SMILES IDX 4 14 3 15 2 16 1 17 82 18 83 19 88 20 84 21 87 22 85 23
REMARK SMILES IDX 86 24 16 25 17 26 18 27 19 28 20 30 21 31 22 32 80 33 23 34
REMARK SMILES IDX 79 35 24 36 25 37 26 38 73 39 27 40 78 41 72 42 74 43 28 44
REMARK SMILES IDX 77 45 71 46 70 47 29 49 59 50 40 51 58 52 41 53 44 54 57 55
REMARK SMILES IDX 75 56 42 57 43 58 56 60 76 61 45 62 30 63 31 64 39 65 32 66
REMARK SMILES IDX 38 67 33 68 34 69 35 70 36 71 37 72 60 73 61 74 69 75 62 76
REMARK SMILES IDX 68 77 63 78 64 79 65 80 66 81 67 82 46 83 47 84 55 85 48 86
REMARK SMILES IDX 54 87 49 88 50 89 51 90 52 91 53 92
REMARK H PARENT 14 5 18 29 74 48 44 59
REMARK Flexibility Score: inf
ROOT
ATOM      1  C   UNL A   1      31.595  27.833  25.727  1.00  0.00     0.117 C 
ENDROOT
BRANCH   1   2
ATOM      2  N   UNL A   1      31.003  26.540  25.437  1.00  0.00    -0.356 N 
ATOM      3  C   UNL A   1      31.572  25.369  25.032  1.00  0.00     0.225 C 
ATOM      4  O   UNL A   1      30.813  24.434  24.777  1.00  0.00    -0.275 OA
ATOM      5  H   UNL A   1      30.026  26.502  25.552  1.00  0.00     0.163 HD
BRANCH   3   6
ATOM      6  C   UNL A   1      33.088  25.255  24.894  1.00  0.00     0.106 C 
ATOM      7  N   UNL A   1      33.098  23.627  22.999  1.00  0.00    -0.335 N 
ATOM      8  C   UNL A   1      33.164  24.618  22.030  1.00  0.00     0.223 C 
ATOM      9  C   UNL A   1      33.497  23.862  24.391  1.00  0.00     0.128 C 
ATOM     10  O   UNL A   1      33.038  24.369  20.829  1.00  0.00    -0.275 OA
ATOM     11  C   UNL A   1      33.312  26.060  22.484  1.00  0.00     0.101 C 
ATOM     12  C   UNL A   1      33.663  26.308  23.945  1.00  0.00     0.026 C 
BRANCH   7  13
ATOM     13  C   UNL A   1      32.578  22.303  22.618  1.00  0.00     0.122 C 
BRANCH  13  14
ATOM     14  C   UNL A   1      32.353  21.313  23.762  1.00  0.00     0.050 C 
BRANCH  14  15
ATOM     15  C   UNL A   1      32.636  19.840  23.464  1.00  0.00     0.161 C 
BRANCH  15  16
ATOM     16  O   UNL A   1      32.027  18.961  24.406  1.00  0.00    -0.385 OA
ATOM     17  C   UNL A   1      32.822  18.688  25.551  1.00  0.00     0.194 C 
ENDBRANCH  15  16
ENDBRANCH  14  15
ENDBRANCH  13  14
ENDBRANCH   7  13
BRANCH   9  18
ATOM     18  C   UNL A   1      34.979  23.572  24.666  1.00  0.00    -0.024 A 
ATOM     19  C   UNL A   1      35.755  22.725  23.854  1.00  0.00     0.009 A 
ATOM     20  C   UNL A   1      35.577  24.107  25.827  1.00  0.00     0.009 A 
ATOM     21  C   UNL A   1      37.048  22.357  24.237  1.00  0.00     0.039 A 
ATOM     22  C   UNL A   1      36.873  23.749  26.200  1.00  0.00     0.039 A 
ATOM     23  C   UNL A   1      37.589  22.860  25.412  1.00  0.00     0.123 A 
ATOM     24  F   UNL A   1      38.811  22.472  25.797  1.00  0.00    -0.207 F 
ENDBRANCH   9  18
ENDBRANCH   3   6
ENDBRANCH   1   2
BRANCH   1  25
ATOM     25  C   UNL A   1      32.207  27.907  27.118  1.00  0.00     0.042 C 
BRANCH  25  26
ATOM     26  C   UNL A   1      33.606  28.508  27.165  1.00  0.00     0.118 C 
BRANCH  26  27
ATOM     27  N   UNL A   1      33.608  29.923  27.511  1.00  0.00    -0.352 N 
ATOM     28  C   UNL A   1      34.572  30.686  28.121  1.00  0.00     0.251 C 
ATOM     29  H   UNL A   1      32.787  30.409  27.267  1.00  0.00     0.163 HD
ATOM     30  O   UNL A   1      34.294  31.838  28.457  1.00  0.00    -0.269 OA
BRANCH  28  31
ATOM     31  C   UNL A   1      35.916  30.136  28.404  1.00  0.00     0.039 A 
ATOM     32  C   UNL A   1      36.884  30.173  27.394  1.00  0.00     0.014 A 
ATOM     33  C   UNL A   1      36.230  29.570  29.642  1.00  0.00     0.014 A 
ATOM     34  C   UNL A   1      38.177  29.713  27.652  1.00  0.00     0.010 A 
ATOM     35  C   UNL A   1      37.542  29.193  29.926  1.00  0.00     0.010 A 
ATOM     36  C   UNL A   1      38.531  29.260  28.934  1.00  0.00    -0.014 A 
BRANCH  36  37
ATOM     37  C   UNL A   1      39.932  28.873  29.253  1.00  0.00     0.031 A 
ATOM     38  C   UNL A   1      40.864  29.846  29.926  1.00  0.00     0.074 A 
ATOM     39  C   UNL A   1      40.383  27.656  28.886  1.00  0.00     0.049 A 
ATOM     40  N   UNL A   1      42.122  29.690  30.251  1.00  0.00    -0.248 NA
ATOM     41  C   UNL A   1      40.319  31.172  30.258  1.00  0.00     0.031 C 
ATOM     42  C   UNL A   1      39.595  26.634  28.192  1.00  0.00     0.029 A 
ATOM     43  N   UNL A   1      41.613  27.069  29.047  1.00  0.00    -0.354 N 
ATOM     44  C   UNL A   1      42.522  30.897  30.815  1.00  0.00     0.074 A 
ATOM     45  C   UNL A   1      41.389  31.793  30.736  1.00  0.00     0.031 C 
ATOM     46  C   UNL A   1      40.349  25.537  28.019  1.00  0.00     0.029 A 
ATOM     47  C   UNL A   1      41.687  25.790  28.546  1.00  0.00     0.049 A 
ATOM     48  H   UNL A   1      42.374  27.521  29.480  1.00  0.00     0.167 HD
ATOM     49  C   UNL A   1      43.716  31.225  31.367  1.00  0.00     0.031 A 
ATOM     50  C   UNL A   1      42.713  24.917  28.507  1.00  0.00     0.031 A 
ATOM     51  C   UNL A   1      44.842  30.331  31.444  1.00  0.00     0.049 A 
ATOM     52  C   UNL A   1      44.036  25.314  29.103  1.00  0.00     0.074 A 
ATOM     53  C   UNL A   1      46.078  30.555  32.028  1.00  0.00     0.029 A 
ATOM     54  N   UNL A   1      44.877  29.048  30.918  1.00  0.00    -0.354 N 
ATOM     55  N   UNL A   1      44.371  26.437  29.691  1.00  0.00    -0.248 NA
ATOM     56  C   UNL A   1      45.114  24.318  29.041  1.00  0.00     0.031 C 
ATOM     57  C   UNL A   1      46.879  29.431  31.800  1.00  0.00     0.029 A 
ATOM     58  C   UNL A   1      46.120  28.479  31.138  1.00  0.00     0.049 A 
ATOM     59  H   UNL A   1      44.127  28.607  30.457  1.00  0.00     0.167 HD
ATOM     60  C   UNL A   1      45.692  26.272  30.094  1.00  0.00     0.074 A 
ATOM     61  C   UNL A   1      46.085  24.935  29.700  1.00  0.00     0.031 C 
ATOM     62  C   UNL A   1      46.504  27.149  30.734  1.00  0.00     0.031 A 
BRANCH  49  63
ATOM     63  C   UNL A   1      43.867  32.616  31.927  1.00  0.00    -0.014 A 
ATOM     64  C   UNL A   1      44.276  33.688  31.113  1.00  0.00     0.010 A 
ATOM     65  C   UNL A   1      43.553  32.866  33.276  1.00  0.00     0.010 A 
ATOM     66  C   UNL A   1      44.409  34.973  31.646  1.00  0.00     0.020 A 
ATOM     67  C   UNL A   1      43.654  34.156  33.805  1.00  0.00     0.020 A 
ATOM     68  C   UNL A   1      44.098  35.199  32.990  1.00  0.00     0.054 A 
BRANCH  68  69
ATOM     69  S   UNL A   1      44.259  36.881  33.648  1.00  0.00     0.124 S 
ATOM     70  O   UNL A   1      44.737  36.630  35.004  1.00  0.00    -0.237 OA
ATOM     71  O   UNL A   1      45.233  37.486  32.741  1.00  0.00    -0.237 OA
ATOM     72  O   UNL A   1      42.905  37.423  33.554  1.00  0.00    -0.744 OA
ENDBRANCH  68  69
ENDBRANCH  49  63
BRANCH  50  73
ATOM     73  C   UNL A   1      42.525  23.574  27.890  1.00  0.00    -0.014 A 
ATOM     74  C   UNL A   1      43.096  23.275  26.640  1.00  0.00     0.010 A 
ATOM     75  C   UNL A   1      41.779  22.584  28.554  1.00  0.00     0.010 A 
ATOM     76  C   UNL A   1      42.909  22.017  26.059  1.00  0.00     0.020 A 
ATOM     77  C   UNL A   1      41.616  21.315  27.991  1.00  0.00     0.020 A 
ATOM     78  C   UNL A   1      42.173  21.044  26.741  1.00  0.00     0.054 A 
BRANCH  78  79
ATOM     79  S   UNL A   1      41.988  19.402  25.991  1.00  0.00     0.124 S 
ATOM     80  O   UNL A   1      40.547  19.328  25.772  1.00  0.00    -0.237 OA
ATOM     81  O   UNL A   1      42.808  19.513  24.786  1.00  0.00    -0.237 OA
ATOM     82  O   UNL A   1      42.516  18.499  27.011  1.00  0.00    -0.744 OA
ENDBRANCH  78  79
ENDBRANCH  50  73
BRANCH  62  83
ATOM     83  C   UNL A   1      47.894  26.680  31.080  1.00  0.00    -0.014 A 
ATOM     84  C   UNL A   1      48.981  26.910  30.219  1.00  0.00     0.010 A 
ATOM     85  C   UNL A   1      48.121  26.031  32.308  1.00  0.00     0.010 A 
ATOM     86  C   UNL A   1      50.261  26.463  30.559  1.00  0.00     0.020 A 
ATOM     87  C   UNL A   1      49.404  25.612  32.668  1.00  0.00     0.020 A 
ATOM     88  C   UNL A   1      50.464  25.816  31.782  1.00  0.00     0.054 A 
BRANCH  88  89
ATOM     89  S   UNL A   1      52.140  25.273  32.214  1.00  0.00     0.124 S 
ATOM     90  O   UNL A   1      52.365  25.963  33.481  1.00  0.00    -0.237 OA
ATOM     91  O   UNL A   1      51.993  23.822  32.305  1.00  0.00    -0.237 OA
ATOM     92  O   UNL A   1      52.956  25.740  31.095  1.00  0.00    -0.744 OA
ENDBRANCH  88  89
ENDBRANCH  62  83
ENDBRANCH  36  37
ENDBRANCH  28  31
ENDBRANCH  26  27
ENDBRANCH  25  26
ENDBRANCH   1  25
TORSDOF 18
ENDMDL
MODEL 2
REMARK VINA RESULT:     -10.2      2.373      3.092
REMARK SMILES COCCCN1C(=O)CC[C@@H](C(=O)NCCCNC(=O)c2ccc(-c3c4nc(c(-c5ccc(S(=O)(=O)[O-])cc5)c5ccc([nH]5)c(-c5ccc(S(=O)(=O)[O-])cc5)c5nc(c(-c6ccc(S(=O)(=O)[O-])cc6)c6ccc3[nH]6)C=C5)C=C4)cc2)[C@@H]1c1ccc(F)cc1
REMARK SMILES IDX 15 1 14 2 12 3 13 4 11 6 6 7 7 8 81 9 8 10 9 11 10 12 5 13
REMARK SMILES IDX 4 14 3 15 2 16 1 17 82 18 83 19 88 20 84 21 87 22 85 23
REMARK SMILES IDX 86 24 16 25 17 26 18 27 19 28 20 30 21 31 22 32 80 33 23 34
REMARK SMILES IDX 79 35 24 36 25 37 26 38 73 39 27 40 78 41 72 42 74 43 28 44
REMARK SMILES IDX 77 45 71 46 70 47 29 49 59 50 40 51 58 52 41 53 44 54 57 55
REMARK SMILES IDX 75 56 42 57 43 58 56 60 76 61 45 62 30 63 31 64 39 65 32 66
REMARK SMILES IDX 38 67 33 68 34 69 35 70 36 71 37 72 60 73 61 74 69 75 62 76
REMARK SMILES IDX 68 77 63 78 64 79 65 80 66 81 67 82 46 83 47 84 55 85 48 86
REMARK SMILES IDX 54 87 49 88 50 89 51 90 52 91 53 92
REMARK H PARENT 14 5 18 29 74 48 44 59
REMARK Flexibility Score: inf
ROOT
ATOM      1  C   UNL A   1      32.871  26.761  26.405  1.00  0.00     0.117 C 
ENDROOT
BRANCH   1   2
ATOM      2  N   UNL A   1      31.918  25.933  25.691  1.00  0.00    -0.356 N 
ATOM      3  C   UNL A   1      32.107  24.934  24.782  1.00  0.00     0.225 C 
ATOM      4  O   UNL A   1      31.104  24.447  24.263  1.00  0.00    -0.275 OA
ATOM      5  H   UNL A   1      30.974  26.124  25.896  1.00  0.00     0.163 HD
BRANCH   3   6
ATOM      6  C   UNL A   1      33.519  24.471  24.430  1.00  0.00     0.106 C 
ATOM      7  N   UNL A   1      33.044  22.017  24.442  1.00  0.00    -0.335 N 
ATOM      8  C   UNL A   1      32.775  21.971  23.083  1.00  0.00     0.223 C 
ATOM      9  C   UNL A   1      33.825  23.100  25.052  1.00  0.00     0.128 C 
ATOM     10  O   UNL A   1      32.312  20.965  22.541  1.00  0.00    -0.275 OA
ATOM     11  C   UNL A   1      32.983  23.234  22.264  1.00  0.00     0.101 C 
ATOM     12  C   UNL A   1      33.738  24.383  22.918  1.00  0.00     0.026 C 
BRANCH   7  13
ATOM     13  C   UNL A   1      32.498  20.957  25.306  1.00  0.00     0.122 C 
BRANCH  13  14
ATOM     14  C   UNL A   1      33.338  19.685  25.426  1.00  0.00     0.050 C 
BRANCH  14  15
ATOM     15  C   UNL A   1      32.581  18.379  25.668  1.00  0.00     0.161 C 
BRANCH  15  16
ATOM     16  O   UNL A   1      32.003  17.849  24.479  1.00  0.00    -0.385 OA
ATOM     17  C   UNL A   1      32.947  17.480  23.483  1.00  0.00     0.194 C 
ENDBRANCH  15  16
ENDBRANCH  14  15
ENDBRANCH  13  14
ENDBRANCH   7  13
BRANCH   9  18
ATOM     18  C   UNL A   1      35.335  22.822  25.098  1.00  0.00    -0.024 A 
ATOM     19  C   UNL A   1      35.903  21.613  24.657  1.00  0.00     0.009 A 
ATOM     20  C   UNL A   1      36.189  23.782  25.681  1.00  0.00     0.009 A 
ATOM     21  C   UNL A   1      37.256  21.339  24.875  1.00  0.00     0.039 A 
ATOM     22  C   UNL A   1      37.543  23.511  25.884  1.00  0.00     0.039 A 
ATOM     23  C   UNL A   1      38.060  22.284  25.498  1.00  0.00     0.123 A 
ATOM     24  F   UNL A   1      39.345  22.001  25.743  1.00  0.00    -0.207 F 
ENDBRANCH   9  18
ENDBRANCH   3   6
ENDBRANCH   1   2
BRANCH   1  25
ATOM     25  C   UNL A   1      33.270  28.008  25.631  1.00  0.00     0.042 C 
BRANCH  25  26
ATOM     26  C   UNL A   1      34.343  28.856  26.303  1.00  0.00     0.118 C 
BRANCH  26  27
ATOM     27  N   UNL A   1      33.876  30.189  26.659  1.00  0.00    -0.352 N 
ATOM     28  C   UNL A   1      34.340  31.069  27.606  1.00  0.00     0.251 C 
ATOM     29  H   UNL A   1      33.106  30.511  26.137  1.00  0.00     0.163 HD
ATOM     30  O   UNL A   1      33.690  32.087  27.842  1.00  0.00    -0.269 OA
BRANCH  28  31
ATOM     31  C   UNL A   1      35.584  30.794  28.359  1.00  0.00     0.039 A 
ATOM     32  C   UNL A   1      35.584  29.762  29.303  1.00  0.00     0.014 A 
ATOM     33  C   UNL A   1      36.742  31.551  28.162  1.00  0.00     0.014 A 
ATOM     34  C   UNL A   1      36.760  29.443  29.987  1.00  0.00     0.010 A 
ATOM     35  C   UNL A   1      37.935  31.177  28.779  1.00  0.00     0.010 A 
ATOM     36  C   UNL A   1      37.958  30.118  29.699  1.00  0.00    -0.014 A 
BRANCH  36  37
ATOM     37  C   UNL A   1      39.240  29.715  30.339  1.00  0.00     0.031 A 
ATOM     38  C   UNL A   1      39.758  30.448  31.549  1.00  0.00     0.074 A 
ATOM     39  C   UNL A   1      39.967  28.718  29.795  1.00  0.00     0.049 A 
ATOM     40  N   UNL A   1      40.867  30.253  32.215  1.00  0.00    -0.248 NA
ATOM     41  C   UNL A   1      38.935  31.554  32.063  1.00  0.00     0.031 C 
ATOM     42  C   UNL A   1      39.598  27.955  28.600  1.00  0.00     0.029 A 
ATOM     43  N   UNL A   1      41.168  28.173  30.176  1.00  0.00    -0.354 N 
ATOM     44  C   UNL A   1      40.881  31.216  33.219  1.00  0.00     0.074 A 
ATOM     45  C   UNL A   1      39.698  32.028  33.038  1.00  0.00     0.031 C 
ATOM     46  C   UNL A   1      40.533  27.020  28.368  1.00  0.00     0.029 A 
ATOM     47  C   UNL A   1      41.591  27.145  29.365  1.00  0.00     0.049 A 
ATOM     48  H   UNL A   1      41.680  28.490  30.955  1.00  0.00     0.167 HD
ATOM     49  C   UNL A   1      41.784  31.396  34.214  1.00  0.00     0.031 A 
ATOM     50  C   UNL A   1      42.706  26.390  29.412  1.00  0.00     0.031 A 
ATOM     51  C   UNL A   1      42.961  30.586  34.391  1.00  0.00     0.049 A 
ATOM     52  C   UNL A   1      43.706  26.625  30.510  1.00  0.00     0.074 A 
ATOM     53  C   UNL A   1      43.911  30.660  35.397  1.00  0.00     0.029 A 
ATOM     54  N   UNL A   1      43.356  29.561  33.545  1.00  0.00    -0.354 N 
ATOM     55  N   UNL A   1      43.666  27.498  31.489  1.00  0.00    -0.248 NA
ATOM     56  C   UNL A   1      44.896  25.765  30.517  1.00  0.00     0.031 C 
ATOM     57  C   UNL A   1      44.911  29.721  35.123  1.00  0.00     0.029 A 
ATOM     58  C   UNL A   1      44.549  29.013  33.988  1.00  0.00     0.049 A 
ATOM     59  H   UNL A   1      42.861  29.265  32.747  1.00  0.00     0.167 HD
ATOM     60  C   UNL A   1      44.811  27.272  32.244  1.00  0.00     0.074 A 
ATOM     61  C   UNL A   1      45.512  26.169  31.620  1.00  0.00     0.031 C 
ATOM     62  C   UNL A   1      45.243  27.919  33.354  1.00  0.00     0.031 A 
BRANCH  49  63
ATOM     63  C   UNL A   1      41.537  32.521  35.186  1.00  0.00    -0.014 A 
ATOM     64  C   UNL A   1      40.764  32.324  36.346  1.00  0.00     0.010 A 
ATOM     65  C   UNL A   1      42.121  33.781  34.963  1.00  0.00     0.010 A 
ATOM     66  C   UNL A   1      40.545  33.376  37.240  1.00  0.00     0.020 A 
ATOM     67  C   UNL A   1      41.932  34.827  35.872  1.00  0.00     0.020 A 
ATOM     68  C   UNL A   1      41.131  34.622  36.996  1.00  0.00     0.054 A 
BRANCH  68  69
ATOM     69  S   UNL A   1      40.847  35.961  38.186  1.00  0.00     0.124 S 
ATOM     70  O   UNL A   1      39.869  36.787  37.483  1.00  0.00    -0.237 OA
ATOM     71  O   UNL A   1      40.340  35.247  39.355  1.00  0.00    -0.237 OA
ATOM     72  O   UNL A   1      42.167  36.564  38.352  1.00  0.00    -0.744 OA
ENDBRANCH  68  69
ENDBRANCH  49  63
BRANCH  50  73
ATOM     73  C   UNL A   1      42.928  25.328  28.391  1.00  0.00    -0.014 A 
ATOM     74  C   UNL A   1      43.670  25.598  27.228  1.00  0.00     0.010 A 
ATOM     75  C   UNL A   1      42.405  24.036  28.582  1.00  0.00     0.010 A 
ATOM     76  C   UNL A   1      43.869  24.602  26.267  1.00  0.00     0.020 A 
ATOM     77  C   UNL A   1      42.628  23.029  27.639  1.00  0.00     0.020 A 
ATOM     78  C   UNL A   1      43.350  23.322  26.481  1.00  0.00     0.054 A 
BRANCH  78  79
ATOM     79  S   UNL A   1      43.665  22.032  25.244  1.00  0.00     0.124 S 
ATOM     80  O   UNL A   1      42.631  21.052  25.558  1.00  0.00    -0.237 OA
ATOM     81  O   UNL A   1      43.493  22.755  23.986  1.00  0.00    -0.237 OA
ATOM     82  O   UNL A   1      45.035  21.613  25.530  1.00  0.00    -0.744 OA
ENDBRANCH  78  79
ENDBRANCH  50  73
BRANCH  62  83
ATOM     83  C   UNL A   1      46.520  27.430  33.989  1.00  0.00    -0.014 A 
ATOM     84  C   UNL A   1      46.513  26.412  34.958  1.00  0.00     0.010 A 
ATOM     85  C   UNL A   1      47.750  27.975  33.578  1.00  0.00     0.010 A 
ATOM     86  C   UNL A   1      47.710  25.976  35.534  1.00  0.00     0.020 A 
ATOM     87  C   UNL A   1      48.952  27.520  34.127  1.00  0.00     0.020 A 
ATOM     88  C   UNL A   1      48.922  26.534  35.116  1.00  0.00     0.054 A 
BRANCH  88  89
ATOM     89  S   UNL A   1      50.463  25.930  35.858  1.00  0.00     0.124 S 
ATOM     90  O   UNL A   1      50.175  24.510  36.040  1.00  0.00    -0.237 OA
ATOM     91  O   UNL A   1      51.456  26.244  34.833  1.00  0.00    -0.237 OA
ATOM     92  O   UNL A   1      50.582  26.706  37.090  1.00  0.00    -0.744 OA
ENDBRANCH  88  89
ENDBRANCH  62  83
ENDBRANCH  36  37
ENDBRANCH  28  31
ENDBRANCH  26  27
ENDBRANCH  25  26
ENDBRANCH   1  25
TORSDOF 18
ENDMDL
MODEL 3
REMARK VINA RESULT:      -9.3      2.709      8.453
REMARK SMILES COCCCN1C(=O)CC[C@@H](C(=O)NCCCNC(=O)c2ccc(-c3c4nc(c(-c5ccc(S(=O)(=O)[O-])cc5)c5ccc([nH]5)c(-c5ccc(S(=O)(=O)[O-])cc5)c5nc(c(-c6ccc(S(=O)(=O)[O-])cc6)c6ccc3[nH]6)C=C5)C=C4)cc2)[C@@H]1c1ccc(F)cc1
REMARK SMILES IDX 15 1 14 2 12 3 13 4 11 6 6 7 7 8 81 9 8 10 9 11 10 12 5 13
REMARK SMILES IDX 4 14 3 15 2 16 1 17 82 18 83 19 88 20 84 21 87 22 85 23
REMARK SMILES IDX 86 24 16 25 17 26 18 27 19 28 20 30 21 31 22 32 80 33 23 34
REMARK SMILES IDX 79 35 24 36 25 37 26 38 73 39 27 40 78 41 72 42 74 43 28 44
REMARK SMILES IDX 77 45 71 46 70 47 29 49 59 50 40 51 58 52 41 53 44 54 57 55
REMARK SMILES IDX 75 56 42 57 43 58 56 60 76 61 45 62 30 63 31 64 39 65 32 66
REMARK SMILES IDX 38 67 33 68 34 69 35 70 36 71 37 72 60 73 61 74 69 75 62 76
REMARK SMILES IDX 68 77 63 78 64 79 65 80 66 81 67 82 46 83 47 84 55 85 48 86
REMARK SMILES IDX 54 87 49 88 50 89 51 90 52 91 53 92
REMARK H PARENT 14 5 18 29 74 48 44 59
REMARK Flexibility Score: inf
ROOT
ATOM      1  C   UNL A   1      33.696  26.588  26.022  1.00  0.00     0.117 C 
ENDROOT
BRANCH   1   2
ATOM      2  N   UNL A   1      32.860  26.241  24.888  1.00  0.00    -0.356 N 
ATOM      3  C   UNL A   1      33.029  25.308  23.907  1.00  0.00     0.225 C 
ATOM      4  O   UNL A   1      32.191  25.281  23.007  1.00  0.00    -0.275 OA
ATOM      5  H   UNL A   1      32.032  26.767  24.813  1.00  0.00     0.163 HD
BRANCH   3   6
ATOM      6  C   UNL A   1      34.225  24.360  23.943  1.00  0.00     0.106 C 
ATOM      7  N   UNL A   1      33.207  22.642  25.444  1.00  0.00    -0.335 N 
ATOM      8  C   UNL A   1      32.731  21.874  24.392  1.00  0.00     0.223 C 
ATOM      9  C   UNL A   1      34.300  23.608  25.280  1.00  0.00     0.128 C 
ATOM     10  O   UNL A   1      31.972  20.919  24.570  1.00  0.00    -0.275 OA
ATOM     11  C   UNL A   1      33.096  22.287  22.977  1.00  0.00     0.101 C 
ATOM     12  C   UNL A   1      34.186  23.336  22.806  1.00  0.00     0.026 C 
BRANCH   7  13
ATOM     13  C   UNL A   1      32.570  22.503  26.765  1.00  0.00     0.122 C 
BRANCH  13  14
ATOM     14  C   UNL A   1      31.189  23.142  26.918  1.00  0.00     0.050 C 
BRANCH  14  15
ATOM     15  C   UNL A   1      30.681  23.974  25.740  1.00  0.00     0.161 C 
BRANCH  15  16
ATOM     16  O   UNL A   1      30.196  25.254  26.139  1.00  0.00    -0.385 OA
ATOM     17  C   UNL A   1      29.385  25.901  25.169  1.00  0.00     0.194 C 
ENDBRANCH  15  16
ENDBRANCH  14  15
ENDBRANCH  13  14
ENDBRANCH   7  13
BRANCH   9  18
ATOM     18  C   UNL A   1      35.694  23.011  25.518  1.00  0.00    -0.024 A 
ATOM     19  C   UNL A   1      36.809  23.793  25.870  1.00  0.00     0.009 A 
ATOM     20  C   UNL A   1      35.895  21.632  25.298  1.00  0.00     0.009 A 
ATOM     21  C   UNL A   1      38.090  23.233  25.910  1.00  0.00     0.039 A 
ATOM     22  C   UNL A   1      37.172  21.073  25.354  1.00  0.00     0.039 A 
ATOM     23  C   UNL A   1      38.261  21.883  25.638  1.00  0.00     0.123 A 
ATOM     24  F   UNL A   1      39.493  21.360  25.636  1.00  0.00    -0.207 F 
ENDBRANCH   9  18
ENDBRANCH   3   6
ENDBRANCH   1   2
BRANCH   1  25
ATOM     25  C   UNL A   1      33.418  27.985  26.556  1.00  0.00     0.042 C 
BRANCH  25  26
ATOM     26  C   UNL A   1      34.631  28.906  26.587  1.00  0.00     0.118 C 
BRANCH  26  27
ATOM     27  N   UNL A   1      34.280  30.308  26.761  1.00  0.00    -0.352 N 
ATOM     28  C   UNL A   1      34.803  31.257  27.604  1.00  0.00     0.251 C 
ATOM     29  H   UNL A   1      33.550  30.626  26.181  1.00  0.00     0.163 HD
ATOM     30  O   UNL A   1      34.242  32.349  27.693  1.00  0.00    -0.269 OA
BRANCH  28  31
ATOM     31  C   UNL A   1      36.005  30.974  28.421  1.00  0.00     0.039 A 
ATOM     32  C   UNL A   1      35.970  29.902  29.318  1.00  0.00     0.014 A 
ATOM     33  C   UNL A   1      37.155  31.761  28.327  1.00  0.00     0.014 A 
ATOM     34  C   UNL A   1      37.108  29.577  30.060  1.00  0.00     0.010 A 
ATOM     35  C   UNL A   1      38.316  31.383  29.001  1.00  0.00     0.010 A 
ATOM     36  C   UNL A   1      38.306  30.287  29.875  1.00  0.00    -0.014 A 
BRANCH  36  37
ATOM     37  C   UNL A   1      39.556  29.881  30.575  1.00  0.00     0.031 A 
ATOM     38  C   UNL A   1      40.399  28.750  30.048  1.00  0.00     0.074 A 
ATOM     39  C   UNL A   1      39.904  30.501  31.721  1.00  0.00     0.049 A 
ATOM     40  N   UNL A   1      41.499  28.244  30.544  1.00  0.00    -0.248 NA
ATOM     41  C   UNL A   1      39.936  28.088  28.818  1.00  0.00     0.031 C 
ATOM     42  C   UNL A   1      39.153  31.585  32.360  1.00  0.00     0.029 A 
ATOM     43  N   UNL A   1      40.980  30.312  32.552  1.00  0.00    -0.354 N 
ATOM     44  C   UNL A   1      41.855  27.201  29.695  1.00  0.00     0.074 A 
ATOM     45  C   UNL A   1      40.823  27.111  28.685  1.00  0.00     0.031 C 
ATOM     46  C   UNL A   1      39.809  31.985  33.461  1.00  0.00     0.029 A 
ATOM     47  C   UNL A   1      41.000  31.161  33.635  1.00  0.00     0.049 A 
ATOM     48  H   UNL A   1      41.673  29.630  32.390  1.00  0.00     0.167 HD
ATOM     49  C   UNL A   1      42.949  26.403  29.738  1.00  0.00     0.031 A 
ATOM     50  C   UNL A   1      41.872  31.263  34.656  1.00  0.00     0.031 A 
ATOM     51  C   UNL A   1      43.975  26.495  30.744  1.00  0.00     0.049 A 
ATOM     52  C   UNL A   1      43.066  30.349  34.696  1.00  0.00     0.074 A 
ATOM     53  C   UNL A   1      45.147  25.763  30.845  1.00  0.00     0.029 A 
ATOM     54  N   UNL A   1      43.953  27.362  31.826  1.00  0.00    -0.354 N 
ATOM     55  N   UNL A   1      43.417  29.414  33.846  1.00  0.00    -0.248 NA
ATOM     56  C   UNL A   1      43.988  30.514  35.828  1.00  0.00     0.031 C 
ATOM     57  C   UNL A   1      45.801  26.145  32.021  1.00  0.00     0.029 A 
ATOM     58  C   UNL A   1      45.075  27.165  32.615  1.00  0.00     0.049 A 
ATOM     59  H   UNL A   1      43.245  28.021  32.006  1.00  0.00     0.167 HD
ATOM     60  C   UNL A   1      44.616  28.899  34.326  1.00  0.00     0.074 A 
ATOM     61  C   UNL A   1      44.938  29.639  35.528  1.00  0.00     0.031 C 
ATOM     62  C   UNL A   1      45.382  27.903  33.815  1.00  0.00     0.031 A 
BRANCH  49  63
ATOM     63  C   UNL A   1      43.091  25.354  28.665  1.00  0.00    -0.014 A 
ATOM     64  C   UNL A   1      43.901  25.571  27.536  1.00  0.00     0.010 A 
ATOM     65  C   UNL A   1      42.442  24.113  28.809  1.00  0.00     0.010 A 
ATOM     66  C   UNL A   1      44.025  24.588  26.551  1.00  0.00     0.020 A 
ATOM     67  C   UNL A   1      42.589  23.114  27.842  1.00  0.00     0.020 A 
ATOM     68  C   UNL A   1      43.367  23.365  26.711  1.00  0.00     0.054 A 
BRANCH  68  69
ATOM     69  S   UNL A   1      43.565  22.099  25.426  1.00  0.00     0.124 S 
ATOM     70  O   UNL A   1      43.373  22.877  24.205  1.00  0.00    -0.237 OA
ATOM     71  O   UNL A   1      44.925  21.620  25.658  1.00  0.00    -0.237 OA
ATOM     72  O   UNL A   1      42.508  21.134  25.722  1.00  0.00    -0.744 OA
ENDBRANCH  68  69
ENDBRANCH  49  63
BRANCH  50  73
ATOM     73  C   UNL A   1      41.654  32.281  35.722  1.00  0.00    -0.014 A 
ATOM     74  C   UNL A   1      42.204  33.570  35.603  1.00  0.00     0.010 A 
ATOM     75  C   UNL A   1      40.886  31.969  36.858  1.00  0.00     0.010 A 
ATOM     76  C   UNL A   1      42.005  34.520  36.609  1.00  0.00     0.020 A 
ATOM     77  C   UNL A   1      40.659  32.925  37.852  1.00  0.00     0.020 A 
ATOM     78  C   UNL A   1      41.231  34.193  37.726  1.00  0.00     0.054 A 
BRANCH  78  79
ATOM     79  S   UNL A   1      40.944  35.458  38.994  1.00  0.00     0.124 S 
ATOM     80  O   UNL A   1      39.512  35.325  39.238  1.00  0.00    -0.237 OA
ATOM     81  O   UNL A   1      41.817  35.017  40.080  1.00  0.00    -0.237 OA
ATOM     82  O   UNL A   1      41.357  36.697  38.339  1.00  0.00    -0.744 OA
ENDBRANCH  78  79
ENDBRANCH  50  73
BRANCH  62  83
ATOM     83  C   UNL A   1      46.664  27.575  34.538  1.00  0.00    -0.014 A 
ATOM     84  C   UNL A   1      46.708  26.593  35.543  1.00  0.00     0.010 A 
ATOM     85  C   UNL A   1      47.852  28.235  34.174  1.00  0.00     0.010 A 
ATOM     86  C   UNL A   1      47.908  26.308  36.200  1.00  0.00     0.020 A 
ATOM     87  C   UNL A   1      49.060  27.930  34.805  1.00  0.00     0.020 A 
ATOM     88  C   UNL A   1      49.076  26.980  35.828  1.00  0.00     0.054 A 
BRANCH  88  89
ATOM     89  S   UNL A   1      50.626  26.569  36.676  1.00  0.00     0.124 S 
ATOM     90  O   UNL A   1      51.620  26.851  35.644  1.00  0.00    -0.237 OA
ATOM     91  O   UNL A   1      50.622  27.488  37.812  1.00  0.00    -0.237 OA
ATOM     92  O   UNL A   1      50.470  25.158  37.023  1.00  0.00    -0.744 OA
ENDBRANCH  88  89
ENDBRANCH  62  83
ENDBRANCH  36  37
ENDBRANCH  28  31
ENDBRANCH  26  27
ENDBRANCH  25  26
ENDBRANCH   1  25
TORSDOF 18
ENDMDL
