MODEL 1
REMARK VINA RESULT:     -12.0      0.000      0.000
REMARK SMILES CCc1ccc2c(CC(=O)NCCCNC(=O)c3ccc(-c4c5nc(c(-c6ccc(S(=O)(=O)[O-])cc6)c6ccc([nH]6)c(-c6ccc(S(=O)(=O)[O-])cc6)c6nc(c(-c7ccc(S(=O)(=O)[O-])cc7)c7ccc4[nH]7)C=C6)C=C5)cc3)c(C(=O)c3cc(C)ccn3)[nH]c2c1
REMARK SMILES IDX 13 1 12 2 11 3 9 4 10 5 8 7 7 8 3 9 4 10 90 11 5 12 89 13
REMARK SMILES IDX 6 14 88 15 78 16 2 18 1 19 79 20 80 21 81 22 82 23 87 24
REMARK SMILES IDX 83 25 86 26 84 27 85 28 14 29 15 30 16 31 17 33 18 34 19 35
REMARK SMILES IDX 77 36 20 37 76 38 21 39 22 40 23 41 70 42 24 43 75 44 69 45
REMARK SMILES IDX 71 46 25 47 74 48 68 49 67 50 26 52 56 53 37 54 55 55 38 56
REMARK SMILES IDX 41 57 54 58 72 59 39 60 40 61 53 63 73 64 42 65 27 66 28 67
REMARK SMILES IDX 36 68 29 69 35 70 30 71 31 72 32 73 33 74 34 75 57 76 58 77
REMARK SMILES IDX 66 78 59 79 65 80 60 81 61 82 62 83 63 84 64 85 43 86 44 87
REMARK SMILES IDX 52 88 45 89 51 90 46 91 47 92 48 93 49 94 50 95
REMARK H PARENT 11 6 88 17 15 32 71 51 41 62
REMARK Flexibility Score: inf
ROOT
ATOM      1  C   UNL A   1      32.932  27.083  25.600  1.00  0.00     0.042 C 
ENDROOT
BRANCH   1   2
ATOM      2  C   UNL A   1      32.802  25.573  25.764  1.00  0.00     0.117 C 
BRANCH   2   3
ATOM      3  N   UNL A   1      34.042  24.933  26.152  1.00  0.00    -0.356 N 
ATOM      4  C   UNL A   1      35.050  24.436  25.376  1.00  0.00     0.224 C 
ATOM      5  O   UNL A   1      36.101  24.139  25.952  1.00  0.00    -0.275 OA
ATOM      6  H   UNL A   1      34.180  24.844  27.123  1.00  0.00     0.163 HD
BRANCH   4   7
ATOM      7  C   UNL A   1      34.932  24.385  23.858  1.00  0.00     0.138 C 
BRANCH   7   8
ATOM      8  C   UNL A   1      33.881  23.445  23.329  1.00  0.00    -0.002 A 
ATOM      9  C   UNL A   1      32.859  19.398  24.073  1.00  0.00    -0.046 A 
ATOM     10  C   UNL A   1      33.894  19.929  24.854  1.00  0.00     0.004 A 
ATOM     11  C   UNL A   1      32.240  20.212  23.112  1.00  0.00     0.030 A 
ATOM     12  C   UNL A   1      34.317  21.256  24.708  1.00  0.00     0.011 A 
ATOM     13  C   UNL A   1      32.674  21.541  22.983  1.00  0.00     0.046 A 
ATOM     14  C   UNL A   1      33.696  22.084  23.752  1.00  0.00     0.004 A 
ATOM     15  N   UNL A   1      32.241  22.531  22.134  1.00  0.00    -0.352 N 
ATOM     16  C   UNL A   1      32.877  23.727  22.400  1.00  0.00     0.093 A 
ATOM     17  H   UNL A   1      31.566  22.404  21.429  1.00  0.00     0.167 HD
BRANCH   9  18
ATOM     18  C   UNL A   1      32.477  17.950  24.303  1.00  0.00     0.032 C 
ATOM     19  C   UNL A   1      33.308  16.893  23.591  1.00  0.00     0.009 C 
ENDBRANCH   9  18
BRANCH  16  20
ATOM     20  C   UNL A   1      32.533  25.009  21.795  1.00  0.00     0.227 C 
ATOM     21  O   UNL A   1      33.141  25.494  20.841  1.00  0.00    -0.285 OA
BRANCH  20  22
ATOM     22  C   UNL A   1      31.449  25.823  22.404  1.00  0.00     0.113 A 
ATOM     23  C   UNL A   1      31.357  27.178  22.101  1.00  0.00     0.036 A 
ATOM     24  N   UNL A   1      30.602  25.171  23.238  1.00  0.00    -0.253 NA
ATOM     25  C   UNL A   1      30.333  27.919  22.694  1.00  0.00    -0.047 A 
ATOM     26  C   UNL A   1      29.607  25.904  23.775  1.00  0.00     0.112 A 
ATOM     27  C   UNL A   1      30.182  29.387  22.431  1.00  0.00     0.044 C 
ATOM     28  C   UNL A   1      29.436  27.261  23.540  1.00  0.00     0.023 A 
ENDBRANCH  20  22
ENDBRANCH  16  20
ENDBRANCH   7   8
ENDBRANCH   4   7
ENDBRANCH   2   3
ENDBRANCH   1   2
BRANCH   1  29
ATOM     29  C   UNL A   1      33.952  27.736  26.530  1.00  0.00     0.118 C 
BRANCH  29  30
ATOM     30  N   UNL A   1      33.609  29.109  26.875  1.00  0.00    -0.352 N 
ATOM     31  C   UNL A   1      34.308  30.058  27.578  1.00  0.00     0.251 C 
ATOM     32  H   UNL A   1      32.728  29.406  26.551  1.00  0.00     0.163 HD
ATOM     33  O   UNL A   1      33.742  31.101  27.898  1.00  0.00    -0.269 OA
BRANCH  31  34
ATOM     34  C   UNL A   1      35.719  29.841  27.972  1.00  0.00     0.039 A 
ATOM     35  C   UNL A   1      35.996  29.474  29.293  1.00  0.00     0.014 A 
ATOM     36  C   UNL A   1      36.772  30.038  27.073  1.00  0.00     0.014 A 
ATOM     37  C   UNL A   1      37.315  29.239  29.693  1.00  0.00     0.010 A 
ATOM     38  C   UNL A   1      38.081  29.743  27.456  1.00  0.00     0.010 A 
ATOM     39  C   UNL A   1      38.365  29.335  28.767  1.00  0.00    -0.014 A 
BRANCH  39  40
ATOM     40  C   UNL A   1      39.759  28.982  29.146  1.00  0.00     0.031 A 
ATOM     41  C   UNL A   1      40.651  29.991  29.818  1.00  0.00     0.074 A 
ATOM     42  C   UNL A   1      40.243  27.766  28.824  1.00  0.00     0.049 A 
ATOM     43  N   UNL A   1      41.909  29.878  30.160  1.00  0.00    -0.248 NA
ATOM     44  C   UNL A   1      40.059  31.301  30.127  1.00  0.00     0.031 C 
ATOM     45  C   UNL A   1      39.492  26.710  28.139  1.00  0.00     0.029 A 
ATOM     46  N   UNL A   1      41.485  27.215  29.020  1.00  0.00    -0.354 N 
ATOM     47  C   UNL A   1      42.265  31.105  30.708  1.00  0.00     0.074 A 
ATOM     48  C   UNL A   1      41.100  31.959  30.618  1.00  0.00     0.031 C 
ATOM     49  C   UNL A   1      40.282  25.634  27.990  1.00  0.00     0.029 A 
ATOM     50  C   UNL A   1      41.604  25.935  28.532  1.00  0.00     0.049 A 
ATOM     51  H   UNL A   1      42.221  27.690  29.468  1.00  0.00     0.167 HD
ATOM     52  C   UNL A   1      43.449  31.482  31.249  1.00  0.00     0.031 A 
ATOM     53  C   UNL A   1      42.659  25.097  28.511  1.00  0.00     0.031 A 
ATOM     54  C   UNL A   1      44.605  30.628  31.346  1.00  0.00     0.049 A 
ATOM     55  C   UNL A   1      43.964  25.541  29.109  1.00  0.00     0.074 A 
ATOM     56  C   UNL A   1      45.830  30.903  31.929  1.00  0.00     0.029 A 
ATOM     57  N   UNL A   1      44.681  29.337  30.846  1.00  0.00    -0.354 N 
ATOM     58  N   UNL A   1      44.262  26.687  29.674  1.00  0.00    -0.248 NA
ATOM     59  C   UNL A   1      45.073  24.577  29.071  1.00  0.00     0.031 C 
ATOM     60  C   UNL A   1      46.662  29.794  31.741  1.00  0.00     0.029 A 
ATOM     61  C   UNL A   1      45.939  28.811  31.085  1.00  0.00     0.049 A 
ATOM     62  H   UNL A   1      43.948  28.864  30.389  1.00  0.00     0.167 HD
ATOM     63  C   UNL A   1      45.588  26.574  30.077  1.00  0.00     0.074 A 
ATOM     64  C   UNL A   1      46.028  25.245  29.705  1.00  0.00     0.031 C 
ATOM     65  C   UNL A   1      46.368  27.490  30.701  1.00  0.00     0.031 A 
BRANCH  52  66
ATOM     66  C   UNL A   1      43.556  32.889  31.774  1.00  0.00    -0.014 A 
ATOM     67  C   UNL A   1      43.231  33.191  33.108  1.00  0.00     0.010 A 
ATOM     68  C   UNL A   1      44.026  33.915  30.935  1.00  0.00     0.010 A 
ATOM     69  C   UNL A   1      43.333  34.502  33.583  1.00  0.00     0.020 A 
ATOM     70  C   UNL A   1      44.155  35.222  31.412  1.00  0.00     0.020 A 
ATOM     71  C   UNL A   1      43.790  35.512  32.729  1.00  0.00     0.054 A 
BRANCH  71  72
ATOM     72  S   UNL A   1      43.929  37.201  33.374  1.00  0.00     0.124 S 
ATOM     73  O   UNL A   1      43.932  37.993  32.147  1.00  0.00    -0.237 OA
ATOM     74  O   UNL A   1      42.732  37.330  34.201  1.00  0.00    -0.237 OA
ATOM     75  O   UNL A   1      45.192  37.187  34.109  1.00  0.00    -0.744 OA
ENDBRANCH  71  72
ENDBRANCH  52  66
BRANCH  53  76
ATOM     76  C   UNL A   1      42.518  23.748  27.902  1.00  0.00    -0.014 A 
ATOM     77  C   UNL A   1      42.840  23.540  26.549  1.00  0.00     0.010 A 
ATOM     78  C   UNL A   1      42.082  22.659  28.678  1.00  0.00     0.010 A 
ATOM     79  C   UNL A   1      42.717  22.269  25.980  1.00  0.00     0.020 A 
ATOM     80  C   UNL A   1      41.982  21.382  28.119  1.00  0.00     0.020 A 
ATOM     81  C   UNL A   1      42.291  21.197  26.771  1.00  0.00     0.054 A 
BRANCH  81  82
ATOM     82  S   UNL A   1      42.200  19.542  26.032  1.00  0.00     0.124 S 
ATOM     83  O   UNL A   1      40.793  19.459  25.650  1.00  0.00    -0.237 OA
ATOM     84  O   UNL A   1      43.153  19.633  24.929  1.00  0.00    -0.237 OA
ATOM     85  O   UNL A   1      42.606  18.660  27.124  1.00  0.00    -0.744 OA
ENDBRANCH  81  82
ENDBRANCH  53  76
BRANCH  65  86
ATOM     86  C   UNL A   1      47.777  27.081  31.036  1.00  0.00    -0.014 A 
ATOM     87  C   UNL A   1      48.083  26.472  32.266  1.00  0.00     0.010 A 
ATOM     88  C   UNL A   1      48.801  27.266  30.089  1.00  0.00     0.010 A 
ATOM     89  C   UNL A   1      49.393  26.083  32.555  1.00  0.00     0.020 A 
ATOM     90  C   UNL A   1      50.108  26.855  30.364  1.00  0.00     0.020 A 
ATOM     91  C   UNL A   1      50.398  26.278  31.602  1.00  0.00     0.054 A 
BRANCH  91  92
ATOM     92  S   UNL A   1      52.083  25.726  31.982  1.00  0.00     0.124 S 
ATOM     93  O   UNL A   1      52.371  26.457  33.213  1.00  0.00    -0.237 OA
ATOM     94  O   UNL A   1      51.923  24.281  32.133  1.00  0.00    -0.237 OA
ATOM     95  O   UNL A   1      52.855  26.142  30.815  1.00  0.00    -0.744 OA
ENDBRANCH  91  92
ENDBRANCH  65  86
ENDBRANCH  39  40
ENDBRANCH  31  34
ENDBRANCH  29  30
ENDBRANCH   1  29
TORSDOF 17
ENDMDL
MODEL 2
REMARK VINA RESULT:     -11.9      2.580      9.317
REMARK SMILES CCc1ccc2c(CC(=O)NCCCNC(=O)c3ccc(-c4c5nc(c(-c6ccc(S(=O)(=O)[O-])cc6)c6ccc([nH]6)c(-c6ccc(S(=O)(=O)[O-])cc6)c6nc(c(-c7ccc(S(=O)(=O)[O-])cc7)c7ccc4[nH]7)C=C6)C=C5)cc3)c(C(=O)c3cc(C)ccn3)[nH]c2c1
REMARK SMILES IDX 13 1 12 2 11 3 9 4 10 5 8 7 7 8 3 9 4 10 90 11 5 12 89 13
REMARK SMILES IDX 6 14 88 15 78 16 2 18 1 19 79 20 80 21 81 22 82 23 87 24
REMARK SMILES IDX 83 25 86 26 84 27 85 28 14 29 15 30 16 31 17 33 18 34 19 35
REMARK SMILES IDX 77 36 20 37 76 38 21 39 22 40 23 41 70 42 24 43 75 44 69 45
REMARK SMILES IDX 71 46 25 47 74 48 68 49 67 50 26 52 56 53 37 54 55 55 38 56
REMARK SMILES IDX 41 57 54 58 72 59 39 60 40 61 53 63 73 64 42 65 27 66 28 67
REMARK SMILES IDX 36 68 29 69 35 70 30 71 31 72 32 73 33 74 34 75 57 76 58 77
REMARK SMILES IDX 66 78 59 79 65 80 60 81 61 82 62 83 63 84 64 85 43 86 44 87
REMARK SMILES IDX 52 88 45 89 51 90 46 91 47 92 48 93 49 94 50 95
REMARK H PARENT 11 6 88 17 15 32 71 51 41 62
REMARK Flexibility Score: inf
ROOT
ATOM      1  C   UNL A   1      35.473  23.091  25.692  1.00  0.00     0.042 C 
ENDROOT
BRANCH   1   2
ATOM      2  C   UNL A   1      34.393  24.125  25.992  1.00  0.00     0.117 C 
BRANCH   2   3
ATOM      3  N   UNL A   1      34.488  25.306  25.159  1.00  0.00    -0.356 N 
ATOM      4  C   UNL A   1      33.740  26.448  25.174  1.00  0.00     0.224 C 
ATOM      5  O   UNL A   1      34.162  27.398  24.507  1.00  0.00    -0.275 OA
ATOM      6  H   UNL A   1      35.199  25.281  24.479  1.00  0.00     0.163 HD
BRANCH   4   7
ATOM      7  C   UNL A   1      32.524  26.590  26.081  1.00  0.00     0.138 C 
BRANCH   7   8
ATOM      8  C   UNL A   1      31.192  26.426  25.396  1.00  0.00    -0.002 A 
ATOM      9  C   UNL A   1      28.782  28.898  22.937  1.00  0.00    -0.046 A 
ATOM     10  C   UNL A   1      30.023  29.426  23.320  1.00  0.00     0.004 A 
ATOM     11  C   UNL A   1      28.416  27.618  23.382  1.00  0.00     0.030 A 
ATOM     12  C   UNL A   1      30.912  28.702  24.124  1.00  0.00     0.011 A 
ATOM     13  C   UNL A   1      29.322  26.906  24.184  1.00  0.00     0.046 A 
ATOM     14  C   UNL A   1      30.557  27.413  24.568  1.00  0.00     0.004 A 
ATOM     15  N   UNL A   1      29.211  25.655  24.740  1.00  0.00    -0.352 N 
ATOM     16  C   UNL A   1      30.376  25.293  25.385  1.00  0.00     0.093 A 
ATOM     17  H   UNL A   1      28.407  25.091  24.685  1.00  0.00     0.167 HD
BRANCH   9  18
ATOM     18  C   UNL A   1      27.889  29.761  22.068  1.00  0.00     0.032 C 
ATOM     19  C   UNL A   1      28.085  31.268  22.157  1.00  0.00     0.009 C 
ENDBRANCH   9  18
BRANCH  16  20
ATOM     20  C   UNL A   1      30.650  23.970  25.938  1.00  0.00     0.227 C 
ATOM     21  O   UNL A   1      30.455  23.675  27.117  1.00  0.00    -0.285 OA
BRANCH  20  22
ATOM     22  C   UNL A   1      31.272  22.942  25.065  1.00  0.00     0.113 A 
ATOM     23  C   UNL A   1      31.688  21.734  25.618  1.00  0.00     0.036 A 
ATOM     24  N   UNL A   1      31.399  23.261  23.754  1.00  0.00    -0.253 NA
ATOM     25  C   UNL A   1      32.278  20.790  24.776  1.00  0.00    -0.047 A 
ATOM     26  C   UNL A   1      31.947  22.320  22.958  1.00  0.00     0.112 A 
ATOM     27  C   UNL A   1      32.767  19.475  25.302  1.00  0.00     0.044 C 
ATOM     28  C   UNL A   1      32.398  21.091  23.416  1.00  0.00     0.023 A 
ENDBRANCH  20  22
ENDBRANCH  16  20
ENDBRANCH   7   8
ENDBRANCH   4   7
ENDBRANCH   2   3
ENDBRANCH   1   2
BRANCH   1  29
ATOM     29  C   UNL A   1      36.844  23.682  25.370  1.00  0.00     0.118 C 
BRANCH  29  30
ATOM     30  N   UNL A   1      37.937  22.754  25.628  1.00  0.00    -0.352 N 
ATOM     31  C   UNL A   1      39.177  22.960  26.179  1.00  0.00     0.251 C 
ATOM     32  H   UNL A   1      37.756  21.823  25.362  1.00  0.00     0.163 HD
ATOM     33  O   UNL A   1      40.006  22.054  26.138  1.00  0.00    -0.269 OA
BRANCH  31  34
ATOM     34  C   UNL A   1      39.537  24.255  26.801  1.00  0.00     0.039 A 
ATOM     35  C   UNL A   1      39.131  24.500  28.118  1.00  0.00     0.014 A 
ATOM     36  C   UNL A   1      40.225  25.245  26.093  1.00  0.00     0.014 A 
ATOM     37  C   UNL A   1      39.473  25.703  28.743  1.00  0.00     0.010 A 
ATOM     38  C   UNL A   1      40.620  26.417  26.738  1.00  0.00     0.010 A 
ATOM     39  C   UNL A   1      40.253  26.656  28.071  1.00  0.00    -0.014 A 
BRANCH  39  40
ATOM     40  C   UNL A   1      40.719  27.890  28.757  1.00  0.00     0.031 A 
ATOM     41  C   UNL A   1      42.099  27.963  29.353  1.00  0.00     0.074 A 
ATOM     42  C   UNL A   1      39.869  28.927  28.901  1.00  0.00     0.049 A 
ATOM     43  N   UNL A   1      42.648  28.931  30.041  1.00  0.00    -0.248 NA
ATOM     44  C   UNL A   1      42.966  26.789  29.169  1.00  0.00     0.031 C 
ATOM     45  C   UNL A   1      38.492  28.968  28.402  1.00  0.00     0.029 A 
ATOM     46  N   UNL A   1      40.035  30.142  29.518  1.00  0.00    -0.354 N 
ATOM     47  C   UNL A   1      43.916  28.479  30.387  1.00  0.00     0.074 A 
ATOM     48  C   UNL A   1      44.040  27.135  29.865  1.00  0.00     0.031 C 
ATOM     49  C   UNL A   1      37.946  30.155  28.714  1.00  0.00     0.029 A 
ATOM     50  C   UNL A   1      38.917  30.942  29.469  1.00  0.00     0.049 A 
ATOM     51  H   UNL A   1      40.873  30.415  29.954  1.00  0.00     0.167 HD
ATOM     52  C   UNL A   1      44.893  29.128  31.066  1.00  0.00     0.031 A 
ATOM     53  C   UNL A   1      38.691  32.166  29.981  1.00  0.00     0.031 A 
ATOM     54  C   UNL A   1      44.772  30.469  31.578  1.00  0.00     0.049 A 
ATOM     55  C   UNL A   1      39.786  32.863  30.738  1.00  0.00     0.074 A 
ATOM     56  C   UNL A   1      45.727  31.231  32.228  1.00  0.00     0.029 A 
ATOM     57  N   UNL A   1      43.627  31.246  31.501  1.00  0.00    -0.354 N 
ATOM     58  N   UNL A   1      40.999  32.439  31.004  1.00  0.00    -0.248 NA
ATOM     59  C   UNL A   1      39.485  34.204  31.258  1.00  0.00     0.031 C 
ATOM     60  C   UNL A   1      45.145  32.451  32.585  1.00  0.00     0.029 A 
ATOM     61  C   UNL A   1      43.842  32.469  32.113  1.00  0.00     0.049 A 
ATOM     62  H   UNL A   1      42.784  30.969  31.073  1.00  0.00     0.167 HD
ATOM     63  C   UNL A   1      41.612  33.471  31.706  1.00  0.00     0.074 A 
ATOM     64  C   UNL A   1      40.643  34.543  31.810  1.00  0.00     0.031 C 
ATOM     65  C   UNL A   1      42.866  33.524  32.218  1.00  0.00     0.031 A 
BRANCH  52  66
ATOM     66  C   UNL A   1      46.184  28.389  31.302  1.00  0.00    -0.014 A 
ATOM     67  C   UNL A   1      47.246  28.474  30.384  1.00  0.00     0.010 A 
ATOM     68  C   UNL A   1      46.353  27.633  32.475  1.00  0.00     0.010 A 
ATOM     69  C   UNL A   1      48.438  27.782  30.614  1.00  0.00     0.020 A 
ATOM     70  C   UNL A   1      47.553  26.960  32.722  1.00  0.00     0.020 A 
ATOM     71  C   UNL A   1      48.582  27.024  31.781  1.00  0.00     0.054 A 
BRANCH  71  72
ATOM     72  S   UNL A   1      50.146  26.148  32.063  1.00  0.00     0.124 S 
ATOM     73  O   UNL A   1      49.684  24.794  32.355  1.00  0.00    -0.237 OA
ATOM     74  O   UNL A   1      50.841  26.313  30.790  1.00  0.00    -0.237 OA
ATOM     75  O   UNL A   1      50.741  26.861  33.191  1.00  0.00    -0.744 OA
ENDBRANCH  71  72
ENDBRANCH  52  66
BRANCH  53  76
ATOM     76  C   UNL A   1      37.365  32.813  29.789  1.00  0.00    -0.014 A 
ATOM     77  C   UNL A   1      36.399  32.773  30.809  1.00  0.00     0.010 A 
ATOM     78  C   UNL A   1      37.072  33.492  28.593  1.00  0.00     0.010 A 
ATOM     79  C   UNL A   1      35.157  33.391  30.632  1.00  0.00     0.020 A 
ATOM     80  C   UNL A   1      35.842  34.132  28.422  1.00  0.00     0.020 A 
ATOM     81  C   UNL A   1      34.887  34.069  29.439  1.00  0.00     0.054 A 
BRANCH  81  82
ATOM     82  S   UNL A   1      33.296  34.920  29.252  1.00  0.00     0.124 S 
ATOM     83  O   UNL A   1      32.623  34.087  28.259  1.00  0.00    -0.237 OA
ATOM     84  O   UNL A   1      32.745  34.866  30.603  1.00  0.00    -0.237 OA
ATOM     85  O   UNL A   1      33.676  36.255  28.796  1.00  0.00    -0.744 OA
ENDBRANCH  81  82
ENDBRANCH  53  76
BRANCH  65  86
ATOM     86  C   UNL A   1      43.270  34.791  32.923  1.00  0.00    -0.014 A 
ATOM     87  C   UNL A   1      43.774  35.891  32.207  1.00  0.00     0.010 A 
ATOM     88  C   UNL A   1      43.099  34.897  34.315  1.00  0.00     0.010 A 
ATOM     89  C   UNL A   1      44.128  37.065  32.875  1.00  0.00     0.020 A 
ATOM     90  C   UNL A   1      43.428  36.080  34.983  1.00  0.00     0.020 A 
ATOM     91  C   UNL A   1      43.954  37.152  34.260  1.00  0.00     0.054 A 
BRANCH  91  92
ATOM     92  S   UNL A   1      44.381  38.702  35.100  1.00  0.00     0.124 S 
ATOM     93  O   UNL A   1      45.816  38.797  34.848  1.00  0.00    -0.237 OA
ATOM     94  O   UNL A   1      43.555  39.685  34.402  1.00  0.00    -0.237 OA
ATOM     95  O   UNL A   1      44.006  38.457  36.489  1.00  0.00    -0.744 OA
ENDBRANCH  91  92
ENDBRANCH  65  86
ENDBRANCH  39  40
ENDBRANCH  31  34
ENDBRANCH  29  30
ENDBRANCH   1  29
TORSDOF 17
ENDMDL
MODEL 3
REMARK VINA RESULT:     -11.6      1.499      2.298
REMARK SMILES CCc1ccc2c(CC(=O)NCCCNC(=O)c3ccc(-c4c5nc(c(-c6ccc(S(=O)(=O)[O-])cc6)c6ccc([nH]6)c(-c6ccc(S(=O)(=O)[O-])cc6)c6nc(c(-c7ccc(S(=O)(=O)[O-])cc7)c7ccc4[nH]7)C=C6)C=C5)cc3)c(C(=O)c3cc(C)ccn3)[nH]c2c1
REMARK SMILES IDX 13 1 12 2 11 3 9 4 10 5 8 7 7 8 3 9 4 10 90 11 5 12 89 13
REMARK SMILES IDX 6 14 88 15 78 16 2 18 1 19 79 20 80 21 81 22 82 23 87 24
REMARK SMILES IDX 83 25 86 26 84 27 85 28 14 29 15 30 16 31 17 33 18 34 19 35
REMARK SMILES IDX 77 36 20 37 76 38 21 39 22 40 23 41 70 42 24 43 75 44 69 45
REMARK SMILES IDX 71 46 25 47 74 48 68 49 67 50 26 52 56 53 37 54 55 55 38 56
REMARK SMILES IDX 41 57 54 58 72 59 39 60 40 61 53 63 73 64 42 65 27 66 28 67
REMARK SMILES IDX 36 68 29 69 35 70 30 71 31 72 32 73 33 74 34 75 57 76 58 77
REMARK SMILES IDX 66 78 59 79 65 80 60 81 61 82 62 83 63 84 64 85 43 86 44 87
REMARK SMILES IDX 52 88 45 89 51 90 46 91 47 92 48 93 49 94 50 95
REMARK H PARENT 11 6 88 17 15 32 71 51 41 62
REMARK Flexibility Score: inf
ROOT
ATOM      1  C   UNL A   1      32.190  27.701  27.126  1.00  0.00     0.042 C 
ENDROOT
BRANCH   1   2
ATOM      2  C   UNL A   1      32.108  26.448  26.260  1.00  0.00     0.117 C 
BRANCH   2   3
ATOM      3  N   UNL A   1      31.392  25.362  26.897  1.00  0.00    -0.356 N 
ATOM      4  C   UNL A   1      31.007  24.154  26.389  1.00  0.00     0.224 C 
ATOM      5  O   UNL A   1      30.601  23.314  27.200  1.00  0.00    -0.275 OA
ATOM      6  H   UNL A   1      31.146  25.518  27.837  1.00  0.00     0.163 HD
BRANCH   4   7
ATOM      7  C   UNL A   1      31.201  23.811  24.918  1.00  0.00     0.138 C 
BRANCH   7   8
ATOM      8  C   UNL A   1      32.603  23.992  24.398  1.00  0.00    -0.002 A 
ATOM      9  C   UNL A   1      36.391  22.390  25.429  1.00  0.00    -0.046 A 
ATOM     10  C   UNL A   1      35.292  21.889  26.140  1.00  0.00     0.004 A 
ATOM     11  C   UNL A   1      36.181  23.370  24.447  1.00  0.00     0.030 A 
ATOM     12  C   UNL A   1      33.989  22.333  25.885  1.00  0.00     0.011 A 
ATOM     13  C   UNL A   1      34.867  23.800  24.202  1.00  0.00     0.046 A 
ATOM     14  C   UNL A   1      33.767  23.310  24.895  1.00  0.00     0.004 A 
ATOM     15  N   UNL A   1      34.397  24.731  23.308  1.00  0.00    -0.352 N 
ATOM     16  C   UNL A   1      33.017  24.785  23.326  1.00  0.00     0.093 A 
ATOM     17  H   UNL A   1      34.968  25.286  22.731  1.00  0.00     0.167 HD
BRANCH   9  18
ATOM     18  C   UNL A   1      37.762  21.849  25.781  1.00  0.00     0.032 C 
ATOM     19  C   UNL A   1      38.818  22.861  26.202  1.00  0.00     0.009 C 
ENDBRANCH   9  18
BRANCH  16  20
ATOM     20  C   UNL A   1      32.198  25.546  22.389  1.00  0.00     0.227 C 
ATOM     21  O   UNL A   1      31.964  25.177  21.238  1.00  0.00    -0.285 OA
BRANCH  20  22
ATOM     22  C   UNL A   1      31.680  26.875  22.803  1.00  0.00     0.113 A 
ATOM     23  C   UNL A   1      30.309  27.117  22.771  1.00  0.00     0.036 A 
ATOM     24  N   UNL A   1      32.604  27.787  23.192  1.00  0.00    -0.253 NA
ATOM     25  C   UNL A   1      29.852  28.378  23.158  1.00  0.00    -0.047 A 
ATOM     26  C   UNL A   1      32.132  28.987  23.585  1.00  0.00     0.112 A 
ATOM     27  C   UNL A   1      28.392  28.718  23.131  1.00  0.00     0.044 C 
ATOM     28  C   UNL A   1      30.787  29.326  23.582  1.00  0.00     0.023 A 
ENDBRANCH  20  22
ENDBRANCH  16  20
ENDBRANCH   7   8
ENDBRANCH   4   7
ENDBRANCH   2   3
ENDBRANCH   1   2
BRANCH   1  29
ATOM     29  C   UNL A   1      33.560  28.375  27.138  1.00  0.00     0.118 C 
BRANCH  29  30
ATOM     30  N   UNL A   1      33.495  29.788  27.486  1.00  0.00    -0.352 N 
ATOM     31  C   UNL A   1      34.406  30.599  28.114  1.00  0.00     0.251 C 
ATOM     32  H   UNL A   1      32.657  30.236  27.226  1.00  0.00     0.163 HD
ATOM     33  O   UNL A   1      34.062  31.728  28.459  1.00  0.00    -0.269 OA
BRANCH  31  34
ATOM     34  C   UNL A   1      35.783  30.135  28.399  1.00  0.00     0.039 A 
ATOM     35  C   UNL A   1      36.720  30.143  27.359  1.00  0.00     0.014 A 
ATOM     36  C   UNL A   1      36.150  29.650  29.658  1.00  0.00     0.014 A 
ATOM     37  C   UNL A   1      38.034  29.731  27.599  1.00  0.00     0.010 A 
ATOM     38  C   UNL A   1      37.477  29.300  29.911  1.00  0.00     0.010 A 
ATOM     39  C   UNL A   1      38.434  29.342  28.887  1.00  0.00    -0.014 A 
BRANCH  39  40
ATOM     40  C   UNL A   1      39.851  29.008  29.184  1.00  0.00     0.031 A 
ATOM     41  C   UNL A   1      40.774  30.038  29.779  1.00  0.00     0.074 A 
ATOM     42  C   UNL A   1      40.327  27.791  28.855  1.00  0.00     0.049 A 
ATOM     43  N   UNL A   1      42.052  29.943  30.042  1.00  0.00    -0.248 NA
ATOM     44  C   UNL A   1      40.190  31.349  30.099  1.00  0.00     0.031 C 
ATOM     45  C   UNL A   1      39.544  26.715  28.239  1.00  0.00     0.029 A 
ATOM     46  N   UNL A   1      41.584  27.254  28.983  1.00  0.00    -0.354 N 
ATOM     47  C   UNL A   1      42.430  31.183  30.544  1.00  0.00     0.074 A 
ATOM     48  C   UNL A   1      41.254  32.025  30.511  1.00  0.00     0.031 C 
ATOM     49  C   UNL A   1      40.334  25.643  28.062  1.00  0.00     0.029 A 
ATOM     50  C   UNL A   1      41.684  25.966  28.513  1.00  0.00     0.049 A 
ATOM     51  H   UNL A   1      42.341  27.745  29.374  1.00  0.00     0.167 HD
ATOM     52  C   UNL A   1      43.643  31.581  31.001  1.00  0.00     0.031 A 
ATOM     53  C   UNL A   1      42.744  25.137  28.441  1.00  0.00     0.031 A 
ATOM     54  C   UNL A   1      44.810  30.740  31.041  1.00  0.00     0.049 A 
ATOM     55  C   UNL A   1      44.079  25.604  28.947  1.00  0.00     0.074 A 
ATOM     56  C   UNL A   1      46.067  31.036  31.540  1.00  0.00     0.029 A 
ATOM     57  N   UNL A   1      44.867  29.440  30.562  1.00  0.00    -0.354 N 
ATOM     58  N   UNL A   1      44.401  26.763  29.470  1.00  0.00    -0.248 NA
ATOM     59  C   UNL A   1      45.193  24.649  28.857  1.00  0.00     0.031 C 
ATOM     60  C   UNL A   1      46.897  29.931  31.321  1.00  0.00     0.029 A 
ATOM     61  C   UNL A   1      46.143  28.929  30.731  1.00  0.00     0.049 A 
ATOM     62  H   UNL A   1      44.112  28.951  30.162  1.00  0.00     0.167 HD
ATOM     63  C   UNL A   1      45.751  26.670  29.791  1.00  0.00     0.074 A 
ATOM     64  C   UNL A   1      46.180  25.337  29.417  1.00  0.00     0.031 C 
ATOM     65  C   UNL A   1      46.560  27.605  30.346  1.00  0.00     0.031 A 
BRANCH  52  66
ATOM     66  C   UNL A   1      43.769  32.999  31.491  1.00  0.00    -0.014 A 
ATOM     67  C   UNL A   1      44.186  34.029  30.630  1.00  0.00     0.010 A 
ATOM     68  C   UNL A   1      43.426  33.315  32.818  1.00  0.00     0.010 A 
ATOM     69  C   UNL A   1      44.300  35.342  31.097  1.00  0.00     0.020 A 
ATOM     70  C   UNL A   1      43.514  34.629  33.283  1.00  0.00     0.020 A 
ATOM     71  C   UNL A   1      43.968  35.632  32.425  1.00  0.00     0.054 A 
BRANCH  71  72
ATOM     72  S   UNL A   1      44.109  37.347  33.002  1.00  0.00     0.124 S 
ATOM     73  O   UNL A   1      43.878  38.098  31.771  1.00  0.00    -0.237 OA
ATOM     74  O   UNL A   1      43.047  37.438  34.001  1.00  0.00    -0.237 OA
ATOM     75  O   UNL A   1      45.467  37.422  33.534  1.00  0.00    -0.744 OA
ENDBRANCH  71  72
ENDBRANCH  52  66
BRANCH  53  76
ATOM     76  C   UNL A   1      42.577  23.775  27.868  1.00  0.00    -0.014 A 
ATOM     77  C   UNL A   1      42.272  22.685  28.701  1.00  0.00     0.010 A 
ATOM     78  C   UNL A   1      42.702  23.566  26.483  1.00  0.00     0.010 A 
ATOM     79  C   UNL A   1      42.105  21.407  28.161  1.00  0.00     0.020 A 
ATOM     80  C   UNL A   1      42.511  22.295  25.936  1.00  0.00     0.020 A 
ATOM     81  C   UNL A   1      42.223  21.220  26.779  1.00  0.00     0.054 A 
BRANCH  81  82
ATOM     82  S   UNL A   1      41.940  19.567  26.088  1.00  0.00     0.124 S 
ATOM     83  O   UNL A   1      42.403  18.703  27.170  1.00  0.00    -0.237 OA
ATOM     84  O   UNL A   1      40.499  19.565  25.847  1.00  0.00    -0.237 OA
ATOM     85  O   UNL A   1      42.764  19.557  24.881  1.00  0.00    -0.744 OA
ENDBRANCH  81  82
ENDBRANCH  53  76
BRANCH  65  86
ATOM     86  C   UNL A   1      47.991  27.214  30.599  1.00  0.00    -0.014 A 
ATOM     87  C   UNL A   1      48.978  27.393  29.613  1.00  0.00     0.010 A 
ATOM     88  C   UNL A   1      48.362  26.705  31.857  1.00  0.00     0.010 A 
ATOM     89  C   UNL A   1      50.305  27.041  29.870  1.00  0.00     0.020 A 
ATOM     90  C   UNL A   1      49.694  26.376  32.127  1.00  0.00     0.020 A 
ATOM     91  C   UNL A   1      50.655  26.533  31.125  1.00  0.00     0.054 A 
BRANCH  91  92
ATOM     92  S   UNL A   1      52.391  26.124  31.451  1.00  0.00     0.124 S 
ATOM     93  O   UNL A   1      52.978  26.214  30.117  1.00  0.00    -0.237 OA
ATOM     94  O   UNL A   1      52.798  27.168  32.388  1.00  0.00    -0.237 OA
ATOM     95  O   UNL A   1      52.330  24.779  32.016  1.00  0.00    -0.744 OA
ENDBRANCH  91  92
ENDBRANCH  65  86
ENDBRANCH  39  40
ENDBRANCH  31  34
ENDBRANCH  29  30
ENDBRANCH   1  29
TORSDOF 17
ENDMDL
