MODEL 1
REMARK VINA RESULT:     -11.7      0.000      0.000
REMARK SMILES O=C(NCCCNC(=O)c1nccnc1C(=O)Nc1ccc2c(c1)OCO2)c1ccc(-c2c3nc(c(-c4ccc(S(=O)(=O)[O-])cc4)c4ccc([nH]4)c(-c4ccc(S(=O)(=O)[O-])cc4)c4nc(c(-c5ccc(S(=O)(=O)[O-])cc5)c5ccc2[nH]5)C=C4)C=C3)cc1
REMARK SMILES IDX 4 1 3 2 1 3 2 4 28 6 29 7 87 8 30 9 86 10 31 11 32 12 33 13
REMARK SMILES IDX 80 14 34 15 85 16 79 17 81 18 35 19 84 20 78 21 77 22 36 24
REMARK SMILES IDX 66 25 47 26 65 27 48 28 51 29 64 30 82 31 49 32 50 33 63 35
REMARK SMILES IDX 83 36 52 37 37 38 38 39 46 40 39 41 45 42 40 43 41 44 42 45
REMARK SMILES IDX 43 46 44 47 67 48 68 49 76 50 69 51 75 52 70 53 71 54 72 55
REMARK SMILES IDX 73 56 74 57 53 58 54 59 62 60 55 61 61 62 56 63 57 64 58 65
REMARK SMILES IDX 59 66 60 67 5 68 6 69 7 70 8 71 9 73 10 74 11 75 15 76 12 77
REMARK SMILES IDX 14 78 13 79 16 80 17 81 18 82 19 84 20 85 24 86 21 87 23 88
REMARK SMILES IDX 22 89 25 90 27 91 26 92
REMARK H PARENT 3 5 81 23 51 34 7 72 18 83
REMARK Flexibility Score: inf
ROOT
ATOM      1  C   UNL A   1      33.496  28.225  27.334  1.00  0.00     0.118 C 
ENDROOT
BRANCH   1   2
ATOM      2  N   UNL A   1      33.411  29.662  27.535  1.00  0.00    -0.352 N 
ATOM      3  O   UNL A   1      34.050  31.724  28.164  1.00  0.00    -0.269 OA
ATOM      4  C   UNL A   1      34.357  30.549  27.986  1.00  0.00     0.251 C 
ATOM      5  H   UNL A   1      32.540  30.061  27.313  1.00  0.00     0.163 HD
BRANCH   4   6
ATOM      6  C   UNL A   1      35.726  30.088  28.294  1.00  0.00     0.039 A 
ATOM      7  C   UNL A   1      36.076  29.646  29.574  1.00  0.00     0.014 A 
ATOM      8  C   UNL A   1      36.671  30.082  27.265  1.00  0.00     0.014 A 
ATOM      9  C   UNL A   1      37.400  29.305  29.851  1.00  0.00     0.010 A 
ATOM     10  C   UNL A   1      37.984  29.695  27.533  1.00  0.00     0.010 A 
ATOM     11  C   UNL A   1      38.368  29.333  28.835  1.00  0.00    -0.014 A 
BRANCH  11  12
ATOM     12  C   UNL A   1      39.779  28.968  29.112  1.00  0.00     0.031 A 
ATOM     13  C   UNL A   1      40.741  29.994  29.643  1.00  0.00     0.074 A 
ATOM     14  C   UNL A   1      40.210  27.724  28.832  1.00  0.00     0.049 A 
ATOM     15  N   UNL A   1      42.029  29.889  29.850  1.00  0.00    -0.248 NA
ATOM     16  C   UNL A   1      40.183  31.313  29.977  1.00  0.00     0.031 C 
ATOM     17  C   UNL A   1      39.375  26.640  28.313  1.00  0.00     0.029 A 
ATOM     18  N   UNL A   1      41.462  27.169  28.924  1.00  0.00    -0.354 N 
ATOM     19  C   UNL A   1      42.443  31.133  30.312  1.00  0.00     0.074 A 
ATOM     20  C   UNL A   1      41.269  31.982  30.337  1.00  0.00     0.031 C 
ATOM     21  C   UNL A   1      40.138  25.552  28.127  1.00  0.00     0.029 A 
ATOM     22  C   UNL A   1      41.521  25.877  28.462  1.00  0.00     0.049 A 
ATOM     23  H   UNL A   1      42.240  27.651  29.285  1.00  0.00     0.167 HD
ATOM     24  C   UNL A   1      43.685  31.532  30.678  1.00  0.00     0.031 A 
ATOM     25  C   UNL A   1      42.573  25.053  28.287  1.00  0.00     0.031 A 
ATOM     26  C   UNL A   1      44.849  30.686  30.636  1.00  0.00     0.049 A 
ATOM     27  C   UNL A   1      43.949  25.523  28.662  1.00  0.00     0.074 A 
ATOM     28  C   UNL A   1      46.145  30.987  31.021  1.00  0.00     0.029 A 
ATOM     29  N   UNL A   1      44.864  29.381  30.169  1.00  0.00    -0.354 N 
ATOM     30  N   UNL A   1      44.315  26.688  29.139  1.00  0.00    -0.248 NA
ATOM     31  C   UNL A   1      45.051  24.568  28.483  1.00  0.00     0.031 C 
ATOM     32  C   UNL A   1      46.953  29.881  30.736  1.00  0.00     0.029 A 
ATOM     33  C   UNL A   1      46.150  28.871  30.230  1.00  0.00     0.049 A 
ATOM     34  H   UNL A   1      44.076  28.889  29.841  1.00  0.00     0.167 HD
ATOM     35  C   UNL A   1      45.688  26.600  29.341  1.00  0.00     0.074 A 
ATOM     36  C   UNL A   1      46.085  25.267  28.937  1.00  0.00     0.031 C 
ATOM     37  C   UNL A   1      46.535  27.539  29.827  1.00  0.00     0.031 A 
BRANCH  24  38
ATOM     38  C   UNL A   1      43.850  32.966  31.110  1.00  0.00    -0.014 A 
ATOM     39  C   UNL A   1      43.488  33.390  32.400  1.00  0.00     0.010 A 
ATOM     40  C   UNL A   1      44.380  33.906  30.206  1.00  0.00     0.010 A 
ATOM     41  C   UNL A   1      43.588  34.738  32.757  1.00  0.00     0.020 A 
ATOM     42  C   UNL A   1      44.509  35.250  30.568  1.00  0.00     0.020 A 
ATOM     43  C   UNL A   1      44.084  35.662  31.832  1.00  0.00     0.054 A 
BRANCH  43  44
ATOM     44  S   UNL A   1      44.169  37.411  32.304  1.00  0.00     0.124 S 
ATOM     45  O   UNL A   1      43.692  38.071  31.090  1.00  0.00    -0.237 OA
ATOM     46  O   UNL A   1      43.265  37.481  33.449  1.00  0.00    -0.237 OA
ATOM     47  O   UNL A   1      45.580  37.621  32.614  1.00  0.00    -0.744 OA
ENDBRANCH  43  44
ENDBRANCH  24  38
BRANCH  25  48
ATOM     48  C   UNL A   1      42.337  23.701  27.715  1.00  0.00    -0.014 A 
ATOM     49  C   UNL A   1      42.456  23.478  26.334  1.00  0.00     0.010 A 
ATOM     50  C   UNL A   1      42.084  22.610  28.568  1.00  0.00     0.010 A 
ATOM     51  C   UNL A   1      42.341  22.185  25.816  1.00  0.00     0.020 A 
ATOM     52  C   UNL A   1      41.993  21.313  28.057  1.00  0.00     0.020 A 
ATOM     53  C   UNL A   1      42.122  21.110  26.682  1.00  0.00     0.054 A 
BRANCH  53  54
ATOM     54  S   UNL A   1      42.089  19.428  25.999  1.00  0.00     0.124 S 
ATOM     55  O   UNL A   1      40.666  19.233  25.743  1.00  0.00    -0.237 OA
ATOM     56  O   UNL A   1      42.934  19.553  24.814  1.00  0.00    -0.237 OA
ATOM     57  O   UNL A   1      42.652  18.611  27.072  1.00  0.00    -0.744 OA
ENDBRANCH  53  54
ENDBRANCH  25  48
BRANCH  37  58
ATOM     58  C   UNL A   1      47.982  27.160  29.996  1.00  0.00    -0.014 A 
ATOM     59  C   UNL A   1      48.947  27.517  29.040  1.00  0.00     0.010 A 
ATOM     60  C   UNL A   1      48.393  26.528  31.185  1.00  0.00     0.010 A 
ATOM     61  C   UNL A   1      50.300  27.247  29.269  1.00  0.00     0.020 A 
ATOM     62  C   UNL A   1      49.745  26.276  31.427  1.00  0.00     0.020 A 
ATOM     63  C   UNL A   1      50.691  26.635  30.465  1.00  0.00     0.054 A 
BRANCH  63  64
ATOM     64  S   UNL A   1      52.459  26.380  30.781  1.00  0.00     0.124 S 
ATOM     65  O   UNL A   1      52.446  25.215  31.662  1.00  0.00    -0.237 OA
ATOM     66  O   UNL A   1      52.996  26.148  29.442  1.00  0.00    -0.237 OA
ATOM     67  O   UNL A   1      52.884  27.630  31.408  1.00  0.00    -0.744 OA
ENDBRANCH  63  64
ENDBRANCH  37  58
ENDBRANCH  11  12
ENDBRANCH   4   6
ENDBRANCH   1   2
BRANCH   1  68
ATOM     68  C   UNL A   1      32.807  27.726  26.070  1.00  0.00     0.042 C 
BRANCH  68  69
ATOM     69  C   UNL A   1      32.940  26.240  25.751  1.00  0.00     0.118 C 
BRANCH  69  70
ATOM     70  N   UNL A   1      34.298  25.721  25.741  1.00  0.00    -0.351 N 
ATOM     71  C   UNL A   1      34.751  24.504  25.274  1.00  0.00     0.272 C 
ATOM     72  H   UNL A   1      34.986  26.317  26.116  1.00  0.00     0.163 HD
ATOM     73  O   UNL A   1      35.916  24.376  24.909  1.00  0.00    -0.267 OA
BRANCH  71  74
ATOM     74  C   UNL A   1      33.820  23.382  25.103  1.00  0.00     0.159 A 
ATOM     75  N   UNL A   1      33.813  22.557  26.206  1.00  0.00    -0.247 NA
ATOM     76  C   UNL A   1      33.000  23.177  23.998  1.00  0.00     0.159 A 
ATOM     77  C   UNL A   1      32.960  21.518  26.170  1.00  0.00     0.132 A 
ATOM     78  N   UNL A   1      32.145  22.097  24.001  1.00  0.00    -0.247 NA
ATOM     79  C   UNL A   1      32.142  21.291  25.088  1.00  0.00     0.132 A 
BRANCH  76  80
ATOM     80  C   UNL A   1      32.860  23.976  22.714  1.00  0.00     0.276 C 
ATOM     81  O   UNL A   1      33.774  23.940  21.886  1.00  0.00    -0.267 OA
ATOM     82  N   UNL A   1      31.633  24.439  22.300  1.00  0.00    -0.320 N 
ATOM     83  H   UNL A   1      31.184  23.908  21.603  1.00  0.00     0.170 HD
BRANCH  82  84
ATOM     84  C   UNL A   1      30.941  25.573  22.746  1.00  0.00     0.045 A 
ATOM     85  C   UNL A   1      29.863  25.500  23.650  1.00  0.00     0.030 A 
ATOM     86  C   UNL A   1      31.330  26.801  22.199  1.00  0.00     0.076 A 
ATOM     87  C   UNL A   1      29.094  26.640  23.919  1.00  0.00     0.053 A 
ATOM     88  C   UNL A   1      30.508  27.882  22.422  1.00  0.00     0.167 A 
ATOM     89  C   UNL A   1      29.408  27.797  23.243  1.00  0.00     0.165 A 
ATOM     90  O   UNL A   1      30.616  29.100  21.825  1.00  0.00    -0.454 OA
ATOM     91  O   UNL A   1      28.684  28.949  23.254  1.00  0.00    -0.454 OA
ATOM     92  C   UNL A   1      29.353  29.685  22.208  1.00  0.00     0.468 C 
ENDBRANCH  82  84
ENDBRANCH  76  80
ENDBRANCH  71  74
ENDBRANCH  69  70
ENDBRANCH  68  69
ENDBRANCH   1  68
TORSDOF 15
ENDMDL
MODEL 2
REMARK VINA RESULT:     -11.6      1.571      3.535
REMARK SMILES O=C(NCCCNC(=O)c1nccnc1C(=O)Nc1ccc2c(c1)OCO2)c1ccc(-c2c3nc(c(-c4ccc(S(=O)(=O)[O-])cc4)c4ccc([nH]4)c(-c4ccc(S(=O)(=O)[O-])cc4)c4nc(c(-c5ccc(S(=O)(=O)[O-])cc5)c5ccc2[nH]5)C=C4)C=C3)cc1
REMARK SMILES IDX 4 1 3 2 1 3 2 4 28 6 29 7 87 8 30 9 86 10 31 11 32 12 33 13
REMARK SMILES IDX 80 14 34 15 85 16 79 17 81 18 35 19 84 20 78 21 77 22 36 24
REMARK SMILES IDX 66 25 47 26 65 27 48 28 51 29 64 30 82 31 49 32 50 33 63 35
REMARK SMILES IDX 83 36 52 37 37 38 38 39 46 40 39 41 45 42 40 43 41 44 42 45
REMARK SMILES IDX 43 46 44 47 67 48 68 49 76 50 69 51 75 52 70 53 71 54 72 55
REMARK SMILES IDX 73 56 74 57 53 58 54 59 62 60 55 61 61 62 56 63 57 64 58 65
REMARK SMILES IDX 59 66 60 67 5 68 6 69 7 70 8 71 9 73 10 74 11 75 15 76 12 77
REMARK SMILES IDX 14 78 13 79 16 80 17 81 18 82 19 84 20 85 24 86 21 87 23 88
REMARK SMILES IDX 22 89 25 90 27 91 26 92
REMARK H PARENT 3 5 81 23 51 34 7 72 18 83
REMARK Flexibility Score: inf
ROOT
ATOM      1  C   UNL A   1      34.022  28.740  26.252  1.00  0.00     0.118 C 
ENDROOT
BRANCH   1   2
ATOM      2  N   UNL A   1      33.785  30.012  26.914  1.00  0.00    -0.352 N 
ATOM      3  O   UNL A   1      34.137  31.733  28.318  1.00  0.00    -0.269 OA
ATOM      4  C   UNL A   1      34.566  30.702  27.808  1.00  0.00     0.251 C 
ATOM      5  H   UNL A   1      32.932  30.446  26.686  1.00  0.00     0.163 HD
BRANCH   4   6
ATOM      6  C   UNL A   1      35.899  30.190  28.186  1.00  0.00     0.039 A 
ATOM      7  C   UNL A   1      36.149  29.683  29.465  1.00  0.00     0.014 A 
ATOM      8  C   UNL A   1      36.911  30.203  27.223  1.00  0.00     0.014 A 
ATOM      9  C   UNL A   1      37.442  29.293  29.815  1.00  0.00     0.010 A 
ATOM     10  C   UNL A   1      38.193  29.768  27.561  1.00  0.00     0.010 A 
ATOM     11  C   UNL A   1      38.477  29.338  28.868  1.00  0.00    -0.014 A 
BRANCH  11  12
ATOM     12  C   UNL A   1      39.857  28.922  29.222  1.00  0.00     0.031 A 
ATOM     13  C   UNL A   1      40.810  29.900  29.850  1.00  0.00     0.074 A 
ATOM     14  C   UNL A   1      40.270  27.675  28.927  1.00  0.00     0.049 A 
ATOM     15  N   UNL A   1      42.079  29.750  30.135  1.00  0.00    -0.248 NA
ATOM     16  C   UNL A   1      40.269  31.224  30.194  1.00  0.00     0.031 C 
ATOM     17  C   UNL A   1      39.441  26.635  28.317  1.00  0.00     0.029 A 
ATOM     18  N   UNL A   1      41.498  27.080  29.079  1.00  0.00    -0.354 N 
ATOM     19  C   UNL A   1      42.496  30.964  30.667  1.00  0.00     0.074 A 
ATOM     20  C   UNL A   1      41.347  31.847  30.646  1.00  0.00     0.031 C 
ATOM     21  C   UNL A   1      40.184  25.531  28.142  1.00  0.00     0.029 A 
ATOM     22  C   UNL A   1      41.551  25.804  28.576  1.00  0.00     0.049 A 
ATOM     23  H   UNL A   1      42.264  27.526  29.507  1.00  0.00     0.167 HD
ATOM     24  C   UNL A   1      43.722  31.314  31.126  1.00  0.00     0.031 A 
ATOM     25  C   UNL A   1      42.589  24.954  28.441  1.00  0.00     0.031 A 
ATOM     26  C   UNL A   1      44.863  30.435  31.129  1.00  0.00     0.049 A 
ATOM     27  C   UNL A   1      43.950  25.370  28.920  1.00  0.00     0.074 A 
ATOM     28  C   UNL A   1      46.138  30.684  31.607  1.00  0.00     0.029 A 
ATOM     29  N   UNL A   1      44.871  29.146  30.618  1.00  0.00    -0.354 N 
ATOM     30  N   UNL A   1      44.317  26.507  29.460  1.00  0.00    -0.248 NA
ATOM     31  C   UNL A   1      45.034  24.389  28.779  1.00  0.00     0.031 C 
ATOM     32  C   UNL A   1      46.932  29.564  31.335  1.00  0.00     0.029 A 
ATOM     33  C   UNL A   1      46.136  28.595  30.743  1.00  0.00     0.049 A 
ATOM     34  H   UNL A   1      44.093  28.689  30.223  1.00  0.00     0.167 HD
ATOM     35  C   UNL A   1      45.670  26.370  29.747  1.00  0.00     0.074 A 
ATOM     36  C   UNL A   1      46.056  25.040  29.322  1.00  0.00     0.031 C 
ATOM     37  C   UNL A   1      46.510  27.268  30.320  1.00  0.00     0.031 A 
BRANCH  24  38
ATOM     38  C   UNL A   1      43.899  32.727  31.618  1.00  0.00    -0.014 A 
ATOM     39  C   UNL A   1      43.703  33.063  32.969  1.00  0.00     0.010 A 
ATOM     40  C   UNL A   1      44.270  33.736  30.710  1.00  0.00     0.010 A 
ATOM     41  C   UNL A   1      43.807  34.392  33.390  1.00  0.00     0.020 A 
ATOM     42  C   UNL A   1      44.404  35.062  31.132  1.00  0.00     0.020 A 
ATOM     43  C   UNL A   1      44.143  35.385  32.464  1.00  0.00     0.054 A 
BRANCH  43  44
ATOM     44  S   UNL A   1      44.234  37.107  33.026  1.00  0.00     0.124 S 
ATOM     45  O   UNL A   1      43.022  37.222  33.836  1.00  0.00    -0.237 OA
ATOM     46  O   UNL A   1      45.490  37.138  33.772  1.00  0.00    -0.237 OA
ATOM     47  O   UNL A   1      44.230  37.879  31.786  1.00  0.00    -0.744 OA
ENDBRANCH  43  44
ENDBRANCH  24  38
BRANCH  25  48
ATOM     48  C   UNL A   1      42.353  23.630  27.807  1.00  0.00    -0.014 A 
ATOM     49  C   UNL A   1      42.671  23.417  26.456  1.00  0.00     0.010 A 
ATOM     50  C   UNL A   1      41.896  22.549  28.585  1.00  0.00     0.010 A 
ATOM     51  C   UNL A   1      42.550  22.142  25.896  1.00  0.00     0.020 A 
ATOM     52  C   UNL A   1      41.797  21.269  28.036  1.00  0.00     0.020 A 
ATOM     53  C   UNL A   1      42.125  21.074  26.693  1.00  0.00     0.054 A 
BRANCH  53  54
ATOM     54  S   UNL A   1      42.084  19.408  25.973  1.00  0.00     0.124 S 
ATOM     55  O   UNL A   1      40.662  19.230  25.700  1.00  0.00    -0.237 OA
ATOM     56  O   UNL A   1      42.941  19.552  24.798  1.00  0.00    -0.237 OA
ATOM     57  O   UNL A   1      42.631  18.563  27.033  1.00  0.00    -0.744 OA
ENDBRANCH  53  54
ENDBRANCH  25  48
BRANCH  37  58
ATOM     58  C   UNL A   1      47.931  26.839  30.568  1.00  0.00    -0.014 A 
ATOM     59  C   UNL A   1      48.945  27.091  29.628  1.00  0.00     0.010 A 
ATOM     60  C   UNL A   1      48.271  26.271  31.810  1.00  0.00     0.010 A 
ATOM     61  C   UNL A   1      50.275  26.779  29.926  1.00  0.00     0.020 A 
ATOM     62  C   UNL A   1      49.601  25.979  32.120  1.00  0.00     0.020 A 
ATOM     63  C   UNL A   1      50.595  26.232  31.173  1.00  0.00     0.054 A 
BRANCH  63  64
ATOM     64  S   UNL A   1      52.339  25.924  31.571  1.00  0.00     0.124 S 
ATOM     65  O   UNL A   1      52.616  26.971  32.552  1.00  0.00    -0.237 OA
ATOM     66  O   UNL A   1      52.313  24.562  32.098  1.00  0.00    -0.237 OA
ATOM     67  O   UNL A   1      53.020  26.077  30.288  1.00  0.00    -0.744 OA
ENDBRANCH  63  64
ENDBRANCH  37  58
ENDBRANCH  11  12
ENDBRANCH   4   6
ENDBRANCH   1   2
BRANCH   1  68
ATOM     68  C   UNL A   1      33.240  27.571  26.839  1.00  0.00     0.042 C 
BRANCH  68  69
ATOM     69  C   UNL A   1      31.751  27.502  26.513  1.00  0.00     0.118 C 
BRANCH  69  70
ATOM     70  N   UNL A   1      31.093  26.252  26.856  1.00  0.00    -0.351 N 
ATOM     71  C   UNL A   1      31.214  25.021  26.245  1.00  0.00     0.272 C 
ATOM     72  H   UNL A   1      30.481  26.288  27.626  1.00  0.00     0.163 HD
ATOM     73  O   UNL A   1      30.985  23.992  26.874  1.00  0.00    -0.267 OA
BRANCH  71  74
ATOM     74  C   UNL A   1      31.725  24.920  24.872  1.00  0.00     0.159 A 
ATOM     75  N   UNL A   1      30.777  25.302  23.949  1.00  0.00    -0.247 NA
ATOM     76  C   UNL A   1      33.015  24.537  24.519  1.00  0.00     0.159 A 
ATOM     77  C   UNL A   1      31.157  25.288  22.660  1.00  0.00     0.132 A 
ATOM     78  N   UNL A   1      33.361  24.531  23.185  1.00  0.00    -0.247 NA
ATOM     79  C   UNL A   1      32.425  24.909  22.284  1.00  0.00     0.132 A 
BRANCH  76  80
ATOM     80  C   UNL A   1      34.184  24.103  25.385  1.00  0.00     0.276 C 
ATOM     81  O   UNL A   1      35.087  24.911  25.619  1.00  0.00    -0.267 OA
ATOM     82  N   UNL A   1      34.095  22.988  26.186  1.00  0.00    -0.320 N 
ATOM     83  H   UNL A   1      33.906  23.154  27.137  1.00  0.00     0.170 HD
BRANCH  82  84
ATOM     84  C   UNL A   1      34.237  21.643  25.815  1.00  0.00     0.045 A 
ATOM     85  C   UNL A   1      35.444  21.115  25.319  1.00  0.00     0.030 A 
ATOM     86  C   UNL A   1      33.091  20.845  25.901  1.00  0.00     0.076 A 
ATOM     87  C   UNL A   1      35.479  19.816  24.795  1.00  0.00     0.053 A 
ATOM     88  C   UNL A   1      33.139  19.604  25.307  1.00  0.00     0.167 A 
ATOM     89  C   UNL A   1      34.297  19.113  24.751  1.00  0.00     0.165 A 
ATOM     90  O   UNL A   1      32.081  18.769  25.124  1.00  0.00    -0.454 OA
ATOM     91  O   UNL A   1      34.105  17.912  24.140  1.00  0.00    -0.454 OA
ATOM     92  C   UNL A   1      32.667  17.809  24.219  1.00  0.00     0.468 C 
ENDBRANCH  82  84
ENDBRANCH  76  80
ENDBRANCH  71  74
ENDBRANCH  69  70
ENDBRANCH  68  69
ENDBRANCH   1  68
TORSDOF 15
ENDMDL
MODEL 3
REMARK VINA RESULT:     -11.4      2.917      9.282
REMARK SMILES O=C(NCCCNC(=O)c1nccnc1C(=O)Nc1ccc2c(c1)OCO2)c1ccc(-c2c3nc(c(-c4ccc(S(=O)(=O)[O-])cc4)c4ccc([nH]4)c(-c4ccc(S(=O)(=O)[O-])cc4)c4nc(c(-c5ccc(S(=O)(=O)[O-])cc5)c5ccc2[nH]5)C=C4)C=C3)cc1
REMARK SMILES IDX 4 1 3 2 1 3 2 4 28 6 29 7 87 8 30 9 86 10 31 11 32 12 33 13
REMARK SMILES IDX 80 14 34 15 85 16 79 17 81 18 35 19 84 20 78 21 77 22 36 24
REMARK SMILES IDX 66 25 47 26 65 27 48 28 51 29 64 30 82 31 49 32 50 33 63 35
REMARK SMILES IDX 83 36 52 37 37 38 38 39 46 40 39 41 45 42 40 43 41 44 42 45
REMARK SMILES IDX 43 46 44 47 67 48 68 49 76 50 69 51 75 52 70 53 71 54 72 55
REMARK SMILES IDX 73 56 74 57 53 58 54 59 62 60 55 61 61 62 56 63 57 64 58 65
REMARK SMILES IDX 59 66 60 67 5 68 6 69 7 70 8 71 9 73 10 74 11 75 15 76 12 77
REMARK SMILES IDX 14 78 13 79 16 80 17 81 18 82 19 84 20 85 24 86 21 87 23 88
REMARK SMILES IDX 22 89 25 90 27 91 26 92
REMARK H PARENT 3 5 81 23 51 34 7 72 18 83
REMARK Flexibility Score: inf
ROOT
ATOM      1  C   UNL A   1      36.598  23.877  25.710  1.00  0.00     0.118 C 
ENDROOT
BRANCH   1   2
ATOM      2  N   UNL A   1      37.708  22.942  25.778  1.00  0.00    -0.352 N 
ATOM      3  O   UNL A   1      39.799  22.206  26.159  1.00  0.00    -0.269 OA
ATOM      4  C   UNL A   1      38.977  23.110  26.276  1.00  0.00     0.251 C 
ATOM      5  H   UNL A   1      37.521  22.049  25.410  1.00  0.00     0.163 HD
BRANCH   4   6
ATOM      6  C   UNL A   1      39.366  24.384  26.914  1.00  0.00     0.039 A 
ATOM      7  C   UNL A   1      40.098  25.353  26.220  1.00  0.00     0.014 A 
ATOM      8  C   UNL A   1      38.965  24.614  28.232  1.00  0.00     0.014 A 
ATOM      9  C   UNL A   1      40.526  26.504  26.883  1.00  0.00     0.010 A 
ATOM     10  C   UNL A   1      39.354  25.788  28.879  1.00  0.00     0.010 A 
ATOM     11  C   UNL A   1      40.164  26.728  28.220  1.00  0.00    -0.014 A 
BRANCH  11  12
ATOM     12  C   UNL A   1      40.606  27.950  28.938  1.00  0.00     0.031 A 
ATOM     13  C   UNL A   1      41.948  27.993  29.613  1.00  0.00     0.074 A 
ATOM     14  C   UNL A   1      39.774  29.004  29.029  1.00  0.00     0.049 A 
ATOM     15  N   UNL A   1      42.463  28.929  30.369  1.00  0.00    -0.248 NA
ATOM     16  C   UNL A   1      42.823  26.825  29.421  1.00  0.00     0.031 C 
ATOM     17  C   UNL A   1      38.447  29.085  28.418  1.00  0.00     0.029 A 
ATOM     18  N   UNL A   1      39.913  30.199  29.689  1.00  0.00    -0.354 N 
ATOM     19  C   UNL A   1      43.709  28.456  30.765  1.00  0.00     0.074 A 
ATOM     20  C   UNL A   1      43.862  27.139  30.180  1.00  0.00     0.031 C 
ATOM     21  C   UNL A   1      37.890  30.264  28.736  1.00  0.00     0.029 A 
ATOM     22  C   UNL A   1      38.798  30.996  29.615  1.00  0.00     0.049 A 
ATOM     23  H   UNL A   1      40.733  30.458  30.169  1.00  0.00     0.167 HD
ATOM     24  C   UNL A   1      44.636  29.060  31.547  1.00  0.00     0.031 A 
ATOM     25  C   UNL A   1      38.514  32.170  30.214  1.00  0.00     0.031 A 
ATOM     26  C   UNL A   1      44.469  30.363  32.137  1.00  0.00     0.049 A 
ATOM     27  C   UNL A   1      39.537  32.809  31.108  1.00  0.00     0.074 A 
ATOM     28  C   UNL A   1      45.366  31.076  32.914  1.00  0.00     0.029 A 
ATOM     29  N   UNL A   1      43.327  31.141  32.029  1.00  0.00    -0.354 N 
ATOM     30  N   UNL A   1      40.727  32.367  31.437  1.00  0.00    -0.248 NA
ATOM     31  C   UNL A   1      39.185  34.104  31.705  1.00  0.00     0.031 C 
ATOM     32  C   UNL A   1      44.745  32.262  33.320  1.00  0.00     0.029 A 
ATOM     33  C   UNL A   1      43.484  32.315  32.747  1.00  0.00     0.049 A 
ATOM     34  H   UNL A   1      42.522  30.895  31.518  1.00  0.00     0.167 HD
ATOM     35  C   UNL A   1      41.278  33.343  32.260  1.00  0.00     0.074 A 
ATOM     36  C   UNL A   1      40.292  34.397  32.378  1.00  0.00     0.031 C 
ATOM     37  C   UNL A   1      42.496  33.361  32.855  1.00  0.00     0.031 A 
BRANCH  24  38
ATOM     38  C   UNL A   1      45.896  28.289  31.845  1.00  0.00    -0.014 A 
ATOM     39  C   UNL A   1      45.990  27.441  32.962  1.00  0.00     0.010 A 
ATOM     40  C   UNL A   1      47.005  28.416  30.989  1.00  0.00     0.010 A 
ATOM     41  C   UNL A   1      47.190  26.787  33.256  1.00  0.00     0.020 A 
ATOM     42  C   UNL A   1      48.199  27.742  31.263  1.00  0.00     0.020 A 
ATOM     43  C   UNL A   1      48.292  26.955  32.412  1.00  0.00     0.054 A 
BRANCH  43  44
ATOM     44  S   UNL A   1      49.850  26.128  32.835  1.00  0.00     0.124 S 
ATOM     45  O   UNL A   1      49.605  25.719  34.217  1.00  0.00    -0.237 OA
ATOM     46  O   UNL A   1      49.913  25.039  31.862  1.00  0.00    -0.237 OA
ATOM     47  O   UNL A   1      50.857  27.172  32.663  1.00  0.00    -0.744 OA
ENDBRANCH  43  44
ENDBRANCH  24  38
BRANCH  25  48
ATOM     48  C   UNL A   1      37.184  32.791  29.980  1.00  0.00    -0.014 A 
ATOM     49  C   UNL A   1      36.137  32.610  30.899  1.00  0.00     0.010 A 
ATOM     50  C   UNL A   1      36.990  33.645  28.877  1.00  0.00     0.010 A 
ATOM     51  C   UNL A   1      34.925  33.286  30.729  1.00  0.00     0.020 A 
ATOM     52  C   UNL A   1      35.789  34.340  28.717  1.00  0.00     0.020 A 
ATOM     53  C   UNL A   1      34.763  34.155  29.645  1.00  0.00     0.054 A 
BRANCH  53  54
ATOM     54  S   UNL A   1      33.222  35.105  29.509  1.00  0.00     0.124 S 
ATOM     55  O   UNL A   1      32.674  34.988  30.857  1.00  0.00    -0.237 OA
ATOM     56  O   UNL A   1      33.703  36.432  29.134  1.00  0.00    -0.237 OA
ATOM     57  O   UNL A   1      32.479  34.403  28.466  1.00  0.00    -0.744 OA
ENDBRANCH  53  54
ENDBRANCH  25  48
BRANCH  37  58
ATOM     58  C   UNL A   1      42.865  34.577  33.662  1.00  0.00    -0.014 A 
ATOM     59  C   UNL A   1      42.795  34.573  35.065  1.00  0.00     0.010 A 
ATOM     60  C   UNL A   1      43.391  35.705  33.002  1.00  0.00     0.010 A 
ATOM     61  C   UNL A   1      43.244  35.678  35.796  1.00  0.00     0.020 A 
ATOM     62  C   UNL A   1      43.861  36.801  33.730  1.00  0.00     0.020 A 
ATOM     63  C   UNL A   1      43.781  36.781  35.124  1.00  0.00     0.054 A 
BRANCH  63  64
ATOM     64  S   UNL A   1      44.442  38.162  36.098  1.00  0.00     0.124 S 
ATOM     65  O   UNL A   1      45.828  37.749  36.308  1.00  0.00    -0.237 OA
ATOM     66  O   UNL A   1      44.255  39.304  35.207  1.00  0.00    -0.237 OA
ATOM     67  O   UNL A   1      43.607  38.172  37.297  1.00  0.00    -0.744 OA
ENDBRANCH  63  64
ENDBRANCH  37  58
ENDBRANCH  11  12
ENDBRANCH   4   6
ENDBRANCH   1   2
BRANCH   1  68
ATOM     68  C   UNL A   1      35.820  23.836  24.401  1.00  0.00     0.042 C 
BRANCH  68  69
ATOM     69  C   UNL A   1      34.537  24.657  24.333  1.00  0.00     0.118 C 
BRANCH  69  70
ATOM     70  N   UNL A   1      34.388  25.672  25.364  1.00  0.00    -0.351 N 
ATOM     71  C   UNL A   1      33.282  26.443  25.657  1.00  0.00     0.272 C 
ATOM     72  H   UNL A   1      35.180  25.829  25.927  1.00  0.00     0.163 HD
ATOM     73  O   UNL A   1      33.131  26.904  26.785  1.00  0.00    -0.267 OA
BRANCH  71  74
ATOM     74  C   UNL A   1      32.220  26.628  24.661  1.00  0.00     0.159 A 
ATOM     75  N   UNL A   1      32.631  27.439  23.627  1.00  0.00    -0.247 NA
ATOM     76  C   UNL A   1      30.963  26.034  24.704  1.00  0.00     0.159 A 
ATOM     77  C   UNL A   1      31.746  27.640  22.635  1.00  0.00     0.132 A 
ATOM     78  N   UNL A   1      30.084  26.272  23.670  1.00  0.00    -0.247 NA
ATOM     79  C   UNL A   1      30.494  27.068  22.656  1.00  0.00     0.132 A 
BRANCH  76  80
ATOM     80  C   UNL A   1      30.345  25.113  25.741  1.00  0.00     0.276 C 
ATOM     81  O   UNL A   1      29.481  25.561  26.500  1.00  0.00    -0.267 OA
ATOM     82  N   UNL A   1      30.458  23.746  25.628  1.00  0.00    -0.320 N 
ATOM     83  H   UNL A   1      29.675  23.278  25.259  1.00  0.00     0.170 HD
BRANCH  82  84
ATOM     84  C   UNL A   1      31.549  22.937  25.973  1.00  0.00     0.045 A 
ATOM     85  C   UNL A   1      32.310  23.143  27.140  1.00  0.00     0.030 A 
ATOM     86  C   UNL A   1      31.898  21.934  25.062  1.00  0.00     0.076 A 
ATOM     87  C   UNL A   1      33.495  22.423  27.341  1.00  0.00     0.053 A 
ATOM     88  C   UNL A   1      33.106  21.302  25.250  1.00  0.00     0.167 A 
ATOM     89  C   UNL A   1      33.892  21.555  26.349  1.00  0.00     0.165 A 
ATOM     90  O   UNL A   1      33.698  20.443  24.376  1.00  0.00    -0.454 OA
ATOM     91  O   UNL A   1      35.080  20.895  26.295  1.00  0.00    -0.454 OA
ATOM     92  C   UNL A   1      35.017  20.357  24.957  1.00  0.00     0.468 C 
ENDBRANCH  82  84
ENDBRANCH  76  80
ENDBRANCH  71  74
ENDBRANCH  69  70
ENDBRANCH  68  69
ENDBRANCH   1  68
TORSDOF 15
ENDMDL
