MODEL 1
REMARK VINA RESULT:     -12.2      0.000      0.000
REMARK SMILES O=C(NCc1ccc(C(=O)NCCCNC(=O)c2ccc(-c3c4nc(c(-c5ccc(S(=O)(=O)[O-])cc5)c5ccc([nH]5)c(-c5ccc(S(=O)(=O)[O-])cc5)c5nc(c(-c6ccc(S(=O)(=O)[O-])cc6)c6ccc3[nH]6)C=C5)C=C4)cc2)o1)N[C@@H]1CCS(=O)(=O)C1
REMARK SMILES IDX 13 1 12 2 11 3 9 4 10 5 8 7 5 8 6 9 78 10 7 11 4 12 3 13
REMARK SMILES IDX 1 14 2 15 79 16 80 19 81 20 86 21 82 22 83 23 84 24 85 25
REMARK SMILES IDX 14 26 15 27 16 28 17 30 18 31 19 32 77 33 20 34 76 35 21 36
REMARK SMILES IDX 22 37 23 38 70 39 24 40 75 41 69 42 71 43 25 44 74 45 68 46
REMARK SMILES IDX 67 47 26 49 56 50 37 51 55 52 38 53 41 54 54 55 72 56 39 57
REMARK SMILES IDX 40 58 53 60 73 61 42 62 27 63 28 64 36 65 29 66 35 67 30 68
REMARK SMILES IDX 31 69 32 70 33 71 34 72 57 73 58 74 66 75 59 76 65 77 60 78
REMARK SMILES IDX 61 79 62 80 63 81 64 82 43 83 44 84 52 85 45 86 51 87 46 88
REMARK SMILES IDX 47 89 48 90 49 91 50 92
REMARK H PARENT 11 6 3 17 79 18 15 29 71 48 41 59
REMARK Flexibility Score: inf
ROOT
ATOM      1  C   UNL A   1      38.895  22.631  26.505  1.00  0.00     0.042 C 
ENDROOT
BRANCH   1   2
ATOM      2  C   UNL A   1      37.731  23.532  26.103  1.00  0.00     0.118 C 
BRANCH   2   3
ATOM      3  N   UNL A   1      37.526  23.542  24.669  1.00  0.00    -0.349 N 
ATOM      4  C   UNL A   1      36.621  22.874  23.879  1.00  0.00     0.286 C 
ATOM      5  O   UNL A   1      36.613  23.205  22.690  1.00  0.00    -0.266 OA
ATOM      6  H   UNL A   1      38.142  24.128  24.175  1.00  0.00     0.163 HD
BRANCH   4   7
ATOM      7  C   UNL A   1      35.727  21.864  24.418  1.00  0.00     0.191 A 
ATOM      8  C   UNL A   1      33.694  21.111  24.899  1.00  0.00     0.124 A 
ATOM      9  C   UNL A   1      34.573  20.129  25.296  1.00  0.00     0.048 A 
ATOM     10  O   UNL A   1      34.386  22.167  24.388  1.00  0.00    -0.454 OA
ATOM     11  C   UNL A   1      35.869  20.597  24.959  1.00  0.00     0.056 A 
BRANCH   8  12
ATOM     12  C   UNL A   1      32.217  21.240  24.928  1.00  0.00     0.193 C 
BRANCH  12  13
ATOM     13  N   UNL A   1      31.828  21.924  26.146  1.00  0.00    -0.331 N 
ATOM     14  O   UNL A   1      31.196  23.583  27.500  1.00  0.00    -0.249 OA
ATOM     15  C   UNL A   1      31.626  23.232  26.408  1.00  0.00     0.315 C 
ATOM     16  N   UNL A   1      31.888  24.107  25.400  1.00  0.00    -0.334 N 
ATOM     17  H   UNL A   1      31.685  21.329  26.917  1.00  0.00     0.165 HD
ATOM     18  H   UNL A   1      32.245  23.762  24.551  1.00  0.00     0.165 HD
BRANCH  16  19
ATOM     19  C   UNL A   1      31.657  25.541  25.538  1.00  0.00     0.099 C 
ATOM     20  C   UNL A   1      30.186  25.923  25.299  1.00  0.00     0.042 C 
ATOM     21  C   UNL A   1      32.444  26.339  24.502  1.00  0.00     0.161 C 
ATOM     22  C   UNL A   1      29.929  25.770  23.805  1.00  0.00     0.139 C 
ATOM     23  S   UNL A   1      31.464  26.227  23.016  1.00  0.00     0.152 S 
ATOM     24  O   UNL A   1      31.942  25.096  22.243  1.00  0.00    -0.229 OA
ATOM     25  O   UNL A   1      31.327  27.549  22.444  1.00  0.00    -0.229 OA
ENDBRANCH  16  19
ENDBRANCH  12  13
ENDBRANCH   8  12
ENDBRANCH   4   7
ENDBRANCH   2   3
ENDBRANCH   1   2
BRANCH   1  26
ATOM     26  C   UNL A   1      40.067  23.397  27.121  1.00  0.00     0.118 C 
BRANCH  26  27
ATOM     27  N   UNL A   1      40.828  24.130  26.116  1.00  0.00    -0.352 N 
ATOM     28  C   UNL A   1      41.191  25.452  26.059  1.00  0.00     0.251 C 
ATOM     29  H   UNL A   1      41.131  23.587  25.354  1.00  0.00     0.163 HD
ATOM     30  O   UNL A   1      41.614  25.907  24.999  1.00  0.00    -0.269 OA
BRANCH  28  31
ATOM     31  C   UNL A   1      41.079  26.327  27.246  1.00  0.00     0.039 A 
ATOM     32  C   UNL A   1      42.018  27.347  27.423  1.00  0.00     0.014 A 
ATOM     33  C   UNL A   1      40.093  26.114  28.213  1.00  0.00     0.014 A 
ATOM     34  C   UNL A   1      41.934  28.184  28.538  1.00  0.00     0.010 A 
ATOM     35  C   UNL A   1      39.961  26.997  29.281  1.00  0.00     0.010 A 
ATOM     36  C   UNL A   1      40.884  28.038  29.460  1.00  0.00    -0.014 A 
BRANCH  36  37
ATOM     37  C   UNL A   1      40.738  28.967  30.609  1.00  0.00     0.031 A 
ATOM     38  C   UNL A   1      41.597  28.806  31.835  1.00  0.00     0.074 A 
ATOM     39  C   UNL A   1      39.787  29.923  30.571  1.00  0.00     0.049 A 
ATOM     40  N   UNL A   1      41.580  29.494  32.949  1.00  0.00    -0.248 NA
ATOM     41  C   UNL A   1      42.588  27.716  31.821  1.00  0.00     0.031 C 
ATOM     42  C   UNL A   1      38.862  30.151  29.458  1.00  0.00     0.029 A 
ATOM     43  N   UNL A   1      39.435  30.877  31.493  1.00  0.00    -0.354 N 
ATOM     44  C   UNL A   1      42.538  28.911  33.771  1.00  0.00     0.074 A 
ATOM     45  C   UNL A   1      43.086  27.784  33.047  1.00  0.00     0.031 C 
ATOM     46  C   UNL A   1      38.068  31.193  29.751  1.00  0.00     0.029 A 
ATOM     47  C   UNL A   1      38.393  31.678  31.088  1.00  0.00     0.049 A 
ATOM     48  H   UNL A   1      39.885  30.977  32.362  1.00  0.00     0.167 HD
ATOM     49  C   UNL A   1      42.937  29.288  35.009  1.00  0.00     0.031 A 
ATOM     50  C   UNL A   1      37.760  32.683  31.723  1.00  0.00     0.031 A 
ATOM     51  C   UNL A   1      42.394  30.417  35.719  1.00  0.00     0.049 A 
ATOM     52  C   UNL A   1      38.216  33.079  33.101  1.00  0.00     0.074 A 
ATOM     53  C   UNL A   1      42.778  30.922  36.949  1.00  0.00     0.029 A 
ATOM     54  N   UNL A   1      41.350  31.210  35.269  1.00  0.00    -0.354 N 
ATOM     55  N   UNL A   1      39.181  32.565  33.828  1.00  0.00    -0.248 NA
ATOM     56  C   UNL A   1      37.510  34.198  33.739  1.00  0.00     0.031 C 
ATOM     57  C   UNL A   1      41.921  31.978  37.273  1.00  0.00     0.029 A 
ATOM     58  C   UNL A   1      41.053  32.180  36.212  1.00  0.00     0.049 A 
ATOM     59  H   UNL A   1      40.887  31.101  34.407  1.00  0.00     0.167 HD
ATOM     60  C   UNL A   1      39.216  33.318  34.997  1.00  0.00     0.074 A 
ATOM     61  C   UNL A   1      38.189  34.332  34.871  1.00  0.00     0.031 C 
ATOM     62  C   UNL A   1      40.027  33.184  36.075  1.00  0.00     0.031 A 
BRANCH  49  63
ATOM     63  C   UNL A   1      44.004  28.468  35.686  1.00  0.00    -0.014 A 
ATOM     64  C   UNL A   1      45.370  28.777  35.542  1.00  0.00     0.010 A 
ATOM     65  C   UNL A   1      43.632  27.403  36.531  1.00  0.00     0.010 A 
ATOM     66  C   UNL A   1      46.341  28.016  36.198  1.00  0.00     0.020 A 
ATOM     67  C   UNL A   1      44.600  26.660  37.213  1.00  0.00     0.020 A 
ATOM     68  C   UNL A   1      45.951  26.963  37.030  1.00  0.00     0.054 A 
BRANCH  68  69
ATOM     69  S   UNL A   1      47.234  26.017  37.895  1.00  0.00     0.124 S 
ATOM     70  O   UNL A   1      46.839  26.181  39.292  1.00  0.00    -0.237 OA
ATOM     71  O   UNL A   1      47.062  24.674  37.348  1.00  0.00    -0.237 OA
ATOM     72  O   UNL A   1      48.475  26.687  37.517  1.00  0.00    -0.744 OA
ENDBRANCH  68  69
ENDBRANCH  49  63
BRANCH  50  73
ATOM     73  C   UNL A   1      36.624  33.385  31.061  1.00  0.00    -0.014 A 
ATOM     74  C   UNL A   1      35.409  33.586  31.738  1.00  0.00     0.010 A 
ATOM     75  C   UNL A   1      36.758  33.863  29.745  1.00  0.00     0.010 A 
ATOM     76  C   UNL A   1      34.342  34.231  31.103  1.00  0.00     0.020 A 
ATOM     77  C   UNL A   1      35.707  34.537  29.119  1.00  0.00     0.020 A 
ATOM     78  C   UNL A   1      34.499  34.704  29.797  1.00  0.00     0.054 A 
BRANCH  78  79
ATOM     79  S   UNL A   1      33.117  35.575  29.009  1.00  0.00     0.124 S 
ATOM     80  O   UNL A   1      32.529  34.527  28.182  1.00  0.00    -0.237 OA
ATOM     81  O   UNL A   1      32.319  36.000  30.157  1.00  0.00    -0.237 OA
ATOM     82  O   UNL A   1      33.769  36.660  28.279  1.00  0.00    -0.744 OA
ENDBRANCH  78  79
ENDBRANCH  50  73
BRANCH  62  83
ATOM     83  C   UNL A   1      39.869  34.181  37.193  1.00  0.00    -0.014 A 
ATOM     84  C   UNL A   1      40.510  35.432  37.157  1.00  0.00     0.010 A 
ATOM     85  C   UNL A   1      39.014  33.879  38.269  1.00  0.00     0.010 A 
ATOM     86  C   UNL A   1      40.326  36.349  38.196  1.00  0.00     0.020 A 
ATOM     87  C   UNL A   1      38.801  34.806  39.292  1.00  0.00     0.020 A 
ATOM     88  C   UNL A   1      39.471  36.031  39.256  1.00  0.00     0.054 A 
BRANCH  88  89
ATOM     89  S   UNL A   1      39.214  37.256  40.568  1.00  0.00     0.124 S 
ATOM     90  O   UNL A   1      38.753  36.423  41.676  1.00  0.00    -0.237 OA
ATOM     91  O   UNL A   1      40.545  37.836  40.728  1.00  0.00    -0.237 OA
ATOM     92  O   UNL A   1      38.210  38.159  40.009  1.00  0.00    -0.744 OA
ENDBRANCH  88  89
ENDBRANCH  62  83
ENDBRANCH  36  37
ENDBRANCH  28  31
ENDBRANCH  26  27
ENDBRANCH   1  26
TORSDOF 16
ENDMDL
MODEL 2
REMARK VINA RESULT:     -11.8      6.668     12.180
REMARK SMILES O=C(NCc1ccc(C(=O)NCCCNC(=O)c2ccc(-c3c4nc(c(-c5ccc(S(=O)(=O)[O-])cc5)c5ccc([nH]5)c(-c5ccc(S(=O)(=O)[O-])cc5)c5nc(c(-c6ccc(S(=O)(=O)[O-])cc6)c6ccc3[nH]6)C=C5)C=C4)cc2)o1)N[C@@H]1CCS(=O)(=O)C1
REMARK SMILES IDX 13 1 12 2 11 3 9 4 10 5 8 7 5 8 6 9 78 10 7 11 4 12 3 13
REMARK SMILES IDX 1 14 2 15 79 16 80 19 81 20 86 21 82 22 83 23 84 24 85 25
REMARK SMILES IDX 14 26 15 27 16 28 17 30 18 31 19 32 77 33 20 34 76 35 21 36
REMARK SMILES IDX 22 37 23 38 70 39 24 40 75 41 69 42 71 43 25 44 74 45 68 46
REMARK SMILES IDX 67 47 26 49 56 50 37 51 55 52 38 53 41 54 54 55 72 56 39 57
REMARK SMILES IDX 40 58 53 60 73 61 42 62 27 63 28 64 36 65 29 66 35 67 30 68
REMARK SMILES IDX 31 69 32 70 33 71 34 72 57 73 58 74 66 75 59 76 65 77 60 78
REMARK SMILES IDX 61 79 62 80 63 81 64 82 43 83 44 84 52 85 45 86 51 87 46 88
REMARK SMILES IDX 47 89 48 90 49 91 50 92
REMARK H PARENT 11 6 3 17 79 18 15 29 71 48 41 59
REMARK Flexibility Score: inf
ROOT
ATOM      1  C   UNL A   1      33.978  28.863  27.306  1.00  0.00     0.042 C 
ENDROOT
BRANCH   1   2
ATOM      2  C   UNL A   1      33.141  29.503  26.201  1.00  0.00     0.118 C 
BRANCH   2   3
ATOM      3  N   UNL A   1      33.748  29.331  24.897  1.00  0.00    -0.349 N 
ATOM      4  C   UNL A   1      33.239  28.844  23.718  1.00  0.00     0.286 C 
ATOM      5  O   UNL A   1      33.979  28.956  22.736  1.00  0.00    -0.266 OA
ATOM      6  H   UNL A   1      34.690  29.613  24.848  1.00  0.00     0.163 HD
BRANCH   4   7
ATOM      7  C   UNL A   1      31.913  28.255  23.637  1.00  0.00     0.191 A 
ATOM      8  C   UNL A   1      30.544  26.509  23.701  1.00  0.00     0.124 A 
ATOM      9  C   UNL A   1      29.750  27.612  23.489  1.00  0.00     0.048 A 
ATOM     10  O   UNL A   1      31.850  26.889  23.771  1.00  0.00    -0.454 OA
ATOM     11  C   UNL A   1      30.622  28.731  23.480  1.00  0.00     0.056 A 
BRANCH   8  12
ATOM     12  C   UNL A   1      30.268  25.059  23.851  1.00  0.00     0.193 C 
BRANCH  12  13
ATOM     13  N   UNL A   1      30.296  24.717  25.260  1.00  0.00    -0.331 N 
ATOM     14  O   UNL A   1      31.118  24.138  27.254  1.00  0.00    -0.249 OA
ATOM     15  C   UNL A   1      31.295  24.269  26.048  1.00  0.00     0.315 C 
ATOM     16  N   UNL A   1      32.486  24.012  25.443  1.00  0.00    -0.334 N 
ATOM     17  H   UNL A   1      29.436  24.834  25.723  1.00  0.00     0.165 HD
ATOM     18  H   UNL A   1      32.559  24.123  24.469  1.00  0.00     0.165 HD
BRANCH  16  19
ATOM     19  C   UNL A   1      33.659  23.577  26.194  1.00  0.00     0.099 C 
ATOM     20  C   UNL A   1      34.976  23.968  25.502  1.00  0.00     0.042 C 
ATOM     21  C   UNL A   1      33.715  22.056  26.316  1.00  0.00     0.161 C 
ATOM     22  C   UNL A   1      35.113  23.070  24.279  1.00  0.00     0.139 C 
ATOM     23  S   UNL A   1      34.390  21.510  24.758  1.00  0.00     0.152 S 
ATOM     24  O   UNL A   1      33.286  21.217  23.863  1.00  0.00    -0.229 OA
ATOM     25  O   UNL A   1      35.448  20.556  25.015  1.00  0.00    -0.229 OA
ENDBRANCH  16  19
ENDBRANCH  12  13
ENDBRANCH   8  12
ENDBRANCH   4   7
ENDBRANCH   2   3
ENDBRANCH   1   2
BRANCH   1  26
ATOM     26  C   UNL A   1      35.262  29.634  27.613  1.00  0.00     0.118 C 
BRANCH  26  27
ATOM     27  N   UNL A   1      35.320  30.065  29.005  1.00  0.00    -0.352 N 
ATOM     28  C   UNL A   1      36.309  29.921  29.945  1.00  0.00     0.251 C 
ATOM     29  H   UNL A   1      34.518  30.539  29.321  1.00  0.00     0.163 HD
ATOM     30  O   UNL A   1      36.043  30.138  31.125  1.00  0.00    -0.269 OA
BRANCH  28  31
ATOM     31  C   UNL A   1      37.675  29.509  29.560  1.00  0.00     0.039 A 
ATOM     32  C   UNL A   1      38.120  29.778  28.262  1.00  0.00     0.014 A 
ATOM     33  C   UNL A   1      38.498  28.809  30.446  1.00  0.00     0.014 A 
ATOM     34  C   UNL A   1      39.406  29.395  27.874  1.00  0.00     0.010 A 
ATOM     35  C   UNL A   1      39.807  28.499  30.085  1.00  0.00     0.010 A 
ATOM     36  C   UNL A   1      40.274  28.781  28.793  1.00  0.00    -0.014 A 
BRANCH  36  37
ATOM     37  C   UNL A   1      41.669  28.436  28.418  1.00  0.00     0.031 A 
ATOM     38  C   UNL A   1      42.723  29.508  28.334  1.00  0.00     0.074 A 
ATOM     39  C   UNL A   1      41.971  27.162  28.095  1.00  0.00     0.049 A 
ATOM     40  N   UNL A   1      43.979  29.401  27.982  1.00  0.00    -0.248 NA
ATOM     41  C   UNL A   1      42.309  30.882  28.664  1.00  0.00     0.031 C 
ATOM     42  C   UNL A   1      41.027  26.042  28.094  1.00  0.00     0.029 A 
ATOM     43  N   UNL A   1      43.157  26.594  27.698  1.00  0.00    -0.354 N 
ATOM     44  C   UNL A   1      44.498  30.690  28.029  1.00  0.00     0.074 A 
ATOM     45  C   UNL A   1      43.411  31.570  28.398  1.00  0.00     0.031 C 
ATOM     46  C   UNL A   1      41.674  24.920  27.742  1.00  0.00     0.029 A 
ATOM     47  C   UNL A   1      43.065  25.245  27.446  1.00  0.00     0.049 A 
ATOM     48  H   UNL A   1      43.992  27.105  27.602  1.00  0.00     0.167 HD
ATOM     49  C   UNL A   1      45.768  31.102  27.801  1.00  0.00     0.031 A 
ATOM     50  C   UNL A   1      43.992  24.368  27.015  1.00  0.00     0.031 A 
ATOM     51  C   UNL A   1      46.848  30.219  27.444  1.00  0.00     0.049 A 
ATOM     52  C   UNL A   1      45.394  24.851  26.761  1.00  0.00     0.074 A 
ATOM     53  C   UNL A   1      48.184  30.528  27.258  1.00  0.00     0.029 A 
ATOM     54  N   UNL A   1      46.717  28.858  27.212  1.00  0.00    -0.354 N 
ATOM     55  N   UNL A   1      45.883  26.062  26.891  1.00  0.00    -0.248 NA
ATOM     56  C   UNL A   1      46.372  23.849  26.317  1.00  0.00     0.031 C 
ATOM     57  C   UNL A   1      48.847  29.369  26.847  1.00  0.00     0.029 A 
ATOM     58  C   UNL A   1      47.941  28.321  26.851  1.00  0.00     0.049 A 
ATOM     59  H   UNL A   1      45.878  28.349  27.291  1.00  0.00     0.167 HD
ATOM     60  C   UNL A   1      47.233  25.961  26.574  1.00  0.00     0.074 A 
ATOM     61  C   UNL A   1      47.486  24.568  26.263  1.00  0.00     0.031 C 
ATOM     62  C   UNL A   1      48.179  26.932  26.544  1.00  0.00     0.031 A 
BRANCH  49  63
ATOM     63  C   UNL A   1      46.063  32.575  27.916  1.00  0.00    -0.014 A 
ATOM     64  C   UNL A   1      45.971  33.431  26.803  1.00  0.00     0.010 A 
ATOM     65  C   UNL A   1      46.380  33.126  29.173  1.00  0.00     0.010 A 
ATOM     66  C   UNL A   1      46.226  34.798  26.937  1.00  0.00     0.020 A 
ATOM     67  C   UNL A   1      46.605  34.498  29.317  1.00  0.00     0.020 A 
ATOM     68  C   UNL A   1      46.540  35.324  28.193  1.00  0.00     0.054 A 
BRANCH  68  69
ATOM     69  S   UNL A   1      46.832  37.108  28.341  1.00  0.00     0.124 S 
ATOM     70  O   UNL A   1      46.124  37.627  27.173  1.00  0.00    -0.237 OA
ATOM     71  O   UNL A   1      46.226  37.423  29.632  1.00  0.00    -0.237 OA
ATOM     72  O   UNL A   1      48.286  37.228  28.291  1.00  0.00    -0.744 OA
ENDBRANCH  68  69
ENDBRANCH  49  63
BRANCH  50  73
ATOM     73  C   UNL A   1      43.621  22.941  26.794  1.00  0.00    -0.014 A 
ATOM     74  C   UNL A   1      42.898  22.226  27.764  1.00  0.00     0.010 A 
ATOM     75  C   UNL A   1      43.988  22.291  25.601  1.00  0.00     0.010 A 
ATOM     76  C   UNL A   1      42.569  20.883  27.556  1.00  0.00     0.020 A 
ATOM     77  C   UNL A   1      43.632  20.959  25.375  1.00  0.00     0.020 A 
ATOM     78  C   UNL A   1      42.937  20.259  26.361  1.00  0.00     0.054 A 
BRANCH  78  79
ATOM     79  S   UNL A   1      42.462  18.528  26.095  1.00  0.00     0.124 S 
ATOM     80  O   UNL A   1      43.349  18.134  25.005  1.00  0.00    -0.237 OA
ATOM     81  O   UNL A   1      42.745  17.922  27.394  1.00  0.00    -0.237 OA
ATOM     82  O   UNL A   1      41.044  18.612  25.751  1.00  0.00    -0.744 OA
ENDBRANCH  78  79
ENDBRANCH  50  73
BRANCH  62  83
ATOM     83  C   UNL A   1      49.587  26.521  26.203  1.00  0.00    -0.014 A 
ATOM     84  C   UNL A   1      50.112  26.702  24.911  1.00  0.00     0.010 A 
ATOM     85  C   UNL A   1      50.416  25.999  27.213  1.00  0.00     0.010 A 
ATOM     86  C   UNL A   1      51.431  26.335  24.628  1.00  0.00     0.020 A 
ATOM     87  C   UNL A   1      51.744  25.662  26.942  1.00  0.00     0.020 A 
ATOM     88  C   UNL A   1      52.239  25.819  25.646  1.00  0.00     0.054 A 
BRANCH  88  89
ATOM     89  S   UNL A   1      53.959  25.393  25.262  1.00  0.00     0.124 S 
ATOM     90  O   UNL A   1      54.686  26.065  26.337  1.00  0.00    -0.237 OA
ATOM     91  O   UNL A   1      53.950  23.933  25.327  1.00  0.00    -0.237 OA
ATOM     92  O   UNL A   1      54.167  25.950  23.928  1.00  0.00    -0.744 OA
ENDBRANCH  88  89
ENDBRANCH  62  83
ENDBRANCH  36  37
ENDBRANCH  28  31
ENDBRANCH  26  27
ENDBRANCH   1  26
TORSDOF 16
ENDMDL
MODEL 3
REMARK VINA RESULT:     -11.8      4.534     10.390
REMARK SMILES O=C(NCc1ccc(C(=O)NCCCNC(=O)c2ccc(-c3c4nc(c(-c5ccc(S(=O)(=O)[O-])cc5)c5ccc([nH]5)c(-c5ccc(S(=O)(=O)[O-])cc5)c5nc(c(-c6ccc(S(=O)(=O)[O-])cc6)c6ccc3[nH]6)C=C5)C=C4)cc2)o1)N[C@@H]1CCS(=O)(=O)C1
REMARK SMILES IDX 13 1 12 2 11 3 9 4 10 5 8 7 5 8 6 9 78 10 7 11 4 12 3 13
REMARK SMILES IDX 1 14 2 15 79 16 80 19 81 20 86 21 82 22 83 23 84 24 85 25
REMARK SMILES IDX 14 26 15 27 16 28 17 30 18 31 19 32 77 33 20 34 76 35 21 36
REMARK SMILES IDX 22 37 23 38 70 39 24 40 75 41 69 42 71 43 25 44 74 45 68 46
REMARK SMILES IDX 67 47 26 49 56 50 37 51 55 52 38 53 41 54 54 55 72 56 39 57
REMARK SMILES IDX 40 58 53 60 73 61 42 62 27 63 28 64 36 65 29 66 35 67 30 68
REMARK SMILES IDX 31 69 32 70 33 71 34 72 57 73 58 74 66 75 59 76 65 77 60 78
REMARK SMILES IDX 61 79 62 80 63 81 64 82 43 83 44 84 52 85 45 86 51 87 46 88
REMARK SMILES IDX 47 89 48 90 49 91 50 92
REMARK H PARENT 11 6 3 17 79 18 15 29 71 48 41 59
REMARK Flexibility Score: inf
ROOT
ATOM      1  C   UNL A   1      33.396  28.688  24.723  1.00  0.00     0.042 C 
ENDROOT
BRANCH   1   2
ATOM      2  C   UNL A   1      32.144  29.558  24.688  1.00  0.00     0.118 C 
BRANCH   2   3
ATOM      3  N   UNL A   1      31.385  29.363  23.470  1.00  0.00    -0.349 N 
ATOM      4  C   UNL A   1      30.579  28.328  23.061  1.00  0.00     0.286 C 
ATOM      5  O   UNL A   1      29.956  28.526  22.014  1.00  0.00    -0.266 OA
ATOM      6  H   UNL A   1      31.461  30.099  22.822  1.00  0.00     0.163 HD
BRANCH   4   7
ATOM      7  C   UNL A   1      30.459  27.097  23.824  1.00  0.00     0.191 A 
ATOM      8  C   UNL A   1      30.573  24.887  23.997  1.00  0.00     0.124 A 
ATOM      9  C   UNL A   1      30.222  25.353  25.243  1.00  0.00     0.048 A 
ATOM     10  O   UNL A   1      30.698  25.933  23.133  1.00  0.00    -0.454 OA
ATOM     11  C   UNL A   1      30.180  26.767  25.140  1.00  0.00     0.056 A 
BRANCH   8  12
ATOM     12  C   UNL A   1      30.820  23.535  23.438  1.00  0.00     0.193 C 
BRANCH  12  13
ATOM     13  N   UNL A   1      31.835  23.630  22.407  1.00  0.00    -0.331 N 
ATOM     14  O   UNL A   1      33.791  23.346  21.367  1.00  0.00    -0.249 OA
ATOM     15  C   UNL A   1      33.134  23.263  22.398  1.00  0.00     0.315 C 
ATOM     16  N   UNL A   1      33.642  22.778  23.562  1.00  0.00    -0.334 N 
ATOM     17  H   UNL A   1      31.521  24.032  21.566  1.00  0.00     0.165 HD
ATOM     18  H   UNL A   1      33.066  22.750  24.359  1.00  0.00     0.165 HD
BRANCH  16  19
ATOM     19  C   UNL A   1      35.015  22.295  23.667  1.00  0.00     0.099 C 
ATOM     20  C   UNL A   1      35.231  21.405  24.904  1.00  0.00     0.042 C 
ATOM     21  C   UNL A   1      36.003  23.447  23.833  1.00  0.00     0.161 C 
ATOM     22  C   UNL A   1      35.195  22.325  26.118  1.00  0.00     0.139 C 
ATOM     23  S   UNL A   1      35.915  23.862  25.566  1.00  0.00     0.152 S 
ATOM     24  O   UNL A   1      34.934  24.918  25.729  1.00  0.00    -0.229 OA
ATOM     25  O   UNL A   1      37.259  23.970  26.090  1.00  0.00    -0.229 OA
ENDBRANCH  16  19
ENDBRANCH  12  13
ENDBRANCH   8  12
ENDBRANCH   4   7
ENDBRANCH   2   3
ENDBRANCH   1   2
BRANCH   1  26
ATOM     26  C   UNL A   1      34.122  28.727  26.069  1.00  0.00     0.118 C 
BRANCH  26  27
ATOM     27  N   UNL A   1      33.894  29.983  26.775  1.00  0.00    -0.352 N 
ATOM     28  C   UNL A   1      34.600  30.579  27.789  1.00  0.00     0.251 C 
ATOM     29  H   UNL A   1      33.104  30.486  26.473  1.00  0.00     0.163 HD
ATOM     30  O   UNL A   1      34.085  31.511  28.403  1.00  0.00    -0.269 OA
BRANCH  28  31
ATOM     31  C   UNL A   1      35.957  30.117  28.149  1.00  0.00     0.039 A 
ATOM     32  C   UNL A   1      36.969  30.182  27.187  1.00  0.00     0.014 A 
ATOM     33  C   UNL A   1      36.225  29.567  29.405  1.00  0.00     0.014 A 
ATOM     34  C   UNL A   1      38.258  29.748  27.504  1.00  0.00     0.010 A 
ATOM     35  C   UNL A   1      37.527  29.209  29.746  1.00  0.00     0.010 A 
ATOM     36  C   UNL A   1      38.557  29.288  28.798  1.00  0.00    -0.014 A 
BRANCH  36  37
ATOM     37  C   UNL A   1      39.940  28.894  29.171  1.00  0.00     0.031 A 
ATOM     38  C   UNL A   1      40.857  29.878  29.848  1.00  0.00     0.074 A 
ATOM     39  C   UNL A   1      40.388  27.665  28.846  1.00  0.00     0.049 A 
ATOM     40  N   UNL A   1      42.106  29.726  30.207  1.00  0.00    -0.248 NA
ATOM     41  C   UNL A   1      40.310  31.215  30.137  1.00  0.00     0.031 C 
ATOM     42  C   UNL A   1      39.610  26.637  28.150  1.00  0.00     0.029 A 
ATOM     43  N   UNL A   1      41.609  27.071  29.052  1.00  0.00    -0.354 N 
ATOM     44  C   UNL A   1      42.499  30.947  30.744  1.00  0.00     0.074 A 
ATOM     45  C   UNL A   1      41.370  31.845  30.622  1.00  0.00     0.031 C 
ATOM     46  C   UNL A   1      40.362  25.534  28.011  1.00  0.00     0.029 A 
ATOM     47  C   UNL A   1      41.688  25.788  28.562  1.00  0.00     0.049 A 
ATOM     48  H   UNL A   1      42.357  27.522  29.505  1.00  0.00     0.167 HD
ATOM     49  C   UNL A   1      43.685  31.286  31.303  1.00  0.00     0.031 A 
ATOM     50  C   UNL A   1      42.714  24.915  28.548  1.00  0.00     0.031 A 
ATOM     51  C   UNL A   1      44.800  30.385  31.431  1.00  0.00     0.049 A 
ATOM     52  C   UNL A   1      44.024  25.318  29.168  1.00  0.00     0.074 A 
ATOM     53  C   UNL A   1      46.021  30.611  32.042  1.00  0.00     0.029 A 
ATOM     54  N   UNL A   1      44.836  29.091  30.935  1.00  0.00    -0.354 N 
ATOM     55  N   UNL A   1      44.348  26.452  29.745  1.00  0.00    -0.248 NA
ATOM     56  C   UNL A   1      45.103  24.321  29.150  1.00  0.00     0.031 C 
ATOM     57  C   UNL A   1      46.819  29.479  31.856  1.00  0.00     0.029 A 
ATOM     58  C   UNL A   1      46.069  28.518  31.196  1.00  0.00     0.049 A 
ATOM     59  H   UNL A   1      44.094  28.644  30.466  1.00  0.00     0.167 HD
ATOM     60  C   UNL A   1      45.658  26.293  30.184  1.00  0.00     0.074 A 
ATOM     61  C   UNL A   1      46.059  24.948  29.822  1.00  0.00     0.031 C 
ATOM     62  C   UNL A   1      46.456  27.178  30.830  1.00  0.00     0.031 A 
BRANCH  49  63
ATOM     63  C   UNL A   1      43.848  32.697  31.809  1.00  0.00    -0.014 A 
ATOM     64  C   UNL A   1      43.542  33.039  33.139  1.00  0.00     0.010 A 
ATOM     65  C   UNL A   1      44.375  33.685  30.955  1.00  0.00     0.010 A 
ATOM     66  C   UNL A   1      43.722  34.348  33.593  1.00  0.00     0.020 A 
ATOM     67  C   UNL A   1      44.586  34.988  31.415  1.00  0.00     0.020 A 
ATOM     68  C   UNL A   1      44.245  35.315  32.729  1.00  0.00     0.054 A 
BRANCH  68  69
ATOM     69  S   UNL A   1      44.501  36.996  33.358  1.00  0.00     0.124 S 
ATOM     70  O   UNL A   1      45.930  36.991  33.659  1.00  0.00    -0.237 OA
ATOM     71  O   UNL A   1      44.102  37.825  32.223  1.00  0.00    -0.237 OA
ATOM     72  O   UNL A   1      43.621  37.070  34.521  1.00  0.00    -0.744 OA
ENDBRANCH  68  69
ENDBRANCH  49  63
BRANCH  50  73
ATOM     73  C   UNL A   1      42.543  23.574  27.923  1.00  0.00    -0.014 A 
ATOM     74  C   UNL A   1      43.113  23.284  26.672  1.00  0.00     0.010 A 
ATOM     75  C   UNL A   1      41.808  22.573  28.585  1.00  0.00     0.010 A 
ATOM     76  C   UNL A   1      42.933  22.028  26.084  1.00  0.00     0.020 A 
ATOM     77  C   UNL A   1      41.654  21.306  28.017  1.00  0.00     0.020 A 
ATOM     78  C   UNL A   1      42.205  21.045  26.762  1.00  0.00     0.054 A 
BRANCH  78  79
ATOM     79  S   UNL A   1      42.021  19.409  26.001  1.00  0.00     0.124 S 
ATOM     80  O   UNL A   1      40.581  19.338  25.780  1.00  0.00    -0.237 OA
ATOM     81  O   UNL A   1      42.842  19.529  24.798  1.00  0.00    -0.237 OA
ATOM     82  O   UNL A   1      42.547  18.499  27.016  1.00  0.00    -0.744 OA
ENDBRANCH  78  79
ENDBRANCH  50  73
BRANCH  62  83
ATOM     83  C   UNL A   1      47.833  26.713  31.227  1.00  0.00    -0.014 A 
ATOM     84  C   UNL A   1      48.074  26.118  32.478  1.00  0.00     0.010 A 
ATOM     85  C   UNL A   1      48.889  26.822  30.305  1.00  0.00     0.010 A 
ATOM     86  C   UNL A   1      49.356  25.672  32.812  1.00  0.00     0.020 A 
ATOM     87  C   UNL A   1      50.164  26.347  30.622  1.00  0.00     0.020 A 
ATOM     88  C   UNL A   1      50.393  25.788  31.880  1.00  0.00     0.054 A 
BRANCH  88  89
ATOM     89  S   UNL A   1      52.035  25.161  32.321  1.00  0.00     0.124 S 
ATOM     90  O   UNL A   1      51.827  23.715  32.291  1.00  0.00    -0.237 OA
ATOM     91  O   UNL A   1      52.879  25.696  31.256  1.00  0.00    -0.237 OA
ATOM     92  O   UNL A   1      52.280  25.726  33.646  1.00  0.00    -0.744 OA
ENDBRANCH  88  89
ENDBRANCH  62  83
ENDBRANCH  36  37
ENDBRANCH  28  31
ENDBRANCH  26  27
ENDBRANCH   1  26
TORSDOF 16
ENDMDL
