MODEL 1
REMARK VINA RESULT:     -12.6      0.000      0.000
REMARK SMILES Cc1nn(C)c(=O)c(C(=O)N2CC[C@@H](C(=O)NCCCNC(=O)c3ccc(-c4c5nc(c(-c6ccc(S(=O)(=O)[O-])cc6)c6ccc([nH]6)c(-c6ccc(S(=O)(=O)[O-])cc6)c6nc(c(-c7ccc(S(=O)(=O)[O-])cc7)c7ccc4[nH]7)C=C6)C=C5)cc3)[C@@H]2C)c1C
REMARK SMILES IDX 19 1 18 2 17 3 15 4 16 5 14 7 11 8 12 9 84 10 13 11 85 12
REMARK SMILES IDX 9 13 10 14 8 15 1 16 2 17 3 18 86 19 4 20 87 21 5 22 6 23
REMARK SMILES IDX 7 24 20 25 21 26 22 27 23 29 24 30 25 31 83 32 26 33 82 34
REMARK SMILES IDX 27 35 28 36 29 37 76 38 30 39 81 40 75 41 77 42 31 43 80 44
REMARK SMILES IDX 74 45 73 46 32 48 62 49 43 50 61 51 44 52 47 53 60 54 78 55
REMARK SMILES IDX 45 56 46 57 59 59 79 60 48 61 33 62 34 63 42 64 35 65 41 66
REMARK SMILES IDX 36 67 37 68 38 69 39 70 40 71 63 72 64 73 72 74 65 75 71 76
REMARK SMILES IDX 66 77 67 78 68 79 69 80 70 81 49 82 50 83 58 84 51 85 57 86
REMARK SMILES IDX 52 87 53 88 54 89 55 90 56 91
REMARK H PARENT 17 6 21 28 77 47 47 58
REMARK Flexibility Score: inf
ROOT
ATOM      1  C   UNL A   1      33.230  29.491  27.250  1.00  0.00     0.042 C 
ENDROOT
BRANCH   1   2
ATOM      2  C   UNL A   1      32.426  29.893  26.016  1.00  0.00     0.117 C 
BRANCH   2   3
ATOM      3  N   UNL A   1      33.189  29.702  24.790  1.00  0.00    -0.356 N 
ATOM      4  C   UNL A   1      33.505  28.596  24.066  1.00  0.00     0.225 C 
ATOM      5  O   UNL A   1      34.242  28.773  23.089  1.00  0.00    -0.275 OA
ATOM      6  H   UNL A   1      33.548  30.538  24.413  1.00  0.00     0.163 HD
BRANCH   4   7
ATOM      7  C   UNL A   1      33.048  27.182  24.405  1.00  0.00     0.102 C 
ATOM      8  N   UNL A   1      33.925  25.139  23.499  1.00  0.00    -0.335 N 
ATOM      9  C   UNL A   1      34.002  25.031  24.947  1.00  0.00     0.121 C 
ATOM     10  C   UNL A   1      33.017  26.253  23.179  1.00  0.00     0.094 C 
ATOM     11  C   UNL A   1      33.840  26.447  25.483  1.00  0.00     0.037 C 
ATOM     12  C   UNL A   1      31.582  25.805  22.871  1.00  0.00     0.032 C 
BRANCH   8  13
ATOM     13  C   UNL A   1      33.864  23.935  22.784  1.00  0.00     0.260 C 
ATOM     14  O   UNL A   1      33.342  23.870  21.675  1.00  0.00    -0.269 OA
BRANCH  13  15
ATOM     15  C   UNL A   1      34.377  22.716  23.493  1.00  0.00     0.111 A 
ATOM     16  C   UNL A   1      33.343  19.392  24.870  1.00  0.00     0.069 C 
ATOM     17  C   UNL A   1      34.181  20.642  24.696  1.00  0.00     0.062 A 
ATOM     18  N   UNL A   1      35.435  20.545  24.986  1.00  0.00    -0.175 NA
ATOM     19  C   UNL A   1      33.559  21.876  24.154  1.00  0.00    -0.010 A 
ATOM     20  N   UNL A   1      36.233  21.601  24.647  1.00  0.00    -0.232 N 
ATOM     21  C   UNL A   1      32.143  22.139  24.523  1.00  0.00     0.047 C 
ATOM     22  C   UNL A   1      37.574  21.561  25.204  1.00  0.00     0.178 C 
ATOM     23  C   UNL A   1      35.857  22.572  23.716  1.00  0.00     0.279 A 
ATOM     24  O   UNL A   1      36.656  23.310  23.152  1.00  0.00    -0.267 OA
ENDBRANCH  13  15
ENDBRANCH   8  13
ENDBRANCH   4   7
ENDBRANCH   2   3
ENDBRANCH   1   2
BRANCH   1  25
ATOM     25  C   UNL A   1      34.644  30.048  27.325  1.00  0.00     0.118 C 
BRANCH  25  26
ATOM     26  N   UNL A   1      34.957  30.617  28.623  1.00  0.00    -0.352 N 
ATOM     27  C   UNL A   1      36.058  30.573  29.443  1.00  0.00     0.251 C 
ATOM     28  H   UNL A   1      34.219  31.151  28.997  1.00  0.00     0.163 HD
ATOM     29  O   UNL A   1      35.917  31.045  30.574  1.00  0.00    -0.269 OA
BRANCH  27  30
ATOM     30  C   UNL A   1      37.381  29.990  29.070  1.00  0.00     0.039 A 
ATOM     31  C   UNL A   1      38.249  29.643  30.120  1.00  0.00     0.014 A 
ATOM     32  C   UNL A   1      37.859  29.887  27.763  1.00  0.00     0.014 A 
ATOM     33  C   UNL A   1      39.556  29.201  29.865  1.00  0.00     0.010 A 
ATOM     34  C   UNL A   1      39.135  29.364  27.504  1.00  0.00     0.010 A 
ATOM     35  C   UNL A   1      40.013  29.047  28.550  1.00  0.00    -0.014 A 
BRANCH  35  36
ATOM     36  C   UNL A   1      41.417  28.638  28.252  1.00  0.00     0.031 A 
ATOM     37  C   UNL A   1      42.534  29.651  28.314  1.00  0.00     0.074 A 
ATOM     38  C   UNL A   1      41.701  27.366  27.909  1.00  0.00     0.049 A 
ATOM     39  N   UNL A   1      43.802  29.509  28.013  1.00  0.00    -0.248 NA
ATOM     40  C   UNL A   1      42.175  31.007  28.758  1.00  0.00     0.031 C 
ATOM     41  C   UNL A   1      40.733  26.273  27.824  1.00  0.00     0.029 A 
ATOM     42  N   UNL A   1      42.897  26.779  27.568  1.00  0.00    -0.354 N 
ATOM     43  C   UNL A   1      44.385  30.756  28.215  1.00  0.00     0.074 A 
ATOM     44  C   UNL A   1      43.322  31.653  28.614  1.00  0.00     0.031 C 
ATOM     45  C   UNL A   1      41.376  25.142  27.490  1.00  0.00     0.029 A 
ATOM     46  C   UNL A   1      42.792  25.436  27.290  1.00  0.00     0.049 A 
ATOM     47  H   UNL A   1      43.747  27.273  27.527  1.00  0.00     0.167 HD
ATOM     48  C   UNL A   1      45.685  31.124  28.102  1.00  0.00     0.031 A 
ATOM     49  C   UNL A   1      43.725  24.539  26.914  1.00  0.00     0.031 A 
ATOM     50  C   UNL A   1      46.751  30.239  27.711  1.00  0.00     0.049 A 
ATOM     51  C   UNL A   1      45.153  24.977  26.740  1.00  0.00     0.074 A 
ATOM     52  C   UNL A   1      48.101  30.519  27.579  1.00  0.00     0.029 A 
ATOM     53  N   UNL A   1      46.590  28.899  27.395  1.00  0.00    -0.354 N 
ATOM     54  N   UNL A   1      45.679  26.164  26.923  1.00  0.00    -0.248 NA
ATOM     55  C   UNL A   1      46.112  23.949  26.311  1.00  0.00     0.031 C 
ATOM     56  C   UNL A   1      48.749  29.359  27.140  1.00  0.00     0.029 A 
ATOM     57  C   UNL A   1      47.813  28.341  27.050  1.00  0.00     0.049 A 
ATOM     58  H   UNL A   1      45.735  28.413  27.412  1.00  0.00     0.167 HD
ATOM     59  C   UNL A   1      47.035  26.023  26.647  1.00  0.00     0.074 A 
ATOM     60  C   UNL A   1      47.250  24.633  26.300  1.00  0.00     0.031 C 
ATOM     61  C   UNL A   1      48.013  26.963  26.680  1.00  0.00     0.031 A 
BRANCH  48  62
ATOM     62  C   UNL A   1      46.017  32.567  28.393  1.00  0.00    -0.014 A 
ATOM     63  C   UNL A   1      45.969  33.541  27.378  1.00  0.00     0.010 A 
ATOM     64  C   UNL A   1      46.387  32.954  29.694  1.00  0.00     0.010 A 
ATOM     65  C   UNL A   1      46.347  34.860  27.644  1.00  0.00     0.020 A 
ATOM     66  C   UNL A   1      46.737  34.279  29.971  1.00  0.00     0.020 A 
ATOM     67  C   UNL A   1      46.740  35.218  28.937  1.00  0.00     0.054 A 
BRANCH  67  68
ATOM     68  S   UNL A   1      47.251  36.931  29.248  1.00  0.00     0.124 S 
ATOM     69  O   UNL A   1      46.563  37.647  28.177  1.00  0.00    -0.237 OA
ATOM     70  O   UNL A   1      46.745  37.179  30.595  1.00  0.00    -0.237 OA
ATOM     71  O   UNL A   1      48.706  36.884  29.130  1.00  0.00    -0.744 OA
ENDBRANCH  67  68
ENDBRANCH  48  62
BRANCH  49  72
ATOM     72  C   UNL A   1      43.330  23.121  26.705  1.00  0.00    -0.014 A 
ATOM     73  C   UNL A   1      43.589  22.491  25.476  1.00  0.00     0.010 A 
ATOM     74  C   UNL A   1      42.753  22.375  27.750  1.00  0.00     0.010 A 
ATOM     75  C   UNL A   1      43.291  21.137  25.298  1.00  0.00     0.020 A 
ATOM     76  C   UNL A   1      42.475  21.015  27.583  1.00  0.00     0.020 A 
ATOM     77  C   UNL A   1      42.748  20.405  26.357  1.00  0.00     0.054 A 
BRANCH  77  78
ATOM     78  S   UNL A   1      42.473  18.625  26.133  1.00  0.00     0.124 S 
ATOM     79  O   UNL A   1      41.065  18.580  25.752  1.00  0.00    -0.237 OA
ATOM     80  O   UNL A   1      43.425  18.291  25.077  1.00  0.00    -0.237 OA
ATOM     81  O   UNL A   1      42.786  18.062  27.445  1.00  0.00    -0.744 OA
ENDBRANCH  77  78
ENDBRANCH  49  72
BRANCH  61  82
ATOM     82  C   UNL A   1      49.411  26.516  26.339  1.00  0.00    -0.014 A 
ATOM     83  C   UNL A   1      49.927  26.677  25.041  1.00  0.00     0.010 A 
ATOM     84  C   UNL A   1      50.230  25.956  27.336  1.00  0.00     0.010 A 
ATOM     85  C   UNL A   1      51.224  26.251  24.737  1.00  0.00     0.020 A 
ATOM     86  C   UNL A   1      51.535  25.551  27.043  1.00  0.00     0.020 A 
ATOM     87  C   UNL A   1      52.018  25.686  25.740  1.00  0.00     0.054 A 
BRANCH  87  88
ATOM     88  S   UNL A   1      53.703  25.158  25.325  1.00  0.00     0.124 S 
ATOM     89  O   UNL A   1      53.587  23.704  25.373  1.00  0.00    -0.237 OA
ATOM     90  O   UNL A   1      53.900  25.729  23.994  1.00  0.00    -0.237 OA
ATOM     91  O   UNL A   1      54.523  25.754  26.379  1.00  0.00    -0.744 OA
ENDBRANCH  87  88
ENDBRANCH  61  82
ENDBRANCH  35  36
ENDBRANCH  27  30
ENDBRANCH  25  26
ENDBRANCH   1  25
TORSDOF 15
ENDMDL
MODEL 2
REMARK VINA RESULT:     -12.5      6.340     12.026
REMARK SMILES Cc1nn(C)c(=O)c(C(=O)N2CC[C@@H](C(=O)NCCCNC(=O)c3ccc(-c4c5nc(c(-c6ccc(S(=O)(=O)[O-])cc6)c6ccc([nH]6)c(-c6ccc(S(=O)(=O)[O-])cc6)c6nc(c(-c7ccc(S(=O)(=O)[O-])cc7)c7ccc4[nH]7)C=C6)C=C5)cc3)[C@@H]2C)c1C
REMARK SMILES IDX 19 1 18 2 17 3 15 4 16 5 14 7 11 8 12 9 84 10 13 11 85 12
REMARK SMILES IDX 9 13 10 14 8 15 1 16 2 17 3 18 86 19 4 20 87 21 5 22 6 23
REMARK SMILES IDX 7 24 20 25 21 26 22 27 23 29 24 30 25 31 83 32 26 33 82 34
REMARK SMILES IDX 27 35 28 36 29 37 76 38 30 39 81 40 75 41 77 42 31 43 80 44
REMARK SMILES IDX 74 45 73 46 32 48 62 49 43 50 61 51 44 52 47 53 60 54 78 55
REMARK SMILES IDX 45 56 46 57 59 59 79 60 48 61 33 62 34 63 42 64 35 65 41 66
REMARK SMILES IDX 36 67 37 68 38 69 39 70 40 71 63 72 64 73 72 74 65 75 71 76
REMARK SMILES IDX 66 77 67 78 68 79 69 80 70 81 49 82 50 83 58 84 51 85 57 86
REMARK SMILES IDX 52 87 53 88 54 89 55 90 56 91
REMARK H PARENT 17 6 21 28 77 47 47 58
REMARK Flexibility Score: inf
ROOT
ATOM      1  C   UNL A   1      37.885  22.940  25.246  1.00  0.00     0.042 C 
ENDROOT
BRANCH   1   2
ATOM      2  C   UNL A   1      36.951  21.734  25.170  1.00  0.00     0.117 C 
BRANCH   2   3
ATOM      3  N   UNL A   1      36.037  21.689  26.303  1.00  0.00    -0.356 N 
ATOM      4  C   UNL A   1      34.876  22.341  26.574  1.00  0.00     0.225 C 
ATOM      5  O   UNL A   1      34.369  22.121  27.680  1.00  0.00    -0.275 OA
ATOM      6  H   UNL A   1      36.314  21.063  27.011  1.00  0.00     0.163 HD
BRANCH   4   7
ATOM      7  C   UNL A   1      34.203  23.335  25.634  1.00  0.00     0.102 C 
ATOM      8  N   UNL A   1      32.544  24.966  26.225  1.00  0.00    -0.335 N 
ATOM      9  C   UNL A   1      33.622  25.678  25.559  1.00  0.00     0.121 C 
ATOM     10  C   UNL A   1      32.708  23.531  25.940  1.00  0.00     0.094 C 
ATOM     11  C   UNL A   1      34.816  24.732  25.563  1.00  0.00     0.037 C 
ATOM     12  C   UNL A   1      31.844  23.035  24.774  1.00  0.00     0.032 C 
BRANCH   8  13
ATOM     13  C   UNL A   1      31.277  25.566  26.183  1.00  0.00     0.260 C 
ATOM     14  O   UNL A   1      30.272  24.976  26.566  1.00  0.00    -0.269 OA
BRANCH  13  15
ATOM     15  C   UNL A   1      31.209  26.923  25.548  1.00  0.00     0.111 A 
ATOM     16  C   UNL A   1      32.342  30.472  25.925  1.00  0.00     0.069 C 
ATOM     17  C   UNL A   1      31.491  29.311  25.454  1.00  0.00     0.062 A 
ATOM     18  N   UNL A   1      30.860  29.470  24.339  1.00  0.00    -0.175 NA
ATOM     19  C   UNL A   1      31.465  28.050  26.238  1.00  0.00    -0.010 A 
ATOM     20  N   UNL A   1      30.252  28.366  23.810  1.00  0.00    -0.232 N 
ATOM     21  C   UNL A   1      31.567  28.170  27.716  1.00  0.00     0.047 C 
ATOM     22  C   UNL A   1      29.356  28.634  22.697  1.00  0.00     0.178 C 
ATOM     23  C   UNL A   1      30.571  27.062  24.192  1.00  0.00     0.279 A 
ATOM     24  O   UNL A   1      30.304  26.076  23.516  1.00  0.00    -0.267 OA
ENDBRANCH  13  15
ENDBRANCH   8  13
ENDBRANCH   4   7
ENDBRANCH   2   3
ENDBRANCH   1   2
BRANCH   1  25
ATOM     25  C   UNL A   1      38.728  23.042  26.509  1.00  0.00     0.118 C 
BRANCH  25  26
ATOM     26  N   UNL A   1      40.136  23.252  26.229  1.00  0.00    -0.352 N 
ATOM     27  C   UNL A   1      41.040  24.230  26.567  1.00  0.00     0.251 C 
ATOM     28  H   UNL A   1      40.530  22.538  25.677  1.00  0.00     0.163 HD
ATOM     29  O   UNL A   1      42.139  24.177  26.009  1.00  0.00    -0.269 OA
BRANCH  27  30
ATOM     30  C   UNL A   1      40.781  25.340  27.531  1.00  0.00     0.039 A 
ATOM     31  C   UNL A   1      41.787  26.310  27.682  1.00  0.00     0.014 A 
ATOM     32  C   UNL A   1      39.674  25.408  28.379  1.00  0.00     0.014 A 
ATOM     33  C   UNL A   1      41.683  27.321  28.649  1.00  0.00     0.010 A 
ATOM     34  C   UNL A   1      39.529  26.467  29.288  1.00  0.00     0.010 A 
ATOM     35  C   UNL A   1      40.545  27.417  29.460  1.00  0.00    -0.014 A 
BRANCH  35  36
ATOM     36  C   UNL A   1      40.436  28.444  30.537  1.00  0.00     0.031 A 
ATOM     37  C   UNL A   1      41.366  28.400  31.727  1.00  0.00     0.074 A 
ATOM     38  C   UNL A   1      39.499  29.410  30.471  1.00  0.00     0.049 A 
ATOM     39  N   UNL A   1      41.377  29.152  32.800  1.00  0.00    -0.248 NA
ATOM     40  C   UNL A   1      42.410  27.364  31.713  1.00  0.00     0.031 C 
ATOM     41  C   UNL A   1      38.544  29.592  29.378  1.00  0.00     0.029 A 
ATOM     42  N   UNL A   1      39.200  30.426  31.347  1.00  0.00    -0.354 N 
ATOM     43  C   UNL A   1      42.414  28.671  33.593  1.00  0.00     0.074 A 
ATOM     44  C   UNL A   1      42.974  27.531  32.900  1.00  0.00     0.031 C 
ATOM     45  C   UNL A   1      37.789  30.672  29.631  1.00  0.00     0.029 A 
ATOM     46  C   UNL A   1      38.171  31.235  30.923  1.00  0.00     0.049 A 
ATOM     47  H   UNL A   1      39.677  30.561  32.197  1.00  0.00     0.167 HD
ATOM     48  C   UNL A   1      42.877  29.140  34.778  1.00  0.00     0.031 A 
ATOM     49  C   UNL A   1      37.595  32.305  31.506  1.00  0.00     0.031 A 
ATOM     50  C   UNL A   1      42.331  30.277  35.474  1.00  0.00     0.049 A 
ATOM     51  C   UNL A   1      38.086  32.779  32.846  1.00  0.00     0.074 A 
ATOM     52  C   UNL A   1      42.740  30.833  36.674  1.00  0.00     0.029 A 
ATOM     53  N   UNL A   1      41.260  31.037  35.028  1.00  0.00    -0.354 N 
ATOM     54  N   UNL A   1      39.058  32.300  33.584  1.00  0.00    -0.248 NA
ATOM     55  C   UNL A   1      37.399  33.941  33.428  1.00  0.00     0.031 C 
ATOM     56  C   UNL A   1      41.889  31.901  36.976  1.00  0.00     0.029 A 
ATOM     57  C   UNL A   1      40.982  32.046  35.939  1.00  0.00     0.049 A 
ATOM     58  H   UNL A   1      40.769  30.883  34.190  1.00  0.00     0.167 HD
ATOM     59  C   UNL A   1      39.112  33.113  34.712  1.00  0.00     0.074 A 
ATOM     60  C   UNL A   1      38.084  34.121  34.550  1.00  0.00     0.031 C 
ATOM     61  C   UNL A   1      39.940  33.029  35.783  1.00  0.00     0.031 A 
BRANCH  48  62
ATOM     62  C   UNL A   1      44.033  28.400  35.404  1.00  0.00    -0.014 A 
ATOM     63  C   UNL A   1      43.813  27.326  36.286  1.00  0.00     0.010 A 
ATOM     64  C   UNL A   1      45.354  28.785  35.114  1.00  0.00     0.010 A 
ATOM     65  C   UNL A   1      44.889  26.693  36.915  1.00  0.00     0.020 A 
ATOM     66  C   UNL A   1      46.435  28.135  35.718  1.00  0.00     0.020 A 
ATOM     67  C   UNL A   1      46.193  27.111  36.635  1.00  0.00     0.054 A 
BRANCH  67  68
ATOM     68  S   UNL A   1      47.570  26.290  37.486  1.00  0.00     0.124 S 
ATOM     69  O   UNL A   1      48.390  25.841  36.363  1.00  0.00    -0.237 OA
ATOM     70  O   UNL A   1      48.142  27.370  38.287  1.00  0.00    -0.237 OA
ATOM     71  O   UNL A   1      46.922  25.227  38.248  1.00  0.00    -0.744 OA
ENDBRANCH  67  68
ENDBRANCH  48  62
BRANCH  49  72
ATOM     72  C   UNL A   1      36.501  33.019  30.796  1.00  0.00    -0.014 A 
ATOM     73  C   UNL A   1      35.167  32.850  31.206  1.00  0.00     0.010 A 
ATOM     74  C   UNL A   1      36.789  33.918  29.752  1.00  0.00     0.010 A 
ATOM     75  C   UNL A   1      34.142  33.577  30.595  1.00  0.00     0.020 A 
ATOM     76  C   UNL A   1      35.768  34.663  29.154  1.00  0.00     0.020 A 
ATOM     77  C   UNL A   1      34.451  34.488  29.582  1.00  0.00     0.054 A 
BRANCH  77  78
ATOM     78  S   UNL A   1      33.114  35.497  28.882  1.00  0.00     0.124 S 
ATOM     79  O   UNL A   1      32.426  35.966  30.080  1.00  0.00    -0.237 OA
ATOM     80  O   UNL A   1      33.847  36.514  28.134  1.00  0.00    -0.237 OA
ATOM     81  O   UNL A   1      32.365  34.549  28.060  1.00  0.00    -0.744 OA
ENDBRANCH  77  78
ENDBRANCH  49  72
BRANCH  61  82
ATOM     82  C   UNL A   1      39.774  34.065  36.865  1.00  0.00    -0.014 A 
ATOM     83  C   UNL A   1      40.277  35.368  36.705  1.00  0.00     0.010 A 
ATOM     84  C   UNL A   1      39.080  33.739  38.044  1.00  0.00     0.010 A 
ATOM     85  C   UNL A   1      40.122  36.316  37.721  1.00  0.00     0.020 A 
ATOM     86  C   UNL A   1      38.902  34.690  39.052  1.00  0.00     0.020 A 
ATOM     87  C   UNL A   1      39.439  35.969  38.891  1.00  0.00     0.054 A 
BRANCH  87  88
ATOM     88  S   UNL A   1      39.235  37.222  40.187  1.00  0.00     0.124 S 
ATOM     89  O   UNL A   1      38.488  36.489  41.204  1.00  0.00    -0.237 OA
ATOM     90  O   UNL A   1      40.616  37.551  40.536  1.00  0.00    -0.237 OA
ATOM     91  O   UNL A   1      38.497  38.293  39.521  1.00  0.00    -0.744 OA
ENDBRANCH  87  88
ENDBRANCH  61  82
ENDBRANCH  35  36
ENDBRANCH  27  30
ENDBRANCH  25  26
ENDBRANCH   1  25
TORSDOF 15
ENDMDL
MODEL 3
REMARK VINA RESULT:     -12.4      4.005     10.314
REMARK SMILES Cc1nn(C)c(=O)c(C(=O)N2CC[C@@H](C(=O)NCCCNC(=O)c3ccc(-c4c5nc(c(-c6ccc(S(=O)(=O)[O-])cc6)c6ccc([nH]6)c(-c6ccc(S(=O)(=O)[O-])cc6)c6nc(c(-c7ccc(S(=O)(=O)[O-])cc7)c7ccc4[nH]7)C=C6)C=C5)cc3)[C@@H]2C)c1C
REMARK SMILES IDX 19 1 18 2 17 3 15 4 16 5 14 7 11 8 12 9 84 10 13 11 85 12
REMARK SMILES IDX 9 13 10 14 8 15 1 16 2 17 3 18 86 19 4 20 87 21 5 22 6 23
REMARK SMILES IDX 7 24 20 25 21 26 22 27 23 29 24 30 25 31 83 32 26 33 82 34
REMARK SMILES IDX 27 35 28 36 29 37 76 38 30 39 81 40 75 41 77 42 31 43 80 44
REMARK SMILES IDX 74 45 73 46 32 48 62 49 43 50 61 51 44 52 47 53 60 54 78 55
REMARK SMILES IDX 45 56 46 57 59 59 79 60 48 61 33 62 34 63 42 64 35 65 41 66
REMARK SMILES IDX 36 67 37 68 38 69 39 70 40 71 63 72 64 73 72 74 65 75 71 76
REMARK SMILES IDX 66 77 67 78 68 79 69 80 70 81 49 82 50 83 58 84 51 85 57 86
REMARK SMILES IDX 52 87 53 88 54 89 55 90 56 91
REMARK H PARENT 17 6 21 28 77 47 47 58
REMARK Flexibility Score: inf
ROOT
ATOM      1  C   UNL A   1      36.117  22.574  23.917  1.00  0.00     0.042 C 
ENDROOT
BRANCH   1   2
ATOM      2  C   UNL A   1      35.251  21.513  24.591  1.00  0.00     0.117 C 
BRANCH   2   3
ATOM      3  N   UNL A   1      33.966  21.362  23.922  1.00  0.00    -0.356 N 
ATOM      4  C   UNL A   1      32.709  21.767  24.243  1.00  0.00     0.225 C 
ATOM      5  O   UNL A   1      31.806  21.412  23.476  1.00  0.00    -0.275 OA
ATOM      6  H   UNL A   1      34.018  20.871  23.070  1.00  0.00     0.163 HD
BRANCH   4   7
ATOM      7  C   UNL A   1      32.352  22.576  25.486  1.00  0.00     0.102 C 
ATOM      8  N   UNL A   1      31.324  24.744  25.534  1.00  0.00    -0.335 N 
ATOM      9  C   UNL A   1      30.510  23.868  26.361  1.00  0.00     0.121 C 
ATOM     10  C   UNL A   1      32.620  24.081  25.317  1.00  0.00     0.094 C 
ATOM     11  C   UNL A   1      30.920  22.447  25.997  1.00  0.00     0.037 C 
ATOM     12  C   UNL A   1      33.718  24.550  26.281  1.00  0.00     0.032 C 
BRANCH   8  13
ATOM     13  C   UNL A   1      31.257  26.115  25.821  1.00  0.00     0.260 C 
ATOM     14  O   UNL A   1      30.969  26.524  26.942  1.00  0.00    -0.269 OA
BRANCH  13  15
ATOM     15  C   UNL A   1      31.453  27.046  24.662  1.00  0.00     0.111 A 
ATOM     16  C   UNL A   1      34.068  28.768  22.609  1.00  0.00     0.069 C 
ATOM     17  C   UNL A   1      32.706  28.508  23.219  1.00  0.00     0.062 A 
ATOM     18  N   UNL A   1      31.684  28.945  22.563  1.00  0.00    -0.175 NA
ATOM     19  C   UNL A   1      32.600  27.727  24.477  1.00  0.00    -0.010 A 
ATOM     20  N   UNL A   1      30.452  28.546  23.000  1.00  0.00    -0.232 N 
ATOM     21  C   UNL A   1      33.690  27.895  25.473  1.00  0.00     0.047 C 
ATOM     22  C   UNL A   1      29.331  29.248  22.397  1.00  0.00     0.178 C 
ATOM     23  C   UNL A   1      30.259  27.449  23.840  1.00  0.00     0.279 A 
ATOM     24  O   UNL A   1      29.184  26.875  23.965  1.00  0.00    -0.267 OA
ENDBRANCH  13  15
ENDBRANCH   8  13
ENDBRANCH   4   7
ENDBRANCH   2   3
ENDBRANCH   1   2
BRANCH   1  25
ATOM     25  C   UNL A   1      37.019  23.376  24.845  1.00  0.00     0.118 C 
BRANCH  25  26
ATOM     26  N   UNL A   1      38.109  22.587  25.388  1.00  0.00    -0.352 N 
ATOM     27  C   UNL A   1      39.193  22.877  26.180  1.00  0.00     0.251 C 
ATOM     28  H   UNL A   1      38.061  21.637  25.135  1.00  0.00     0.163 HD
ATOM     29  O   UNL A   1      40.027  21.979  26.318  1.00  0.00    -0.269 OA
BRANCH  27  30
ATOM     30  C   UNL A   1      39.434  24.186  26.856  1.00  0.00     0.039 A 
ATOM     31  C   UNL A   1      40.128  25.169  26.129  1.00  0.00     0.014 A 
ATOM     32  C   UNL A   1      39.133  24.452  28.193  1.00  0.00     0.014 A 
ATOM     33  C   UNL A   1      40.503  26.384  26.723  1.00  0.00     0.010 A 
ATOM     34  C   UNL A   1      39.433  25.699  28.763  1.00  0.00     0.010 A 
ATOM     35  C   UNL A   1      40.151  26.667  28.048  1.00  0.00    -0.014 A 
BRANCH  35  36
ATOM     36  C   UNL A   1      40.590  27.924  28.723  1.00  0.00     0.031 A 
ATOM     37  C   UNL A   1      42.009  28.064  29.222  1.00  0.00     0.074 A 
ATOM     38  C   UNL A   1      39.725  28.940  28.909  1.00  0.00     0.049 A 
ATOM     39  N   UNL A   1      42.557  29.041  29.901  1.00  0.00    -0.248 NA
ATOM     40  C   UNL A   1      42.925  26.950  28.932  1.00  0.00     0.031 C 
ATOM     41  C   UNL A   1      38.331  28.960  28.467  1.00  0.00     0.029 A 
ATOM     42  N   UNL A   1      39.897  30.159  29.521  1.00  0.00    -0.354 N 
ATOM     43  C   UNL A   1      43.873  28.654  30.133  1.00  0.00     0.074 A 
ATOM     44  C   UNL A   1      44.024  27.330  29.567  1.00  0.00     0.031 C 
ATOM     45  C   UNL A   1      37.785  30.142  28.790  1.00  0.00     0.029 A 
ATOM     46  C   UNL A   1      38.771  30.949  29.503  1.00  0.00     0.049 A 
ATOM     47  H   UNL A   1      40.746  30.440  29.933  1.00  0.00     0.167 HD
ATOM     48  C   UNL A   1      44.875  29.337  30.740  1.00  0.00     0.031 A 
ATOM     49  C   UNL A   1      38.551  32.180  30.005  1.00  0.00     0.031 A 
ATOM     50  C   UNL A   1      44.738  30.655  31.302  1.00  0.00     0.049 A 
ATOM     51  C   UNL A   1      39.658  32.901  30.724  1.00  0.00     0.074 A 
ATOM     52  C   UNL A   1      45.699  31.432  31.928  1.00  0.00     0.029 A 
ATOM     53  N   UNL A   1      43.567  31.397  31.301  1.00  0.00    -0.354 N 
ATOM     54  N   UNL A   1      40.890  32.510  30.943  1.00  0.00    -0.248 NA
ATOM     55  C   UNL A   1      39.340  34.233  31.260  1.00  0.00     0.031 C 
ATOM     56  C   UNL A   1      45.097  32.624  32.345  1.00  0.00     0.029 A 
ATOM     57  C   UNL A   1      43.775  32.615  31.932  1.00  0.00     0.049 A 
ATOM     58  H   UNL A   1      42.713  31.104  30.911  1.00  0.00     0.167 HD
ATOM     59  C   UNL A   1      41.501  33.554  31.630  1.00  0.00     0.074 A 
ATOM     60  C   UNL A   1      40.507  34.599  31.775  1.00  0.00     0.031 C 
ATOM     61  C   UNL A   1      42.773  33.638  32.095  1.00  0.00     0.031 A 
BRANCH  48  62
ATOM     62  C   UNL A   1      46.213  28.647  30.840  1.00  0.00    -0.014 A 
ATOM     63  C   UNL A   1      46.536  27.848  31.952  1.00  0.00     0.010 A 
ATOM     64  C   UNL A   1      47.162  28.804  29.813  1.00  0.00     0.010 A 
ATOM     65  C   UNL A   1      47.804  27.272  32.067  1.00  0.00     0.020 A 
ATOM     66  C   UNL A   1      48.422  28.204  29.910  1.00  0.00     0.020 A 
ATOM     67  C   UNL A   1      48.743  27.464  31.049  1.00  0.00     0.054 A 
BRANCH  67  68
ATOM     68  S   UNL A   1      50.391  26.727  31.237  1.00  0.00     0.124 S 
ATOM     69  O   UNL A   1      50.515  26.638  32.690  1.00  0.00    -0.237 OA
ATOM     70  O   UNL A   1      50.255  25.452  30.539  1.00  0.00    -0.237 OA
ATOM     71  O   UNL A   1      51.277  27.695  30.595  1.00  0.00    -0.744 OA
ENDBRANCH  67  68
ENDBRANCH  48  62
BRANCH  49  72
ATOM     72  C   UNL A   1      37.222  32.818  29.812  1.00  0.00    -0.014 A 
ATOM     73  C   UNL A   1      36.287  32.830  30.862  1.00  0.00     0.010 A 
ATOM     74  C   UNL A   1      36.907  33.471  28.606  1.00  0.00     0.010 A 
ATOM     75  C   UNL A   1      35.067  33.495  30.715  1.00  0.00     0.020 A 
ATOM     76  C   UNL A   1      35.697  34.157  28.464  1.00  0.00     0.020 A 
ATOM     77  C   UNL A   1      34.785  34.165  29.521  1.00  0.00     0.054 A 
BRANCH  77  78
ATOM     78  S   UNL A   1      33.240  35.111  29.397  1.00  0.00     0.124 S 
ATOM     79  O   UNL A   1      33.722  36.431  29.004  1.00  0.00    -0.237 OA
ATOM     80  O   UNL A   1      32.504  34.375  28.372  1.00  0.00    -0.237 OA
ATOM     81  O   UNL A   1      32.677  35.023  30.743  1.00  0.00    -0.744 OA
ENDBRANCH  77  78
ENDBRANCH  49  72
BRANCH  61  82
ATOM     82  C   UNL A   1      43.166  34.910  32.801  1.00  0.00    -0.014 A 
ATOM     83  C   UNL A   1      43.556  36.051  32.077  1.00  0.00     0.010 A 
ATOM     84  C   UNL A   1      43.115  34.975  34.205  1.00  0.00     0.010 A 
ATOM     85  C   UNL A   1      43.926  37.221  32.746  1.00  0.00     0.020 A 
ATOM     86  C   UNL A   1      43.460  36.151  34.877  1.00  0.00     0.020 A 
ATOM     87  C   UNL A   1      43.879  37.262  34.143  1.00  0.00     0.054 A 
BRANCH  87  88
ATOM     88  S   UNL A   1      44.346  38.799  34.987  1.00  0.00     0.124 S 
ATOM     89  O   UNL A   1      45.790  38.833  34.781  1.00  0.00    -0.237 OA
ATOM     90  O   UNL A   1      43.583  39.810  34.258  1.00  0.00    -0.237 OA
ATOM     91  O   UNL A   1      43.917  38.581  36.367  1.00  0.00    -0.744 OA
ENDBRANCH  87  88
ENDBRANCH  61  82
ENDBRANCH  35  36
ENDBRANCH  27  30
ENDBRANCH  25  26
ENDBRANCH   1  25
TORSDOF 15
ENDMDL
