MODEL 1
REMARK VINA RESULT:      -9.2      0.000      0.000
REMARK SMILES O=C(Cc1ccc(F)c(F)c1)NC1(C(=O)NCCCNC(=O)c2ccc(-c3c4nc(c(-c5ccc(S(=O)(=O)[O-])cc5)c5ccc([nH]5)c(-c5ccc(S(=O)(=O)[O-])cc5)c5nc(c(-c6ccc(S(=O)(=O)[O-])cc6)c6ccc3[nH]6)C=C5)C=C4)cc2)CCCC1
REMARK SMILES IDX 18 1 17 2 16 3 14 4 15 5 13 7 83 8 86 9 84 10 85 11 12 12
REMARK SMILES IDX 1 13 2 14 3 16 4 17 5 18 11 19 6 20 9 21 7 22 10 23 8 24
REMARK SMILES IDX 19 25 20 26 21 27 22 29 23 30 24 31 82 32 25 33 81 34 26 35
REMARK SMILES IDX 27 36 28 37 75 38 29 39 80 40 74 41 76 42 30 43 79 44 73 45
REMARK SMILES IDX 72 46 31 48 61 49 42 50 60 51 43 52 46 53 59 54 77 55 44 56
REMARK SMILES IDX 45 57 58 59 78 60 47 61 32 62 33 63 41 64 34 65 40 66 35 67
REMARK SMILES IDX 36 68 37 69 38 70 39 71 62 72 63 73 71 74 64 75 70 76 65 77
REMARK SMILES IDX 66 78 67 79 68 80 69 81 48 82 49 83 57 84 50 85 56 86 51 87
REMARK SMILES IDX 52 88 53 89 54 90 55 91
REMARK H PARENT 16 6 12 15 20 28 76 47 46 58
REMARK Flexibility Score: inf
ROOT
ATOM      1  C   UNL A   1      34.268  33.122  29.568  1.00  0.00     0.042 C 
ENDROOT
BRANCH   1   2
ATOM      2  C   UNL A   1      34.758  32.513  30.866  1.00  0.00     0.117 C 
BRANCH   2   3
ATOM      3  N   UNL A   1      35.098  33.498  31.859  1.00  0.00    -0.354 N 
ATOM      4  C   UNL A   1      36.288  34.068  32.165  1.00  0.00     0.245 C 
ATOM      5  O   UNL A   1      36.208  35.113  32.832  1.00  0.00    -0.272 OA
ATOM      6  H   UNL A   1      34.340  33.806  32.406  1.00  0.00     0.163 HD
BRANCH   4   7
ATOM      7  C   UNL A   1      37.670  33.550  31.633  1.00  0.00     0.119 C 
ATOM      8  C   UNL A   1      38.599  34.703  31.212  1.00  0.00     0.038 C 
ATOM      9  C   UNL A   1      37.669  32.583  30.440  1.00  0.00     0.038 C 
ATOM     10  C   UNL A   1      38.805  34.631  29.703  1.00  0.00     0.003 C 
ATOM     11  C   UNL A   1      38.242  33.304  29.226  1.00  0.00     0.003 C 
BRANCH   7  12
ATOM     12  N   UNL A   1      38.253  32.902  32.827  1.00  0.00    -0.341 N 
ATOM     13  O   UNL A   1      36.705  31.200  33.003  1.00  0.00    -0.275 OA
ATOM     14  C   UNL A   1      37.688  31.794  33.435  1.00  0.00     0.225 C 
ATOM     15  H   UNL A   1      39.081  33.275  33.208  1.00  0.00     0.164 HD
BRANCH  14  16
ATOM     16  C   UNL A   1      38.444  31.331  34.665  1.00  0.00     0.135 C 
BRANCH  16  17
ATOM     17  C   UNL A   1      39.696  30.547  34.327  1.00  0.00    -0.036 A 
ATOM     18  C   UNL A   1      40.917  30.896  34.924  1.00  0.00     0.007 A 
ATOM     19  C   UNL A   1      39.680  29.499  33.390  1.00  0.00     0.046 A 
ATOM     20  C   UNL A   1      42.086  30.192  34.617  1.00  0.00     0.043 A 
ATOM     21  C   UNL A   1      40.846  28.800  33.094  1.00  0.00     0.159 A 
ATOM     22  C   UNL A   1      42.041  29.144  33.705  1.00  0.00     0.158 A 
ATOM     23  F   UNL A   1      40.799  27.797  32.206  1.00  0.00    -0.204 F 
ATOM     24  F   UNL A   1      43.164  28.475  33.413  1.00  0.00    -0.204 F 
ENDBRANCH  16  17
ENDBRANCH  14  16
ENDBRANCH   7  12
ENDBRANCH   4   7
ENDBRANCH   2   3
ENDBRANCH   1   2
BRANCH   1  25
ATOM     25  C   UNL A   1      34.815  32.404  28.345  1.00  0.00     0.118 C 
BRANCH  25  26
ATOM     26  N   UNL A   1      34.230  31.076  28.177  1.00  0.00    -0.352 N 
ATOM     27  C   UNL A   1      34.835  29.850  28.042  1.00  0.00     0.251 C 
ATOM     28  H   UNL A   1      33.246  31.057  28.159  1.00  0.00     0.163 HD
ATOM     29  O   UNL A   1      34.182  28.888  27.656  1.00  0.00    -0.269 OA
BRANCH  27  30
ATOM     30  C   UNL A   1      36.271  29.708  28.354  1.00  0.00     0.039 A 
ATOM     31  C   UNL A   1      36.659  29.264  29.619  1.00  0.00     0.014 A 
ATOM     32  C   UNL A   1      37.231  30.012  27.389  1.00  0.00     0.014 A 
ATOM     33  C   UNL A   1      38.014  29.057  29.886  1.00  0.00     0.010 A 
ATOM     34  C   UNL A   1      38.560  29.689  27.613  1.00  0.00     0.010 A 
ATOM     35  C   UNL A   1      38.969  29.228  28.870  1.00  0.00    -0.014 A 
BRANCH  35  36
ATOM     36  C   UNL A   1      40.408  28.954  29.099  1.00  0.00     0.031 A 
ATOM     37  C   UNL A   1      40.984  27.615  28.719  1.00  0.00     0.074 A 
ATOM     38  C   UNL A   1      41.171  29.874  29.721  1.00  0.00     0.049 A 
ATOM     39  N   UNL A   1      42.194  27.157  28.903  1.00  0.00    -0.248 NA
ATOM     40  C   UNL A   1      40.069  26.652  28.081  1.00  0.00     0.031 C 
ATOM     41  C   UNL A   1      40.709  31.184  30.188  1.00  0.00     0.029 A 
ATOM     42  N   UNL A   1      42.496  29.845  30.073  1.00  0.00    -0.354 N 
ATOM     43  C   UNL A   1      42.178  25.850  28.430  1.00  0.00     0.074 A 
ATOM     44  C   UNL A   1      40.824  25.566  28.013  1.00  0.00     0.031 C 
ATOM     45  C   UNL A   1      41.743  31.847  30.730  1.00  0.00     0.029 A 
ATOM     46  C   UNL A   1      42.926  30.993  30.695  1.00  0.00     0.049 A 
ATOM     47  H   UNL A   1      43.084  29.075  29.897  1.00  0.00     0.167 HD
ATOM     48  C   UNL A   1      43.203  24.971  28.328  1.00  0.00     0.031 A 
ATOM     49  C   UNL A   1      44.136  31.320  31.188  1.00  0.00     0.031 A 
ATOM     50  C   UNL A   1      44.549  25.269  28.734  1.00  0.00     0.049 A 
ATOM     51  C   UNL A   1      45.262  30.332  31.063  1.00  0.00     0.074 A 
ATOM     52  C   UNL A   1      45.678  24.479  28.614  1.00  0.00     0.029 A 
ATOM     53  N   UNL A   1      44.948  26.450  29.343  1.00  0.00    -0.354 N 
ATOM     54  N   UNL A   1      45.246  29.129  30.541  1.00  0.00    -0.248 NA
ATOM     55  C   UNL A   1      46.570  30.750  31.582  1.00  0.00     0.031 C 
ATOM     56  C   UNL A   1      46.747  25.157  29.208  1.00  0.00     0.029 A 
ATOM     57  C   UNL A   1      46.301  26.399  29.633  1.00  0.00     0.049 A 
ATOM     58  H   UNL A   1      44.357  27.212  29.540  1.00  0.00     0.167 HD
ATOM     59  C   UNL A   1      46.550  28.655  30.644  1.00  0.00     0.074 A 
ATOM     60  C   UNL A   1      47.328  29.708  31.263  1.00  0.00     0.031 C 
ATOM     61  C   UNL A   1      47.056  27.457  30.258  1.00  0.00     0.031 A 
BRANCH  48  62
ATOM     62  C   UNL A   1      42.896  23.607  27.765  1.00  0.00    -0.014 A 
ATOM     63  C   UNL A   1      42.158  22.661  28.500  1.00  0.00     0.010 A 
ATOM     64  C   UNL A   1      43.339  23.270  26.473  1.00  0.00     0.010 A 
ATOM     65  C   UNL A   1      41.918  21.387  27.978  1.00  0.00     0.020 A 
ATOM     66  C   UNL A   1      43.071  22.009  25.933  1.00  0.00     0.020 A 
ATOM     67  C   UNL A   1      42.381  21.068  26.698  1.00  0.00     0.054 A 
BRANCH  67  68
ATOM     68  S   UNL A   1      42.047  19.410  26.043  1.00  0.00     0.124 S 
ATOM     69  O   UNL A   1      42.806  19.421  24.794  1.00  0.00    -0.237 OA
ATOM     70  O   UNL A   1      42.575  18.540  27.091  1.00  0.00    -0.237 OA
ATOM     71  O   UNL A   1      40.594  19.382  25.888  1.00  0.00    -0.744 OA
ENDBRANCH  67  68
ENDBRANCH  48  62
BRANCH  49  72
ATOM     72  C   UNL A   1      44.339  32.653  31.820  1.00  0.00    -0.014 A 
ATOM     73  C   UNL A   1      44.109  32.835  33.195  1.00  0.00     0.010 A 
ATOM     74  C   UNL A   1      44.806  33.739  31.056  1.00  0.00     0.010 A 
ATOM     75  C   UNL A   1      44.333  34.080  33.792  1.00  0.00     0.020 A 
ATOM     76  C   UNL A   1      45.060  34.976  31.656  1.00  0.00     0.020 A 
ATOM     77  C   UNL A   1      44.815  35.140  33.019  1.00  0.00     0.054 A 
BRANCH  77  78
ATOM     78  S   UNL A   1      45.166  36.723  33.834  1.00  0.00     0.124 S 
ATOM     79  O   UNL A   1      45.774  37.493  32.755  1.00  0.00    -0.237 OA
ATOM     80  O   UNL A   1      43.837  37.161  34.256  1.00  0.00    -0.237 OA
ATOM     81  O   UNL A   1      46.066  36.353  34.925  1.00  0.00    -0.744 OA
ENDBRANCH  77  78
ENDBRANCH  49  72
BRANCH  61  82
ATOM     82  C   UNL A   1      48.531  27.229  30.464  1.00  0.00    -0.014 A 
ATOM     83  C   UNL A   1      49.473  27.611  29.493  1.00  0.00     0.010 A 
ATOM     84  C   UNL A   1      48.981  26.680  31.678  1.00  0.00     0.010 A 
ATOM     85  C   UNL A   1      50.838  27.417  29.721  1.00  0.00     0.020 A 
ATOM     86  C   UNL A   1      50.346  26.515  31.923  1.00  0.00     0.020 A 
ATOM     87  C   UNL A   1      51.266  26.873  30.936  1.00  0.00     0.054 A 
BRANCH  87  88
ATOM     88  S   UNL A   1      53.045  26.675  31.225  1.00  0.00     0.124 S 
ATOM     89  O   UNL A   1      53.591  26.844  29.881  1.00  0.00    -0.237 OA
ATOM     90  O   UNL A   1      53.338  27.756  32.163  1.00  0.00    -0.237 OA
ATOM     91  O   UNL A   1      53.159  25.328  31.778  1.00  0.00    -0.744 OA
ENDBRANCH  87  88
ENDBRANCH  61  82
ENDBRANCH  35  36
ENDBRANCH  27  30
ENDBRANCH  25  26
ENDBRANCH   1  25
TORSDOF 16
ENDMDL
MODEL 2
REMARK VINA RESULT:      -9.2      4.097     10.734
REMARK SMILES O=C(Cc1ccc(F)c(F)c1)NC1(C(=O)NCCCNC(=O)c2ccc(-c3c4nc(c(-c5ccc(S(=O)(=O)[O-])cc5)c5ccc([nH]5)c(-c5ccc(S(=O)(=O)[O-])cc5)c5nc(c(-c6ccc(S(=O)(=O)[O-])cc6)c6ccc3[nH]6)C=C5)C=C4)cc2)CCCC1
REMARK SMILES IDX 18 1 17 2 16 3 14 4 15 5 13 7 83 8 86 9 84 10 85 11 12 12
REMARK SMILES IDX 1 13 2 14 3 16 4 17 5 18 11 19 6 20 9 21 7 22 10 23 8 24
REMARK SMILES IDX 19 25 20 26 21 27 22 29 23 30 24 31 82 32 25 33 81 34 26 35
REMARK SMILES IDX 27 36 28 37 75 38 29 39 80 40 74 41 76 42 30 43 79 44 73 45
REMARK SMILES IDX 72 46 31 48 61 49 42 50 60 51 43 52 46 53 59 54 77 55 44 56
REMARK SMILES IDX 45 57 58 59 78 60 47 61 32 62 33 63 41 64 34 65 40 66 35 67
REMARK SMILES IDX 36 68 37 69 38 70 39 71 62 72 63 73 71 74 64 75 70 76 65 77
REMARK SMILES IDX 66 78 67 79 68 80 69 81 48 82 49 83 57 84 50 85 56 86 51 87
REMARK SMILES IDX 52 88 53 89 54 90 55 91
REMARK H PARENT 16 6 12 15 20 28 76 47 46 58
REMARK Flexibility Score: inf
ROOT
ATOM      1  C   UNL A   1      32.285  27.584  26.896  1.00  0.00     0.042 C 
ENDROOT
BRANCH   1   2
ATOM      2  C   UNL A   1      32.245  26.332  26.045  1.00  0.00     0.117 C 
BRANCH   2   3
ATOM      3  N   UNL A   1      33.471  25.579  26.088  1.00  0.00    -0.354 N 
ATOM      4  C   UNL A   1      33.853  24.474  25.403  1.00  0.00     0.245 C 
ATOM      5  O   UNL A   1      35.075  24.255  25.409  1.00  0.00    -0.272 OA
ATOM      6  H   UNL A   1      34.143  25.926  26.719  1.00  0.00     0.163 HD
BRANCH   4   7
ATOM      7  C   UNL A   1      32.874  23.585  24.558  1.00  0.00     0.119 C 
ATOM      8  C   UNL A   1      31.669  23.102  25.384  1.00  0.00     0.038 C 
ATOM      9  C   UNL A   1      33.439  22.319  23.896  1.00  0.00     0.038 C 
ATOM     10  C   UNL A   1      31.764  21.587  25.537  1.00  0.00     0.003 C 
ATOM     11  C   UNL A   1      32.853  21.099  24.597  1.00  0.00     0.003 C 
BRANCH   7  12
ATOM     12  N   UNL A   1      32.382  24.531  23.535  1.00  0.00    -0.341 N 
ATOM     13  O   UNL A   1      34.350  24.705  22.345  1.00  0.00    -0.275 OA
ATOM     14  C   UNL A   1      33.185  25.042  22.531  1.00  0.00     0.225 C 
ATOM     15  H   UNL A   1      31.438  24.811  23.568  1.00  0.00     0.164 HD
BRANCH  14  16
ATOM     16  C   UNL A   1      32.466  26.022  21.624  1.00  0.00     0.135 C 
BRANCH  16  17
ATOM     17  C   UNL A   1      31.860  27.187  22.377  1.00  0.00    -0.036 A 
ATOM     18  C   UNL A   1      32.696  28.170  22.929  1.00  0.00     0.007 A 
ATOM     19  C   UNL A   1      30.472  27.292  22.582  1.00  0.00     0.046 A 
ATOM     20  C   UNL A   1      32.156  29.248  23.638  1.00  0.00     0.043 A 
ATOM     21  C   UNL A   1      29.943  28.369  23.284  1.00  0.00     0.159 A 
ATOM     22  C   UNL A   1      30.779  29.341  23.808  1.00  0.00     0.158 A 
ATOM     23  F   UNL A   1      28.615  28.450  23.454  1.00  0.00    -0.204 F 
ATOM     24  F   UNL A   1      30.268  30.375  24.490  1.00  0.00    -0.204 F 
ENDBRANCH  16  17
ENDBRANCH  14  16
ENDBRANCH   7  12
ENDBRANCH   4   7
ENDBRANCH   2   3
ENDBRANCH   1   2
BRANCH   1  25
ATOM     25  C   UNL A   1      33.629  28.292  26.824  1.00  0.00     0.118 C 
BRANCH  25  26
ATOM     26  N   UNL A   1      33.544  29.682  27.266  1.00  0.00    -0.352 N 
ATOM     27  C   UNL A   1      34.420  30.430  28.015  1.00  0.00     0.251 C 
ATOM     28  H   UNL A   1      32.732  30.159  26.980  1.00  0.00     0.163 HD
ATOM     29  O   UNL A   1      34.054  31.496  28.495  1.00  0.00    -0.269 OA
BRANCH  27  30
ATOM     30  C   UNL A   1      35.792  29.934  28.243  1.00  0.00     0.039 A 
ATOM     31  C   UNL A   1      36.744  30.054  27.229  1.00  0.00     0.014 A 
ATOM     32  C   UNL A   1      36.132  29.353  29.464  1.00  0.00     0.014 A 
ATOM     33  C   UNL A   1      38.059  29.656  27.474  1.00  0.00     0.010 A 
ATOM     34  C   UNL A   1      37.460  29.074  29.748  1.00  0.00     0.010 A 
ATOM     35  C   UNL A   1      38.434  29.202  28.750  1.00  0.00    -0.014 A 
BRANCH  35  36
ATOM     36  C   UNL A   1      39.835  28.833  29.065  1.00  0.00     0.031 A 
ATOM     37  C   UNL A   1      40.754  29.848  29.691  1.00  0.00     0.074 A 
ATOM     38  C   UNL A   1      40.298  27.618  28.713  1.00  0.00     0.049 A 
ATOM     39  N   UNL A   1      42.025  29.744  29.975  1.00  0.00    -0.248 NA
ATOM     40  C   UNL A   1      40.176  31.167  30.005  1.00  0.00     0.031 C 
ATOM     41  C   UNL A   1      39.518  26.570  28.049  1.00  0.00     0.029 A 
ATOM     42  N   UNL A   1      41.542  27.059  28.861  1.00  0.00    -0.354 N 
ATOM     43  C   UNL A   1      42.402  30.986  30.473  1.00  0.00     0.074 A 
ATOM     44  C   UNL A   1      41.244  31.847  30.392  1.00  0.00     0.031 C 
ATOM     45  C   UNL A   1      40.290  25.485  27.881  1.00  0.00     0.029 A 
ATOM     46  C   UNL A   1      41.630  25.774  28.379  1.00  0.00     0.049 A 
ATOM     47  H   UNL A   1      42.301  27.532  29.273  1.00  0.00     0.167 HD
ATOM     48  C   UNL A   1      43.599  31.370  30.978  1.00  0.00     0.031 A 
ATOM     49  C   UNL A   1      42.676  24.926  28.336  1.00  0.00     0.031 A 
ATOM     50  C   UNL A   1      44.741  30.501  31.067  1.00  0.00     0.049 A 
ATOM     51  C   UNL A   1      43.995  25.370  28.904  1.00  0.00     0.074 A 
ATOM     52  C   UNL A   1      45.980  30.765  31.621  1.00  0.00     0.029 A 
ATOM     53  N   UNL A   1      44.785  29.202  30.584  1.00  0.00    -0.354 N 
ATOM     54  N   UNL A   1      44.312  26.523  29.444  1.00  0.00    -0.248 NA
ATOM     55  C   UNL A   1      45.093  24.396  28.868  1.00  0.00     0.031 C 
ATOM     56  C   UNL A   1      46.793  29.646  31.417  1.00  0.00     0.029 A 
ATOM     57  C   UNL A   1      46.039  28.659  30.800  1.00  0.00     0.049 A 
ATOM     58  H   UNL A   1      44.034  28.734  30.152  1.00  0.00     0.167 HD
ATOM     59  C   UNL A   1      45.640  26.404  29.838  1.00  0.00     0.074 A 
ATOM     60  C   UNL A   1      46.059  25.062  29.487  1.00  0.00     0.031 C 
ATOM     61  C   UNL A   1      46.439  27.322  30.437  1.00  0.00     0.031 A 
BRANCH  48  62
ATOM     62  C   UNL A   1      43.726  32.793  31.459  1.00  0.00    -0.014 A 
ATOM     63  C   UNL A   1      43.310  33.169  32.750  1.00  0.00     0.010 A 
ATOM     64  C   UNL A   1      44.284  33.768  30.612  1.00  0.00     0.010 A 
ATOM     65  C   UNL A   1      43.398  34.502  33.163  1.00  0.00     0.020 A 
ATOM     66  C   UNL A   1      44.407  35.095  31.035  1.00  0.00     0.020 A 
ATOM     67  C   UNL A   1      43.942  35.457  32.301  1.00  0.00     0.054 A 
BRANCH  67  68
ATOM     68  S   UNL A   1      44.051  37.176  32.868  1.00  0.00     0.124 S 
ATOM     69  O   UNL A   1      45.427  37.245  33.357  1.00  0.00    -0.237 OA
ATOM     70  O   UNL A   1      43.781  37.933  31.648  1.00  0.00    -0.237 OA
ATOM     71  O   UNL A   1      43.019  37.269  33.898  1.00  0.00    -0.744 OA
ENDBRANCH  67  68
ENDBRANCH  48  62
BRANCH  49  72
ATOM     72  C   UNL A   1      42.499  23.567  27.755  1.00  0.00    -0.014 A 
ATOM     73  C   UNL A   1      42.767  23.330  26.396  1.00  0.00     0.010 A 
ATOM     74  C   UNL A   1      42.101  22.490  28.570  1.00  0.00     0.010 A 
ATOM     75  C   UNL A   1      42.633  22.045  25.860  1.00  0.00     0.020 A 
ATOM     76  C   UNL A   1      41.995  21.199  28.045  1.00  0.00     0.020 A 
ATOM     77  C   UNL A   1      42.255  20.986  26.691  1.00  0.00     0.054 A 
BRANCH  77  78
ATOM     78  S   UNL A   1      42.158  19.316  25.986  1.00  0.00     0.124 S 
ATOM     79  O   UNL A   1      43.040  19.422  24.829  1.00  0.00    -0.237 OA
ATOM     80  O   UNL A   1      42.648  18.485  27.083  1.00  0.00    -0.237 OA
ATOM     81  O   UNL A   1      40.738  19.157  25.681  1.00  0.00    -0.744 OA
ENDBRANCH  77  78
ENDBRANCH  49  72
BRANCH  61  82
ATOM     82  C   UNL A   1      47.842  26.898  30.783  1.00  0.00    -0.014 A 
ATOM     83  C   UNL A   1      48.919  27.157  29.918  1.00  0.00     0.010 A 
ATOM     84  C   UNL A   1      48.092  26.285  32.024  1.00  0.00     0.010 A 
ATOM     85  C   UNL A   1      50.217  26.781  30.276  1.00  0.00     0.020 A 
ATOM     86  C   UNL A   1      49.391  25.937  32.400  1.00  0.00     0.020 A 
ATOM     87  C   UNL A   1      50.445  26.176  31.515  1.00  0.00     0.054 A 
BRANCH  87  88
ATOM     88  S   UNL A   1      52.144  25.741  31.974  1.00  0.00     0.124 S 
ATOM     89  O   UNL A   1      52.882  26.072  30.758  1.00  0.00    -0.237 OA
ATOM     90  O   UNL A   1      52.398  26.610  33.120  1.00  0.00    -0.237 OA
ATOM     91  O   UNL A   1      52.065  24.315  32.285  1.00  0.00    -0.744 OA
ENDBRANCH  87  88
ENDBRANCH  61  82
ENDBRANCH  35  36
ENDBRANCH  27  30
ENDBRANCH  25  26
ENDBRANCH   1  25
TORSDOF 16
ENDMDL
MODEL 3
REMARK VINA RESULT:      -9.1      4.888     10.995
REMARK SMILES O=C(Cc1ccc(F)c(F)c1)NC1(C(=O)NCCCNC(=O)c2ccc(-c3c4nc(c(-c5ccc(S(=O)(=O)[O-])cc5)c5ccc([nH]5)c(-c5ccc(S(=O)(=O)[O-])cc5)c5nc(c(-c6ccc(S(=O)(=O)[O-])cc6)c6ccc3[nH]6)C=C5)C=C4)cc2)CCCC1
REMARK SMILES IDX 18 1 17 2 16 3 14 4 15 5 13 7 83 8 86 9 84 10 85 11 12 12
REMARK SMILES IDX 1 13 2 14 3 16 4 17 5 18 11 19 6 20 9 21 7 22 10 23 8 24
REMARK SMILES IDX 19 25 20 26 21 27 22 29 23 30 24 31 82 32 25 33 81 34 26 35
REMARK SMILES IDX 27 36 28 37 75 38 29 39 80 40 74 41 76 42 30 43 79 44 73 45
REMARK SMILES IDX 72 46 31 48 61 49 42 50 60 51 43 52 46 53 59 54 77 55 44 56
REMARK SMILES IDX 45 57 58 59 78 60 47 61 32 62 33 63 41 64 34 65 40 66 35 67
REMARK SMILES IDX 36 68 37 69 38 70 39 71 62 72 63 73 71 74 64 75 70 76 65 77
REMARK SMILES IDX 66 78 67 79 68 80 69 81 48 82 49 83 57 84 50 85 56 86 51 87
REMARK SMILES IDX 52 88 53 89 54 90 55 91
REMARK H PARENT 16 6 12 15 20 28 76 47 46 58
REMARK Flexibility Score: inf
ROOT
ATOM      1  C   UNL A   1      32.966  28.301  27.262  1.00  0.00     0.042 C 
ENDROOT
BRANCH   1   2
ATOM      2  C   UNL A   1      31.538  28.216  26.765  1.00  0.00     0.117 C 
BRANCH   2   3
ATOM      3  N   UNL A   1      30.974  26.897  26.890  1.00  0.00    -0.354 N 
ATOM      4  C   UNL A   1      30.796  25.923  25.965  1.00  0.00     0.245 C 
ATOM      5  O   UNL A   1      30.597  24.791  26.434  1.00  0.00    -0.272 OA
ATOM      6  H   UNL A   1      30.667  26.666  27.796  1.00  0.00     0.163 HD
BRANCH   4   7
ATOM      7  C   UNL A   1      30.945  26.144  24.419  1.00  0.00     0.119 C 
ATOM      8  C   UNL A   1      30.880  24.822  23.634  1.00  0.00     0.038 C 
ATOM      9  C   UNL A   1      32.212  26.849  23.909  1.00  0.00     0.038 C 
ATOM     10  C   UNL A   1      32.244  24.567  23.002  1.00  0.00     0.003 C 
ATOM     11  C   UNL A   1      33.066  25.835  23.158  1.00  0.00     0.003 C 
BRANCH   7  12
ATOM     12  N   UNL A   1      29.742  26.936  24.088  1.00  0.00    -0.341 N 
ATOM     13  O   UNL A   1      30.467  27.704  22.038  1.00  0.00    -0.275 OA
ATOM     14  C   UNL A   1      29.626  27.685  22.931  1.00  0.00     0.225 C 
ATOM     15  H   UNL A   1      28.987  26.930  24.721  1.00  0.00     0.164 HD
BRANCH  14  16
ATOM     16  C   UNL A   1      28.315  28.441  22.830  1.00  0.00     0.135 C 
BRANCH  16  17
ATOM     17  C   UNL A   1      28.492  29.943  22.919  1.00  0.00    -0.036 A 
ATOM     18  C   UNL A   1      27.889  30.772  21.961  1.00  0.00     0.007 A 
ATOM     19  C   UNL A   1      29.288  30.535  23.916  1.00  0.00     0.046 A 
ATOM     20  C   UNL A   1      28.050  32.160  22.018  1.00  0.00     0.043 A 
ATOM     21  C   UNL A   1      29.438  31.916  23.970  1.00  0.00     0.159 A 
ATOM     22  C   UNL A   1      28.822  32.724  23.028  1.00  0.00     0.158 A 
ATOM     23  F   UNL A   1      30.193  32.455  24.939  1.00  0.00    -0.204 F 
ATOM     24  F   UNL A   1      28.975  34.054  23.077  1.00  0.00    -0.204 F 
ENDBRANCH  16  17
ENDBRANCH  14  16
ENDBRANCH   7  12
ENDBRANCH   4   7
ENDBRANCH   2   3
ENDBRANCH   1   2
BRANCH   1  25
ATOM     25  C   UNL A   1      33.836  29.186  26.384  1.00  0.00     0.118 C 
BRANCH  25  26
ATOM     26  N   UNL A   1      33.715  30.600  26.733  1.00  0.00    -0.352 N 
ATOM     27  C   UNL A   1      34.417  31.352  27.644  1.00  0.00     0.251 C 
ATOM     28  H   UNL A   1      33.022  31.091  26.236  1.00  0.00     0.163 HD
ATOM     29  O   UNL A   1      33.998  32.454  27.974  1.00  0.00    -0.269 OA
BRANCH  27  30
ATOM     30  C   UNL A   1      35.665  30.816  28.222  1.00  0.00     0.039 A 
ATOM     31  C   UNL A   1      36.885  31.414  27.901  1.00  0.00     0.014 A 
ATOM     32  C   UNL A   1      35.623  29.723  29.088  1.00  0.00     0.014 A 
ATOM     33  C   UNL A   1      38.054  30.956  28.509  1.00  0.00     0.010 A 
ATOM     34  C   UNL A   1      36.763  29.351  29.783  1.00  0.00     0.010 A 
ATOM     35  C   UNL A   1      37.994  29.948  29.487  1.00  0.00    -0.014 A 
BRANCH  35  36
ATOM     36  C   UNL A   1      39.207  29.482  30.202  1.00  0.00     0.031 A 
ATOM     37  C   UNL A   1      39.634  30.166  31.473  1.00  0.00     0.074 A 
ATOM     38  C   UNL A   1      39.962  28.505  29.664  1.00  0.00     0.049 A 
ATOM     39  N   UNL A   1      40.698  29.956  32.203  1.00  0.00    -0.248 NA
ATOM     40  C   UNL A   1      38.772  31.253  31.969  1.00  0.00     0.031 C 
ATOM     41  C   UNL A   1      39.680  27.807  28.406  1.00  0.00     0.029 A 
ATOM     42  N   UNL A   1      41.127  27.931  30.105  1.00  0.00    -0.354 N 
ATOM     43  C   UNL A   1      40.645  30.898  33.224  1.00  0.00     0.074 A 
ATOM     44  C   UNL A   1      39.483  31.722  32.983  1.00  0.00     0.031 C 
ATOM     45  C   UNL A   1      40.624  26.876  28.198  1.00  0.00     0.029 A 
ATOM     46  C   UNL A   1      41.603  26.943  29.277  1.00  0.00     0.049 A 
ATOM     47  H   UNL A   1      41.580  28.202  30.936  1.00  0.00     0.167 HD
ATOM     48  C   UNL A   1      41.476  31.049  34.283  1.00  0.00     0.031 A 
ATOM     49  C   UNL A   1      42.709  26.179  29.372  1.00  0.00     0.031 A 
ATOM     50  C   UNL A   1      42.622  30.214  34.521  1.00  0.00     0.049 A 
ATOM     51  C   UNL A   1      43.616  26.360  30.556  1.00  0.00     0.074 A 
ATOM     52  C   UNL A   1      43.492  30.235  35.596  1.00  0.00     0.029 A 
ATOM     53  N   UNL A   1      43.060  29.212  33.669  1.00  0.00    -0.354 N 
ATOM     54  N   UNL A   1      43.508  27.204  31.555  1.00  0.00    -0.248 NA
ATOM     55  C   UNL A   1      44.788  25.478  30.634  1.00  0.00     0.031 C 
ATOM     56  C   UNL A   1      44.493  29.287  35.362  1.00  0.00     0.029 A 
ATOM     57  C   UNL A   1      44.206  28.626  34.177  1.00  0.00     0.049 A 
ATOM     58  H   UNL A   1      42.621  28.955  32.826  1.00  0.00     0.167 HD
ATOM     59  C   UNL A   1      44.583  26.937  32.395  1.00  0.00     0.074 A 
ATOM     60  C   UNL A   1      45.319  25.843  31.794  1.00  0.00     0.031 C 
ATOM     61  C   UNL A   1      44.928  27.541  33.559  1.00  0.00     0.031 A 
BRANCH  48  62
ATOM     62  C   UNL A   1      41.173  32.165  35.251  1.00  0.00    -0.014 A 
ATOM     63  C   UNL A   1      40.404  31.942  36.407  1.00  0.00     0.010 A 
ATOM     64  C   UNL A   1      41.678  33.455  35.006  1.00  0.00     0.010 A 
ATOM     65  C   UNL A   1      40.099  32.999  37.271  1.00  0.00     0.020 A 
ATOM     66  C   UNL A   1      41.406  34.507  35.886  1.00  0.00     0.020 A 
ATOM     67  C   UNL A   1      40.599  34.276  37.002  1.00  0.00     0.054 A 
BRANCH  67  68
ATOM     68  S   UNL A   1      40.194  35.624  38.145  1.00  0.00     0.124 S 
ATOM     69  O   UNL A   1      39.990  36.744  37.228  1.00  0.00    -0.237 OA
ATOM     70  O   UNL A   1      38.991  35.130  38.809  1.00  0.00    -0.237 OA
ATOM     71  O   UNL A   1      41.377  35.725  38.997  1.00  0.00    -0.744 OA
ENDBRANCH  67  68
ENDBRANCH  48  62
BRANCH  49  72
ATOM     72  C   UNL A   1      42.994  25.161  28.324  1.00  0.00    -0.014 A 
ATOM     73  C   UNL A   1      43.782  25.487  27.206  1.00  0.00     0.010 A 
ATOM     74  C   UNL A   1      42.513  23.845  28.459  1.00  0.00     0.010 A 
ATOM     75  C   UNL A   1      44.077  24.520  26.240  1.00  0.00     0.020 A 
ATOM     76  C   UNL A   1      42.831  22.868  27.511  1.00  0.00     0.020 A 
ATOM     77  C   UNL A   1      43.605  23.214  26.404  1.00  0.00     0.054 A 
BRANCH  77  78
ATOM     78  S   UNL A   1      44.063  21.961  25.173  1.00  0.00     0.124 S 
ATOM     79  O   UNL A   1      43.056  20.931  25.397  1.00  0.00    -0.237 OA
ATOM     80  O   UNL A   1      43.948  22.699  23.917  1.00  0.00    -0.237 OA
ATOM     81  O   UNL A   1      45.428  21.597  25.549  1.00  0.00    -0.744 OA
ENDBRANCH  77  78
ENDBRANCH  49  72
BRANCH  61  82
ATOM     82  C   UNL A   1      46.140  27.013  34.282  1.00  0.00    -0.014 A 
ATOM     83  C   UNL A   1      47.423  27.534  34.036  1.00  0.00     0.010 A 
ATOM     84  C   UNL A   1      45.979  26.021  35.266  1.00  0.00     0.010 A 
ATOM     85  C   UNL A   1      48.527  27.047  34.741  1.00  0.00     0.020 A 
ATOM     86  C   UNL A   1      47.075  25.556  35.996  1.00  0.00     0.020 A 
ATOM     87  C   UNL A   1      48.346  26.064  35.718  1.00  0.00     0.054 A 
BRANCH  87  88
ATOM     88  S   UNL A   1      49.789  25.485  36.651  1.00  0.00     0.124 S 
ATOM     89  O   UNL A   1      50.745  25.200  35.585  1.00  0.00    -0.237 OA
ATOM     90  O   UNL A   1      50.109  26.636  37.491  1.00  0.00    -0.237 OA
ATOM     91  O   UNL A   1      49.291  24.314  37.369  1.00  0.00    -0.744 OA
ENDBRANCH  87  88
ENDBRANCH  61  82
ENDBRANCH  35  36
ENDBRANCH  27  30
ENDBRANCH  25  26
ENDBRANCH   1  25
TORSDOF 16
ENDMDL
