MODEL 1
REMARK VINA RESULT:     -12.9      0.000      0.000
REMARK SMILES Cc1nn(CC(=O)NC(C)(C)C)c(C)c1S(=O)(=O)N1CCC[C@@H](C(=O)NCCCNC(=O)c2ccc(-c3c4nc(c(-c5ccc(S(=O)(=O)[O-])cc5)c5ccc([nH]5)c(-c5ccc(S(=O)(=O)[O-])cc5)c5nc(c(-c6ccc(S(=O)(=O)[O-])cc6)c6ccc3[nH]6)C=C5)C=C4)cc2)C1
REMARK SMILES IDX 27 1 26 2 24 3 25 4 23 6 19 7 20 8 93 9 21 10 22 11 16 12
REMARK SMILES IDX 17 13 18 14 15 15 1 16 2 17 3 18 4 19 13 20 14 21 5 22 6 23
REMARK SMILES IDX 7 24 8 25 9 27 10 28 11 29 12 30 28 31 29 32 30 33 31 34
REMARK SMILES IDX 32 36 33 37 34 38 92 39 35 40 91 41 36 42 37 43 38 44 85 45
REMARK SMILES IDX 39 46 90 47 84 48 86 49 40 50 89 51 83 52 82 53 41 55 71 56
REMARK SMILES IDX 52 57 70 58 53 59 56 60 69 61 87 62 54 63 55 64 68 66 88 67
REMARK SMILES IDX 57 68 42 69 43 70 51 71 44 72 50 73 45 74 46 75 47 76 48 77
REMARK SMILES IDX 49 78 72 79 73 80 81 81 74 82 80 83 75 84 76 85 77 86 78 87
REMARK SMILES IDX 79 88 58 89 59 90 67 91 60 92 66 93 61 94 62 95 63 96 64 97
REMARK SMILES IDX 65 98
REMARK H PARENT 26 5 8 26 30 35 86 54 56 65
REMARK Flexibility Score: inf
ROOT
ATOM      1  C   UNL A   1      37.115  20.390  24.941  1.00  0.00     0.117 C 
ENDROOT
BRANCH   1   2
ATOM      2  N   UNL A   1      35.758  19.887  24.764  1.00  0.00    -0.356 N 
ATOM      3  C   UNL A   1      34.499  20.348  24.973  1.00  0.00     0.224 C 
ATOM      4  O   UNL A   1      33.602  19.630  24.512  1.00  0.00    -0.275 OA
ATOM      5  H   UNL A   1      35.755  18.974  24.394  1.00  0.00     0.163 HD
BRANCH   3   6
ATOM      6  C   UNL A   1      34.103  21.627  25.720  1.00  0.00     0.093 C 
ATOM      7  N   UNL A   1      32.359  23.462  25.953  1.00  0.00    -0.197 NA
ATOM      8  C   UNL A   1      32.219  23.220  27.399  1.00  0.00     0.102 C 
ATOM      9  C   UNL A   1      32.975  22.420  25.109  1.00  0.00     0.116 C 
ATOM     10  C   UNL A   1      33.443  22.530  27.974  1.00  0.00     0.018 C 
ATOM     11  C   UNL A   1      33.813  21.281  27.187  1.00  0.00     0.016 C 
BRANCH   7  12
ATOM     12  S   UNL A   1      31.052  24.263  25.227  1.00  0.00     0.246 S 
ATOM     13  O   UNL A   1      30.078  24.535  26.293  1.00  0.00    -0.207 OA
ATOM     14  O   UNL A   1      30.675  23.545  24.050  1.00  0.00    -0.207 OA
BRANCH  12  15
ATOM     15  C   UNL A   1      31.371  25.872  24.650  1.00  0.00     0.126 A 
ATOM     16  C   UNL A   1      34.002  26.395  24.739  1.00  0.00     0.070 C 
ATOM     17  C   UNL A   1      32.552  26.656  24.553  1.00  0.00     0.080 A 
ATOM     18  N   UNL A   1      32.256  27.921  24.227  1.00  0.00    -0.176 NA
ATOM     19  N   UNL A   1      30.921  27.964  24.139  1.00  0.00    -0.259 N 
ATOM     20  C   UNL A   1      30.351  26.717  24.211  1.00  0.00     0.056 A 
ATOM     21  C   UNL A   1      28.912  26.431  23.958  1.00  0.00     0.068 C 
BRANCH  19  22
ATOM     22  C   UNL A   1      30.262  29.236  23.914  1.00  0.00     0.244 C 
BRANCH  22  23
ATOM     23  C   UNL A   1      29.993  29.586  22.470  1.00  0.00     0.242 C 
ATOM     24  O   UNL A   1      30.441  28.862  21.570  1.00  0.00    -0.273 OA
ATOM     25  N   UNL A   1      29.129  30.556  22.065  1.00  0.00    -0.350 N 
ATOM     26  H   UNL A   1      28.832  30.401  21.139  1.00  0.00     0.164 HD
BRANCH  25  27
ATOM     27  C   UNL A   1      28.512  31.775  22.624  1.00  0.00     0.032 C 
ATOM     28  C   UNL A   1      27.985  32.607  21.456  1.00  0.00     0.034 C 
ATOM     29  C   UNL A   1      27.320  31.345  23.498  1.00  0.00     0.034 C 
ATOM     30  C   UNL A   1      29.399  32.674  23.478  1.00  0.00     0.034 C 
ENDBRANCH  25  27
ENDBRANCH  22  23
ENDBRANCH  19  22
ENDBRANCH  12  15
ENDBRANCH   7  12
ENDBRANCH   3   6
ENDBRANCH   1   2
BRANCH   1  31
ATOM     31  C   UNL A   1      38.159  19.314  25.247  1.00  0.00     0.042 C 
BRANCH  31  32
ATOM     32  C   UNL A   1      39.467  19.933  25.713  1.00  0.00     0.118 C 
BRANCH  32  33
ATOM     33  N   UNL A   1      40.545  18.936  25.786  1.00  0.00    -0.352 N 
ATOM     34  C   UNL A   1      41.909  19.113  25.906  1.00  0.00     0.251 C 
ATOM     35  H   UNL A   1      40.249  17.997  25.745  1.00  0.00     0.163 HD
ATOM     36  O   UNL A   1      42.695  18.228  25.599  1.00  0.00    -0.269 OA
BRANCH  34  37
ATOM     37  C   UNL A   1      42.374  20.390  26.449  1.00  0.00     0.039 A 
ATOM     38  C   UNL A   1      42.969  21.376  25.657  1.00  0.00     0.014 A 
ATOM     39  C   UNL A   1      42.096  20.606  27.791  1.00  0.00     0.014 A 
ATOM     40  C   UNL A   1      43.181  22.634  26.217  1.00  0.00     0.010 A 
ATOM     41  C   UNL A   1      42.092  21.884  28.258  1.00  0.00     0.010 A 
ATOM     42  C   UNL A   1      42.716  22.881  27.514  1.00  0.00    -0.014 A 
BRANCH  42  43
ATOM     43  C   UNL A   1      42.781  24.197  28.135  1.00  0.00     0.031 A 
ATOM     44  C   UNL A   1      41.602  25.072  27.889  1.00  0.00     0.074 A 
ATOM     45  C   UNL A   1      43.651  24.432  29.141  1.00  0.00     0.049 A 
ATOM     46  N   UNL A   1      41.549  26.185  27.234  1.00  0.00    -0.248 NA
ATOM     47  C   UNL A   1      40.281  24.574  28.316  1.00  0.00     0.031 C 
ATOM     48  C   UNL A   1      44.593  23.485  29.764  1.00  0.00     0.029 A 
ATOM     49  N   UNL A   1      43.745  25.512  29.955  1.00  0.00    -0.354 N 
ATOM     50  C   UNL A   1      40.242  26.647  27.377  1.00  0.00     0.074 A 
ATOM     51  C   UNL A   1      39.473  25.516  27.827  1.00  0.00     0.031 C 
ATOM     52  C   UNL A   1      44.927  23.927  30.994  1.00  0.00     0.029 A 
ATOM     53  C   UNL A   1      44.392  25.265  31.160  1.00  0.00     0.049 A 
ATOM     54  H   UNL A   1      43.384  26.395  29.713  1.00  0.00     0.167 HD
ATOM     55  C   UNL A   1      39.947  27.980  27.403  1.00  0.00     0.031 A 
ATOM     56  C   UNL A   1      44.436  26.085  32.238  1.00  0.00     0.031 A 
ATOM     57  C   UNL A   1      41.073  28.776  26.979  1.00  0.00     0.049 A 
ATOM     58  C   UNL A   1      44.052  27.438  31.762  1.00  0.00     0.074 A 
ATOM     59  C   UNL A   1      41.868  28.820  25.850  1.00  0.00     0.029 A 
ATOM     60  N   UNL A   1      41.790  29.418  27.965  1.00  0.00    -0.354 N 
ATOM     61  N   UNL A   1      44.756  28.128  30.906  1.00  0.00    -0.248 NA
ATOM     62  C   UNL A   1      42.656  27.830  31.875  1.00  0.00     0.031 C 
ATOM     63  C   UNL A   1      43.191  29.024  26.343  1.00  0.00     0.029 A 
ATOM     64  C   UNL A   1      43.118  29.179  27.730  1.00  0.00     0.049 A 
ATOM     65  H   UNL A   1      41.416  29.952  28.703  1.00  0.00     0.167 HD
ATOM     66  C   UNL A   1      43.821  28.732  30.077  1.00  0.00     0.074 A 
ATOM     67  C   UNL A   1      42.549  28.597  30.785  1.00  0.00     0.031 C 
ATOM     68  C   UNL A   1      44.112  29.027  28.773  1.00  0.00     0.031 A 
BRANCH  55  69
ATOM     69  C   UNL A   1      38.816  28.584  28.216  1.00  0.00    -0.014 A 
ATOM     70  C   UNL A   1      38.024  29.592  27.626  1.00  0.00     0.010 A 
ATOM     71  C   UNL A   1      38.677  28.411  29.608  1.00  0.00     0.010 A 
ATOM     72  C   UNL A   1      37.227  30.446  28.402  1.00  0.00     0.020 A 
ATOM     73  C   UNL A   1      37.848  29.222  30.385  1.00  0.00     0.020 A 
ATOM     74  C   UNL A   1      37.164  30.266  29.783  1.00  0.00     0.054 A 
BRANCH  74  75
ATOM     75  S   UNL A   1      36.248  31.451  30.797  1.00  0.00     0.124 S 
ATOM     76  O   UNL A   1      35.805  30.612  31.906  1.00  0.00    -0.237 OA
ATOM     77  O   UNL A   1      37.273  32.440  31.117  1.00  0.00    -0.237 OA
ATOM     78  O   UNL A   1      35.192  31.920  29.902  1.00  0.00    -0.744 OA
ENDBRANCH  74  75
ENDBRANCH  55  69
BRANCH  56  79
ATOM     79  C   UNL A   1      44.488  25.718  33.675  1.00  0.00    -0.014 A 
ATOM     80  C   UNL A   1      45.700  25.779  34.385  1.00  0.00     0.010 A 
ATOM     81  C   UNL A   1      43.299  25.571  34.420  1.00  0.00     0.010 A 
ATOM     82  C   UNL A   1      45.717  25.764  35.791  1.00  0.00     0.020 A 
ATOM     83  C   UNL A   1      43.307  25.546  35.820  1.00  0.00     0.020 A 
ATOM     84  C   UNL A   1      44.517  25.670  36.500  1.00  0.00     0.054 A 
BRANCH  84  85
ATOM     85  S   UNL A   1      44.534  25.847  38.310  1.00  0.00     0.124 S 
ATOM     86  O   UNL A   1      43.182  26.323  38.589  1.00  0.00    -0.237 OA
ATOM     87  O   UNL A   1      44.830  24.489  38.759  1.00  0.00    -0.237 OA
ATOM     88  O   UNL A   1      45.597  26.821  38.550  1.00  0.00    -0.744 OA
ENDBRANCH  84  85
ENDBRANCH  56  79
BRANCH  68  89
ATOM     89  C   UNL A   1      45.551  28.960  28.313  1.00  0.00    -0.014 A 
ATOM     90  C   UNL A   1      46.235  27.760  28.032  1.00  0.00     0.010 A 
ATOM     91  C   UNL A   1      46.181  30.176  27.994  1.00  0.00     0.010 A 
ATOM     92  C   UNL A   1      47.522  27.780  27.472  1.00  0.00     0.020 A 
ATOM     93  C   UNL A   1      47.454  30.203  27.420  1.00  0.00     0.020 A 
ATOM     94  C   UNL A   1      48.124  29.005  27.169  1.00  0.00     0.054 A 
BRANCH  94  95
ATOM     95  S   UNL A   1      49.770  29.030  26.405  1.00  0.00     0.124 S 
ATOM     96  O   UNL A   1      50.555  28.200  27.313  1.00  0.00    -0.237 OA
ATOM     97  O   UNL A   1      49.523  28.459  25.083  1.00  0.00    -0.237 OA
ATOM     98  O   UNL A   1      50.130  30.448  26.399  1.00  0.00    -0.744 OA
ENDBRANCH  94  95
ENDBRANCH  68  89
ENDBRANCH  42  43
ENDBRANCH  34  37
ENDBRANCH  32  33
ENDBRANCH  31  32
ENDBRANCH   1  31
TORSDOF 18
ENDMDL
MODEL 2
REMARK VINA RESULT:     -12.8      3.349      7.863
REMARK SMILES Cc1nn(CC(=O)NC(C)(C)C)c(C)c1S(=O)(=O)N1CCC[C@@H](C(=O)NCCCNC(=O)c2ccc(-c3c4nc(c(-c5ccc(S(=O)(=O)[O-])cc5)c5ccc([nH]5)c(-c5ccc(S(=O)(=O)[O-])cc5)c5nc(c(-c6ccc(S(=O)(=O)[O-])cc6)c6ccc3[nH]6)C=C5)C=C4)cc2)C1
REMARK SMILES IDX 27 1 26 2 24 3 25 4 23 6 19 7 20 8 93 9 21 10 22 11 16 12
REMARK SMILES IDX 17 13 18 14 15 15 1 16 2 17 3 18 4 19 13 20 14 21 5 22 6 23
REMARK SMILES IDX 7 24 8 25 9 27 10 28 11 29 12 30 28 31 29 32 30 33 31 34
REMARK SMILES IDX 32 36 33 37 34 38 92 39 35 40 91 41 36 42 37 43 38 44 85 45
REMARK SMILES IDX 39 46 90 47 84 48 86 49 40 50 89 51 83 52 82 53 41 55 71 56
REMARK SMILES IDX 52 57 70 58 53 59 56 60 69 61 87 62 54 63 55 64 68 66 88 67
REMARK SMILES IDX 57 68 42 69 43 70 51 71 44 72 50 73 45 74 46 75 47 76 48 77
REMARK SMILES IDX 49 78 72 79 73 80 81 81 74 82 80 83 75 84 76 85 77 86 78 87
REMARK SMILES IDX 79 88 58 89 59 90 67 91 60 92 66 93 61 94 62 95 63 96 64 97
REMARK SMILES IDX 65 98
REMARK H PARENT 26 5 8 26 30 35 86 54 56 65
REMARK Flexibility Score: inf
ROOT
ATOM      1  C   UNL A   1      38.844  21.215  25.748  1.00  0.00     0.117 C 
ENDROOT
BRANCH   1   2
ATOM      2  N   UNL A   1      38.112  22.458  25.536  1.00  0.00    -0.356 N 
ATOM      3  C   UNL A   1      36.827  22.877  25.646  1.00  0.00     0.224 C 
ATOM      4  O   UNL A   1      36.669  24.099  25.524  1.00  0.00    -0.275 OA
ATOM      5  H   UNL A   1      38.707  23.183  25.236  1.00  0.00     0.163 HD
BRANCH   3   6
ATOM      6  C   UNL A   1      35.592  21.999  25.883  1.00  0.00     0.093 C 
ATOM      7  N   UNL A   1      33.052  21.924  25.926  1.00  0.00    -0.197 NA
ATOM      8  C   UNL A   1      33.015  20.783  24.995  1.00  0.00     0.102 C 
ATOM      9  C   UNL A   1      34.281  22.733  26.019  1.00  0.00     0.116 C 
ATOM     10  C   UNL A   1      34.323  20.013  24.999  1.00  0.00     0.018 C 
ATOM     11  C   UNL A   1      35.521  20.927  24.785  1.00  0.00     0.016 C 
BRANCH   7  12
ATOM     12  S   UNL A   1      31.617  22.826  26.017  1.00  0.00     0.246 S 
ATOM     13  O   UNL A   1      31.686  23.603  27.262  1.00  0.00    -0.207 OA
ATOM     14  O   UNL A   1      30.515  21.956  25.750  1.00  0.00    -0.207 OA
BRANCH  12  15
ATOM     15  C   UNL A   1      31.442  24.095  24.842  1.00  0.00     0.126 A 
ATOM     16  C   UNL A   1      32.947  23.586  22.679  1.00  0.00     0.070 C 
ATOM     17  C   UNL A   1      32.051  24.350  23.584  1.00  0.00     0.080 A 
ATOM     18  N   UNL A   1      31.733  25.574  23.142  1.00  0.00    -0.176 NA
ATOM     19  N   UNL A   1      30.961  26.109  24.095  1.00  0.00    -0.259 N 
ATOM     20  C   UNL A   1      30.610  25.195  25.059  1.00  0.00     0.056 A 
ATOM     21  C   UNL A   1      29.613  25.445  26.136  1.00  0.00     0.068 C 
BRANCH  19  22
ATOM     22  C   UNL A   1      30.538  27.491  23.979  1.00  0.00     0.244 C 
BRANCH  22  23
ATOM     23  C   UNL A   1      31.647  28.502  23.808  1.00  0.00     0.242 C 
ATOM     24  O   UNL A   1      31.719  29.160  22.761  1.00  0.00    -0.273 OA
ATOM     25  N   UNL A   1      32.491  28.887  24.803  1.00  0.00    -0.350 N 
ATOM     26  H   UNL A   1      32.887  29.767  24.608  1.00  0.00     0.164 HD
BRANCH  25  27
ATOM     27  C   UNL A   1      32.979  28.357  26.092  1.00  0.00     0.032 C 
ATOM     28  C   UNL A   1      34.015  29.339  26.635  1.00  0.00     0.034 C 
ATOM     29  C   UNL A   1      31.788  28.310  27.066  1.00  0.00     0.034 C 
ATOM     30  C   UNL A   1      33.609  26.969  26.078  1.00  0.00     0.034 C 
ENDBRANCH  25  27
ENDBRANCH  22  23
ENDBRANCH  19  22
ENDBRANCH  12  15
ENDBRANCH   7  12
ENDBRANCH   3   6
ENDBRANCH   1   2
BRANCH   1  31
ATOM     31  C   UNL A   1      40.029  21.329  26.708  1.00  0.00     0.042 C 
BRANCH  31  32
ATOM     32  C   UNL A   1      40.749  22.657  26.539  1.00  0.00     0.118 C 
BRANCH  32  33
ATOM     33  N   UNL A   1      41.973  22.515  25.737  1.00  0.00    -0.352 N 
ATOM     34  C   UNL A   1      42.803  23.484  25.208  1.00  0.00     0.251 C 
ATOM     35  H   UNL A   1      42.243  21.587  25.548  1.00  0.00     0.163 HD
ATOM     36  O   UNL A   1      43.563  23.235  24.282  1.00  0.00    -0.269 OA
BRANCH  34  37
ATOM     37  C   UNL A   1      42.763  24.811  25.825  1.00  0.00     0.039 A 
ATOM     38  C   UNL A   1      41.969  25.849  25.332  1.00  0.00     0.014 A 
ATOM     39  C   UNL A   1      43.492  24.946  26.998  1.00  0.00     0.014 A 
ATOM     40  C   UNL A   1      41.833  27.000  26.105  1.00  0.00     0.010 A 
ATOM     41  C   UNL A   1      43.177  25.963  27.846  1.00  0.00     0.010 A 
ATOM     42  C   UNL A   1      42.425  27.034  27.373  1.00  0.00    -0.014 A 
BRANCH  42  43
ATOM     43  C   UNL A   1      42.234  28.140  28.300  1.00  0.00     0.031 A 
ATOM     44  C   UNL A   1      43.247  29.227  28.208  1.00  0.00     0.074 A 
ATOM     45  C   UNL A   1      41.039  28.324  28.903  1.00  0.00     0.049 A 
ATOM     46  N   UNL A   1      44.119  29.591  29.090  1.00  0.00    -0.248 NA
ATOM     47  C   UNL A   1      43.399  29.911  26.911  1.00  0.00     0.031 C 
ATOM     48  C   UNL A   1      39.808  27.533  28.734  1.00  0.00     0.029 A 
ATOM     49  N   UNL A   1      40.610  29.372  29.648  1.00  0.00    -0.354 N 
ATOM     50  C   UNL A   1      44.760  30.706  28.552  1.00  0.00     0.074 A 
ATOM     51  C   UNL A   1      44.452  30.694  27.146  1.00  0.00     0.031 C 
ATOM     52  C   UNL A   1      38.742  28.273  29.105  1.00  0.00     0.029 A 
ATOM     53  C   UNL A   1      39.227  29.494  29.719  1.00  0.00     0.049 A 
ATOM     54  H   UNL A   1      41.225  29.994  30.099  1.00  0.00     0.167 HD
ATOM     55  C   UNL A   1      45.242  31.710  29.341  1.00  0.00     0.031 A 
ATOM     56  C   UNL A   1      38.532  30.553  30.201  1.00  0.00     0.031 A 
ATOM     57  C   UNL A   1      45.265  31.323  30.731  1.00  0.00     0.049 A 
ATOM     58  C   UNL A   1      39.480  31.351  31.019  1.00  0.00     0.074 A 
ATOM     59  C   UNL A   1      45.830  30.286  31.446  1.00  0.00     0.029 A 
ATOM     60  N   UNL A   1      44.271  31.835  31.537  1.00  0.00    -0.354 N 
ATOM     61  N   UNL A   1      40.037  30.910  32.114  1.00  0.00    -0.248 NA
ATOM     62  C   UNL A   1      40.170  32.457  30.374  1.00  0.00     0.031 C 
ATOM     63  C   UNL A   1      44.833  29.913  32.398  1.00  0.00     0.029 A 
ATOM     64  C   UNL A   1      43.757  30.796  32.266  1.00  0.00     0.049 A 
ATOM     65  H   UNL A   1      43.984  32.776  31.580  1.00  0.00     0.167 HD
ATOM     66  C   UNL A   1      41.344  31.376  32.064  1.00  0.00     0.074 A 
ATOM     67  C   UNL A   1      41.336  32.406  31.026  1.00  0.00     0.031 C 
ATOM     68  C   UNL A   1      42.367  30.689  32.659  1.00  0.00     0.031 A 
BRANCH  55  69
ATOM     69  C   UNL A   1      45.279  33.171  28.929  1.00  0.00    -0.014 A 
ATOM     70  C   UNL A   1      46.441  33.922  29.208  1.00  0.00     0.010 A 
ATOM     71  C   UNL A   1      44.137  33.901  28.542  1.00  0.00     0.010 A 
ATOM     72  C   UNL A   1      46.424  35.325  29.206  1.00  0.00     0.020 A 
ATOM     73  C   UNL A   1      44.122  35.296  28.488  1.00  0.00     0.020 A 
ATOM     74  C   UNL A   1      45.254  36.001  28.867  1.00  0.00     0.054 A 
BRANCH  74  75
ATOM     75  S   UNL A   1      45.193  37.804  29.000  1.00  0.00     0.124 S 
ATOM     76  O   UNL A   1      46.177  38.208  28.001  1.00  0.00    -0.237 OA
ATOM     77  O   UNL A   1      43.799  38.091  28.674  1.00  0.00    -0.237 OA
ATOM     78  O   UNL A   1      45.568  38.055  30.390  1.00  0.00    -0.744 OA
ENDBRANCH  74  75
ENDBRANCH  55  69
BRANCH  56  79
ATOM     79  C   UNL A   1      37.212  31.069  29.760  1.00  0.00    -0.014 A 
ATOM     80  C   UNL A   1      36.270  31.523  30.700  1.00  0.00     0.010 A 
ATOM     81  C   UNL A   1      36.980  31.372  28.401  1.00  0.00     0.010 A 
ATOM     82  C   UNL A   1      35.175  32.310  30.305  1.00  0.00     0.020 A 
ATOM     83  C   UNL A   1      35.886  32.148  27.998  1.00  0.00     0.020 A 
ATOM     84  C   UNL A   1      35.002  32.637  28.957  1.00  0.00     0.054 A 
BRANCH  84  85
ATOM     85  S   UNL A   1      33.698  33.812  28.484  1.00  0.00     0.124 S 
ATOM     86  O   UNL A   1      32.770  32.963  27.741  1.00  0.00    -0.237 OA
ATOM     87  O   UNL A   1      33.217  34.290  29.778  1.00  0.00    -0.237 OA
ATOM     88  O   UNL A   1      34.406  34.808  27.683  1.00  0.00    -0.744 OA
ENDBRANCH  84  85
ENDBRANCH  56  79
BRANCH  68  89
ATOM     89  C   UNL A   1      42.033  29.571  33.621  1.00  0.00    -0.014 A 
ATOM     90  C   UNL A   1      41.905  28.219  33.245  1.00  0.00     0.010 A 
ATOM     91  C   UNL A   1      42.014  29.886  34.991  1.00  0.00     0.010 A 
ATOM     92  C   UNL A   1      41.736  27.217  34.214  1.00  0.00     0.020 A 
ATOM     93  C   UNL A   1      41.864  28.893  35.961  1.00  0.00     0.020 A 
ATOM     94  C   UNL A   1      41.717  27.562  35.569  1.00  0.00     0.054 A 
BRANCH  94  95
ATOM     95  S   UNL A   1      41.542  26.262  36.823  1.00  0.00     0.124 S 
ATOM     96  O   UNL A   1      40.414  26.737  37.618  1.00  0.00    -0.237 OA
ATOM     97  O   UNL A   1      41.288  25.067  36.019  1.00  0.00    -0.237 OA
ATOM     98  O   UNL A   1      42.831  26.269  37.514  1.00  0.00    -0.744 OA
ENDBRANCH  94  95
ENDBRANCH  68  89
ENDBRANCH  42  43
ENDBRANCH  34  37
ENDBRANCH  32  33
ENDBRANCH  31  32
ENDBRANCH   1  31
TORSDOF 18
ENDMDL
MODEL 3
REMARK VINA RESULT:     -12.7      4.023     10.566
REMARK SMILES Cc1nn(CC(=O)NC(C)(C)C)c(C)c1S(=O)(=O)N1CCC[C@@H](C(=O)NCCCNC(=O)c2ccc(-c3c4nc(c(-c5ccc(S(=O)(=O)[O-])cc5)c5ccc([nH]5)c(-c5ccc(S(=O)(=O)[O-])cc5)c5nc(c(-c6ccc(S(=O)(=O)[O-])cc6)c6ccc3[nH]6)C=C5)C=C4)cc2)C1
REMARK SMILES IDX 27 1 26 2 24 3 25 4 23 6 19 7 20 8 93 9 21 10 22 11 16 12
REMARK SMILES IDX 17 13 18 14 15 15 1 16 2 17 3 18 4 19 13 20 14 21 5 22 6 23
REMARK SMILES IDX 7 24 8 25 9 27 10 28 11 29 12 30 28 31 29 32 30 33 31 34
REMARK SMILES IDX 32 36 33 37 34 38 92 39 35 40 91 41 36 42 37 43 38 44 85 45
REMARK SMILES IDX 39 46 90 47 84 48 86 49 40 50 89 51 83 52 82 53 41 55 71 56
REMARK SMILES IDX 52 57 70 58 53 59 56 60 69 61 87 62 54 63 55 64 68 66 88 67
REMARK SMILES IDX 57 68 42 69 43 70 51 71 44 72 50 73 45 74 46 75 47 76 48 77
REMARK SMILES IDX 49 78 72 79 73 80 81 81 74 82 80 83 75 84 76 85 77 86 78 87
REMARK SMILES IDX 79 88 58 89 59 90 67 91 60 92 66 93 61 94 62 95 63 96 64 97
REMARK SMILES IDX 65 98
REMARK H PARENT 26 5 8 26 30 35 86 54 56 65
REMARK Flexibility Score: inf
ROOT
ATOM      1  C   UNL A   1      31.961  30.115  25.692  1.00  0.00     0.117 C 
ENDROOT
BRANCH   1   2
ATOM      2  N   UNL A   1      31.273  29.930  24.421  1.00  0.00    -0.356 N 
ATOM      3  C   UNL A   1      30.725  28.895  23.736  1.00  0.00     0.224 C 
ATOM      4  O   UNL A   1      30.074  29.222  22.736  1.00  0.00    -0.275 OA
ATOM      5  H   UNL A   1      31.180  30.779  23.930  1.00  0.00     0.163 HD
BRANCH   3   6
ATOM      6  C   UNL A   1      30.851  27.404  24.072  1.00  0.00     0.093 C 
ATOM      7  N   UNL A   1      32.446  25.440  24.320  1.00  0.00    -0.197 NA
ATOM      8  C   UNL A   1      31.966  25.152  25.681  1.00  0.00     0.102 C 
ATOM      9  C   UNL A   1      32.174  26.764  23.730  1.00  0.00     0.116 C 
ATOM     10  C   UNL A   1      30.576  25.716  25.918  1.00  0.00     0.018 C 
ATOM     11  C   UNL A   1      30.492  27.190  25.549  1.00  0.00     0.016 C 
BRANCH   7  12
ATOM     12  S   UNL A   1      33.980  24.816  23.950  1.00  0.00     0.246 S 
ATOM     13  O   UNL A   1      34.955  25.628  24.690  1.00  0.00    -0.207 OA
ATOM     14  O   UNL A   1      34.076  24.656  22.533  1.00  0.00    -0.207 OA
BRANCH  12  15
ATOM     15  C   UNL A   1      34.326  23.230  24.574  1.00  0.00     0.126 A 
ATOM     16  C   UNL A   1      36.445  23.311  26.219  1.00  0.00     0.070 C 
ATOM     17  C   UNL A   1      35.353  22.714  25.409  1.00  0.00     0.080 A 
ATOM     18  N   UNL A   1      35.307  21.376  25.445  1.00  0.00    -0.176 NA
ATOM     19  N   UNL A   1      34.296  21.031  24.639  1.00  0.00    -0.259 N 
ATOM     20  C   UNL A   1      33.560  22.116  24.228  1.00  0.00     0.056 A 
ATOM     21  C   UNL A   1      32.274  22.030  23.483  1.00  0.00     0.068 C 
BRANCH  19  22
ATOM     22  C   UNL A   1      34.050  19.629  24.362  1.00  0.00     0.244 C 
BRANCH  22  23
ATOM     23  C   UNL A   1      33.243  18.889  25.402  1.00  0.00     0.242 C 
ATOM     24  O   UNL A   1      32.537  19.525  26.197  1.00  0.00    -0.273 OA
ATOM     25  N   UNL A   1      33.084  17.538  25.429  1.00  0.00    -0.350 N 
ATOM     26  H   UNL A   1      32.277  17.287  25.934  1.00  0.00     0.164 HD
BRANCH  25  27
ATOM     27  C   UNL A   1      33.781  16.343  24.912  1.00  0.00     0.032 C 
ATOM     28  C   UNL A   1      32.957  15.118  25.307  1.00  0.00     0.034 C 
ATOM     29  C   UNL A   1      33.811  16.439  23.376  1.00  0.00     0.034 C 
ATOM     30  C   UNL A   1      35.214  16.117  25.381  1.00  0.00     0.034 C 
ENDBRANCH  25  27
ENDBRANCH  22  23
ENDBRANCH  19  22
ENDBRANCH  12  15
ENDBRANCH   7  12
ENDBRANCH   3   6
ENDBRANCH   1   2
BRANCH   1  31
ATOM     31  C   UNL A   1      31.471  31.310  26.514  1.00  0.00     0.042 C 
BRANCH  31  32
ATOM     32  C   UNL A   1      32.620  31.981  27.249  1.00  0.00     0.118 C 
BRANCH  32  33
ATOM     33  N   UNL A   1      32.392  33.423  27.416  1.00  0.00    -0.352 N 
ATOM     34  C   UNL A   1      32.986  34.319  28.282  1.00  0.00     0.251 C 
ATOM     35  H   UNL A   1      31.711  33.810  26.819  1.00  0.00     0.163 HD
ATOM     36  O   UNL A   1      32.456  35.388  28.555  1.00  0.00    -0.269 OA
BRANCH  34  37
ATOM     37  C   UNL A   1      34.293  33.956  28.832  1.00  0.00     0.039 A 
ATOM     38  C   UNL A   1      34.461  33.502  30.143  1.00  0.00     0.014 A 
ATOM     39  C   UNL A   1      35.350  33.993  27.934  1.00  0.00     0.014 A 
ATOM     40  C   UNL A   1      35.700  32.979  30.506  1.00  0.00     0.010 A 
ATOM     41  C   UNL A   1      36.472  33.279  28.220  1.00  0.00     0.010 A 
ATOM     42  C   UNL A   1      36.692  32.852  29.526  1.00  0.00    -0.014 A 
BRANCH  42  43
ATOM     43  C   UNL A   1      37.971  32.204  29.781  1.00  0.00     0.031 A 
ATOM     44  C   UNL A   1      38.047  30.773  29.381  1.00  0.00     0.074 A 
ATOM     45  C   UNL A   1      39.078  32.947  30.002  1.00  0.00     0.049 A 
ATOM     46  N   UNL A   1      38.195  29.733  30.134  1.00  0.00    -0.248 NA
ATOM     47  C   UNL A   1      37.792  30.445  27.965  1.00  0.00     0.031 C 
ATOM     48  C   UNL A   1      39.198  34.415  29.999  1.00  0.00     0.029 A 
ATOM     49  N   UNL A   1      40.371  32.550  30.082  1.00  0.00    -0.354 N 
ATOM     50  C   UNL A   1      38.297  28.647  29.265  1.00  0.00     0.074 A 
ATOM     51  C   UNL A   1      37.801  29.112  27.996  1.00  0.00     0.031 C 
ATOM     52  C   UNL A   1      40.485  34.761  29.783  1.00  0.00     0.029 A 
ATOM     53  C   UNL A   1      41.295  33.559  29.836  1.00  0.00     0.049 A 
ATOM     54  H   UNL A   1      40.634  31.625  30.295  1.00  0.00     0.167 HD
ATOM     55  C   UNL A   1      39.048  27.549  29.570  1.00  0.00     0.031 A 
ATOM     56  C   UNL A   1      42.626  33.406  29.636  1.00  0.00     0.031 A 
ATOM     57  C   UNL A   1      39.441  27.548  30.958  1.00  0.00     0.049 A 
ATOM     58  C   UNL A   1      42.983  32.057  30.145  1.00  0.00     0.074 A 
ATOM     59  C   UNL A   1      38.769  27.608  32.163  1.00  0.00     0.029 A 
ATOM     60  N   UNL A   1      40.742  27.906  31.238  1.00  0.00    -0.354 N 
ATOM     61  N   UNL A   1      42.888  31.712  31.400  1.00  0.00    -0.248 NA
ATOM     62  C   UNL A   1      43.000  30.954  29.198  1.00  0.00     0.031 C 
ATOM     63  C   UNL A   1      39.559  28.472  32.980  1.00  0.00     0.029 A 
ATOM     64  C   UNL A   1      40.706  28.817  32.260  1.00  0.00     0.049 A 
ATOM     65  H   UNL A   1      41.549  27.568  30.787  1.00  0.00     0.167 HD
ATOM     66  C   UNL A   1      42.405  30.410  31.378  1.00  0.00     0.074 A 
ATOM     67  C   UNL A   1      42.594  29.964  29.998  1.00  0.00     0.031 C 
ATOM     68  C   UNL A   1      41.637  29.919  32.398  1.00  0.00     0.031 A 
BRANCH  55  69
ATOM     69  C   UNL A   1      39.790  26.715  28.541  1.00  0.00    -0.014 A 
ATOM     70  C   UNL A   1      39.508  25.335  28.459  1.00  0.00     0.010 A 
ATOM     71  C   UNL A   1      40.938  27.164  27.855  1.00  0.00     0.010 A 
ATOM     72  C   UNL A   1      40.385  24.445  27.821  1.00  0.00     0.020 A 
ATOM     73  C   UNL A   1      41.791  26.294  27.174  1.00  0.00     0.020 A 
ATOM     74  C   UNL A   1      41.534  24.932  27.202  1.00  0.00     0.054 A 
BRANCH  74  75
ATOM     75  S   UNL A   1      42.733  23.772  26.503  1.00  0.00     0.124 S 
ATOM     76  O   UNL A   1      43.664  23.602  27.614  1.00  0.00    -0.237 OA
ATOM     77  O   UNL A   1      41.897  22.616  26.190  1.00  0.00    -0.237 OA
ATOM     78  O   UNL A   1      43.261  24.486  25.343  1.00  0.00    -0.744 OA
ENDBRANCH  74  75
ENDBRANCH  55  69
BRANCH  56  79
ATOM     79  C   UNL A   1      43.528  34.210  28.774  1.00  0.00    -0.014 A 
ATOM     80  C   UNL A   1      44.612  34.912  29.331  1.00  0.00     0.010 A 
ATOM     81  C   UNL A   1      43.491  34.068  27.370  1.00  0.00     0.010 A 
ATOM     82  C   UNL A   1      45.655  35.394  28.521  1.00  0.00     0.020 A 
ATOM     83  C   UNL A   1      44.522  34.553  26.556  1.00  0.00     0.020 A 
ATOM     84  C   UNL A   1      45.614  35.191  27.139  1.00  0.00     0.054 A 
BRANCH  84  85
ATOM     85  S   UNL A   1      47.055  35.646  26.128  1.00  0.00     0.124 S 
ATOM     86  O   UNL A   1      46.778  37.042  25.802  1.00  0.00    -0.237 OA
ATOM     87  O   UNL A   1      48.170  35.420  27.044  1.00  0.00    -0.237 OA
ATOM     88  O   UNL A   1      46.988  34.721  24.998  1.00  0.00    -0.744 OA
ENDBRANCH  84  85
ENDBRANCH  56  79
BRANCH  68  89
ATOM     89  C   UNL A   1      41.555  30.699  33.691  1.00  0.00    -0.014 A 
ATOM     90  C   UNL A   1      40.623  31.728  33.934  1.00  0.00     0.010 A 
ATOM     91  C   UNL A   1      42.350  30.255  34.762  1.00  0.00     0.010 A 
ATOM     92  C   UNL A   1      40.510  32.310  35.206  1.00  0.00     0.020 A 
ATOM     93  C   UNL A   1      42.231  30.816  36.035  1.00  0.00     0.020 A 
ATOM     94  C   UNL A   1      41.317  31.849  36.251  1.00  0.00     0.054 A 
BRANCH  94  95
ATOM     95  S   UNL A   1      41.141  32.571  37.906  1.00  0.00     0.124 S 
ATOM     96  O   UNL A   1      41.606  33.940  37.706  1.00  0.00    -0.237 OA
ATOM     97  O   UNL A   1      39.712  32.424  38.175  1.00  0.00    -0.237 OA
ATOM     98  O   UNL A   1      42.008  31.741  38.743  1.00  0.00    -0.744 OA
ENDBRANCH  94  95
ENDBRANCH  68  89
ENDBRANCH  42  43
ENDBRANCH  34  37
ENDBRANCH  32  33
ENDBRANCH  31  32
ENDBRANCH   1  31
TORSDOF 18
ENDMDL
