MODEL 1
REMARK VINA RESULT:     -10.0      0.000      0.000
REMARK SMILES O=C(NCCCNC(=O)[C@H]1CCC[C@@H]1C[NH2+][C@@H]1CCOC2(CCC2)C1)c1ccc(-c2c3nc(c(-c4ccc(S(=O)(=O)[O-])cc4)c4ccc([nH]4)c(-c4ccc(S(=O)(=O)[O-])cc4)c4nc(c(-c5ccc(S(=O)(=O)[O-])cc5)c5ccc2[nH]5)C=C4)C=C3)cc1
REMARK SMILES IDX 5 1 4 2 3 3 1 4 2 5 26 7 27 8 85 9 28 10 84 11 29 12 30 13
REMARK SMILES IDX 31 14 78 15 32 16 83 17 77 18 79 19 33 20 82 21 76 22 75 23
REMARK SMILES IDX 34 25 64 26 45 27 63 28 46 29 49 30 62 31 80 32 47 33 48 34
REMARK SMILES IDX 61 36 81 37 50 38 35 39 36 40 44 41 37 42 43 43 38 44 39 45
REMARK SMILES IDX 40 46 41 47 42 48 65 49 66 50 74 51 67 52 73 53 68 54 69 55
REMARK SMILES IDX 70 56 71 57 72 58 51 59 52 60 60 61 53 62 59 63 54 64 55 65
REMARK SMILES IDX 56 66 57 67 58 68 6 69 7 70 8 71 9 73 10 74 11 75 14 76
REMARK SMILES IDX 12 77 13 78 15 79 16 80 17 83 18 84 25 85 19 86 21 87 20 88
REMARK SMILES IDX 22 89 24 90 23 91
REMARK H PARENT 3 6 79 24 49 35 7 72 16 81 16 82
REMARK Flexibility Score: inf
ROOT
ATOM      1  C   UNL A   1      35.328  33.074  28.156  1.00  0.00     0.042 C 
ENDROOT
BRANCH   1   2
ATOM      2  C   UNL A   1      34.414  32.164  28.962  1.00  0.00     0.118 C 
BRANCH   2   3
ATOM      3  N   UNL A   1      34.000  30.976  28.224  1.00  0.00    -0.352 N 
ATOM      4  O   UNL A   1      34.214  29.101  26.999  1.00  0.00    -0.269 OA
ATOM      5  C   UNL A   1      34.729  29.899  27.772  1.00  0.00     0.251 C 
ATOM      6  H   UNL A   1      33.039  30.939  28.012  1.00  0.00     0.163 HD
BRANCH   5   7
ATOM      7  C   UNL A   1      36.136  29.726  28.197  1.00  0.00     0.039 A 
ATOM      8  C   UNL A   1      37.182  30.044  27.334  1.00  0.00     0.014 A 
ATOM      9  C   UNL A   1      36.414  29.237  29.476  1.00  0.00     0.014 A 
ATOM     10  C   UNL A   1      38.478  29.672  27.658  1.00  0.00     0.010 A 
ATOM     11  C   UNL A   1      37.738  28.983  29.851  1.00  0.00     0.010 A 
ATOM     12  C   UNL A   1      38.778  29.146  28.924  1.00  0.00    -0.014 A 
BRANCH  12  13
ATOM     13  C   UNL A   1      40.192  28.809  29.244  1.00  0.00     0.031 A 
ATOM     14  C   UNL A   1      40.805  27.507  28.800  1.00  0.00     0.074 A 
ATOM     15  C   UNL A   1      40.947  29.727  29.882  1.00  0.00     0.049 A 
ATOM     16  N   UNL A   1      42.041  27.095  28.933  1.00  0.00    -0.248 NA
ATOM     17  C   UNL A   1      39.923  26.536  28.133  1.00  0.00     0.031 C 
ATOM     18  C   UNL A   1      40.466  31.024  30.368  1.00  0.00     0.029 A 
ATOM     19  N   UNL A   1      42.282  29.734  30.193  1.00  0.00    -0.354 N 
ATOM     20  C   UNL A   1      42.078  25.810  28.402  1.00  0.00     0.074 A 
ATOM     21  C   UNL A   1      40.735  25.501  27.959  1.00  0.00     0.031 C 
ATOM     22  C   UNL A   1      41.503  31.732  30.836  1.00  0.00     0.029 A 
ATOM     23  C   UNL A   1      42.707  30.915  30.754  1.00  0.00     0.049 A 
ATOM     24  H   UNL A   1      42.879  28.969  30.029  1.00  0.00     0.167 HD
ATOM     25  C   UNL A   1      43.131  24.966  28.292  1.00  0.00     0.031 A 
ATOM     26  C   UNL A   1      43.928  31.304  31.165  1.00  0.00     0.031 A 
ATOM     27  C   UNL A   1      44.471  25.284  28.714  1.00  0.00     0.049 A 
ATOM     28  C   UNL A   1      45.080  30.353  31.022  1.00  0.00     0.074 A 
ATOM     29  C   UNL A   1      45.613  24.507  28.614  1.00  0.00     0.029 A 
ATOM     30  N   UNL A   1      44.851  26.475  29.313  1.00  0.00    -0.354 N 
ATOM     31  N   UNL A   1      45.092  29.150  30.501  1.00  0.00    -0.248 NA
ATOM     32  C   UNL A   1      46.381  30.812  31.523  1.00  0.00     0.031 C 
ATOM     33  C   UNL A   1      46.675  25.213  29.190  1.00  0.00     0.029 A 
ATOM     34  C   UNL A   1      46.205  26.449  29.604  1.00  0.00     0.049 A 
ATOM     35  H   UNL A   1      44.247  27.229  29.504  1.00  0.00     0.167 HD
ATOM     36  C   UNL A   1      46.408  28.713  30.597  1.00  0.00     0.074 A 
ATOM     37  C   UNL A   1      47.163  29.789  31.207  1.00  0.00     0.031 C 
ATOM     38  C   UNL A   1      46.940  27.526  30.216  1.00  0.00     0.031 A 
BRANCH  25  39
ATOM     39  C   UNL A   1      42.873  23.596  27.720  1.00  0.00    -0.014 A 
ATOM     40  C   UNL A   1      43.036  23.330  26.349  1.00  0.00     0.010 A 
ATOM     41  C   UNL A   1      42.496  22.546  28.579  1.00  0.00     0.010 A 
ATOM     42  C   UNL A   1      42.787  22.050  25.841  1.00  0.00     0.020 A 
ATOM     43  C   UNL A   1      42.271  21.260  28.080  1.00  0.00     0.020 A 
ATOM     44  C   UNL A   1      42.400  21.025  26.710  1.00  0.00     0.054 A 
BRANCH  44  45
ATOM     45  S   UNL A   1      42.095  19.371  26.028  1.00  0.00     0.124 S 
ATOM     46  O   UNL A   1      42.937  19.379  24.834  1.00  0.00    -0.237 OA
ATOM     47  O   UNL A   1      42.540  18.490  27.104  1.00  0.00    -0.237 OA
ATOM     48  O   UNL A   1      40.656  19.361  25.774  1.00  0.00    -0.744 OA
ENDBRANCH  44  45
ENDBRANCH  25  39
BRANCH  26  49
ATOM     49  C   UNL A   1      44.114  32.658  31.749  1.00  0.00    -0.014 A 
ATOM     50  C   UNL A   1      44.456  33.749  30.931  1.00  0.00     0.010 A 
ATOM     51  C   UNL A   1      43.913  32.870  33.126  1.00  0.00     0.010 A 
ATOM     52  C   UNL A   1      44.605  35.025  31.482  1.00  0.00     0.020 A 
ATOM     53  C   UNL A   1      44.033  34.149  33.675  1.00  0.00     0.020 A 
ATOM     54  C   UNL A   1      44.391  35.217  32.851  1.00  0.00     0.054 A 
BRANCH  54  55
ATOM     55  S   UNL A   1      44.529  36.890  33.536  1.00  0.00     0.124 S 
ATOM     56  O   UNL A   1      43.889  36.738  34.838  1.00  0.00    -0.237 OA
ATOM     57  O   UNL A   1      45.974  37.107  33.560  1.00  0.00    -0.237 OA
ATOM     58  O   UNL A   1      43.802  37.713  32.571  1.00  0.00    -0.744 OA
ENDBRANCH  54  55
ENDBRANCH  26  49
BRANCH  38  59
ATOM     59  C   UNL A   1      48.419  27.347  30.420  1.00  0.00    -0.014 A 
ATOM     60  C   UNL A   1      48.929  26.808  31.615  1.00  0.00     0.010 A 
ATOM     61  C   UNL A   1      49.308  27.705  29.391  1.00  0.00     0.010 A 
ATOM     62  C   UNL A   1      50.308  26.671  31.792  1.00  0.00     0.020 A 
ATOM     63  C   UNL A   1      50.686  27.546  29.556  1.00  0.00     0.020 A 
ATOM     64  C   UNL A   1      51.178  27.047  30.764  1.00  0.00     0.054 A 
BRANCH  64  65
ATOM     65  S   UNL A   1      52.964  26.841  31.007  1.00  0.00     0.124 S 
ATOM     66  O   UNL A   1      53.305  28.040  31.767  1.00  0.00    -0.237 OA
ATOM     67  O   UNL A   1      53.047  25.583  31.745  1.00  0.00    -0.237 OA
ATOM     68  O   UNL A   1      53.492  26.793  29.646  1.00  0.00    -0.744 OA
ENDBRANCH  64  65
ENDBRANCH  38  59
ENDBRANCH  12  13
ENDBRANCH   5   7
ENDBRANCH   2   3
ENDBRANCH   1   2
BRANCH   1  69
ATOM     69  C   UNL A   1      35.295  34.523  28.612  1.00  0.00     0.117 C 
BRANCH  69  70
ATOM     70  N   UNL A   1      33.954  35.082  28.550  1.00  0.00    -0.356 N 
ATOM     71  C   UNL A   1      33.263  35.758  29.512  1.00  0.00     0.223 C 
ATOM     72  H   UNL A   1      33.480  34.956  27.697  1.00  0.00     0.163 HD
ATOM     73  O   UNL A   1      32.116  36.122  29.258  1.00  0.00    -0.275 OA
BRANCH  71  74
ATOM     74  C   UNL A   1      33.952  36.019  30.843  1.00  0.00     0.087 C 
ATOM     75  C   UNL A   1      33.383  37.259  31.539  1.00  0.00     0.014 C 
ATOM     76  C   UNL A   1      33.716  34.891  31.860  1.00  0.00     0.056 C 
ATOM     77  C   UNL A   1      32.273  36.760  32.461  1.00  0.00     0.001 C 
ATOM     78  C   UNL A   1      32.349  35.238  32.457  1.00  0.00     0.010 C 
BRANCH  76  79
ATOM     79  C   UNL A   1      34.804  34.839  32.948  1.00  0.00     0.265 C 
BRANCH  79  80
ATOM     80  N   UNL A   1      35.241  33.458  33.142  1.00  0.00    -0.343 N 
ATOM     81  H   UNL A   1      34.412  32.879  33.271  1.00  0.00     0.346 HD
ATOM     82  H   UNL A   1      35.859  33.464  33.953  1.00  0.00     0.346 HD
BRANCH  80  83
ATOM     83  C   UNL A   1      36.021  32.899  32.031  1.00  0.00     0.187 C 
ATOM     84  C   UNL A   1      36.373  31.436  32.350  1.00  0.00     0.093 C 
ATOM     85  C   UNL A   1      37.318  33.659  31.707  1.00  0.00     0.100 C 
ATOM     86  C   UNL A   1      37.443  31.323  33.430  1.00  0.00     0.167 C 
ATOM     87  C   UNL A   1      38.332  33.526  32.841  1.00  0.00     0.074 C 
ATOM     88  O   UNL A   1      38.582  32.119  33.095  1.00  0.00    -0.375 OA
ATOM     89  C   UNL A   1      39.623  34.362  32.584  1.00  0.00     0.036 C 
ATOM     90  C   UNL A   1      38.129  34.424  34.104  1.00  0.00     0.036 C 
ATOM     91  C   UNL A   1      39.639  34.705  34.084  1.00  0.00     0.006 C 
ENDBRANCH  80  83
ENDBRANCH  79  80
ENDBRANCH  76  79
ENDBRANCH  71  74
ENDBRANCH  69  70
ENDBRANCH   1  69
TORSDOF 16
ENDMDL
MODEL 2
REMARK VINA RESULT:      -9.9      1.289      8.410
REMARK SMILES O=C(NCCCNC(=O)[C@H]1CCC[C@@H]1C[NH2+][C@@H]1CCOC2(CCC2)C1)c1ccc(-c2c3nc(c(-c4ccc(S(=O)(=O)[O-])cc4)c4ccc([nH]4)c(-c4ccc(S(=O)(=O)[O-])cc4)c4nc(c(-c5ccc(S(=O)(=O)[O-])cc5)c5ccc2[nH]5)C=C4)C=C3)cc1
REMARK SMILES IDX 5 1 4 2 3 3 1 4 2 5 26 7 27 8 85 9 28 10 84 11 29 12 30 13
REMARK SMILES IDX 31 14 78 15 32 16 83 17 77 18 79 19 33 20 82 21 76 22 75 23
REMARK SMILES IDX 34 25 64 26 45 27 63 28 46 29 49 30 62 31 80 32 47 33 48 34
REMARK SMILES IDX 61 36 81 37 50 38 35 39 36 40 44 41 37 42 43 43 38 44 39 45
REMARK SMILES IDX 40 46 41 47 42 48 65 49 66 50 74 51 67 52 73 53 68 54 69 55
REMARK SMILES IDX 70 56 71 57 72 58 51 59 52 60 60 61 53 62 59 63 54 64 55 65
REMARK SMILES IDX 56 66 57 67 58 68 6 69 7 70 8 71 9 73 10 74 11 75 14 76
REMARK SMILES IDX 12 77 13 78 15 79 16 80 17 83 18 84 25 85 19 86 21 87 20 88
REMARK SMILES IDX 22 89 24 90 23 91
REMARK H PARENT 3 6 79 24 49 35 7 72 16 81 16 82
REMARK Flexibility Score: inf
ROOT
ATOM      1  C   UNL A   1      33.273  33.644  28.096  1.00  0.00     0.042 C 
ENDROOT
BRANCH   1   2
ATOM      2  C   UNL A   1      34.303  32.530  28.212  1.00  0.00     0.118 C 
BRANCH   2   3
ATOM      3  N   UNL A   1      33.763  31.221  27.867  1.00  0.00    -0.352 N 
ATOM      4  O   UNL A   1      33.770  29.060  27.239  1.00  0.00    -0.269 OA
ATOM      5  C   UNL A   1      34.384  30.000  27.728  1.00  0.00     0.251 C 
ATOM      6  H   UNL A   1      32.791  31.207  27.706  1.00  0.00     0.163 HD
BRANCH   5   7
ATOM      7  C   UNL A   1      35.795  29.835  28.140  1.00  0.00     0.039 A 
ATOM      8  C   UNL A   1      36.830  30.091  27.245  1.00  0.00     0.014 A 
ATOM      9  C   UNL A   1      36.089  29.419  29.442  1.00  0.00     0.014 A 
ATOM     10  C   UNL A   1      38.128  29.724  27.569  1.00  0.00     0.010 A 
ATOM     11  C   UNL A   1      37.416  29.171  29.811  1.00  0.00     0.010 A 
ATOM     12  C   UNL A   1      38.443  29.268  28.860  1.00  0.00    -0.014 A 
BRANCH  12  13
ATOM     13  C   UNL A   1      39.858  28.934  29.176  1.00  0.00     0.031 A 
ATOM     14  C   UNL A   1      40.716  29.862  29.995  1.00  0.00     0.074 A 
ATOM     15  C   UNL A   1      40.346  27.743  28.775  1.00  0.00     0.049 A 
ATOM     16  N   UNL A   1      41.942  29.685  30.421  1.00  0.00    -0.248 NA
ATOM     17  C   UNL A   1      40.135  31.159  30.380  1.00  0.00     0.031 C 
ATOM     18  C   UNL A   1      39.615  26.759  27.970  1.00  0.00     0.029 A 
ATOM     19  N   UNL A   1      41.550  27.135  29.022  1.00  0.00    -0.354 N 
ATOM     20  C   UNL A   1      42.291  30.854  31.087  1.00  0.00     0.074 A 
ATOM     21  C   UNL A   1      41.153  31.743  30.998  1.00  0.00     0.031 C 
ATOM     22  C   UNL A   1      40.349  25.642  27.863  1.00  0.00     0.029 A 
ATOM     23  C   UNL A   1      41.630  25.855  28.524  1.00  0.00     0.049 A 
ATOM     24  H   UNL A   1      42.285  27.571  29.509  1.00  0.00     0.167 HD
ATOM     25  C   UNL A   1      43.451  31.158  31.718  1.00  0.00     0.031 A 
ATOM     26  C   UNL A   1      42.622  24.949  28.584  1.00  0.00     0.031 A 
ATOM     27  C   UNL A   1      44.573  30.262  31.824  1.00  0.00     0.049 A 
ATOM     28  C   UNL A   1      43.893  25.308  29.297  1.00  0.00     0.074 A 
ATOM     29  C   UNL A   1      45.781  30.468  32.472  1.00  0.00     0.029 A 
ATOM     30  N   UNL A   1      44.628  28.992  31.274  1.00  0.00    -0.354 N 
ATOM     31  N   UNL A   1      44.191  26.414  29.935  1.00  0.00    -0.248 NA
ATOM     32  C   UNL A   1      44.957  24.298  29.299  1.00  0.00     0.031 C 
ATOM     33  C   UNL A   1      46.580  29.336  32.277  1.00  0.00     0.029 A 
ATOM     34  C   UNL A   1      45.852  28.407  31.551  1.00  0.00     0.049 A 
ATOM     35  H   UNL A   1      43.903  28.567  30.760  1.00  0.00     0.167 HD
ATOM     36  C   UNL A   1      45.477  26.226  30.429  1.00  0.00     0.074 A 
ATOM     37  C   UNL A   1      45.887  24.895  30.032  1.00  0.00     0.031 C 
ATOM     38  C   UNL A   1      46.247  27.083  31.144  1.00  0.00     0.031 A 
BRANCH  25  39
ATOM     39  C   UNL A   1      43.581  32.535  32.316  1.00  0.00    -0.014 A 
ATOM     40  C   UNL A   1      43.103  32.823  33.608  1.00  0.00     0.010 A 
ATOM     41  C   UNL A   1      44.227  33.550  31.586  1.00  0.00     0.010 A 
ATOM     42  C   UNL A   1      43.233  34.109  34.141  1.00  0.00     0.020 A 
ATOM     43  C   UNL A   1      44.382  34.831  32.125  1.00  0.00     0.020 A 
ATOM     44  C   UNL A   1      43.866  35.107  33.392  1.00  0.00     0.054 A 
BRANCH  44  45
ATOM     45  S   UNL A   1      44.032  36.765  34.111  1.00  0.00     0.124 S 
ATOM     46  O   UNL A   1      42.716  36.963  34.714  1.00  0.00    -0.237 OA
ATOM     47  O   UNL A   1      45.135  36.600  35.054  1.00  0.00    -0.237 OA
ATOM     48  O   UNL A   1      44.323  37.615  32.959  1.00  0.00    -0.744 OA
ENDBRANCH  44  45
ENDBRANCH  25  39
BRANCH  26  49
ATOM     49  C   UNL A   1      42.445  23.617  27.948  1.00  0.00    -0.014 A 
ATOM     50  C   UNL A   1      43.060  23.326  26.717  1.00  0.00     0.010 A 
ATOM     51  C   UNL A   1      41.688  22.620  28.589  1.00  0.00     0.010 A 
ATOM     52  C   UNL A   1      42.910  22.063  26.135  1.00  0.00     0.020 A 
ATOM     53  C   UNL A   1      41.560  21.349  28.024  1.00  0.00     0.020 A 
ATOM     54  C   UNL A   1      42.162  21.082  26.794  1.00  0.00     0.054 A 
BRANCH  54  55
ATOM     55  S   UNL A   1      42.031  19.432  26.053  1.00  0.00     0.124 S 
ATOM     56  O   UNL A   1      42.541  18.579  27.121  1.00  0.00    -0.237 OA
ATOM     57  O   UNL A   1      40.600  19.319  25.780  1.00  0.00    -0.237 OA
ATOM     58  O   UNL A   1      42.876  19.526  24.864  1.00  0.00    -0.744 OA
ENDBRANCH  54  55
ENDBRANCH  26  49
BRANCH  38  59
ATOM     59  C   UNL A   1      47.601  26.585  31.570  1.00  0.00    -0.014 A 
ATOM     60  C   UNL A   1      48.725  26.732  30.737  1.00  0.00     0.010 A 
ATOM     61  C   UNL A   1      47.751  25.981  32.830  1.00  0.00     0.010 A 
ATOM     62  C   UNL A   1      49.970  26.243  31.143  1.00  0.00     0.020 A 
ATOM     63  C   UNL A   1      48.999  25.514  33.250  1.00  0.00     0.020 A 
ATOM     64  C   UNL A   1      50.097  25.632  32.394  1.00  0.00     0.054 A 
BRANCH  64  65
ATOM     65  S   UNL A   1      51.726  25.022  32.911  1.00  0.00     0.124 S 
ATOM     66  O   UNL A   1      51.584  24.975  34.363  1.00  0.00    -0.237 OA
ATOM     67  O   UNL A   1      51.812  23.726  32.244  1.00  0.00    -0.237 OA
ATOM     68  O   UNL A   1      52.648  26.038  32.407  1.00  0.00    -0.744 OA
ENDBRANCH  64  65
ENDBRANCH  38  59
ENDBRANCH  12  13
ENDBRANCH   5   7
ENDBRANCH   2   3
ENDBRANCH   1   2
BRANCH   1  69
ATOM     69  C   UNL A   1      33.694  34.932  28.784  1.00  0.00     0.117 C 
BRANCH  69  70
ATOM     70  N   UNL A   1      32.918  35.185  29.988  1.00  0.00    -0.356 N 
ATOM     71  C   UNL A   1      33.269  34.983  31.290  1.00  0.00     0.223 C 
ATOM     72  H   UNL A   1      32.017  35.552  29.843  1.00  0.00     0.163 HD
ATOM     73  O   UNL A   1      32.440  35.238  32.162  1.00  0.00    -0.275 OA
BRANCH  71  74
ATOM     74  C   UNL A   1      34.663  34.450  31.585  1.00  0.00     0.087 C 
ATOM     75  C   UNL A   1      35.413  35.351  32.570  1.00  0.00     0.014 C 
ATOM     76  C   UNL A   1      34.634  33.085  32.291  1.00  0.00     0.056 C 
ATOM     77  C   UNL A   1      35.141  34.785  33.961  1.00  0.00     0.001 C 
ATOM     78  C   UNL A   1      34.423  33.456  33.762  1.00  0.00     0.010 C 
BRANCH  76  79
ATOM     79  C   UNL A   1      35.939  32.292  32.096  1.00  0.00     0.265 C 
BRANCH  79  80
ATOM     80  N   UNL A   1      36.643  32.179  33.371  1.00  0.00    -0.343 N 
ATOM     81  H   UNL A   1      36.357  31.306  33.816  1.00  0.00     0.346 HD
ATOM     82  H   UNL A   1      36.393  33.007  33.912  1.00  0.00     0.346 HD
BRANCH  80  83
ATOM     83  C   UNL A   1      38.108  32.179  33.266  1.00  0.00     0.187 C 
ATOM     84  C   UNL A   1      38.642  30.799  33.689  1.00  0.00     0.093 C 
ATOM     85  C   UNL A   1      38.814  33.259  34.104  1.00  0.00     0.100 C 
ATOM     86  C   UNL A   1      38.543  30.579  35.194  1.00  0.00     0.167 C 
ATOM     87  C   UNL A   1      38.651  32.991  35.599  1.00  0.00     0.074 C 
ATOM     88  O   UNL A   1      39.150  31.662  35.902  1.00  0.00    -0.375 OA
ATOM     89  C   UNL A   1      39.277  34.118  36.475  1.00  0.00     0.036 C 
ATOM     90  C   UNL A   1      37.289  33.377  36.260  1.00  0.00     0.036 C 
ATOM     91  C   UNL A   1      38.085  33.962  37.436  1.00  0.00     0.006 C 
ENDBRANCH  80  83
ENDBRANCH  79  80
ENDBRANCH  76  79
ENDBRANCH  71  74
ENDBRANCH  69  70
ENDBRANCH   1  69
TORSDOF 16
ENDMDL
MODEL 3
REMARK VINA RESULT:      -9.9      4.756     11.229
REMARK SMILES O=C(NCCCNC(=O)[C@H]1CCC[C@@H]1C[NH2+][C@@H]1CCOC2(CCC2)C1)c1ccc(-c2c3nc(c(-c4ccc(S(=O)(=O)[O-])cc4)c4ccc([nH]4)c(-c4ccc(S(=O)(=O)[O-])cc4)c4nc(c(-c5ccc(S(=O)(=O)[O-])cc5)c5ccc2[nH]5)C=C4)C=C3)cc1
REMARK SMILES IDX 5 1 4 2 3 3 1 4 2 5 26 7 27 8 85 9 28 10 84 11 29 12 30 13
REMARK SMILES IDX 31 14 78 15 32 16 83 17 77 18 79 19 33 20 82 21 76 22 75 23
REMARK SMILES IDX 34 25 64 26 45 27 63 28 46 29 49 30 62 31 80 32 47 33 48 34
REMARK SMILES IDX 61 36 81 37 50 38 35 39 36 40 44 41 37 42 43 43 38 44 39 45
REMARK SMILES IDX 40 46 41 47 42 48 65 49 66 50 74 51 67 52 73 53 68 54 69 55
REMARK SMILES IDX 70 56 71 57 72 58 51 59 52 60 60 61 53 62 59 63 54 64 55 65
REMARK SMILES IDX 56 66 57 67 58 68 6 69 7 70 8 71 9 73 10 74 11 75 14 76
REMARK SMILES IDX 12 77 13 78 15 79 16 80 17 83 18 84 25 85 19 86 21 87 20 88
REMARK SMILES IDX 22 89 24 90 23 91
REMARK H PARENT 3 6 79 24 49 35 7 72 16 81 16 82
REMARK Flexibility Score: inf
ROOT
ATOM      1  C   UNL A   1      39.387  22.128  26.338  1.00  0.00     0.042 C 
ENDROOT
BRANCH   1   2
ATOM      2  C   UNL A   1      40.383  23.087  26.973  1.00  0.00     0.118 C 
BRANCH   2   3
ATOM      3  N   UNL A   1      41.041  23.949  25.999  1.00  0.00    -0.352 N 
ATOM      4  O   UNL A   1      41.749  25.861  25.046  1.00  0.00    -0.269 OA
ATOM      5  C   UNL A   1      41.374  25.284  26.059  1.00  0.00     0.251 C 
ATOM      6  H   UNL A   1      41.289  23.503  25.157  1.00  0.00     0.163 HD
BRANCH   5   7
ATOM      7  C   UNL A   1      41.248  26.022  27.335  1.00  0.00     0.039 A 
ATOM      8  C   UNL A   1      40.056  25.997  28.055  1.00  0.00     0.014 A 
ATOM      9  C   UNL A   1      42.337  26.751  27.819  1.00  0.00     0.014 A 
ATOM     10  C   UNL A   1      39.879  26.863  29.124  1.00  0.00     0.010 A 
ATOM     11  C   UNL A   1      42.197  27.527  28.976  1.00  0.00     0.010 A 
ATOM     12  C   UNL A   1      40.949  27.634  29.608  1.00  0.00    -0.014 A 
BRANCH  12  13
ATOM     13  C   UNL A   1      40.724  28.510  30.789  1.00  0.00     0.031 A 
ATOM     14  C   UNL A   1      41.640  28.462  31.983  1.00  0.00     0.074 A 
ATOM     15  C   UNL A   1      39.719  29.409  30.745  1.00  0.00     0.049 A 
ATOM     16  N   UNL A   1      41.626  29.210  33.058  1.00  0.00    -0.248 NA
ATOM     17  C   UNL A   1      42.700  27.442  31.983  1.00  0.00     0.031 C 
ATOM     18  C   UNL A   1      38.760  29.549  29.644  1.00  0.00     0.029 A 
ATOM     19  N   UNL A   1      39.362  30.402  31.620  1.00  0.00    -0.354 N 
ATOM     20  C   UNL A   1      42.644  28.731  33.875  1.00  0.00     0.074 A 
ATOM     21  C   UNL A   1      43.249  27.615  33.179  1.00  0.00     0.031 C 
ATOM     22  C   UNL A   1      37.982  30.617  29.870  1.00  0.00     0.029 A 
ATOM     23  C   UNL A   1      38.334  31.192  31.162  1.00  0.00     0.049 A 
ATOM     24  H   UNL A   1      39.799  30.537  32.491  1.00  0.00     0.167 HD
ATOM     25  C   UNL A   1      43.041  29.179  35.090  1.00  0.00     0.031 A 
ATOM     26  C   UNL A   1      37.732  32.260  31.716  1.00  0.00     0.031 A 
ATOM     27  C   UNL A   1      42.452  30.303  35.770  1.00  0.00     0.049 A 
ATOM     28  C   UNL A   1      38.198  32.741  33.059  1.00  0.00     0.074 A 
ATOM     29  C   UNL A   1      42.807  30.854  36.990  1.00  0.00     0.029 A 
ATOM     30  N   UNL A   1      41.388  31.051  35.289  1.00  0.00    -0.354 N 
ATOM     31  N   UNL A   1      39.175  32.281  33.802  1.00  0.00    -0.248 NA
ATOM     32  C   UNL A   1      37.481  33.885  33.635  1.00  0.00     0.031 C 
ATOM     33  C   UNL A   1      41.930  31.910  37.266  1.00  0.00     0.029 A 
ATOM     34  C   UNL A   1      41.062  32.048  36.194  1.00  0.00     0.049 A 
ATOM     35  H   UNL A   1      40.931  30.896  34.431  1.00  0.00     0.167 HD
ATOM     36  C   UNL A   1      39.200  33.092  34.931  1.00  0.00     0.074 A 
ATOM     37  C   UNL A   1      38.154  34.080  34.761  1.00  0.00     0.031 C 
ATOM     38  C   UNL A   1      40.015  33.020  36.012  1.00  0.00     0.031 A 
BRANCH  25  39
ATOM     39  C   UNL A   1      44.149  28.429  35.784  1.00  0.00    -0.014 A 
ATOM     40  C   UNL A   1      43.879  27.341  36.634  1.00  0.00     0.010 A 
ATOM     41  C   UNL A   1      45.487  28.796  35.549  1.00  0.00     0.010 A 
ATOM     42  C   UNL A   1      44.925  26.662  37.269  1.00  0.00     0.020 A 
ATOM     43  C   UNL A   1      46.536  28.104  36.161  1.00  0.00     0.020 A 
ATOM     44  C   UNL A   1      46.247  27.053  37.033  1.00  0.00     0.054 A 
BRANCH  44  45
ATOM     45  S   UNL A   1      47.585  26.149  37.859  1.00  0.00     0.124 S 
ATOM     46  O   UNL A   1      46.878  24.987  38.392  1.00  0.00    -0.237 OA
ATOM     47  O   UNL A   1      48.512  25.871  36.765  1.00  0.00    -0.237 OA
ATOM     48  O   UNL A   1      48.075  27.093  38.861  1.00  0.00    -0.744 OA
ENDBRANCH  44  45
ENDBRANCH  25  39
BRANCH  26  49
ATOM     49  C   UNL A   1      36.623  32.939  30.995  1.00  0.00    -0.014 A 
ATOM     50  C   UNL A   1      35.297  32.814  31.443  1.00  0.00     0.010 A 
ATOM     51  C   UNL A   1      36.896  33.746  29.875  1.00  0.00     0.010 A 
ATOM     52  C   UNL A   1      34.261  33.475  30.775  1.00  0.00     0.020 A 
ATOM     53  C   UNL A   1      35.867  34.430  29.223  1.00  0.00     0.020 A 
ATOM     54  C   UNL A   1      34.554  34.280  29.670  1.00  0.00     0.054 A 
BRANCH  54  55
ATOM     55  S   UNL A   1      33.205  35.178  28.856  1.00  0.00     0.124 S 
ATOM     56  O   UNL A   1      32.619  34.143  28.011  1.00  0.00    -0.237 OA
ATOM     57  O   UNL A   1      32.386  35.616  29.984  1.00  0.00    -0.237 OA
ATOM     58  O   UNL A   1      33.894  36.254  28.145  1.00  0.00    -0.744 OA
ENDBRANCH  54  55
ENDBRANCH  26  49
BRANCH  38  59
ATOM     59  C   UNL A   1      39.824  34.064  37.078  1.00  0.00    -0.014 A 
ATOM     60  C   UNL A   1      39.171  33.759  38.286  1.00  0.00     0.010 A 
ATOM     61  C   UNL A   1      40.326  35.361  36.873  1.00  0.00     0.010 A 
ATOM     62  C   UNL A   1      38.986  34.750  39.254  1.00  0.00     0.020 A 
ATOM     63  C   UNL A   1      40.164  36.347  37.849  1.00  0.00     0.020 A 
ATOM     64  C   UNL A   1      39.478  36.039  39.026  1.00  0.00     0.054 A 
BRANCH  64  65
ATOM     65  S   UNL A   1      39.244  37.305  40.304  1.00  0.00     0.124 S 
ATOM     66  O   UNL A   1      38.501  38.332  39.580  1.00  0.00    -0.237 OA
ATOM     67  O   UNL A   1      38.491  36.591  41.333  1.00  0.00    -0.237 OA
ATOM     68  O   UNL A   1      40.608  37.669  40.680  1.00  0.00    -0.744 OA
ENDBRANCH  64  65
ENDBRANCH  38  59
ENDBRANCH  12  13
ENDBRANCH   5   7
ENDBRANCH   2   3
ENDBRANCH   1   2
BRANCH   1  69
ATOM     69  C   UNL A   1      38.049  22.771  26.015  1.00  0.00     0.117 C 
BRANCH  69  70
ATOM     70  N   UNL A   1      36.957  21.813  26.074  1.00  0.00    -0.356 N 
ATOM     71  C   UNL A   1      35.698  21.918  25.560  1.00  0.00     0.223 C 
ATOM     72  H   UNL A   1      37.153  20.974  26.549  1.00  0.00     0.163 HD
ATOM     73  O   UNL A   1      34.911  20.993  25.753  1.00  0.00    -0.275 OA
BRANCH  71  74
ATOM     74  C   UNL A   1      35.341  23.176  24.782  1.00  0.00     0.087 C 
ATOM     75  C   UNL A   1      34.592  22.843  23.488  1.00  0.00     0.014 C 
ATOM     76  C   UNL A   1      34.364  24.083  25.544  1.00  0.00     0.056 C 
ATOM     77  C   UNL A   1      33.105  22.897  23.829  1.00  0.00     0.001 C 
ATOM     78  C   UNL A   1      32.998  23.462  25.241  1.00  0.00     0.010 C 
BRANCH  76  79
ATOM     79  C   UNL A   1      34.429  25.548  25.075  1.00  0.00     0.265 C 
BRANCH  79  80
ATOM     80  N   UNL A   1      33.815  26.415  26.078  1.00  0.00    -0.343 N 
ATOM     81  H   UNL A   1      34.476  27.160  26.301  1.00  0.00     0.346 HD
ATOM     82  H   UNL A   1      33.595  25.820  26.876  1.00  0.00     0.346 HD
BRANCH  80  83
ATOM     83  C   UNL A   1      32.551  27.036  25.662  1.00  0.00     0.187 C 
ATOM     84  C   UNL A   1      32.679  27.507  24.203  1.00  0.00     0.093 C 
ATOM     85  C   UNL A   1      32.102  28.225  26.527  1.00  0.00     0.100 C 
ATOM     86  C   UNL A   1      33.567  28.739  24.071  1.00  0.00     0.167 C 
ATOM     87  C   UNL A   1      33.050  29.412  26.367  1.00  0.00     0.074 C 
ATOM     88  O   UNL A   1      33.134  29.769  24.962  1.00  0.00    -0.375 OA
ATOM     89  C   UNL A   1      32.674  30.602  27.301  1.00  0.00     0.036 C 
ATOM     90  C   UNL A   1      34.406  29.367  27.143  1.00  0.00     0.036 C 
ATOM     91  C   UNL A   1      34.179  30.839  27.520  1.00  0.00     0.006 C 
ENDBRANCH  80  83
ENDBRANCH  79  80
ENDBRANCH  76  79
ENDBRANCH  71  74
ENDBRANCH  69  70
ENDBRANCH   1  69
TORSDOF 16
ENDMDL
