MODEL 1
REMARK VINA RESULT:     -11.5      0.000      0.000
REMARK SMILES O=C(NCCCNC(=O)c1nccnc1C(=O)N1CCC(Cc2ccccc2)CC1)c1ccc(-c2c3nc(c(-c4ccc(S(=O)(=O)[O-])cc4)c4ccc([nH]4)c(-c4ccc(S(=O)(=O)[O-])cc4)c4nc(c(-c5ccc(S(=O)(=O)[O-])cc5)c5ccc2[nH]5)C=C4)C=C3)cc1
REMARK SMILES IDX 5 1 4 2 3 3 1 4 2 5 31 7 32 8 90 9 33 10 89 11 34 12 35 13
REMARK SMILES IDX 36 14 83 15 37 16 88 17 82 18 84 19 38 20 87 21 81 22 80 23
REMARK SMILES IDX 39 25 69 26 50 27 68 28 51 29 54 30 67 31 85 32 52 33 53 34
REMARK SMILES IDX 66 36 86 37 55 38 40 39 41 40 49 41 42 42 48 43 43 44 44 45
REMARK SMILES IDX 45 46 46 47 47 48 70 49 71 50 79 51 72 52 78 53 73 54 74 55
REMARK SMILES IDX 75 56 76 57 77 58 56 59 57 60 65 61 58 62 64 63 59 64 60 65
REMARK SMILES IDX 61 66 62 67 63 68 6 69 7 70 8 71 9 73 10 74 11 75 15 76
REMARK SMILES IDX 12 77 14 78 13 79 16 80 17 81 18 82 19 83 30 84 20 85 29 86
REMARK SMILES IDX 21 87 22 88 23 89 24 90 28 91 25 92 27 93 26 94
REMARK H PARENT 3 6 84 24 54 35 7 72
REMARK Flexibility Score: inf
ROOT
ATOM      1  C   UNL A   1      44.867  37.684  28.070  1.00  0.00     0.042 C 
ENDROOT
BRANCH   1   2
ATOM      2  C   UNL A   1      45.591  37.590  29.410  1.00  0.00     0.118 C 
BRANCH   2   3
ATOM      3  N   UNL A   1      47.038  37.571  29.270  1.00  0.00    -0.352 N 
ATOM      4  O   UNL A   1      49.128  36.776  29.251  1.00  0.00    -0.269 OA
ATOM      5  C   UNL A   1      47.927  36.535  29.138  1.00  0.00     0.251 C 
ATOM      6  H   UNL A   1      47.455  38.463  29.270  1.00  0.00     0.163 HD
BRANCH   5   7
ATOM      7  C   UNL A   1      47.479  35.149  28.877  1.00  0.00     0.039 A 
ATOM      8  C   UNL A   1      47.291  34.225  29.909  1.00  0.00     0.014 A 
ATOM      9  C   UNL A   1      47.154  34.792  27.563  1.00  0.00     0.014 A 
ATOM     10  C   UNL A   1      46.895  32.920  29.616  1.00  0.00     0.010 A 
ATOM     11  C   UNL A   1      46.690  33.505  27.280  1.00  0.00     0.010 A 
ATOM     12  C   UNL A   1      46.583  32.547  28.300  1.00  0.00    -0.014 A 
BRANCH  12  13
ATOM     13  C   UNL A   1      46.109  31.173  27.990  1.00  0.00     0.031 A 
ATOM     14  C   UNL A   1      44.661  30.808  28.163  1.00  0.00     0.074 A 
ATOM     15  C   UNL A   1      46.994  30.239  27.590  1.00  0.00     0.049 A 
ATOM     16  N   UNL A   1      44.081  29.644  28.018  1.00  0.00    -0.248 NA
ATOM     17  C   UNL A   1      43.747  31.889  28.561  1.00  0.00     0.031 C 
ATOM     18  C   UNL A   1      48.425  30.466  27.383  1.00  0.00     0.029 A 
ATOM     19  N   UNL A   1      46.821  28.910  27.296  1.00  0.00    -0.354 N 
ATOM     20  C   UNL A   1      42.741  29.845  28.331  1.00  0.00     0.074 A 
ATOM     21  C   UNL A   1      42.601  31.239  28.695  1.00  0.00     0.031 C 
ATOM     22  C   UNL A   1      48.999  29.319  26.990  1.00  0.00     0.029 A 
ATOM     23  C   UNL A   1      47.991  28.264  26.972  1.00  0.00     0.049 A 
ATOM     24  H   UNL A   1      45.945  28.462  27.317  1.00  0.00     0.167 HD
ATOM     25  C   UNL A   1      41.722  28.951  28.316  1.00  0.00     0.031 A 
ATOM     26  C   UNL A   1      48.238  26.964  26.720  1.00  0.00     0.031 A 
ATOM     27  C   UNL A   1      41.870  27.562  27.966  1.00  0.00     0.049 A 
ATOM     28  C   UNL A   1      47.103  25.979  26.746  1.00  0.00     0.074 A 
ATOM     29  C   UNL A   1      40.893  26.584  27.892  1.00  0.00     0.029 A 
ATOM     30  N   UNL A   1      43.074  26.950  27.645  1.00  0.00    -0.354 N 
ATOM     31  N   UNL A   1      45.837  26.195  27.008  1.00  0.00    -0.248 NA
ATOM     32  C   UNL A   1      47.428  24.580  26.438  1.00  0.00     0.031 C 
ATOM     33  C   UNL A   1      41.514  25.370  27.580  1.00  0.00     0.029 A 
ATOM     34  C   UNL A   1      42.868  25.603  27.396  1.00  0.00     0.049 A 
ATOM     35  H   UNL A   1      43.945  27.406  27.600  1.00  0.00     0.167 HD
ATOM     36  C   UNL A   1      45.206  24.964  26.868  1.00  0.00     0.074 A 
ATOM     37  C   UNL A   1      46.231  24.008  26.498  1.00  0.00     0.031 C 
ATOM     38  C   UNL A   1      43.894  24.661  27.023  1.00  0.00     0.031 A 
BRANCH  25  39
ATOM     39  C   UNL A   1      40.362  29.446  28.736  1.00  0.00    -0.014 A 
ATOM     40  C   UNL A   1      39.334  29.652  27.799  1.00  0.00     0.010 A 
ATOM     41  C   UNL A   1      40.108  29.708  30.096  1.00  0.00     0.010 A 
ATOM     42  C   UNL A   1      38.101  30.172  28.203  1.00  0.00     0.020 A 
ATOM     43  C   UNL A   1      38.867  30.201  30.508  1.00  0.00     0.020 A 
ATOM     44  C   UNL A   1      37.880  30.456  29.555  1.00  0.00     0.054 A 
BRANCH  44  45
ATOM     45  S   UNL A   1      36.285  31.163  30.049  1.00  0.00     0.124 S 
ATOM     46  O   UNL A   1      35.365  30.487  29.137  1.00  0.00    -0.237 OA
ATOM     47  O   UNL A   1      36.179  30.770  31.451  1.00  0.00    -0.237 OA
ATOM     48  O   UNL A   1      36.452  32.596  29.816  1.00  0.00    -0.744 OA
ENDBRANCH  44  45
ENDBRANCH  25  39
BRANCH  26  49
ATOM     49  C   UNL A   1      49.632  26.537  26.428  1.00  0.00    -0.014 A 
ATOM     50  C   UNL A   1      50.454  26.029  27.448  1.00  0.00     0.010 A 
ATOM     51  C   UNL A   1      50.116  26.561  25.106  1.00  0.00     0.010 A 
ATOM     52  C   UNL A   1      51.730  25.542  27.150  1.00  0.00     0.020 A 
ATOM     53  C   UNL A   1      51.381  26.052  24.801  1.00  0.00     0.020 A 
ATOM     54  C   UNL A   1      52.181  25.547  25.827  1.00  0.00     0.054 A 
BRANCH  54  55
ATOM     55  S   UNL A   1      53.798  24.815  25.451  1.00  0.00     0.124 S 
ATOM     56  O   UNL A   1      54.490  24.932  26.731  1.00  0.00    -0.237 OA
ATOM     57  O   UNL A   1      53.442  23.457  25.046  1.00  0.00    -0.237 OA
ATOM     58  O   UNL A   1      54.316  25.660  24.378  1.00  0.00    -0.744 OA
ENDBRANCH  54  55
ENDBRANCH  26  49
BRANCH  38  59
ATOM     59  C   UNL A   1      43.465  23.244  26.749  1.00  0.00    -0.014 A 
ATOM     60  C   UNL A   1      43.742  22.619  25.520  1.00  0.00     0.010 A 
ATOM     61  C   UNL A   1      42.861  22.498  27.778  1.00  0.00     0.010 A 
ATOM     62  C   UNL A   1      43.415  21.273  25.325  1.00  0.00     0.020 A 
ATOM     63  C   UNL A   1      42.555  21.147  27.595  1.00  0.00     0.020 A 
ATOM     64  C   UNL A   1      42.830  20.545  26.367  1.00  0.00     0.054 A 
BRANCH  64  65
ATOM     65  S   UNL A   1      42.495  18.778  26.119  1.00  0.00     0.124 S 
ATOM     66  O   UNL A   1      42.823  18.220  27.428  1.00  0.00    -0.237 OA
ATOM     67  O   UNL A   1      41.077  18.769  25.769  1.00  0.00    -0.237 OA
ATOM     68  O   UNL A   1      43.401  18.403  25.036  1.00  0.00    -0.744 OA
ENDBRANCH  64  65
ENDBRANCH  38  59
ENDBRANCH  12  13
ENDBRANCH   5   7
ENDBRANCH   2   3
ENDBRANCH   1   2
BRANCH   1  69
ATOM     69  C   UNL A   1      44.901  39.066  27.422  1.00  0.00     0.118 C 
BRANCH  69  70
ATOM     70  N   UNL A   1      45.458  39.070  26.073  1.00  0.00    -0.351 N 
ATOM     71  C   UNL A   1      45.983  40.121  25.346  1.00  0.00     0.272 C 
ATOM     72  H   UNL A   1      45.461  38.199  25.616  1.00  0.00     0.163 HD
ATOM     73  O   UNL A   1      46.482  39.908  24.241  1.00  0.00    -0.267 OA
BRANCH  71  74
ATOM     74  C   UNL A   1      45.932  41.487  25.906  1.00  0.00     0.159 A 
ATOM     75  N   UNL A   1      47.110  41.883  26.496  1.00  0.00    -0.247 NA
ATOM     76  C   UNL A   1      44.828  42.325  25.809  1.00  0.00     0.159 A 
ATOM     77  C   UNL A   1      47.136  43.136  26.990  1.00  0.00     0.132 A 
ATOM     78  N   UNL A   1      44.871  43.580  26.367  1.00  0.00    -0.247 NA
ATOM     79  C   UNL A   1      46.034  43.962  26.941  1.00  0.00     0.132 A 
BRANCH  76  80
ATOM     80  C   UNL A   1      43.668  42.117  24.888  1.00  0.00     0.274 C 
ATOM     81  O   UNL A   1      42.803  41.322  25.275  1.00  0.00    -0.267 OA
ATOM     82  N   UNL A   1      43.494  42.808  23.688  1.00  0.00    -0.337 N 
ATOM     83  C   UNL A   1      42.116  43.127  23.323  1.00  0.00     0.120 C 
ATOM     84  C   UNL A   1      44.532  43.342  22.809  1.00  0.00     0.120 C 
ATOM     85  C   UNL A   1      41.811  42.784  21.876  1.00  0.00     0.025 C 
ATOM     86  C   UNL A   1      44.236  43.047  21.331  1.00  0.00     0.025 C 
ATOM     87  C   UNL A   1      42.808  43.484  20.941  1.00  0.00    -0.003 C 
BRANCH  87  88
ATOM     88  C   UNL A   1      42.515  43.188  19.457  1.00  0.00     0.039 C 
BRANCH  88  89
ATOM     89  C   UNL A   1      42.682  44.391  18.554  1.00  0.00    -0.048 A 
ATOM     90  C   UNL A   1      43.935  44.692  18.004  1.00  0.00     0.004 A 
ATOM     91  C   UNL A   1      41.588  45.206  18.228  1.00  0.00     0.004 A 
ATOM     92  C   UNL A   1      44.090  45.777  17.137  1.00  0.00     0.000 A 
ATOM     93  C   UNL A   1      41.744  46.290  17.359  1.00  0.00     0.000 A 
ATOM     94  C   UNL A   1      42.995  46.574  16.813  1.00  0.00     0.000 A 
ENDBRANCH  88  89
ENDBRANCH  87  88
ENDBRANCH  76  80
ENDBRANCH  71  74
ENDBRANCH  69  70
ENDBRANCH   1  69
TORSDOF 16
ENDMDL
MODEL 2
REMARK VINA RESULT:     -11.4      6.681     17.523
REMARK SMILES O=C(NCCCNC(=O)c1nccnc1C(=O)N1CCC(Cc2ccccc2)CC1)c1ccc(-c2c3nc(c(-c4ccc(S(=O)(=O)[O-])cc4)c4ccc([nH]4)c(-c4ccc(S(=O)(=O)[O-])cc4)c4nc(c(-c5ccc(S(=O)(=O)[O-])cc5)c5ccc2[nH]5)C=C4)C=C3)cc1
REMARK SMILES IDX 5 1 4 2 3 3 1 4 2 5 31 7 32 8 90 9 33 10 89 11 34 12 35 13
REMARK SMILES IDX 36 14 83 15 37 16 88 17 82 18 84 19 38 20 87 21 81 22 80 23
REMARK SMILES IDX 39 25 69 26 50 27 68 28 51 29 54 30 67 31 85 32 52 33 53 34
REMARK SMILES IDX 66 36 86 37 55 38 40 39 41 40 49 41 42 42 48 43 43 44 44 45
REMARK SMILES IDX 45 46 46 47 47 48 70 49 71 50 79 51 72 52 78 53 73 54 74 55
REMARK SMILES IDX 75 56 76 57 77 58 56 59 57 60 65 61 58 62 64 63 59 64 60 65
REMARK SMILES IDX 61 66 62 67 63 68 6 69 7 70 8 71 9 73 10 74 11 75 15 76
REMARK SMILES IDX 12 77 14 78 13 79 16 80 17 81 18 82 19 83 30 84 20 85 29 86
REMARK SMILES IDX 21 87 22 88 23 89 24 90 28 91 25 92 27 93 26 94
REMARK H PARENT 3 6 84 24 54 35 7 72
REMARK Flexibility Score: inf
ROOT
ATOM      1  C   UNL A   1      36.356  23.667  25.007  1.00  0.00     0.042 C 
ENDROOT
BRANCH   1   2
ATOM      2  C   UNL A   1      36.825  23.070  26.330  1.00  0.00     0.118 C 
BRANCH   2   3
ATOM      3  N   UNL A   1      37.949  22.161  26.172  1.00  0.00    -0.352 N 
ATOM      4  O   UNL A   1      40.052  21.468  25.857  1.00  0.00    -0.269 OA
ATOM      5  C   UNL A   1      39.303  22.365  26.242  1.00  0.00     0.251 C 
ATOM      6  H   UNL A   1      37.690  21.230  25.980  1.00  0.00     0.163 HD
BRANCH   5   7
ATOM      7  C   UNL A   1      39.877  23.631  26.751  1.00  0.00     0.039 A 
ATOM      8  C   UNL A   1      40.440  23.728  28.026  1.00  0.00     0.014 A 
ATOM      9  C   UNL A   1      39.932  24.730  25.886  1.00  0.00     0.014 A 
ATOM     10  C   UNL A   1      40.945  24.948  28.478  1.00  0.00     0.010 A 
ATOM     11  C   UNL A   1      40.502  25.932  26.315  1.00  0.00     0.010 A 
ATOM     12  C   UNL A   1      40.988  26.061  27.625  1.00  0.00    -0.014 A 
BRANCH  12  13
ATOM     13  C   UNL A   1      41.574  27.347  28.083  1.00  0.00     0.031 A 
ATOM     14  C   UNL A   1      43.065  27.545  28.099  1.00  0.00     0.074 A 
ATOM     15  C   UNL A   1      40.763  28.328  28.524  1.00  0.00     0.049 A 
ATOM     16  N   UNL A   1      43.757  28.565  28.537  1.00  0.00    -0.248 NA
ATOM     17  C   UNL A   1      43.884  26.448  27.562  1.00  0.00     0.031 C 
ATOM     18  C   UNL A   1      39.301  28.262  28.560  1.00  0.00     0.029 A 
ATOM     19  N   UNL A   1      41.053  29.567  29.037  1.00  0.00    -0.354 N 
ATOM     20  C   UNL A   1      45.093  28.225  28.353  1.00  0.00     0.074 A 
ATOM     21  C   UNL A   1      45.112  26.894  27.785  1.00  0.00     0.031 C 
ATOM     22  C   UNL A   1      38.822  29.410  29.059  1.00  0.00     0.029 A 
ATOM     23  C   UNL A   1      39.940  30.271  29.434  1.00  0.00     0.049 A 
ATOM     24  H   UNL A   1      41.969  29.919  29.115  1.00  0.00     0.167 HD
ATOM     25  C   UNL A   1      46.201  28.955  28.632  1.00  0.00     0.031 A 
ATOM     26  C   UNL A   1      39.826  31.458  30.058  1.00  0.00     0.031 A 
ATOM     27  C   UNL A   1      46.176  30.273  29.211  1.00  0.00     0.049 A 
ATOM     28  C   UNL A   1      41.065  32.236  30.396  1.00  0.00     0.074 A 
ATOM     29  C   UNL A   1      47.243  31.105  29.503  1.00  0.00     0.029 A 
ATOM     30  N   UNL A   1      45.026  30.948  29.597  1.00  0.00    -0.354 N 
ATOM     31  N   UNL A   1      42.318  31.915  30.182  1.00  0.00    -0.248 NA
ATOM     32  C   UNL A   1      40.878  33.537  31.054  1.00  0.00     0.031 C 
ATOM     33  C   UNL A   1      46.743  32.258  30.117  1.00  0.00     0.029 A 
ATOM     34  C   UNL A   1      45.360  32.174  30.148  1.00  0.00     0.049 A 
ATOM     35  H   UNL A   1      44.109  30.605  29.495  1.00  0.00     0.167 HD
ATOM     36  C   UNL A   1      43.070  32.986  30.651  1.00  0.00     0.074 A 
ATOM     37  C   UNL A   1      42.131  33.965  31.161  1.00  0.00     0.031 C 
ATOM     38  C   UNL A   1      44.416  33.144  30.648  1.00  0.00     0.031 A 
BRANCH  25  39
ATOM     39  C   UNL A   1      47.537  28.315  28.355  1.00  0.00    -0.014 A 
ATOM     40  C   UNL A   1      48.135  28.385  27.084  1.00  0.00     0.010 A 
ATOM     41  C   UNL A   1      48.209  27.634  29.388  1.00  0.00     0.010 A 
ATOM     42  C   UNL A   1      49.344  27.731  26.832  1.00  0.00     0.020 A 
ATOM     43  C   UNL A   1      49.433  27.003  29.149  1.00  0.00     0.020 A 
ATOM     44  C   UNL A   1      49.979  27.032  27.864  1.00  0.00     0.054 A 
BRANCH  44  45
ATOM     45  S   UNL A   1      51.528  26.162  27.504  1.00  0.00     0.124 S 
ATOM     46  O   UNL A   1      52.090  26.983  26.434  1.00  0.00    -0.237 OA
ATOM     47  O   UNL A   1      52.238  26.227  28.780  1.00  0.00    -0.237 OA
ATOM     48  O   UNL A   1      51.093  24.827  27.103  1.00  0.00    -0.744 OA
ENDBRANCH  44  45
ENDBRANCH  25  39
BRANCH  26  49
ATOM     49  C   UNL A   1      38.470  31.966  30.404  1.00  0.00    -0.014 A 
ATOM     50  C   UNL A   1      37.811  31.517  31.560  1.00  0.00     0.010 A 
ATOM     51  C   UNL A   1      37.869  32.965  29.615  1.00  0.00     0.010 A 
ATOM     52  C   UNL A   1      36.580  32.067  31.928  1.00  0.00     0.020 A 
ATOM     53  C   UNL A   1      36.651  33.535  29.994  1.00  0.00     0.020 A 
ATOM     54  C   UNL A   1      36.013  33.080  31.149  1.00  0.00     0.054 A 
BRANCH  54  55
ATOM     55  S   UNL A   1      34.466  33.850  31.705  1.00  0.00     0.124 S 
ATOM     56  O   UNL A   1      33.745  34.022  30.447  1.00  0.00    -0.237 OA
ATOM     57  O   UNL A   1      33.923  32.843  32.614  1.00  0.00    -0.237 OA
ATOM     58  O   UNL A   1      34.910  35.084  32.348  1.00  0.00    -0.744 OA
ENDBRANCH  54  55
ENDBRANCH  26  49
BRANCH  38  59
ATOM     59  C   UNL A   1      44.971  34.443  31.169  1.00  0.00    -0.014 A 
ATOM     60  C   UNL A   1      45.141  35.557  30.328  1.00  0.00     0.010 A 
ATOM     61  C   UNL A   1      45.233  34.575  32.545  1.00  0.00     0.010 A 
ATOM     62  C   UNL A   1      45.570  36.779  30.856  1.00  0.00     0.020 A 
ATOM     63  C   UNL A   1      45.638  35.800  33.080  1.00  0.00     0.020 A 
ATOM     64  C   UNL A   1      45.809  36.893  32.229  1.00  0.00     0.054 A 
BRANCH  64  65
ATOM     65  S   UNL A   1      46.282  38.511  32.903  1.00  0.00     0.124 S 
ATOM     66  O   UNL A   1      45.035  39.263  32.793  1.00  0.00    -0.237 OA
ATOM     67  O   UNL A   1      46.699  38.181  34.264  1.00  0.00    -0.237 OA
ATOM     68  O   UNL A   1      47.357  38.954  32.018  1.00  0.00    -0.744 OA
ENDBRANCH  64  65
ENDBRANCH  38  59
ENDBRANCH  12  13
ENDBRANCH   5   7
ENDBRANCH   2   3
ENDBRANCH   1   2
BRANCH   1  69
ATOM     69  C   UNL A   1      35.051  24.456  25.088  1.00  0.00     0.118 C 
BRANCH  69  70
ATOM     70  N   UNL A   1      34.726  25.184  23.866  1.00  0.00    -0.351 N 
ATOM     71  C   UNL A   1      33.613  25.948  23.572  1.00  0.00     0.272 C 
ATOM     72  H   UNL A   1      35.397  25.123  23.148  1.00  0.00     0.163 HD
ATOM     73  O   UNL A   1      33.556  26.555  22.503  1.00  0.00    -0.267 OA
BRANCH  71  74
ATOM     74  C   UNL A   1      32.505  26.020  24.546  1.00  0.00     0.159 A 
ATOM     75  N   UNL A   1      32.483  27.190  25.268  1.00  0.00    -0.247 NA
ATOM     76  C   UNL A   1      31.538  25.033  24.695  1.00  0.00     0.159 A 
ATOM     77  C   UNL A   1      31.470  27.329  26.144  1.00  0.00     0.132 A 
ATOM     78  N   UNL A   1      30.546  25.184  25.634  1.00  0.00    -0.247 NA
ATOM     79  C   UNL A   1      30.530  26.340  26.336  1.00  0.00     0.132 A 
BRANCH  76  80
ATOM     80  C   UNL A   1      31.281  23.926  23.723  1.00  0.00     0.274 C 
ATOM     81  O   UNL A   1      30.460  24.168  22.830  1.00  0.00    -0.267 OA
ATOM     82  N   UNL A   1      31.954  22.703  23.740  1.00  0.00    -0.337 N 
ATOM     83  C   UNL A   1      32.220  22.097  22.439  1.00  0.00     0.120 C 
ATOM     84  C   UNL A   1      32.514  22.011  24.899  1.00  0.00     0.120 C 
ATOM     85  C   UNL A   1      31.852  20.624  22.404  1.00  0.00     0.025 C 
ATOM     86  C   UNL A   1      32.195  20.510  24.878  1.00  0.00     0.025 C 
ATOM     87  C   UNL A   1      32.577  19.868  23.527  1.00  0.00    -0.003 C 
BRANCH  87  88
ATOM     88  C   UNL A   1      32.257  18.361  23.510  1.00  0.00     0.039 C 
BRANCH  88  89
ATOM     89  C   UNL A   1      33.308  17.508  24.189  1.00  0.00    -0.048 A 
ATOM     90  C   UNL A   1      32.969  16.251  24.708  1.00  0.00     0.004 A 
ATOM     91  C   UNL A   1      34.637  17.943  24.286  1.00  0.00     0.004 A 
ATOM     92  C   UNL A   1      33.940  15.441  25.301  1.00  0.00     0.000 A 
ATOM     93  C   UNL A   1      35.608  17.131  24.878  1.00  0.00     0.000 A 
ATOM     94  C   UNL A   1      35.259  15.879  25.383  1.00  0.00     0.000 A 
ENDBRANCH  88  89
ENDBRANCH  87  88
ENDBRANCH  76  80
ENDBRANCH  71  74
ENDBRANCH  69  70
ENDBRANCH   1  69
TORSDOF 16
ENDMDL
MODEL 3
REMARK VINA RESULT:     -11.3      9.667     19.668
REMARK SMILES O=C(NCCCNC(=O)c1nccnc1C(=O)N1CCC(Cc2ccccc2)CC1)c1ccc(-c2c3nc(c(-c4ccc(S(=O)(=O)[O-])cc4)c4ccc([nH]4)c(-c4ccc(S(=O)(=O)[O-])cc4)c4nc(c(-c5ccc(S(=O)(=O)[O-])cc5)c5ccc2[nH]5)C=C4)C=C3)cc1
REMARK SMILES IDX 5 1 4 2 3 3 1 4 2 5 31 7 32 8 90 9 33 10 89 11 34 12 35 13
REMARK SMILES IDX 36 14 83 15 37 16 88 17 82 18 84 19 38 20 87 21 81 22 80 23
REMARK SMILES IDX 39 25 69 26 50 27 68 28 51 29 54 30 67 31 85 32 52 33 53 34
REMARK SMILES IDX 66 36 86 37 55 38 40 39 41 40 49 41 42 42 48 43 43 44 44 45
REMARK SMILES IDX 45 46 46 47 47 48 70 49 71 50 79 51 72 52 78 53 73 54 74 55
REMARK SMILES IDX 75 56 76 57 77 58 56 59 57 60 65 61 58 62 64 63 59 64 60 65
REMARK SMILES IDX 61 66 62 67 63 68 6 69 7 70 8 71 9 73 10 74 11 75 15 76
REMARK SMILES IDX 12 77 14 78 13 79 16 80 17 81 18 82 19 83 30 84 20 85 29 86
REMARK SMILES IDX 21 87 22 88 23 89 24 90 28 91 25 92 27 93 26 94
REMARK H PARENT 3 6 84 24 54 35 7 72
REMARK Flexibility Score: inf
ROOT
ATOM      1  C   UNL A   1      48.038  23.222  36.395  1.00  0.00     0.042 C 
ENDROOT
BRANCH   1   2
ATOM      2  C   UNL A   1      47.083  24.400  36.558  1.00  0.00     0.118 C 
BRANCH   2   3
ATOM      3  N   UNL A   1      47.503  25.329  37.594  1.00  0.00    -0.352 N 
ATOM      4  O   UNL A   1      47.840  27.269  38.655  1.00  0.00    -0.269 OA
ATOM      5  C   UNL A   1      47.179  26.640  37.829  1.00  0.00     0.251 C 
ATOM      6  H   UNL A   1      48.136  24.947  38.246  1.00  0.00     0.163 HD
BRANCH   5   7
ATOM      7  C   UNL A   1      46.073  27.313  37.111  1.00  0.00     0.039 A 
ATOM      8  C   UNL A   1      44.733  27.012  37.366  1.00  0.00     0.014 A 
ATOM      9  C   UNL A   1      46.392  28.342  36.216  1.00  0.00     0.014 A 
ATOM     10  C   UNL A   1      43.723  27.650  36.646  1.00  0.00     0.010 A 
ATOM     11  C   UNL A   1      45.376  29.029  35.547  1.00  0.00     0.010 A 
ATOM     12  C   UNL A   1      44.033  28.670  35.734  1.00  0.00    -0.014 A 
BRANCH  12  13
ATOM     13  C   UNL A   1      42.957  29.389  35.003  1.00  0.00     0.031 A 
ATOM     14  C   UNL A   1      42.230  30.536  35.650  1.00  0.00     0.074 A 
ATOM     15  C   UNL A   1      42.605  28.983  33.768  1.00  0.00     0.049 A 
ATOM     16  N   UNL A   1      41.216  31.230  35.199  1.00  0.00    -0.248 NA
ATOM     17  C   UNL A   1      42.697  30.951  36.981  1.00  0.00     0.031 C 
ATOM     18  C   UNL A   1      43.231  27.885  33.030  1.00  0.00     0.029 A 
ATOM     19  N   UNL A   1      41.628  29.440  32.919  1.00  0.00    -0.354 N 
ATOM     20  C   UNL A   1      40.906  32.145  36.198  1.00  0.00     0.074 A 
ATOM     21  C   UNL A   1      41.827  31.901  37.289  1.00  0.00     0.031 C 
ATOM     22  C   UNL A   1      42.630  27.757  31.839  1.00  0.00     0.029 A 
ATOM     23  C   UNL A   1      41.539  28.723  31.750  1.00  0.00     0.049 A 
ATOM     24  H   UNL A   1      41.046  30.206  33.128  1.00  0.00     0.167 HD
ATOM     25  C   UNL A   1      39.944  33.100  36.208  1.00  0.00     0.031 A 
ATOM     26  C   UNL A   1      40.662  28.806  30.731  1.00  0.00     0.031 A 
ATOM     27  C   UNL A   1      39.021  33.328  35.126  1.00  0.00     0.049 A 
ATOM     28  C   UNL A   1      39.576  29.844  30.775  1.00  0.00     0.074 A 
ATOM     29  C   UNL A   1      38.031  34.290  35.028  1.00  0.00     0.029 A 
ATOM     30  N   UNL A   1      38.967  32.577  33.959  1.00  0.00    -0.354 N 
ATOM     31  N   UNL A   1      39.322  30.725  31.712  1.00  0.00    -0.248 NA
ATOM     32  C   UNL A   1      38.665  29.904  29.624  1.00  0.00     0.031 C 
ATOM     33  C   UNL A   1      37.342  34.086  33.828  1.00  0.00     0.029 A 
ATOM     34  C   UNL A   1      37.944  33.039  33.148  1.00  0.00     0.049 A 
ATOM     35  H   UNL A   1      39.566  31.828  33.741  1.00  0.00     0.167 HD
ATOM     36  C   UNL A   1      38.239  31.465  31.253  1.00  0.00     0.074 A 
ATOM     37  C   UNL A   1      37.886  30.928  29.954  1.00  0.00     0.031 C 
ATOM     38  C   UNL A   1      37.604  32.501  31.853  1.00  0.00     0.031 A 
BRANCH  25  39
ATOM     39  C   UNL A   1      39.815  33.939  37.453  1.00  0.00    -0.014 A 
ATOM     40  C   UNL A   1      38.919  33.594  38.481  1.00  0.00     0.010 A 
ATOM     41  C   UNL A   1      40.608  35.092  37.598  1.00  0.00     0.010 A 
ATOM     42  C   UNL A   1      38.770  34.421  39.598  1.00  0.00     0.020 A 
ATOM     43  C   UNL A   1      40.484  35.907  38.728  1.00  0.00     0.020 A 
ATOM     44  C   UNL A   1      39.545  35.581  39.707  1.00  0.00     0.054 A 
BRANCH  44  45
ATOM     45  S   UNL A   1      39.309  36.655  41.148  1.00  0.00     0.124 S 
ATOM     46  O   UNL A   1      40.688  36.945  41.534  1.00  0.00    -0.237 OA
ATOM     47  O   UNL A   1      38.565  37.782  40.591  1.00  0.00    -0.237 OA
ATOM     48  O   UNL A   1      38.562  35.821  42.086  1.00  0.00    -0.744 OA
ENDBRANCH  44  45
ENDBRANCH  25  39
BRANCH  26  49
ATOM     49  C   UNL A   1      40.787  27.859  29.590  1.00  0.00    -0.014 A 
ATOM     50  C   UNL A   1      41.754  28.064  28.593  1.00  0.00     0.010 A 
ATOM     51  C   UNL A   1      39.988  26.700  29.544  1.00  0.00     0.010 A 
ATOM     52  C   UNL A   1      41.929  27.121  27.575  1.00  0.00     0.020 A 
ATOM     53  C   UNL A   1      40.178  25.743  28.544  1.00  0.00     0.020 A 
ATOM     54  C   UNL A   1      41.147  25.962  27.563  1.00  0.00     0.054 A 
BRANCH  54  55
ATOM     55  S   UNL A   1      41.465  24.705  26.294  1.00  0.00     0.124 S 
ATOM     56  O   UNL A   1      40.256  23.891  26.364  1.00  0.00    -0.237 OA
ATOM     57  O   UNL A   1      41.616  25.511  25.084  1.00  0.00    -0.237 OA
ATOM     58  O   UNL A   1      42.688  24.054  26.754  1.00  0.00    -0.744 OA
ENDBRANCH  54  55
ENDBRANCH  26  49
BRANCH  38  59
ATOM     59  C   UNL A   1      36.485  33.170  31.099  1.00  0.00    -0.014 A 
ATOM     60  C   UNL A   1      35.178  33.214  31.615  1.00  0.00     0.010 A 
ATOM     61  C   UNL A   1      36.775  33.850  29.902  1.00  0.00     0.010 A 
ATOM     62  C   UNL A   1      34.179  33.921  30.940  1.00  0.00     0.020 A 
ATOM     63  C   UNL A   1      35.785  34.578  29.237  1.00  0.00     0.020 A 
ATOM     64  C   UNL A   1      34.491  34.604  29.759  1.00  0.00     0.054 A 
BRANCH  64  65
ATOM     65  S   UNL A   1      33.198  35.586  28.948  1.00  0.00     0.124 S 
ATOM     66  O   UNL A   1      33.983  36.517  28.141  1.00  0.00    -0.237 OA
ATOM     67  O   UNL A   1      32.454  34.577  28.197  1.00  0.00    -0.237 OA
ATOM     68  O   UNL A   1      32.469  36.188  30.062  1.00  0.00    -0.744 OA
ENDBRANCH  64  65
ENDBRANCH  38  59
ENDBRANCH  12  13
ENDBRANCH   5   7
ENDBRANCH   2   3
ENDBRANCH   1   2
BRANCH   1  69
ATOM     69  C   UNL A   1      47.528  21.901  36.966  1.00  0.00     0.118 C 
BRANCH  69  70
ATOM     70  N   UNL A   1      46.507  22.061  37.996  1.00  0.00    -0.351 N 
ATOM     71  C   UNL A   1      46.412  21.457  39.236  1.00  0.00     0.272 C 
ATOM     72  H   UNL A   1      45.782  22.689  37.777  1.00  0.00     0.163 HD
ATOM     73  O   UNL A   1      45.508  21.784  40.004  1.00  0.00    -0.267 OA
BRANCH  71  74
ATOM     74  C   UNL A   1      47.397  20.425  39.617  1.00  0.00     0.159 A 
ATOM     75  N   UNL A   1      48.452  20.916  40.349  1.00  0.00    -0.247 NA
ATOM     76  C   UNL A   1      47.260  19.075  39.318  1.00  0.00     0.159 A 
ATOM     77  C   UNL A   1      49.363  20.012  40.760  1.00  0.00     0.132 A 
ATOM     78  N   UNL A   1      48.232  18.186  39.710  1.00  0.00    -0.247 NA
ATOM     79  C   UNL A   1      49.264  18.677  40.432  1.00  0.00     0.132 A 
BRANCH  76  80
ATOM     80  C   UNL A   1      45.997  18.418  38.859  1.00  0.00     0.274 C 
ATOM     81  O   UNL A   1      45.551  18.802  37.771  1.00  0.00    -0.267 OA
ATOM     82  N   UNL A   1      45.364  17.382  39.547  1.00  0.00    -0.337 N 
ATOM     83  C   UNL A   1      44.711  16.367  38.725  1.00  0.00     0.120 C 
ATOM     84  C   UNL A   1      45.367  17.138  40.988  1.00  0.00     0.120 C 
ATOM     85  C   UNL A   1      43.309  16.049  39.209  1.00  0.00     0.025 C 
ATOM     86  C   UNL A   1      43.969  16.774  41.508  1.00  0.00     0.025 C 
ATOM     87  C   UNL A   1      43.339  15.630  40.686  1.00  0.00    -0.003 C 
BRANCH  87  88
ATOM     88  C   UNL A   1      41.937  15.266  41.213  1.00  0.00     0.039 C 
BRANCH  88  89
ATOM     89  C   UNL A   1      41.921  14.041  42.102  1.00  0.00    -0.048 A 
ATOM     90  C   UNL A   1      41.216  12.894  41.711  1.00  0.00     0.004 A 
ATOM     91  C   UNL A   1      42.628  14.018  43.312  1.00  0.00     0.004 A 
ATOM     92  C   UNL A   1      41.228  11.745  42.506  1.00  0.00     0.000 A 
ATOM     93  C   UNL A   1      42.640  12.868  44.106  1.00  0.00     0.000 A 
ATOM     94  C   UNL A   1      41.942  11.732  43.701  1.00  0.00     0.000 A 
ENDBRANCH  88  89
ENDBRANCH  87  88
ENDBRANCH  76  80
ENDBRANCH  71  74
ENDBRANCH  69  70
ENDBRANCH   1  69
TORSDOF 16
ENDMDL
