MODEL 1
REMARK VINA RESULT:     -10.7      0.000      0.000
REMARK SMILES CC[N@@H+]1CCO[C@H](c2nc(C)c(C(=O)NCCCNC(=O)c3ccc(-c4c5nc(c(-c6ccc(S(=O)(=O)[O-])cc6)c6ccc([nH]6)c(-c6ccc(S(=O)(=O)[O-])cc6)c6nc(c(-c7ccc(S(=O)(=O)[O-])cc7)c7ccc4[nH]7)C=C6)C=C5)cc3)s2)C1
REMARK SMILES IDX 17 1 16 2 15 3 13 4 14 5 12 7 8 8 9 9 82 10 10 11 11 12 7 13
REMARK SMILES IDX 3 14 4 15 83 16 5 18 6 19 2 20 1 21 18 22 19 23 20 24 21 26
REMARK SMILES IDX 22 27 23 28 81 29 24 30 80 31 25 32 26 33 27 34 74 35 28 36
REMARK SMILES IDX 79 37 73 38 75 39 29 40 78 41 72 42 71 43 30 45 60 46 41 47
REMARK SMILES IDX 59 48 42 49 45 50 58 51 76 52 43 53 44 54 57 56 77 57 46 58
REMARK SMILES IDX 31 59 32 60 40 61 33 62 39 63 34 64 35 65 36 66 37 67 38 68
REMARK SMILES IDX 61 69 62 70 70 71 63 72 69 73 64 74 65 75 66 76 67 77 68 78
REMARK SMILES IDX 47 79 48 80 56 81 49 82 55 83 50 84 51 85 52 86 53 87 54 88
REMARK H PARENT 15 6 3 17 19 25 75 44 45 55
REMARK Flexibility Score: inf
ROOT
ATOM      1  C   UNL A   1      33.201  28.811  24.652  1.00  0.00     0.042 C 
ENDROOT
BRANCH   1   2
ATOM      2  C   UNL A   1      31.760  29.246  24.898  1.00  0.00     0.118 C 
BRANCH   2   3
ATOM      3  N   UNL A   1      31.109  29.500  23.635  1.00  0.00    -0.351 N 
ATOM      4  C   UNL A   1      30.675  28.656  22.653  1.00  0.00     0.263 C 
ATOM      5  O   UNL A   1      30.184  29.226  21.666  1.00  0.00    -0.268 OA
ATOM      6  H   UNL A   1      30.950  30.453  23.447  1.00  0.00     0.163 HD
BRANCH   4   7
ATOM      7  C   UNL A   1      30.695  27.214  22.781  1.00  0.00     0.115 A 
ATOM      8  C   UNL A   1      31.643  24.953  22.709  1.00  0.00     0.128 A 
ATOM      9  N   UNL A   1      30.514  24.959  23.389  1.00  0.00    -0.243 NA
ATOM     10  S   UNL A   1      31.991  26.446  21.962  1.00  0.00    -0.110 S 
ATOM     11  C   UNL A   1      29.958  26.240  23.440  1.00  0.00     0.062 A 
ATOM     12  C   UNL A   1      28.720  26.350  24.252  1.00  0.00     0.068 C 
BRANCH   8  13
ATOM     13  C   UNL A   1      32.559  23.752  22.619  1.00  0.00     0.232 C 
ATOM     14  N   UNL A   1      32.814  22.811  24.995  1.00  0.00    -0.331 N 
ATOM     15  C   UNL A   1      34.151  23.422  25.004  1.00  0.00     0.291 C 
ATOM     16  C   UNL A   1      32.295  22.627  23.638  1.00  0.00     0.302 C 
ATOM     17  H   UNL A   1      32.901  21.843  25.305  1.00  0.00     0.348 HD
ATOM     18  C   UNL A   1      34.515  24.401  23.864  1.00  0.00     0.222 C 
ATOM     19  O   UNL A   1      33.948  24.122  22.584  1.00  0.00    -0.359 OA
BRANCH  14  20
ATOM     20  C   UNL A   1      31.924  23.280  26.057  1.00  0.00     0.258 C 
ATOM     21  C   UNL A   1      30.571  22.580  26.179  1.00  0.00     0.071 C 
ENDBRANCH  14  20
ENDBRANCH   8  13
ENDBRANCH   4   7
ENDBRANCH   2   3
ENDBRANCH   1   2
BRANCH   1  22
ATOM     22  C   UNL A   1      34.067  28.893  25.903  1.00  0.00     0.118 C 
BRANCH  22  23
ATOM     23  N   UNL A   1      33.785  30.095  26.662  1.00  0.00    -0.352 N 
ATOM     24  C   UNL A   1      34.440  30.611  27.756  1.00  0.00     0.251 C 
ATOM     25  H   UNL A   1      33.013  30.618  26.349  1.00  0.00     0.163 HD
ATOM     26  O   UNL A   1      33.866  31.451  28.455  1.00  0.00    -0.269 OA
BRANCH  24  27
ATOM     27  C   UNL A   1      35.811  30.171  28.100  1.00  0.00     0.039 A 
ATOM     28  C   UNL A   1      36.046  29.599  29.352  1.00  0.00     0.014 A 
ATOM     29  C   UNL A   1      36.878  30.384  27.224  1.00  0.00     0.014 A 
ATOM     30  C   UNL A   1      37.340  29.210  29.711  1.00  0.00     0.010 A 
ATOM     31  C   UNL A   1      38.150  29.919  27.545  1.00  0.00     0.010 A 
ATOM     32  C   UNL A   1      38.401  29.351  28.803  1.00  0.00    -0.014 A 
BRANCH  32  33
ATOM     33  C   UNL A   1      39.786  28.950  29.158  1.00  0.00     0.031 A 
ATOM     34  C   UNL A   1      40.705  29.939  29.829  1.00  0.00     0.074 A 
ATOM     35  C   UNL A   1      40.239  27.727  28.819  1.00  0.00     0.049 A 
ATOM     36  N   UNL A   1      41.970  29.811  30.140  1.00  0.00    -0.248 NA
ATOM     37  C   UNL A   1      40.135  31.255  30.166  1.00  0.00     0.031 C 
ATOM     38  C   UNL A   1      39.460  26.696  28.128  1.00  0.00     0.029 A 
ATOM     39  N   UNL A   1      41.469  27.147  29.001  1.00  0.00    -0.354 N 
ATOM     40  C   UNL A   1      42.351  31.035  30.679  1.00  0.00     0.074 A 
ATOM     41  C   UNL A   1      41.199  31.905  30.614  1.00  0.00     0.031 C 
ATOM     42  C   UNL A   1      40.225  25.604  27.964  1.00  0.00     0.029 A 
ATOM     43  C   UNL A   1      41.556  25.869  28.502  1.00  0.00     0.049 A 
ATOM     44  H   UNL A   1      42.219  27.604  29.445  1.00  0.00     0.167 HD
ATOM     45  C   UNL A   1      43.548  31.397  31.200  1.00  0.00     0.031 A 
ATOM     46  C   UNL A   1      42.590  25.007  28.476  1.00  0.00     0.031 A 
ATOM     47  C   UNL A   1      44.684  30.518  31.291  1.00  0.00     0.049 A 
ATOM     48  C   UNL A   1      43.902  25.421  29.084  1.00  0.00     0.074 A 
ATOM     49  C   UNL A   1      45.921  30.765  31.859  1.00  0.00     0.029 A 
ATOM     50  N   UNL A   1      44.717  29.219  30.807  1.00  0.00    -0.354 N 
ATOM     51  N   UNL A   1      44.227  26.563  29.641  1.00  0.00    -0.248 NA
ATOM     52  C   UNL A   1      44.982  24.425  29.072  1.00  0.00     0.031 C 
ATOM     53  C   UNL A   1      46.716  29.628  31.683  1.00  0.00     0.029 A 
ATOM     54  C   UNL A   1      45.958  28.655  31.049  1.00  0.00     0.049 A 
ATOM     55  H   UNL A   1      43.969  28.764  30.358  1.00  0.00     0.167 HD
ATOM     56  C   UNL A   1      45.541  26.416  30.067  1.00  0.00     0.074 A 
ATOM     57  C   UNL A   1      45.946  25.070  29.717  1.00  0.00     0.031 C 
ATOM     58  C   UNL A   1      46.341  27.314  30.693  1.00  0.00     0.031 A 
BRANCH  45  59
ATOM     59  C   UNL A   1      43.691  32.807  31.710  1.00  0.00    -0.014 A 
ATOM     60  C   UNL A   1      43.325  33.145  33.025  1.00  0.00     0.010 A 
ATOM     61  C   UNL A   1      44.228  33.803  30.873  1.00  0.00     0.010 A 
ATOM     62  C   UNL A   1      43.452  34.460  33.481  1.00  0.00     0.020 A 
ATOM     63  C   UNL A   1      44.383  35.114  31.334  1.00  0.00     0.020 A 
ATOM     64  C   UNL A   1      43.976  35.437  32.630  1.00  0.00     0.054 A 
BRANCH  64  65
ATOM     65  S   UNL A   1      44.147  37.133  33.252  1.00  0.00     0.124 S 
ATOM     66  O   UNL A   1      43.112  37.181  34.281  1.00  0.00    -0.237 OA
ATOM     67  O   UNL A   1      45.523  37.157  33.744  1.00  0.00    -0.237 OA
ATOM     68  O   UNL A   1      43.896  37.961  32.076  1.00  0.00    -0.744 OA
ENDBRANCH  64  65
ENDBRANCH  45  59
BRANCH  46  69
ATOM     69  C   UNL A   1      42.417  23.659  27.870  1.00  0.00    -0.014 A 
ATOM     70  C   UNL A   1      42.707  23.447  26.512  1.00  0.00     0.010 A 
ATOM     71  C   UNL A   1      41.990  22.574  28.657  1.00  0.00     0.010 A 
ATOM     72  C   UNL A   1      42.559  22.177  25.946  1.00  0.00     0.020 A 
ATOM     73  C   UNL A   1      41.865  21.298  28.101  1.00  0.00     0.020 A 
ATOM     74  C   UNL A   1      42.141  21.110  26.745  1.00  0.00     0.054 A 
BRANCH  74  75
ATOM     75  S   UNL A   1      42.017  19.457  26.006  1.00  0.00     0.124 S 
ATOM     76  O   UNL A   1      42.863  19.588  24.825  1.00  0.00    -0.237 OA
ATOM     77  O   UNL A   1      42.538  18.597  27.066  1.00  0.00    -0.237 OA
ATOM     78  O   UNL A   1      40.587  19.309  25.742  1.00  0.00    -0.744 OA
ENDBRANCH  74  75
ENDBRANCH  46  69
BRANCH  58  79
ATOM     79  C   UNL A   1      47.726  26.861  31.068  1.00  0.00    -0.014 A 
ATOM     80  C   UNL A   1      47.952  26.105  32.232  1.00  0.00     0.010 A 
ATOM     81  C   UNL A   1      48.804  27.149  30.212  1.00  0.00     0.010 A 
ATOM     82  C   UNL A   1      49.242  25.669  32.547  1.00  0.00     0.020 A 
ATOM     83  C   UNL A   1      50.090  26.693  30.511  1.00  0.00     0.020 A 
ATOM     84  C   UNL A   1      50.303  25.967  31.685  1.00  0.00     0.054 A 
BRANCH  84  85
ATOM     85  S   UNL A   1      51.960  25.352  32.092  1.00  0.00     0.124 S 
ATOM     86  O   UNL A   1      52.258  26.076  33.325  1.00  0.00    -0.237 OA
ATOM     87  O   UNL A   1      51.741  23.915  32.243  1.00  0.00    -0.237 OA
ATOM     88  O   UNL A   1      52.764  25.734  30.934  1.00  0.00    -0.744 OA
ENDBRANCH  84  85
ENDBRANCH  58  79
ENDBRANCH  32  33
ENDBRANCH  24  27
ENDBRANCH  22  23
ENDBRANCH   1  22
TORSDOF 15
ENDMDL
MODEL 2
REMARK VINA RESULT:     -10.6      1.436      2.146
REMARK SMILES CC[N@@H+]1CCO[C@H](c2nc(C)c(C(=O)NCCCNC(=O)c3ccc(-c4c5nc(c(-c6ccc(S(=O)(=O)[O-])cc6)c6ccc([nH]6)c(-c6ccc(S(=O)(=O)[O-])cc6)c6nc(c(-c7ccc(S(=O)(=O)[O-])cc7)c7ccc4[nH]7)C=C6)C=C5)cc3)s2)C1
REMARK SMILES IDX 17 1 16 2 15 3 13 4 14 5 12 7 8 8 9 9 82 10 10 11 11 12 7 13
REMARK SMILES IDX 3 14 4 15 83 16 5 18 6 19 2 20 1 21 18 22 19 23 20 24 21 26
REMARK SMILES IDX 22 27 23 28 81 29 24 30 80 31 25 32 26 33 27 34 74 35 28 36
REMARK SMILES IDX 79 37 73 38 75 39 29 40 78 41 72 42 71 43 30 45 60 46 41 47
REMARK SMILES IDX 59 48 42 49 45 50 58 51 76 52 43 53 44 54 57 56 77 57 46 58
REMARK SMILES IDX 31 59 32 60 40 61 33 62 39 63 34 64 35 65 36 66 37 67 38 68
REMARK SMILES IDX 61 69 62 70 70 71 63 72 69 73 64 74 65 75 66 76 67 77 68 78
REMARK SMILES IDX 47 79 48 80 56 81 49 82 55 83 50 84 51 85 52 86 53 87 54 88
REMARK H PARENT 15 6 3 17 19 25 75 44 45 55
REMARK Flexibility Score: inf
ROOT
ATOM      1  C   UNL A   1      32.024  27.861  27.648  1.00  0.00     0.042 C 
ENDROOT
BRANCH   1   2
ATOM      2  C   UNL A   1      31.351  27.111  26.503  1.00  0.00     0.118 C 
BRANCH   2   3
ATOM      3  N   UNL A   1      32.054  27.377  25.271  1.00  0.00    -0.351 N 
ATOM      4  C   UNL A   1      32.694  26.547  24.396  1.00  0.00     0.263 C 
ATOM      5  O   UNL A   1      33.234  27.126  23.441  1.00  0.00    -0.268 OA
ATOM      6  H   UNL A   1      32.078  28.328  25.017  1.00  0.00     0.163 HD
BRANCH   4   7
ATOM      7  C   UNL A   1      32.672  25.104  24.512  1.00  0.00     0.115 A 
ATOM      8  C   UNL A   1      33.226  22.904  25.443  1.00  0.00     0.128 A 
ATOM      9  N   UNL A   1      32.181  22.818  24.645  1.00  0.00    -0.243 NA
ATOM     10  S   UNL A   1      33.956  24.446  25.439  1.00  0.00    -0.110 S 
ATOM     11  C   UNL A   1      31.851  24.062  24.104  1.00  0.00     0.062 A 
ATOM     12  C   UNL A   1      30.636  24.068  23.250  1.00  0.00     0.068 C 
BRANCH   8  13
ATOM     13  C   UNL A   1      33.720  21.759  26.302  1.00  0.00     0.232 C 
ATOM     14  N   UNL A   1      36.213  21.435  25.775  1.00  0.00    -0.331 N 
ATOM     15  C   UNL A   1      35.810  20.253  25.002  1.00  0.00     0.291 C 
ATOM     16  C   UNL A   1      35.193  21.840  26.745  1.00  0.00     0.302 C 
ATOM     17  H   UNL A   1      36.979  21.170  26.394  1.00  0.00     0.348 HD
ATOM     18  C   UNL A   1      34.304  20.039  24.723  1.00  0.00     0.222 C 
ATOM     19  O   UNL A   1      33.403  20.474  25.740  1.00  0.00    -0.359 OA
BRANCH  14  20
ATOM     20  C   UNL A   1      36.926  22.453  25.003  1.00  0.00     0.258 C 
ATOM     21  C   UNL A   1      37.634  23.548  25.798  1.00  0.00     0.071 C 
ENDBRANCH  14  20
ENDBRANCH   8  13
ENDBRANCH   4   7
ENDBRANCH   2   3
ENDBRANCH   1   2
BRANCH   1  22
ATOM     22  C   UNL A   1      33.385  28.429  27.266  1.00  0.00     0.118 C 
BRANCH  22  23
ATOM     23  N   UNL A   1      33.381  29.878  27.298  1.00  0.00    -0.352 N 
ATOM     24  C   UNL A   1      34.299  30.742  27.847  1.00  0.00     0.251 C 
ATOM     25  H   UNL A   1      32.607  30.306  26.865  1.00  0.00     0.163 HD
ATOM     26  O   UNL A   1      33.966  31.911  28.062  1.00  0.00    -0.269 OA
BRANCH  24  27
ATOM     27  C   UNL A   1      35.668  30.288  28.178  1.00  0.00     0.039 A 
ATOM     28  C   UNL A   1      35.936  29.825  29.469  1.00  0.00     0.014 A 
ATOM     29  C   UNL A   1      36.705  30.381  27.246  1.00  0.00     0.014 A 
ATOM     30  C   UNL A   1      37.231  29.426  29.813  1.00  0.00     0.010 A 
ATOM     31  C   UNL A   1      37.974  29.903  27.561  1.00  0.00     0.010 A 
ATOM     32  C   UNL A   1      38.258  29.444  28.855  1.00  0.00    -0.014 A 
BRANCH  32  33
ATOM     33  C   UNL A   1      39.643  29.030  29.194  1.00  0.00     0.031 A 
ATOM     34  C   UNL A   1      40.582  30.010  29.849  1.00  0.00     0.074 A 
ATOM     35  C   UNL A   1      40.077  27.800  28.854  1.00  0.00     0.049 A 
ATOM     36  N   UNL A   1      41.849  29.869  30.143  1.00  0.00    -0.248 NA
ATOM     37  C   UNL A   1      40.032  31.333  30.188  1.00  0.00     0.031 C 
ATOM     38  C   UNL A   1      39.277  26.775  28.177  1.00  0.00     0.029 A 
ATOM     39  N   UNL A   1      41.303  27.206  29.021  1.00  0.00    -0.354 N 
ATOM     40  C   UNL A   1      42.252  31.090  30.673  1.00  0.00     0.074 A 
ATOM     41  C   UNL A   1      41.109  31.973  30.619  1.00  0.00     0.031 C 
ATOM     42  C   UNL A   1      40.028  25.674  28.007  1.00  0.00     0.029 A 
ATOM     43  C   UNL A   1      41.368  25.925  28.527  1.00  0.00     0.049 A 
ATOM     44  H   UNL A   1      42.064  27.656  29.454  1.00  0.00     0.167 HD
ATOM     45  C   UNL A   1      43.460  31.440  31.176  1.00  0.00     0.031 A 
ATOM     46  C   UNL A   1      42.392  25.052  28.490  1.00  0.00     0.031 A 
ATOM     47  C   UNL A   1      44.586  30.549  31.256  1.00  0.00     0.049 A 
ATOM     48  C   UNL A   1      43.717  25.453  29.079  1.00  0.00     0.074 A 
ATOM     49  C   UNL A   1      45.834  30.784  31.806  1.00  0.00     0.029 A 
ATOM     50  N   UNL A   1      44.598  29.248  30.776  1.00  0.00    -0.354 N 
ATOM     51  N   UNL A   1      44.062  26.594  29.627  1.00  0.00    -0.248 NA
ATOM     52  C   UNL A   1      44.786  24.445  29.056  1.00  0.00     0.031 C 
ATOM     53  C   UNL A   1      46.614  29.638  31.624  1.00  0.00     0.029 A 
ATOM     54  C   UNL A   1      45.836  28.671  31.004  1.00  0.00     0.049 A 
ATOM     55  H   UNL A   1      43.839  28.800  30.338  1.00  0.00     0.167 HD
ATOM     56  C   UNL A   1      45.381  26.433  30.036  1.00  0.00     0.074 A 
ATOM     57  C   UNL A   1      45.765  25.081  29.685  1.00  0.00     0.031 C 
ATOM     58  C   UNL A   1      46.199  27.324  30.648  1.00  0.00     0.031 A 
BRANCH  45  59
ATOM     59  C   UNL A   1      43.625  32.851  31.679  1.00  0.00    -0.014 A 
ATOM     60  C   UNL A   1      44.039  33.885  30.819  1.00  0.00     0.010 A 
ATOM     61  C   UNL A   1      43.331  33.155  33.020  1.00  0.00     0.010 A 
ATOM     62  C   UNL A   1      44.198  35.187  31.302  1.00  0.00     0.020 A 
ATOM     63  C   UNL A   1      43.463  34.461  33.501  1.00  0.00     0.020 A 
ATOM     64  C   UNL A   1      43.914  35.465  32.642  1.00  0.00     0.054 A 
BRANCH  64  65
ATOM     65  S   UNL A   1      44.112  37.167  33.239  1.00  0.00     0.124 S 
ATOM     66  O   UNL A   1      45.344  37.071  34.018  1.00  0.00    -0.237 OA
ATOM     67  O   UNL A   1      44.212  37.933  31.999  1.00  0.00    -0.237 OA
ATOM     68  O   UNL A   1      42.900  37.405  34.018  1.00  0.00    -0.744 OA
ENDBRANCH  64  65
ENDBRANCH  45  59
BRANCH  46  69
ATOM     69  C   UNL A   1      42.196  23.704  27.892  1.00  0.00    -0.014 A 
ATOM     70  C   UNL A   1      42.524  23.468  26.546  1.00  0.00     0.010 A 
ATOM     71  C   UNL A   1      41.708  22.642  28.674  1.00  0.00     0.010 A 
ATOM     72  C   UNL A   1      42.354  22.197  25.988  1.00  0.00     0.020 A 
ATOM     73  C   UNL A   1      41.561  21.364  28.127  1.00  0.00     0.020 A 
ATOM     74  C   UNL A   1      41.876  21.152  26.783  1.00  0.00     0.054 A 
BRANCH  74  75
ATOM     75  S   UNL A   1      41.722  19.497  26.056  1.00  0.00     0.124 S 
ATOM     76  O   UNL A   1      42.604  19.591  24.897  1.00  0.00    -0.237 OA
ATOM     77  O   UNL A   1      42.188  18.632  27.137  1.00  0.00    -0.237 OA
ATOM     78  O   UNL A   1      40.296  19.388  25.754  1.00  0.00    -0.744 OA
ENDBRANCH  74  75
ENDBRANCH  46  69
BRANCH  58  79
ATOM     79  C   UNL A   1      47.583  26.857  31.006  1.00  0.00    -0.014 A 
ATOM     80  C   UNL A   1      48.667  27.061  30.134  1.00  0.00     0.010 A 
ATOM     81  C   UNL A   1      47.809  26.257  32.258  1.00  0.00     0.010 A 
ATOM     82  C   UNL A   1      49.950  26.646  30.498  1.00  0.00     0.020 A 
ATOM     83  C   UNL A   1      49.095  25.862  32.634  1.00  0.00     0.020 A 
ATOM     84  C   UNL A   1      50.156  26.047  31.745  1.00  0.00     0.054 A 
BRANCH  84  85
ATOM     85  S   UNL A   1      51.839  25.557  32.214  1.00  0.00     0.124 S 
ATOM     86  O   UNL A   1      51.962  26.139  33.548  1.00  0.00    -0.237 OA
ATOM     87  O   UNL A   1      51.774  24.099  32.167  1.00  0.00    -0.237 OA
ATOM     88  O   UNL A   1      52.676  26.171  31.186  1.00  0.00    -0.744 OA
ENDBRANCH  84  85
ENDBRANCH  58  79
ENDBRANCH  32  33
ENDBRANCH  24  27
ENDBRANCH  22  23
ENDBRANCH   1  22
TORSDOF 15
ENDMDL
MODEL 3
REMARK VINA RESULT:     -10.5      4.557     10.417
REMARK SMILES CC[N@@H+]1CCO[C@H](c2nc(C)c(C(=O)NCCCNC(=O)c3ccc(-c4c5nc(c(-c6ccc(S(=O)(=O)[O-])cc6)c6ccc([nH]6)c(-c6ccc(S(=O)(=O)[O-])cc6)c6nc(c(-c7ccc(S(=O)(=O)[O-])cc7)c7ccc4[nH]7)C=C6)C=C5)cc3)s2)C1
REMARK SMILES IDX 17 1 16 2 15 3 13 4 14 5 12 7 8 8 9 9 82 10 10 11 11 12 7 13
REMARK SMILES IDX 3 14 4 15 83 16 5 18 6 19 2 20 1 21 18 22 19 23 20 24 21 26
REMARK SMILES IDX 22 27 23 28 81 29 24 30 80 31 25 32 26 33 27 34 74 35 28 36
REMARK SMILES IDX 79 37 73 38 75 39 29 40 78 41 72 42 71 43 30 45 60 46 41 47
REMARK SMILES IDX 59 48 42 49 45 50 58 51 76 52 43 53 44 54 57 56 77 57 46 58
REMARK SMILES IDX 31 59 32 60 40 61 33 62 39 63 34 64 35 65 36 66 37 67 38 68
REMARK SMILES IDX 61 69 62 70 70 71 63 72 69 73 64 74 65 75 66 76 67 77 68 78
REMARK SMILES IDX 47 79 48 80 56 81 49 82 55 83 50 84 51 85 52 86 53 87 54 88
REMARK H PARENT 15 6 3 17 19 25 75 44 45 55
REMARK Flexibility Score: inf
ROOT
ATOM      1  C   UNL A   1      37.418  23.856  25.456  1.00  0.00     0.042 C 
ENDROOT
BRANCH   1   2
ATOM      2  C   UNL A   1      35.947  24.038  25.815  1.00  0.00     0.118 C 
BRANCH   2   3
ATOM      3  N   UNL A   1      35.467  22.861  26.500  1.00  0.00    -0.351 N 
ATOM      4  C   UNL A   1      34.215  22.330  26.621  1.00  0.00     0.263 C 
ATOM      5  O   UNL A   1      34.155  21.312  27.326  1.00  0.00    -0.268 OA
ATOM      6  H   UNL A   1      36.169  22.351  26.965  1.00  0.00     0.163 HD
BRANCH   4   7
ATOM      7  C   UNL A   1      33.063  22.849  25.914  1.00  0.00     0.115 A 
ATOM      8  C   UNL A   1      31.140  24.313  25.496  1.00  0.00     0.128 A 
ATOM      9  N   UNL A   1      31.471  23.661  24.401  1.00  0.00    -0.243 NA
ATOM     10  S   UNL A   1      32.018  23.815  26.871  1.00  0.00    -0.110 S 
ATOM     11  C   UNL A   1      32.565  22.820  24.619  1.00  0.00     0.062 A 
ATOM     12  C   UNL A   1      33.050  22.103  23.414  1.00  0.00     0.068 C 
BRANCH   8  13
ATOM     13  C   UNL A   1      30.104  25.416  25.534  1.00  0.00     0.232 C 
ATOM     14  N   UNL A   1      30.578  26.972  23.547  1.00  0.00    -0.331 N 
ATOM     15  C   UNL A   1      31.141  27.913  24.525  1.00  0.00     0.291 C 
ATOM     16  C   UNL A   1      29.685  25.991  24.168  1.00  0.00     0.302 C 
ATOM     17  H   UNL A   1      29.926  27.481  22.950  1.00  0.00     0.348 HD
ATOM     18  C   UNL A   1      31.376  27.412  25.971  1.00  0.00     0.222 C 
ATOM     19  O   UNL A   1      30.442  26.455  26.468  1.00  0.00    -0.359 OA
BRANCH  14  20
ATOM     20  C   UNL A   1      31.512  26.547  22.504  1.00  0.00     0.258 C 
ATOM     21  C   UNL A   1      32.997  26.568  22.862  1.00  0.00     0.071 C 
ENDBRANCH  14  20
ENDBRANCH   8  13
ENDBRANCH   4   7
ENDBRANCH   2   3
ENDBRANCH   1   2
BRANCH   1  22
ATOM     22  C   UNL A   1      38.352  24.116  26.632  1.00  0.00     0.118 C 
BRANCH  22  23
ATOM     23  N   UNL A   1      39.742  24.049  26.228  1.00  0.00    -0.352 N 
ATOM     24  C   UNL A   1      40.765  24.935  26.469  1.00  0.00     0.251 C 
ATOM     25  H   UNL A   1      39.989  23.253  25.704  1.00  0.00     0.163 HD
ATOM     26  O   UNL A   1      41.785  24.873  25.777  1.00  0.00    -0.269 OA
BRANCH  24  27
ATOM     27  C   UNL A   1      40.656  25.951  27.540  1.00  0.00     0.039 A 
ATOM     28  C   UNL A   1      41.522  27.047  27.525  1.00  0.00     0.014 A 
ATOM     29  C   UNL A   1      39.754  25.794  28.595  1.00  0.00     0.014 A 
ATOM     30  C   UNL A   1      41.460  28.000  28.547  1.00  0.00     0.010 A 
ATOM     31  C   UNL A   1      39.633  26.785  29.565  1.00  0.00     0.010 A 
ATOM     32  C   UNL A   1      40.502  27.886  29.566  1.00  0.00    -0.014 A 
BRANCH  32  33
ATOM     33  C   UNL A   1      40.415  28.880  30.666  1.00  0.00     0.031 A 
ATOM     34  C   UNL A   1      41.302  28.740  31.876  1.00  0.00     0.074 A 
ATOM     35  C   UNL A   1      39.499  29.867  30.609  1.00  0.00     0.049 A 
ATOM     36  N   UNL A   1      41.318  29.451  32.975  1.00  0.00    -0.248 NA
ATOM     37  C   UNL A   1      42.277  27.637  31.863  1.00  0.00     0.031 C 
ATOM     38  C   UNL A   1      38.553  30.082  29.510  1.00  0.00     0.029 A 
ATOM     39  N   UNL A   1      39.204  30.866  31.501  1.00  0.00    -0.354 N 
ATOM     40  C   UNL A   1      42.279  28.864  33.791  1.00  0.00     0.074 A 
ATOM     41  C   UNL A   1      42.794  27.715  33.081  1.00  0.00     0.031 C 
ATOM     42  C   UNL A   1      37.799  31.159  29.785  1.00  0.00     0.029 A 
ATOM     43  C   UNL A   1      38.180  31.687  31.092  1.00  0.00     0.049 A 
ATOM     44  H   UNL A   1      39.680  30.984  32.354  1.00  0.00     0.167 HD
ATOM     45  C   UNL A   1      42.709  29.257  35.014  1.00  0.00     0.031 A 
ATOM     46  C   UNL A   1      37.607  32.743  31.700  1.00  0.00     0.031 A 
ATOM     47  C   UNL A   1      42.216  30.419  35.704  1.00  0.00     0.049 A 
ATOM     48  C   UNL A   1      38.119  33.178  33.046  1.00  0.00     0.074 A 
ATOM     49  C   UNL A   1      42.631  30.940  36.917  1.00  0.00     0.029 A 
ATOM     50  N   UNL A   1      41.204  31.244  35.237  1.00  0.00    -0.354 N 
ATOM     51  N   UNL A   1      39.068  32.643  33.777  1.00  0.00    -0.248 NA
ATOM     52  C   UNL A   1      37.492  34.364  33.643  1.00  0.00     0.031 C 
ATOM     53  C   UNL A   1      41.841  32.059  37.203  1.00  0.00     0.029 A 
ATOM     54  C   UNL A   1      40.968  32.263  36.144  1.00  0.00     0.049 A 
ATOM     55  H   UNL A   1      40.724  31.123  34.387  1.00  0.00     0.167 HD
ATOM     56  C   UNL A   1      39.169  33.442  34.910  1.00  0.00     0.074 A 
ATOM     57  C   UNL A   1      38.194  34.504  34.760  1.00  0.00     0.031 C 
ATOM     58  C   UNL A   1      39.995  33.310  35.977  1.00  0.00     0.031 A 
BRANCH  45  59
ATOM     59  C   UNL A   1      43.766  28.419  35.685  1.00  0.00    -0.014 A 
ATOM     60  C   UNL A   1      43.424  27.267  36.418  1.00  0.00     0.010 A 
ATOM     61  C   UNL A   1      45.123  28.768  35.555  1.00  0.00     0.010 A 
ATOM     62  C   UNL A   1      44.414  26.506  37.044  1.00  0.00     0.020 A 
ATOM     63  C   UNL A   1      46.119  27.993  36.158  1.00  0.00     0.020 A 
ATOM     64  C   UNL A   1      45.756  26.877  36.914  1.00  0.00     0.054 A 
BRANCH  64  65
ATOM     65  S   UNL A   1      47.023  25.861  37.722  1.00  0.00     0.124 S 
ATOM     66  O   UNL A   1      46.290  25.317  38.862  1.00  0.00    -0.237 OA
ATOM     67  O   UNL A   1      47.373  24.896  36.683  1.00  0.00    -0.237 OA
ATOM     68  O   UNL A   1      48.074  26.819  38.056  1.00  0.00    -0.744 OA
ENDBRANCH  64  65
ENDBRANCH  45  59
BRANCH  46  69
ATOM     69  C   UNL A   1      36.499  33.474  31.029  1.00  0.00    -0.014 A 
ATOM     70  C   UNL A   1      36.630  33.897  29.695  1.00  0.00     0.010 A 
ATOM     71  C   UNL A   1      35.294  33.724  31.711  1.00  0.00     0.010 A 
ATOM     72  C   UNL A   1      35.582  34.570  29.059  1.00  0.00     0.020 A 
ATOM     73  C   UNL A   1      34.235  34.374  31.070  1.00  0.00     0.020 A 
ATOM     74  C   UNL A   1      34.391  34.802  29.750  1.00  0.00     0.054 A 
BRANCH  74  75
ATOM     75  S   UNL A   1      33.021  35.621  28.886  1.00  0.00     0.124 S 
ATOM     76  O   UNL A   1      32.471  34.531  28.088  1.00  0.00    -0.237 OA
ATOM     77  O   UNL A   1      32.183  36.084  29.989  1.00  0.00    -0.237 OA
ATOM     78  O   UNL A   1      33.682  36.683  28.129  1.00  0.00    -0.744 OA
ENDBRANCH  74  75
ENDBRANCH  46  69
BRANCH  58  79
ATOM     79  C   UNL A   1      39.902  34.356  37.055  1.00  0.00    -0.014 A 
ATOM     80  C   UNL A   1      40.639  35.550  36.972  1.00  0.00     0.010 A 
ATOM     81  C   UNL A   1      39.021  34.162  38.133  1.00  0.00     0.010 A 
ATOM     82  C   UNL A   1      40.516  36.522  37.969  1.00  0.00     0.020 A 
ATOM     83  C   UNL A   1      38.878  35.142  39.118  1.00  0.00     0.020 A 
ATOM     84  C   UNL A   1      39.638  36.311  39.037  1.00  0.00     0.054 A 
BRANCH  84  85
ATOM     85  S   UNL A   1      39.462  37.606  40.294  1.00  0.00     0.124 S 
ATOM     86  O   UNL A   1      40.836  38.083  40.431  1.00  0.00    -0.237 OA
ATOM     87  O   UNL A   1      38.531  38.540  39.666  1.00  0.00    -0.237 OA
ATOM     88  O   UNL A   1      38.931  36.892  41.454  1.00  0.00    -0.744 OA
ENDBRANCH  84  85
ENDBRANCH  58  79
ENDBRANCH  32  33
ENDBRANCH  24  27
ENDBRANCH  22  23
ENDBRANCH   1  22
TORSDOF 15
ENDMDL
