MODEL 1
REMARK VINA RESULT:      -9.6      0.000      0.000
REMARK SMILES COc1ccc(C(=O)CCCC(=O)NCCCNC(=O)c2ccc(-c3c4nc(c(-c5ccc(S(=O)(=O)[O-])cc5)c5ccc([nH]5)c(-c5ccc(S(=O)(=O)[O-])cc5)c5nc(c(-c6ccc(S(=O)(=O)[O-])cc6)c6ccc3[nH]6)C=C5)C=C4)cc2)cc1
REMARK SMILES IDX 15 1 14 2 12 3 13 4 11 6 10 7 9 8 7 9 8 10 6 11 3 12 4 13
REMARK SMILES IDX 82 14 5 15 81 16 2 17 1 18 16 19 17 20 18 21 19 22 20 24
REMARK SMILES IDX 21 25 22 26 80 27 23 28 79 29 24 30 25 31 26 32 73 33 27 34
REMARK SMILES IDX 78 35 72 36 74 37 28 38 77 39 71 40 70 41 29 43 59 44 40 45
REMARK SMILES IDX 58 46 41 47 44 48 57 49 75 50 42 51 43 52 56 54 76 55 45 56
REMARK SMILES IDX 30 57 31 58 39 59 32 60 38 61 33 62 34 63 35 64 36 65 37 66
REMARK SMILES IDX 60 67 61 68 69 69 62 70 68 71 63 72 64 73 65 74 66 75 67 76
REMARK SMILES IDX 46 77 47 78 55 79 48 80 54 81 49 82 50 83 51 84 52 85 53 86
REMARK H PARENT 14 5 18 23 74 42 44 53
REMARK Flexibility Score: inf
ROOT
ATOM      1  C   UNL A   1      42.239  20.643  27.697  1.00  0.00     0.117 C 
ENDROOT
BRANCH   1   2
ATOM      2  N   UNL A   1      42.374  19.257  27.295  1.00  0.00    -0.356 N 
ATOM      3  C   UNL A   1      42.888  18.613  26.222  1.00  0.00     0.220 C 
ATOM      4  O   UNL A   1      42.787  17.379  26.255  1.00  0.00    -0.275 OA
ATOM      5  H   UNL A   1      42.004  18.636  27.963  1.00  0.00     0.163 HD
BRANCH   3   6
ATOM      6  C   UNL A   1      43.683  19.247  25.083  1.00  0.00     0.100 C 
BRANCH   6   7
ATOM      7  C   UNL A   1      44.897  20.150  25.292  1.00  0.00     0.018 C 
BRANCH   7   8
ATOM      8  C   UNL A   1      45.228  21.343  24.402  1.00  0.00     0.081 C 
BRANCH   8   9
ATOM      9  C   UNL A   1      44.437  22.659  24.426  1.00  0.00     0.162 C 
ATOM     10  O   UNL A   1      43.313  22.676  23.911  1.00  0.00    -0.294 OA
BRANCH   9  11
ATOM     11  C   UNL A   1      44.874  23.917  25.124  1.00  0.00     0.018 A 
ATOM     12  C   UNL A   1      45.641  26.403  26.252  1.00  0.00     0.118 A 
ATOM     13  C   UNL A   1      44.397  26.259  25.643  1.00  0.00     0.047 A 
ATOM     14  C   UNL A   1      46.458  25.291  26.378  1.00  0.00     0.047 A 
ATOM     15  C   UNL A   1      44.022  25.031  25.076  1.00  0.00     0.015 A 
ATOM     16  C   UNL A   1      46.067  24.071  25.821  1.00  0.00     0.015 A 
BRANCH  12  17
ATOM     17  O   UNL A   1      45.964  27.647  26.716  1.00  0.00    -0.497 OA
ATOM     18  C   UNL A   1      47.146  28.196  26.135  1.00  0.00     0.278 C 
ENDBRANCH  12  17
ENDBRANCH   9  11
ENDBRANCH   8   9
ENDBRANCH   7   8
ENDBRANCH   6   7
ENDBRANCH   3   6
ENDBRANCH   1   2
BRANCH   1  19
ATOM     19  C   UNL A   1      40.832  21.167  27.452  1.00  0.00     0.042 C 
BRANCH  19  20
ATOM     20  C   UNL A   1      40.682  21.773  26.071  1.00  0.00     0.118 C 
BRANCH  20  21
ATOM     21  N   UNL A   1      39.288  22.067  25.749  1.00  0.00    -0.352 N 
ATOM     22  C   UNL A   1      38.537  23.165  26.104  1.00  0.00     0.251 C 
ATOM     23  H   UNL A   1      38.823  21.389  25.207  1.00  0.00     0.163 HD
ATOM     24  O   UNL A   1      37.326  23.179  25.898  1.00  0.00    -0.269 OA
BRANCH  22  25
ATOM     25  C   UNL A   1      39.201  24.307  26.765  1.00  0.00     0.039 A 
ATOM     26  C   UNL A   1      40.008  25.168  26.018  1.00  0.00     0.014 A 
ATOM     27  C   UNL A   1      38.966  24.559  28.117  1.00  0.00     0.014 A 
ATOM     28  C   UNL A   1      40.509  26.331  26.610  1.00  0.00     0.010 A 
ATOM     29  C   UNL A   1      39.364  25.768  28.668  1.00  0.00     0.010 A 
ATOM     30  C   UNL A   1      40.152  26.662  27.927  1.00  0.00    -0.014 A 
BRANCH  30  31
ATOM     31  C   UNL A   1      40.615  27.906  28.596  1.00  0.00     0.031 A 
ATOM     32  C   UNL A   1      42.008  27.949  29.167  1.00  0.00     0.074 A 
ATOM     33  C   UNL A   1      39.769  28.937  28.792  1.00  0.00     0.049 A 
ATOM     34  N   UNL A   1      42.546  28.826  29.974  1.00  0.00    -0.248 NA
ATOM     35  C   UNL A   1      42.897  26.824  28.825  1.00  0.00     0.031 C 
ATOM     36  C   UNL A   1      38.384  29.010  28.320  1.00  0.00     0.029 A 
ATOM     37  N   UNL A   1      39.952  30.124  29.458  1.00  0.00    -0.354 N 
ATOM     38  C   UNL A   1      43.811  28.331  30.274  1.00  0.00     0.074 A 
ATOM     39  C   UNL A   1      43.940  27.055  29.607  1.00  0.00     0.031 C 
ATOM     40  C   UNL A   1      37.854  30.190  28.686  1.00  0.00     0.029 A 
ATOM     41  C   UNL A   1      38.841  30.934  29.461  1.00  0.00     0.049 A 
ATOM     42  H   UNL A   1      40.799  30.371  29.894  1.00  0.00     0.167 HD
ATOM     43  C   UNL A   1      44.790  28.898  31.019  1.00  0.00     0.031 A 
ATOM     44  C   UNL A   1      38.639  32.138  30.033  1.00  0.00     0.031 A 
ATOM     45  C   UNL A   1      44.679  30.192  31.631  1.00  0.00     0.049 A 
ATOM     46  C   UNL A   1      39.755  32.768  30.823  1.00  0.00     0.074 A 
ATOM     47  C   UNL A   1      45.628  30.884  32.361  1.00  0.00     0.029 A 
ATOM     48  N   UNL A   1      43.556  31.003  31.557  1.00  0.00    -0.354 N 
ATOM     49  N   UNL A   1      40.950  32.293  31.083  1.00  0.00    -0.248 NA
ATOM     50  C   UNL A   1      39.499  34.100  31.390  1.00  0.00     0.031 C 
ATOM     51  C   UNL A   1      45.071  32.108  32.747  1.00  0.00     0.029 A 
ATOM     52  C   UNL A   1      43.791  32.192  32.222  1.00  0.00     0.049 A 
ATOM     53  H   UNL A   1      42.717  30.767  31.100  1.00  0.00     0.167 HD
ATOM     54  C   UNL A   1      41.599  33.283  31.812  1.00  0.00     0.074 A 
ATOM     55  C   UNL A   1      40.668  34.383  31.949  1.00  0.00     0.031 C 
ATOM     56  C   UNL A   1      42.855  33.283  32.321  1.00  0.00     0.031 A 
BRANCH  43  57
ATOM     57  C   UNL A   1      46.064  28.117  31.195  1.00  0.00    -0.014 A 
ATOM     58  C   UNL A   1      47.132  28.263  30.291  1.00  0.00     0.010 A 
ATOM     59  C   UNL A   1      46.201  27.233  32.280  1.00  0.00     0.010 A 
ATOM     60  C   UNL A   1      48.292  27.498  30.436  1.00  0.00     0.020 A 
ATOM     61  C   UNL A   1      47.373  26.489  32.447  1.00  0.00     0.020 A 
ATOM     62  C   UNL A   1      48.401  26.610  31.510  1.00  0.00     0.054 A 
BRANCH  62  63
ATOM     63  S   UNL A   1      49.921  25.635  31.680  1.00  0.00     0.124 S 
ATOM     64  O   UNL A   1      49.558  24.698  32.740  1.00  0.00    -0.237 OA
ATOM     65  O   UNL A   1      50.079  25.048  30.352  1.00  0.00    -0.237 OA
ATOM     66  O   UNL A   1      50.930  26.626  32.042  1.00  0.00    -0.744 OA
ENDBRANCH  62  63
ENDBRANCH  43  57
BRANCH  44  67
ATOM     67  C   UNL A   1      37.341  32.844  29.857  1.00  0.00    -0.014 A 
ATOM     68  C   UNL A   1      36.400  32.860  30.902  1.00  0.00     0.010 A 
ATOM     69  C   UNL A   1      37.036  33.503  28.653  1.00  0.00     0.010 A 
ATOM     70  C   UNL A   1      35.168  33.499  30.738  1.00  0.00     0.020 A 
ATOM     71  C   UNL A   1      35.814  34.164  28.494  1.00  0.00     0.020 A 
ATOM     72  C   UNL A   1      34.881  34.146  29.534  1.00  0.00     0.054 A 
BRANCH  72  73
ATOM     73  S   UNL A   1      33.290  35.001  29.355  1.00  0.00     0.124 S 
ATOM     74  O   UNL A   1      33.711  36.340  28.955  1.00  0.00    -0.237 OA
ATOM     75  O   UNL A   1      32.621  34.213  28.322  1.00  0.00    -0.237 OA
ATOM     76  O   UNL A   1      32.698  34.900  30.686  1.00  0.00    -0.744 OA
ENDBRANCH  72  73
ENDBRANCH  44  67
BRANCH  56  77
ATOM     77  C   UNL A   1      43.324  34.528  33.020  1.00  0.00    -0.014 A 
ATOM     78  C   UNL A   1      43.933  35.576  32.310  1.00  0.00     0.010 A 
ATOM     79  C   UNL A   1      43.069  34.680  34.395  1.00  0.00     0.010 A 
ATOM     80  C   UNL A   1      44.292  36.754  32.969  1.00  0.00     0.020 A 
ATOM     81  C   UNL A   1      43.407  35.864  35.053  1.00  0.00     0.020 A 
ATOM     82  C   UNL A   1      44.024  36.892  34.336  1.00  0.00     0.054 A 
BRANCH  82  83
ATOM     83  S   UNL A   1      44.432  38.459  35.154  1.00  0.00     0.124 S 
ATOM     84  O   UNL A   1      43.638  39.416  34.388  1.00  0.00    -0.237 OA
ATOM     85  O   UNL A   1      43.991  38.231  36.527  1.00  0.00    -0.237 OA
ATOM     86  O   UNL A   1      45.879  38.571  34.982  1.00  0.00    -0.744 OA
ENDBRANCH  82  83
ENDBRANCH  56  77
ENDBRANCH  30  31
ENDBRANCH  22  25
ENDBRANCH  20  21
ENDBRANCH  19  20
ENDBRANCH   1  19
TORSDOF 18
ENDMDL
MODEL 2
REMARK VINA RESULT:      -9.4      3.858     10.841
REMARK SMILES COc1ccc(C(=O)CCCC(=O)NCCCNC(=O)c2ccc(-c3c4nc(c(-c5ccc(S(=O)(=O)[O-])cc5)c5ccc([nH]5)c(-c5ccc(S(=O)(=O)[O-])cc5)c5nc(c(-c6ccc(S(=O)(=O)[O-])cc6)c6ccc3[nH]6)C=C5)C=C4)cc2)cc1
REMARK SMILES IDX 15 1 14 2 12 3 13 4 11 6 10 7 9 8 7 9 8 10 6 11 3 12 4 13
REMARK SMILES IDX 82 14 5 15 81 16 2 17 1 18 16 19 17 20 18 21 19 22 20 24
REMARK SMILES IDX 21 25 22 26 80 27 23 28 79 29 24 30 25 31 26 32 73 33 27 34
REMARK SMILES IDX 78 35 72 36 74 37 28 38 77 39 71 40 70 41 29 43 59 44 40 45
REMARK SMILES IDX 58 46 41 47 44 48 57 49 75 50 42 51 43 52 56 54 76 55 45 56
REMARK SMILES IDX 30 57 31 58 39 59 32 60 38 61 33 62 34 63 35 64 36 65 37 66
REMARK SMILES IDX 60 67 61 68 69 69 62 70 68 71 63 72 64 73 65 74 66 75 67 76
REMARK SMILES IDX 46 77 47 78 55 79 48 80 54 81 49 82 50 83 51 84 52 85 53 86
REMARK H PARENT 14 5 18 23 74 42 44 53
REMARK Flexibility Score: inf
ROOT
ATOM      1  C   UNL A   1      31.881  27.647  26.046  1.00  0.00     0.117 C 
ENDROOT
BRANCH   1   2
ATOM      2  N   UNL A   1      31.199  28.145  24.869  1.00  0.00    -0.356 N 
ATOM      3  C   UNL A   1      30.370  27.615  23.941  1.00  0.00     0.220 C 
ATOM      4  O   UNL A   1      30.009  28.398  23.053  1.00  0.00    -0.275 OA
ATOM      5  H   UNL A   1      31.383  29.099  24.706  1.00  0.00     0.163 HD
BRANCH   3   6
ATOM      6  C   UNL A   1      29.748  26.220  23.977  1.00  0.00     0.100 C 
BRANCH   6   7
ATOM      7  C   UNL A   1      30.555  24.926  23.903  1.00  0.00     0.018 C 
BRANCH   7   8
ATOM      8  C   UNL A   1      30.556  23.865  24.999  1.00  0.00     0.081 C 
BRANCH   8   9
ATOM      9  C   UNL A   1      31.569  23.846  26.152  1.00  0.00     0.162 C 
ATOM     10  O   UNL A   1      31.245  24.369  27.225  1.00  0.00    -0.294 OA
BRANCH   9  11
ATOM     11  C   UNL A   1      32.899  23.145  26.123  1.00  0.00     0.018 A 
ATOM     12  C   UNL A   1      35.345  21.733  25.869  1.00  0.00     0.118 A 
ATOM     13  C   UNL A   1      34.873  22.521  24.822  1.00  0.00     0.047 A 
ATOM     14  C   UNL A   1      34.647  21.722  27.066  1.00  0.00     0.047 A 
ATOM     15  C   UNL A   1      33.658  23.212  24.945  1.00  0.00     0.015 A 
ATOM     16  C   UNL A   1      33.445  22.424  27.180  1.00  0.00     0.015 A 
BRANCH  12  17
ATOM     17  O   UNL A   1      36.498  21.034  25.648  1.00  0.00    -0.497 OA
ATOM     18  C   UNL A   1      37.375  21.643  24.700  1.00  0.00     0.278 C 
ENDBRANCH  12  17
ENDBRANCH   9  11
ENDBRANCH   8   9
ENDBRANCH   7   8
ENDBRANCH   6   7
ENDBRANCH   3   6
ENDBRANCH   1   2
BRANCH   1  19
ATOM     19  C   UNL A   1      33.305  27.214  25.734  1.00  0.00     0.042 C 
BRANCH  19  20
ATOM     20  C   UNL A   1      34.326  27.981  26.550  1.00  0.00     0.118 C 
BRANCH  20  21
ATOM     21  N   UNL A   1      33.856  29.320  26.899  1.00  0.00    -0.352 N 
ATOM     22  C   UNL A   1      34.470  30.269  27.684  1.00  0.00     0.251 C 
ATOM     23  H   UNL A   1      32.983  29.576  26.523  1.00  0.00     0.163 HD
ATOM     24  O   UNL A   1      33.862  31.282  28.019  1.00  0.00    -0.269 OA
BRANCH  22  25
ATOM     25  C   UNL A   1      35.856  30.036  28.142  1.00  0.00     0.039 A 
ATOM     26  C   UNL A   1      36.087  29.536  29.426  1.00  0.00     0.014 A 
ATOM     27  C   UNL A   1      36.921  30.252  27.268  1.00  0.00     0.014 A 
ATOM     28  C   UNL A   1      37.384  29.172  29.800  1.00  0.00     0.010 A 
ATOM     29  C   UNL A   1      38.184  29.784  27.599  1.00  0.00     0.010 A 
ATOM     30  C   UNL A   1      38.434  29.251  28.872  1.00  0.00    -0.014 A 
BRANCH  30  31
ATOM     31  C   UNL A   1      39.824  28.837  29.196  1.00  0.00     0.031 A 
ATOM     32  C   UNL A   1      40.750  29.837  29.839  1.00  0.00     0.074 A 
ATOM     33  C   UNL A   1      40.287  27.628  28.820  1.00  0.00     0.049 A 
ATOM     34  N   UNL A   1      42.045  29.778  30.007  1.00  0.00    -0.248 NA
ATOM     35  C   UNL A   1      40.141  31.095  30.306  1.00  0.00     0.031 C 
ATOM     36  C   UNL A   1      39.505  26.579  28.160  1.00  0.00     0.029 A 
ATOM     37  N   UNL A   1      41.542  27.083  28.929  1.00  0.00    -0.354 N 
ATOM     38  C   UNL A   1      42.408  31.007  30.548  1.00  0.00     0.074 A 
ATOM     39  C   UNL A   1      41.208  31.808  30.630  1.00  0.00     0.031 C 
ATOM     40  C   UNL A   1      40.291  25.508  27.951  1.00  0.00     0.029 A 
ATOM     41  C   UNL A   1      41.642  25.812  28.412  1.00  0.00     0.049 A 
ATOM     42  H   UNL A   1      42.302  27.557  29.338  1.00  0.00     0.167 HD
ATOM     43  C   UNL A   1      43.627  31.425  30.963  1.00  0.00     0.031 A 
ATOM     44  C   UNL A   1      42.704  24.989  28.314  1.00  0.00     0.031 A 
ATOM     45  C   UNL A   1      44.805  30.605  30.935  1.00  0.00     0.049 A 
ATOM     46  C   UNL A   1      44.042  25.459  28.819  1.00  0.00     0.074 A 
ATOM     47  C   UNL A   1      46.078  30.908  31.380  1.00  0.00     0.029 A 
ATOM     48  N   UNL A   1      44.845  29.303  30.458  1.00  0.00    -0.354 N 
ATOM     49  N   UNL A   1      44.363  26.618  29.343  1.00  0.00    -0.248 NA
ATOM     50  C   UNL A   1      45.159  24.508  28.728  1.00  0.00     0.031 C 
ATOM     51  C   UNL A   1      46.895  29.796  31.153  1.00  0.00     0.029 A 
ATOM     52  C   UNL A   1      46.118  28.787  30.605  1.00  0.00     0.049 A 
ATOM     53  H   UNL A   1      44.080  28.819  30.072  1.00  0.00     0.167 HD
ATOM     54  C   UNL A   1      45.710  26.522  29.676  1.00  0.00     0.074 A 
ATOM     55  C   UNL A   1      46.142  25.192  29.299  1.00  0.00     0.031 C 
ATOM     56  C   UNL A   1      46.517  27.450  30.245  1.00  0.00     0.031 A 
BRANCH  43  57
ATOM     57  C   UNL A   1      43.733  32.829  31.494  1.00  0.00    -0.014 A 
ATOM     58  C   UNL A   1      43.595  33.096  32.868  1.00  0.00     0.010 A 
ATOM     59  C   UNL A   1      43.980  33.896  30.611  1.00  0.00     0.010 A 
ATOM     60  C   UNL A   1      43.646  34.408  33.344  1.00  0.00     0.020 A 
ATOM     61  C   UNL A   1      44.064  35.208  31.087  1.00  0.00     0.020 A 
ATOM     62  C   UNL A   1      43.873  35.457  32.448  1.00  0.00     0.054 A 
BRANCH  62  63
ATOM     63  S   UNL A   1      43.943  37.151  33.093  1.00  0.00     0.124 S 
ATOM     64  O   UNL A   1      43.896  37.940  31.864  1.00  0.00    -0.237 OA
ATOM     65  O   UNL A   1      42.752  37.227  33.934  1.00  0.00    -0.237 OA
ATOM     66  O   UNL A   1      45.213  37.195  33.813  1.00  0.00    -0.744 OA
ENDBRANCH  62  63
ENDBRANCH  43  57
BRANCH  44  67
ATOM     67  C   UNL A   1      42.546  23.624  27.741  1.00  0.00    -0.014 A 
ATOM     68  C   UNL A   1      41.975  22.597  28.514  1.00  0.00     0.010 A 
ATOM     69  C   UNL A   1      42.958  23.342  26.426  1.00  0.00     0.010 A 
ATOM     70  C   UNL A   1      41.844  21.307  27.994  1.00  0.00     0.020 A 
ATOM     71  C   UNL A   1      42.806  22.057  25.894  1.00  0.00     0.020 A 
ATOM     72  C   UNL A   1      42.262  21.043  26.687  1.00  0.00     0.054 A 
BRANCH  72  73
ATOM     73  S   UNL A   1      42.049  19.370  26.018  1.00  0.00     0.124 S 
ATOM     74  O   UNL A   1      42.864  19.423  24.808  1.00  0.00    -0.237 OA
ATOM     75  O   UNL A   1      42.569  18.530  27.095  1.00  0.00    -0.237 OA
ATOM     76  O   UNL A   1      40.608  19.271  25.802  1.00  0.00    -0.744 OA
ENDBRANCH  72  73
ENDBRANCH  44  67
BRANCH  56  77
ATOM     77  C   UNL A   1      47.931  27.048  30.555  1.00  0.00    -0.014 A 
ATOM     78  C   UNL A   1      48.972  27.286  29.643  1.00  0.00     0.010 A 
ATOM     79  C   UNL A   1      48.228  26.501  31.816  1.00  0.00     0.010 A 
ATOM     80  C   UNL A   1      50.290  26.971  29.984  1.00  0.00     0.020 A 
ATOM     81  C   UNL A   1      49.546  26.205  32.169  1.00  0.00     0.020 A 
ATOM     82  C   UNL A   1      50.568  26.435  31.246  1.00  0.00     0.054 A 
BRANCH  82  83
ATOM     83  S   UNL A   1      52.295  26.103  31.693  1.00  0.00     0.124 S 
ATOM     84  O   UNL A   1      52.216  24.740  32.214  1.00  0.00    -0.237 OA
ATOM     85  O   UNL A   1      52.992  26.249  30.418  1.00  0.00    -0.237 OA
ATOM     86  O   UNL A   1      52.600  27.132  32.684  1.00  0.00    -0.744 OA
ENDBRANCH  82  83
ENDBRANCH  56  77
ENDBRANCH  30  31
ENDBRANCH  22  25
ENDBRANCH  20  21
ENDBRANCH  19  20
ENDBRANCH   1  19
TORSDOF 18
ENDMDL
MODEL 3
REMARK VINA RESULT:      -9.2      4.732     11.277
REMARK SMILES COc1ccc(C(=O)CCCC(=O)NCCCNC(=O)c2ccc(-c3c4nc(c(-c5ccc(S(=O)(=O)[O-])cc5)c5ccc([nH]5)c(-c5ccc(S(=O)(=O)[O-])cc5)c5nc(c(-c6ccc(S(=O)(=O)[O-])cc6)c6ccc3[nH]6)C=C5)C=C4)cc2)cc1
REMARK SMILES IDX 15 1 14 2 12 3 13 4 11 6 10 7 9 8 7 9 8 10 6 11 3 12 4 13
REMARK SMILES IDX 82 14 5 15 81 16 2 17 1 18 16 19 17 20 18 21 19 22 20 24
REMARK SMILES IDX 21 25 22 26 80 27 23 28 79 29 24 30 25 31 26 32 73 33 27 34
REMARK SMILES IDX 78 35 72 36 74 37 28 38 77 39 71 40 70 41 29 43 59 44 40 45
REMARK SMILES IDX 58 46 41 47 44 48 57 49 75 50 42 51 43 52 56 54 76 55 45 56
REMARK SMILES IDX 30 57 31 58 39 59 32 60 38 61 33 62 34 63 35 64 36 65 37 66
REMARK SMILES IDX 60 67 61 68 69 69 62 70 68 71 63 72 64 73 65 74 66 75 67 76
REMARK SMILES IDX 46 77 47 78 55 79 48 80 54 81 49 82 50 83 51 84 52 85 53 86
REMARK H PARENT 14 5 18 23 74 42 44 53
REMARK Flexibility Score: inf
ROOT
ATOM      1  C   UNL A   1      37.488  22.025  25.535  1.00  0.00     0.117 C 
ENDROOT
BRANCH   1   2
ATOM      2  N   UNL A   1      37.340  22.552  24.193  1.00  0.00    -0.356 N 
ATOM      3  C   UNL A   1      36.295  22.862  23.392  1.00  0.00     0.220 C 
ATOM      4  O   UNL A   1      36.604  23.284  22.270  1.00  0.00    -0.275 OA
ATOM      5  H   UNL A   1      38.208  22.726  23.762  1.00  0.00     0.163 HD
BRANCH   3   6
ATOM      6  C   UNL A   1      34.821  22.874  23.793  1.00  0.00     0.100 C 
BRANCH   6   7
ATOM      7  C   UNL A   1      33.667  22.786  22.797  1.00  0.00     0.018 C 
BRANCH   7   8
ATOM      8  C   UNL A   1      32.405  21.963  23.035  1.00  0.00     0.081 C 
BRANCH   8   9
ATOM      9  C   UNL A   1      32.223  21.028  24.239  1.00  0.00     0.162 C 
ATOM     10  O   UNL A   1      31.742  21.497  25.277  1.00  0.00    -0.294 OA
BRANCH   9  11
ATOM     11  C   UNL A   1      32.485  19.547  24.231  1.00  0.00     0.018 A 
ATOM     12  C   UNL A   1      33.148  16.793  24.364  1.00  0.00     0.118 A 
ATOM     13  C   UNL A   1      32.954  17.529  25.529  1.00  0.00     0.047 A 
ATOM     14  C   UNL A   1      32.925  17.405  23.141  1.00  0.00     0.047 A 
ATOM     15  C   UNL A   1      32.635  18.894  25.464  1.00  0.00     0.015 A 
ATOM     16  C   UNL A   1      32.595  18.762  23.088  1.00  0.00     0.015 A 
BRANCH  12  17
ATOM     17  O   UNL A   1      33.526  15.489  24.509  1.00  0.00    -0.497 OA
ATOM     18  C   UNL A   1      32.781  14.773  25.495  1.00  0.00     0.278 C 
ENDBRANCH  12  17
ENDBRANCH   9  11
ENDBRANCH   8   9
ENDBRANCH   7   8
ENDBRANCH   6   7
ENDBRANCH   3   6
ENDBRANCH   1   2
BRANCH   1  19
ATOM     19  C   UNL A   1      38.304  20.741  25.550  1.00  0.00     0.042 C 
BRANCH  19  20
ATOM     20  C   UNL A   1      39.609  20.905  26.302  1.00  0.00     0.118 C 
BRANCH  20  21
ATOM     21  N   UNL A   1      40.482  19.743  26.146  1.00  0.00    -0.352 N 
ATOM     22  C   UNL A   1      41.856  19.704  26.076  1.00  0.00     0.251 C 
ATOM     23  H   UNL A   1      40.026  18.873  26.082  1.00  0.00     0.163 HD
ATOM     24  O   UNL A   1      42.431  18.662  25.771  1.00  0.00    -0.269 OA
BRANCH  22  25
ATOM     25  C   UNL A   1      42.625  20.938  26.338  1.00  0.00     0.039 A 
ATOM     26  C   UNL A   1      43.014  21.754  25.273  1.00  0.00     0.014 A 
ATOM     27  C   UNL A   1      42.901  21.317  27.653  1.00  0.00     0.014 A 
ATOM     28  C   UNL A   1      43.605  22.994  25.534  1.00  0.00     0.010 A 
ATOM     29  C   UNL A   1      43.378  22.593  27.911  1.00  0.00     0.010 A 
ATOM     30  C   UNL A   1      43.749  23.442  26.857  1.00  0.00    -0.014 A 
BRANCH  30  31
ATOM     31  C   UNL A   1      44.326  24.768  27.197  1.00  0.00     0.031 A 
ATOM     32  C   UNL A   1      43.408  25.858  27.686  1.00  0.00     0.074 A 
ATOM     33  C   UNL A   1      45.628  25.031  26.966  1.00  0.00     0.049 A 
ATOM     34  N   UNL A   1      43.642  27.136  27.830  1.00  0.00    -0.248 NA
ATOM     35  C   UNL A   1      42.024  25.462  28.004  1.00  0.00     0.031 C 
ATOM     36  C   UNL A   1      46.618  24.075  26.462  1.00  0.00     0.029 A 
ATOM     37  N   UNL A   1      46.340  26.196  27.113  1.00  0.00    -0.354 N 
ATOM     38  C   UNL A   1      42.426  27.699  28.203  1.00  0.00     0.074 A 
ATOM     39  C   UNL A   1      41.448  26.635  28.212  1.00  0.00     0.031 C 
ATOM     40  C   UNL A   1      47.813  24.685  26.371  1.00  0.00     0.029 A 
ATOM     41  C   UNL A   1      47.664  26.084  26.758  1.00  0.00     0.049 A 
ATOM     42  H   UNL A   1      45.940  27.033  27.440  1.00  0.00     0.167 HD
ATOM     43  C   UNL A   1      42.150  28.983  28.532  1.00  0.00     0.031 A 
ATOM     44  C   UNL A   1      48.645  27.008  26.739  1.00  0.00     0.031 A 
ATOM     45  C   UNL A   1      43.137  30.025  28.580  1.00  0.00     0.049 A 
ATOM     46  C   UNL A   1      48.326  28.421  27.149  1.00  0.00     0.074 A 
ATOM     47  C   UNL A   1      42.979  31.346  28.952  1.00  0.00     0.029 A 
ATOM     48  N   UNL A   1      44.478  29.851  28.270  1.00  0.00    -0.354 N 
ATOM     49  N   UNL A   1      47.174  28.932  27.514  1.00  0.00    -0.248 NA
ATOM     50  C   UNL A   1      49.439  29.380  27.152  1.00  0.00     0.031 C 
ATOM     51  C   UNL A   1      44.222  31.980  28.849  1.00  0.00     0.029 A 
ATOM     52  C   UNL A   1      45.160  31.040  28.451  1.00  0.00     0.049 A 
ATOM     53  H   UNL A   1      44.884  29.007  27.967  1.00  0.00     0.167 HD
ATOM     54  C   UNL A   1      47.432  30.262  27.825  1.00  0.00     0.074 A 
ATOM     55  C   UNL A   1      48.848  30.477  27.609  1.00  0.00     0.031 C 
ATOM     56  C   UNL A   1      46.575  31.221  28.253  1.00  0.00     0.031 A 
BRANCH  43  57
ATOM     57  C   UNL A   1      40.725  29.317  28.879  1.00  0.00    -0.014 A 
ATOM     58  C   UNL A   1      40.300  29.377  30.219  1.00  0.00     0.010 A 
ATOM     59  C   UNL A   1      39.797  29.582  27.855  1.00  0.00     0.010 A 
ATOM     60  C   UNL A   1      38.964  29.641  30.528  1.00  0.00     0.020 A 
ATOM     61  C   UNL A   1      38.465  29.877  28.161  1.00  0.00     0.020 A 
ATOM     62  C   UNL A   1      38.053  29.882  29.495  1.00  0.00     0.054 A 
BRANCH  62  63
ATOM     63  S   UNL A   1      36.325  30.229  29.924  1.00  0.00     0.124 S 
ATOM     64  O   UNL A   1      36.206  29.582  31.228  1.00  0.00    -0.237 OA
ATOM     65  O   UNL A   1      36.283  31.688  29.941  1.00  0.00    -0.237 OA
ATOM     66  O   UNL A   1      35.568  29.600  28.845  1.00  0.00    -0.744 OA
ENDBRANCH  62  63
ENDBRANCH  43  57
BRANCH  44  67
ATOM     67  C   UNL A   1      50.029  26.626  26.347  1.00  0.00    -0.014 A 
ATOM     68  C   UNL A   1      50.475  26.841  25.031  1.00  0.00     0.010 A 
ATOM     69  C   UNL A   1      50.909  26.049  27.281  1.00  0.00     0.010 A 
ATOM     70  C   UNL A   1      51.764  26.464  24.647  1.00  0.00     0.020 A 
ATOM     71  C   UNL A   1      52.208  25.691  26.906  1.00  0.00     0.020 A 
ATOM     72  C   UNL A   1      52.623  25.888  25.587  1.00  0.00     0.054 A 
BRANCH  72  73
ATOM     73  S   UNL A   1      54.305  25.438  25.077  1.00  0.00     0.124 S 
ATOM     74  O   UNL A   1      54.453  26.184  23.831  1.00  0.00    -0.237 OA
ATOM     75  O   UNL A   1      55.114  25.911  26.199  1.00  0.00    -0.237 OA
ATOM     76  O   UNL A   1      54.241  23.985  24.936  1.00  0.00    -0.744 OA
ENDBRANCH  72  73
ENDBRANCH  44  67
BRANCH  56  77
ATOM     77  C   UNL A   1      47.147  32.572  28.578  1.00  0.00    -0.014 A 
ATOM     78  C   UNL A   1      47.696  32.846  29.841  1.00  0.00     0.010 A 
ATOM     79  C   UNL A   1      47.211  33.550  27.569  1.00  0.00     0.010 A 
ATOM     80  C   UNL A   1      48.289  34.085  30.095  1.00  0.00     0.020 A 
ATOM     81  C   UNL A   1      47.821  34.782  27.812  1.00  0.00     0.020 A 
ATOM     82  C   UNL A   1      48.350  35.044  29.077  1.00  0.00     0.054 A 
BRANCH  82  83
ATOM     83  S   UNL A   1      49.190  36.618  29.408  1.00  0.00     0.124 S 
ATOM     84  O   UNL A   1      50.594  36.255  29.233  1.00  0.00    -0.237 OA
ATOM     85  O   UNL A   1      48.637  37.500  28.384  1.00  0.00    -0.237 OA
ATOM     86  O   UNL A   1      48.795  36.939  30.777  1.00  0.00    -0.744 OA
ENDBRANCH  82  83
ENDBRANCH  56  77
ENDBRANCH  30  31
ENDBRANCH  22  25
ENDBRANCH  20  21
ENDBRANCH  19  20
ENDBRANCH   1  19
TORSDOF 18
ENDMDL
