MODEL 1
REMARK VINA RESULT:     -10.9      0.000      0.000
REMARK SMILES CC(=O)Nc1cccc(N)c1C(=O)NCCCNC(=O)c1ccc(-c2c3nc(c(-c4ccc(S(=O)(=O)[O-])cc4)c4ccc([nH]4)c(-c4ccc(S(=O)(=O)[O-])cc4)c4nc(c(-c5ccc(S(=O)(=O)[O-])cc5)c5ccc2[nH]5)C=C4)C=C3)cc1
REMARK SMILES IDX 17 1 16 2 15 3 14 4 12 5 13 6 11 8 5 9 6 10 7 11 9 12 8 13
REMARK SMILES IDX 4 14 1 15 2 16 3 17 10 19 18 22 19 23 20 25 21 26 22 27
REMARK SMILES IDX 80 28 23 29 79 30 24 31 25 32 26 33 73 34 27 35 78 36 72 37
REMARK SMILES IDX 74 38 28 39 77 40 71 41 70 42 29 44 59 45 40 46 58 47 41 48
REMARK SMILES IDX 44 49 57 50 75 51 42 52 43 53 56 55 76 56 45 57 30 58 31 59
REMARK SMILES IDX 39 60 32 61 38 62 33 63 34 64 35 65 36 66 37 67 60 68 61 69
REMARK SMILES IDX 69 70 62 71 68 72 63 73 64 74 65 75 66 76 67 77 46 78 47 79
REMARK SMILES IDX 55 80 48 81 54 82 49 83 50 84 51 85 52 86 53 87
REMARK H PARENT 14 7 4 18 10 20 10 21 18 24 74 43 44 54
REMARK Flexibility Score: inf
ROOT
ATOM      1  C   UNL A   1      34.272  32.334  28.262  1.00  0.00     0.118 C 
ENDROOT
BRANCH   1   2
ATOM      2  C   UNL A   1      33.374  33.540  28.010  1.00  0.00     0.042 C 
BRANCH   2   3
ATOM      3  C   UNL A   1      33.837  34.769  28.779  1.00  0.00     0.118 C 
BRANCH   3   4
ATOM      4  N   UNL A   1      35.191  34.659  29.273  1.00  0.00    -0.352 N 
ATOM      5  C   UNL A   1      35.864  34.375  30.424  1.00  0.00     0.255 C 
ATOM      6  O   UNL A   1      37.068  34.178  30.186  1.00  0.00    -0.269 OA
ATOM      7  H   UNL A   1      35.830  34.850  28.549  1.00  0.00     0.163 HD
BRANCH   5   8
ATOM      8  C   UNL A   1      35.417  34.325  31.871  1.00  0.00     0.086 A 
ATOM      9  C   UNL A   1      35.048  35.406  32.699  1.00  0.00     0.056 A 
ATOM     10  C   UNL A   1      35.065  35.274  34.107  1.00  0.00     0.027 A 
ATOM     11  C   UNL A   1      35.316  34.054  34.718  1.00  0.00     0.004 A 
ATOM     12  C   UNL A   1      35.634  33.062  32.527  1.00  0.00     0.046 A 
ATOM     13  C   UNL A   1      35.543  32.943  33.925  1.00  0.00     0.026 A 
BRANCH   9  14
ATOM     14  N   UNL A   1      34.565  36.649  32.268  1.00  0.00    -0.326 N 
ATOM     15  C   UNL A   1      32.183  35.882  32.076  1.00  0.00     0.114 C 
ATOM     16  C   UNL A   1      33.234  36.967  32.144  1.00  0.00     0.221 C 
ATOM     17  O   UNL A   1      32.913  38.154  32.046  1.00  0.00    -0.275 OA
ATOM     18  H   UNL A   1      35.225  37.343  32.040  1.00  0.00     0.169 HD
ENDBRANCH   9  14
BRANCH  12  19
ATOM     19  N   UNL A   1      35.772  31.853  31.816  1.00  0.00    -0.398 N 
ATOM     20  H   UNL A   1      36.459  31.201  32.083  1.00  0.00     0.156 HD
ATOM     21  H   UNL A   1      35.180  31.660  31.054  1.00  0.00     0.156 HD
ENDBRANCH  12  19
ENDBRANCH   5   8
ENDBRANCH   3   4
ENDBRANCH   2   3
ENDBRANCH   1   2
BRANCH   1  22
ATOM     22  N   UNL A   1      33.686  31.059  27.856  1.00  0.00    -0.352 N 
ATOM     23  C   UNL A   1      34.309  29.830  27.795  1.00  0.00     0.251 C 
ATOM     24  H   UNL A   1      32.736  31.079  27.598  1.00  0.00     0.163 HD
ATOM     25  O   UNL A   1      33.720  28.839  27.378  1.00  0.00    -0.269 OA
BRANCH  23  26
ATOM     26  C   UNL A   1      35.727  29.748  28.200  1.00  0.00     0.039 A 
ATOM     27  C   UNL A   1      36.048  29.350  29.501  1.00  0.00     0.014 A 
ATOM     28  C   UNL A   1      36.727  29.945  27.247  1.00  0.00     0.014 A 
ATOM     29  C   UNL A   1      37.379  29.065  29.820  1.00  0.00     0.010 A 
ATOM     30  C   UNL A   1      38.027  29.559  27.537  1.00  0.00     0.010 A 
ATOM     31  C   UNL A   1      38.370  29.122  28.827  1.00  0.00    -0.014 A 
BRANCH  31  32
ATOM     32  C   UNL A   1      39.784  28.760  29.097  1.00  0.00     0.031 A 
ATOM     33  C   UNL A   1      40.713  29.807  29.652  1.00  0.00     0.074 A 
ATOM     34  C   UNL A   1      40.255  27.548  28.745  1.00  0.00     0.049 A 
ATOM     35  N   UNL A   1      42.010  29.765  29.808  1.00  0.00    -0.248 NA
ATOM     36  C   UNL A   1      40.104  31.094  30.031  1.00  0.00     0.031 C 
ATOM     37  C   UNL A   1      39.467  26.470  28.142  1.00  0.00     0.029 A 
ATOM     38  N   UNL A   1      41.521  27.023  28.825  1.00  0.00    -0.354 N 
ATOM     39  C   UNL A   1      42.372  31.029  30.261  1.00  0.00     0.074 A 
ATOM     40  C   UNL A   1      41.172  31.832  30.285  1.00  0.00     0.031 C 
ATOM     41  C   UNL A   1      40.262  25.409  27.928  1.00  0.00     0.029 A 
ATOM     42  C   UNL A   1      41.622  25.742  28.339  1.00  0.00     0.049 A 
ATOM     43  H   UNL A   1      42.286  27.519  29.198  1.00  0.00     0.167 HD
ATOM     44  C   UNL A   1      43.591  31.474  30.653  1.00  0.00     0.031 A 
ATOM     45  C   UNL A   1      42.691  24.929  28.227  1.00  0.00     0.031 A 
ATOM     46  C   UNL A   1      44.771  30.654  30.657  1.00  0.00     0.049 A 
ATOM     47  C   UNL A   1      44.029  25.424  28.707  1.00  0.00     0.074 A 
ATOM     48  C   UNL A   1      46.044  30.977  31.090  1.00  0.00     0.029 A 
ATOM     49  N   UNL A   1      44.816  29.339  30.215  1.00  0.00    -0.354 N 
ATOM     50  N   UNL A   1      44.346  26.605  29.185  1.00  0.00    -0.248 NA
ATOM     51  C   UNL A   1      45.149  24.477  28.648  1.00  0.00     0.031 C 
ATOM     52  C   UNL A   1      46.868  29.867  30.876  1.00  0.00     0.029 A 
ATOM     53  C   UNL A   1      46.096  28.836  30.359  1.00  0.00     0.049 A 
ATOM     54  H   UNL A   1      44.050  28.839  29.854  1.00  0.00     0.167 HD
ATOM     55  C   UNL A   1      45.695  26.534  29.508  1.00  0.00     0.074 A 
ATOM     56  C   UNL A   1      46.131  25.191  29.183  1.00  0.00     0.031 C 
ATOM     57  C   UNL A   1      46.502  27.493  30.028  1.00  0.00     0.031 A 
BRANCH  44  58
ATOM     58  C   UNL A   1      43.684  32.907  31.110  1.00  0.00    -0.014 A 
ATOM     59  C   UNL A   1      43.980  33.940  30.201  1.00  0.00     0.010 A 
ATOM     60  C   UNL A   1      43.495  33.228  32.466  1.00  0.00     0.010 A 
ATOM     61  C   UNL A   1      44.160  35.252  30.648  1.00  0.00     0.020 A 
ATOM     62  C   UNL A   1      43.637  34.546  32.913  1.00  0.00     0.020 A 
ATOM     63  C   UNL A   1      43.996  35.544  32.005  1.00  0.00     0.054 A 
BRANCH  63  64
ATOM     64  S   UNL A   1      44.251  37.252  32.561  1.00  0.00     0.124 S 
ATOM     65  O   UNL A   1      44.048  38.003  31.325  1.00  0.00    -0.237 OA
ATOM     66  O   UNL A   1      43.211  37.419  33.574  1.00  0.00    -0.237 OA
ATOM     67  O   UNL A   1      45.619  37.249  33.072  1.00  0.00    -0.744 OA
ENDBRANCH  63  64
ENDBRANCH  44  58
BRANCH  45  68
ATOM     68  C   UNL A   1      42.526  23.559  27.666  1.00  0.00    -0.014 A 
ATOM     69  C   UNL A   1      42.718  23.322  26.293  1.00  0.00     0.010 A 
ATOM     70  C   UNL A   1      42.223  22.474  28.508  1.00  0.00     0.010 A 
ATOM     71  C   UNL A   1      42.605  22.028  25.773  1.00  0.00     0.020 A 
ATOM     72  C   UNL A   1      42.135  21.175  27.998  1.00  0.00     0.020 A 
ATOM     73  C   UNL A   1      42.321  20.961  26.630  1.00  0.00     0.054 A 
BRANCH  73  74
ATOM     74  S   UNL A   1      42.259  19.281  25.946  1.00  0.00     0.124 S 
ATOM     75  O   UNL A   1      40.833  19.109  25.687  1.00  0.00    -0.237 OA
ATOM     76  O   UNL A   1      43.108  19.390  24.763  1.00  0.00    -0.237 OA
ATOM     77  O   UNL A   1      42.806  18.454  27.020  1.00  0.00    -0.744 OA
ENDBRANCH  73  74
ENDBRANCH  45  68
BRANCH  57  78
ATOM     78  C   UNL A   1      47.931  27.114  30.312  1.00  0.00    -0.014 A 
ATOM     79  C   UNL A   1      48.951  27.370  29.380  1.00  0.00     0.010 A 
ATOM     80  C   UNL A   1      48.263  26.561  31.562  1.00  0.00     0.010 A 
ATOM     81  C   UNL A   1      50.278  27.054  29.684  1.00  0.00     0.020 A 
ATOM     82  C   UNL A   1      49.590  26.270  31.880  1.00  0.00     0.020 A 
ATOM     83  C   UNL A   1      50.589  26.507  30.933  1.00  0.00     0.054 A 
BRANCH  83  84
ATOM     84  S   UNL A   1      52.325  26.156  31.324  1.00  0.00     0.124 S 
ATOM     85  O   UNL A   1      52.947  26.195  30.003  1.00  0.00    -0.237 OA
ATOM     86  O   UNL A   1      52.679  27.256  32.219  1.00  0.00    -0.237 OA
ATOM     87  O   UNL A   1      52.279  24.839  31.953  1.00  0.00    -0.744 OA
ENDBRANCH  83  84
ENDBRANCH  57  78
ENDBRANCH  31  32
ENDBRANCH  23  26
ENDBRANCH   1  22
TORSDOF 15
ENDMDL
MODEL 2
REMARK VINA RESULT:     -10.7      2.909      5.699
REMARK SMILES CC(=O)Nc1cccc(N)c1C(=O)NCCCNC(=O)c1ccc(-c2c3nc(c(-c4ccc(S(=O)(=O)[O-])cc4)c4ccc([nH]4)c(-c4ccc(S(=O)(=O)[O-])cc4)c4nc(c(-c5ccc(S(=O)(=O)[O-])cc5)c5ccc2[nH]5)C=C4)C=C3)cc1
REMARK SMILES IDX 17 1 16 2 15 3 14 4 12 5 13 6 11 8 5 9 6 10 7 11 9 12 8 13
REMARK SMILES IDX 4 14 1 15 2 16 3 17 10 19 18 22 19 23 20 25 21 26 22 27
REMARK SMILES IDX 80 28 23 29 79 30 24 31 25 32 26 33 73 34 27 35 78 36 72 37
REMARK SMILES IDX 74 38 28 39 77 40 71 41 70 42 29 44 59 45 40 46 58 47 41 48
REMARK SMILES IDX 44 49 57 50 75 51 42 52 43 53 56 55 76 56 45 57 30 58 31 59
REMARK SMILES IDX 39 60 32 61 38 62 33 63 34 64 35 65 36 66 37 67 60 68 61 69
REMARK SMILES IDX 69 70 62 71 68 72 63 73 64 74 65 75 66 76 67 77 46 78 47 79
REMARK SMILES IDX 55 80 48 81 54 82 49 83 50 84 51 85 52 86 53 87
REMARK H PARENT 14 7 4 18 10 20 10 21 18 24 74 43 44 54
REMARK Flexibility Score: inf
ROOT
ATOM      1  C   UNL A   1      33.562  28.617  27.454  1.00  0.00     0.118 C 
ENDROOT
BRANCH   1   2
ATOM      2  C   UNL A   1      32.869  28.245  26.148  1.00  0.00     0.042 C 
BRANCH   2   3
ATOM      3  C   UNL A   1      33.569  27.096  25.436  1.00  0.00     0.118 C 
BRANCH   3   4
ATOM      4  N   UNL A   1      33.304  27.059  24.015  1.00  0.00    -0.352 N 
ATOM      5  C   UNL A   1      32.335  27.409  23.122  1.00  0.00     0.255 C 
ATOM      6  O   UNL A   1      32.777  27.363  21.961  1.00  0.00    -0.269 OA
ATOM      7  H   UNL A   1      34.064  26.651  23.542  1.00  0.00     0.163 HD
BRANCH   5   8
ATOM      8  C   UNL A   1      30.874  27.765  23.304  1.00  0.00     0.086 A 
ATOM      9  C   UNL A   1      29.879  27.017  23.968  1.00  0.00     0.056 A 
ATOM     10  C   UNL A   1      28.508  27.246  23.704  1.00  0.00     0.027 A 
ATOM     11  C   UNL A   1      28.091  28.289  22.888  1.00  0.00     0.004 A 
ATOM     12  C   UNL A   1      30.415  28.864  22.495  1.00  0.00     0.046 A 
ATOM     13  C   UNL A   1      29.043  29.126  22.334  1.00  0.00     0.026 A 
BRANCH   9  14
ATOM     14  N   UNL A   1      30.094  26.069  24.977  1.00  0.00    -0.326 N 
ATOM     15  C   UNL A   1      30.541  24.181  23.386  1.00  0.00     0.114 C 
ATOM     16  C   UNL A   1      30.577  24.801  24.765  1.00  0.00     0.221 C 
ATOM     17  O   UNL A   1      31.003  24.158  25.727  1.00  0.00    -0.275 OA
ATOM     18  H   UNL A   1      29.886  26.331  25.903  1.00  0.00     0.169 HD
ENDBRANCH   9  14
BRANCH  12  19
ATOM     19  N   UNL A   1      31.290  29.835  21.969  1.00  0.00    -0.398 N 
ATOM     20  H   UNL A   1      32.029  30.181  22.519  1.00  0.00     0.156 HD
ATOM     21  H   UNL A   1      31.163  30.167  21.050  1.00  0.00     0.156 HD
ENDBRANCH  12  19
ENDBRANCH   5   8
ENDBRANCH   3   4
ENDBRANCH   2   3
ENDBRANCH   1   2
BRANCH   1  22
ATOM     22  N   UNL A   1      33.591  30.052  27.725  1.00  0.00    -0.352 N 
ATOM     23  C   UNL A   1      34.669  30.805  28.144  1.00  0.00     0.251 C 
ATOM     24  H   UNL A   1      32.745  30.538  27.594  1.00  0.00     0.163 HD
ATOM     25  O   UNL A   1      34.549  31.999  28.398  1.00  0.00    -0.269 OA
BRANCH  23  26
ATOM     26  C   UNL A   1      35.965  30.123  28.328  1.00  0.00     0.039 A 
ATOM     27  C   UNL A   1      36.897  30.124  27.287  1.00  0.00     0.014 A 
ATOM     28  C   UNL A   1      36.294  29.597  29.578  1.00  0.00     0.014 A 
ATOM     29  C   UNL A   1      38.196  29.671  27.530  1.00  0.00     0.010 A 
ATOM     30  C   UNL A   1      37.610  29.250  29.844  1.00  0.00     0.010 A 
ATOM     31  C   UNL A   1      38.574  29.276  28.823  1.00  0.00    -0.014 A 
BRANCH  31  32
ATOM     32  C   UNL A   1      39.960  28.855  29.150  1.00  0.00     0.031 A 
ATOM     33  C   UNL A   1      40.903  29.856  29.762  1.00  0.00     0.074 A 
ATOM     34  C   UNL A   1      40.399  27.630  28.798  1.00  0.00     0.049 A 
ATOM     35  N   UNL A   1      42.190  29.761  29.974  1.00  0.00    -0.248 NA
ATOM     36  C   UNL A   1      40.328  31.160  30.136  1.00  0.00     0.031 C 
ATOM     37  C   UNL A   1      39.597  26.594  28.142  1.00  0.00     0.029 A 
ATOM     38  N   UNL A   1      41.639  27.055  28.925  1.00  0.00    -0.354 N 
ATOM     39  C   UNL A   1      42.580  31.002  30.465  1.00  0.00     0.074 A 
ATOM     40  C   UNL A   1      41.412  31.851  30.449  1.00  0.00     0.031 C 
ATOM     41  C   UNL A   1      40.359  25.506  27.946  1.00  0.00     0.029 A 
ATOM     42  C   UNL A   1      41.711  25.778  28.422  1.00  0.00     0.049 A 
ATOM     43  H   UNL A   1      42.405  27.514  29.340  1.00  0.00     0.167 HD
ATOM     44  C   UNL A   1      43.796  31.392  30.918  1.00  0.00     0.031 A 
ATOM     45  C   UNL A   1      42.752  24.926  28.343  1.00  0.00     0.031 A 
ATOM     46  C   UNL A   1      44.942  30.527  30.960  1.00  0.00     0.049 A 
ATOM     47  C   UNL A   1      44.085  25.360  28.890  1.00  0.00     0.074 A 
ATOM     48  C   UNL A   1      46.206  30.792  31.454  1.00  0.00     0.029 A 
ATOM     49  N   UNL A   1      44.956  29.217  30.498  1.00  0.00    -0.354 N 
ATOM     50  N   UNL A   1      44.426  26.520  29.402  1.00  0.00    -0.248 NA
ATOM     51  C   UNL A   1      45.169  24.370  28.864  1.00  0.00     0.031 C 
ATOM     52  C   UNL A   1      46.995  29.653  31.257  1.00  0.00     0.029 A 
ATOM     53  C   UNL A   1      46.208  28.662  30.690  1.00  0.00     0.049 A 
ATOM     54  H   UNL A   1      44.188  28.754  30.095  1.00  0.00     0.167 HD
ATOM     55  C   UNL A   1      45.756  26.391  29.783  1.00  0.00     0.074 A 
ATOM     56  C   UNL A   1      46.153  25.036  29.454  1.00  0.00     0.031 C 
ATOM     57  C   UNL A   1      46.576  27.309  30.354  1.00  0.00     0.031 A 
BRANCH  44  58
ATOM     58  C   UNL A   1      43.924  32.814  31.403  1.00  0.00    -0.014 A 
ATOM     59  C   UNL A   1      43.647  33.151  32.741  1.00  0.00     0.010 A 
ATOM     60  C   UNL A   1      44.304  33.831  30.509  1.00  0.00     0.010 A 
ATOM     61  C   UNL A   1      43.674  34.484  33.159  1.00  0.00     0.020 A 
ATOM     62  C   UNL A   1      44.370  35.163  30.933  1.00  0.00     0.020 A 
ATOM     63  C   UNL A   1      44.026  35.483  32.247  1.00  0.00     0.054 A 
BRANCH  63  64
ATOM     64  S   UNL A   1      44.038  37.207  32.812  1.00  0.00     0.124 S 
ATOM     65  O   UNL A   1      43.817  37.933  31.563  1.00  0.00    -0.237 OA
ATOM     66  O   UNL A   1      42.930  37.243  33.763  1.00  0.00    -0.237 OA
ATOM     67  O   UNL A   1      45.366  37.369  33.400  1.00  0.00    -0.744 OA
ENDBRANCH  63  64
ENDBRANCH  44  58
BRANCH  45  68
ATOM     68  C   UNL A   1      42.559  23.572  27.753  1.00  0.00    -0.014 A 
ATOM     69  C   UNL A   1      42.946  23.310  26.427  1.00  0.00     0.010 A 
ATOM     70  C   UNL A   1      42.031  22.524  28.527  1.00  0.00     0.010 A 
ATOM     71  C   UNL A   1      42.805  22.028  25.885  1.00  0.00     0.020 A 
ATOM     72  C   UNL A   1      41.912  21.234  27.999  1.00  0.00     0.020 A 
ATOM     73  C   UNL A   1      42.295  20.995  26.677  1.00  0.00     0.054 A 
BRANCH  73  74
ATOM     74  S   UNL A   1      42.196  19.323  25.979  1.00  0.00     0.124 S 
ATOM     75  O   UNL A   1      42.729  18.507  27.066  1.00  0.00    -0.237 OA
ATOM     76  O   UNL A   1      40.766  19.174  25.719  1.00  0.00    -0.237 OA
ATOM     77  O   UNL A   1      43.033  19.400  24.784  1.00  0.00    -0.744 OA
ENDBRANCH  73  74
ENDBRANCH  45  68
BRANCH  57  78
ATOM     78  C   UNL A   1      47.974  26.870  30.694  1.00  0.00    -0.014 A 
ATOM     79  C   UNL A   1      49.035  27.053  29.791  1.00  0.00     0.010 A 
ATOM     80  C   UNL A   1      48.238  26.333  31.968  1.00  0.00     0.010 A 
ATOM     81  C   UNL A   1      50.334  26.682  30.146  1.00  0.00     0.020 A 
ATOM     82  C   UNL A   1      49.540  25.987  32.336  1.00  0.00     0.020 A 
ATOM     83  C   UNL A   1      50.578  26.153  31.418  1.00  0.00     0.054 A 
BRANCH  83  84
ATOM     84  S   UNL A   1      52.281  25.729  31.875  1.00  0.00     0.124 S 
ATOM     85  O   UNL A   1      53.006  26.011  30.638  1.00  0.00    -0.237 OA
ATOM     86  O   UNL A   1      52.551  26.641  32.984  1.00  0.00    -0.237 OA
ATOM     87  O   UNL A   1      52.201  24.318  32.242  1.00  0.00    -0.744 OA
ENDBRANCH  83  84
ENDBRANCH  57  78
ENDBRANCH  31  32
ENDBRANCH  23  26
ENDBRANCH   1  22
TORSDOF 15
ENDMDL
MODEL 3
REMARK VINA RESULT:     -10.7      3.406      6.227
REMARK SMILES CC(=O)Nc1cccc(N)c1C(=O)NCCCNC(=O)c1ccc(-c2c3nc(c(-c4ccc(S(=O)(=O)[O-])cc4)c4ccc([nH]4)c(-c4ccc(S(=O)(=O)[O-])cc4)c4nc(c(-c5ccc(S(=O)(=O)[O-])cc5)c5ccc2[nH]5)C=C4)C=C3)cc1
REMARK SMILES IDX 17 1 16 2 15 3 14 4 12 5 13 6 11 8 5 9 6 10 7 11 9 12 8 13
REMARK SMILES IDX 4 14 1 15 2 16 3 17 10 19 18 22 19 23 20 25 21 26 22 27
REMARK SMILES IDX 80 28 23 29 79 30 24 31 25 32 26 33 73 34 27 35 78 36 72 37
REMARK SMILES IDX 74 38 28 39 77 40 71 41 70 42 29 44 59 45 40 46 58 47 41 48
REMARK SMILES IDX 44 49 57 50 75 51 42 52 43 53 56 55 76 56 45 57 30 58 31 59
REMARK SMILES IDX 39 60 32 61 38 62 33 63 34 64 35 65 36 66 37 67 60 68 61 69
REMARK SMILES IDX 69 70 62 71 68 72 63 73 64 74 65 75 66 76 67 77 46 78 47 79
REMARK SMILES IDX 55 80 48 81 54 82 49 83 50 84 51 85 52 86 53 87
REMARK H PARENT 14 7 4 18 10 20 10 21 18 24 74 43 44 54
REMARK Flexibility Score: inf
ROOT
ATOM      1  C   UNL A   1      33.363  28.564  27.095  1.00  0.00     0.118 C 
ENDROOT
BRANCH   1   2
ATOM      2  C   UNL A   1      32.002  27.881  27.059  1.00  0.00     0.042 C 
BRANCH   2   3
ATOM      3  C   UNL A   1      31.955  26.750  26.041  1.00  0.00     0.118 C 
BRANCH   3   4
ATOM      4  N   UNL A   1      31.102  25.653  26.443  1.00  0.00    -0.352 N 
ATOM      5  C   UNL A   1      31.003  24.301  26.304  1.00  0.00     0.255 C 
ATOM      6  O   UNL A   1      30.172  23.841  27.106  1.00  0.00    -0.269 OA
ATOM      7  H   UNL A   1      30.358  25.990  26.991  1.00  0.00     0.163 HD
BRANCH   5   8
ATOM      8  C   UNL A   1      31.660  23.332  25.341  1.00  0.00     0.086 A 
ATOM      9  C   UNL A   1      31.532  23.291  23.937  1.00  0.00     0.056 A 
ATOM     10  C   UNL A   1      31.844  22.112  23.219  1.00  0.00     0.027 A 
ATOM     11  C   UNL A   1      32.403  21.008  23.847  1.00  0.00     0.004 A 
ATOM     12  C   UNL A   1      32.278  22.190  25.962  1.00  0.00     0.046 A 
ATOM     13  C   UNL A   1      32.669  21.072  25.203  1.00  0.00     0.026 A 
BRANCH   9  14
ATOM     14  N   UNL A   1      31.186  24.365  23.106  1.00  0.00    -0.326 N 
ATOM     15  C   UNL A   1      33.523  25.266  22.957  1.00  0.00     0.114 C 
ATOM     16  C   UNL A   1      32.088  25.192  22.484  1.00  0.00     0.221 C 
ATOM     17  O   UNL A   1      31.699  25.907  21.558  1.00  0.00    -0.275 OA
ATOM     18  H   UNL A   1      30.228  24.538  22.958  1.00  0.00     0.169 HD
ENDBRANCH   9  14
BRANCH  12  19
ATOM     19  N   UNL A   1      32.685  22.188  27.310  1.00  0.00    -0.398 N 
ATOM     20  H   UNL A   1      32.258  21.577  27.953  1.00  0.00     0.156 HD
ATOM     21  H   UNL A   1      33.398  22.797  27.610  1.00  0.00     0.156 HD
ENDBRANCH  12  19
ENDBRANCH   5   8
ENDBRANCH   3   4
ENDBRANCH   2   3
ENDBRANCH   1   2
BRANCH   1  22
ATOM     22  N   UNL A   1      33.317  29.964  27.510  1.00  0.00    -0.352 N 
ATOM     23  C   UNL A   1      34.336  30.708  28.070  1.00  0.00     0.251 C 
ATOM     24  H   UNL A   1      32.461  30.431  27.373  1.00  0.00     0.163 HD
ATOM     25  O   UNL A   1      34.152  31.864  28.433  1.00  0.00    -0.269 OA
BRANCH  23  26
ATOM     26  C   UNL A   1      35.646  30.055  28.268  1.00  0.00     0.039 A 
ATOM     27  C   UNL A   1      36.600  30.106  27.248  1.00  0.00     0.014 A 
ATOM     28  C   UNL A   1      35.961  29.510  29.513  1.00  0.00     0.014 A 
ATOM     29  C   UNL A   1      37.905  29.682  27.511  1.00  0.00     0.010 A 
ATOM     30  C   UNL A   1      37.279  29.192  29.801  1.00  0.00     0.010 A 
ATOM     31  C   UNL A   1      38.265  29.267  28.803  1.00  0.00    -0.014 A 
BRANCH  31  32
ATOM     32  C   UNL A   1      39.654  28.875  29.151  1.00  0.00     0.031 A 
ATOM     33  C   UNL A   1      40.565  29.894  29.782  1.00  0.00     0.074 A 
ATOM     34  C   UNL A   1      40.125  27.661  28.804  1.00  0.00     0.049 A 
ATOM     35  N   UNL A   1      41.850  29.827  30.014  1.00  0.00    -0.248 NA
ATOM     36  C   UNL A   1      39.956  31.185  30.149  1.00  0.00     0.031 C 
ATOM     37  C   UNL A   1      39.357  26.609  28.133  1.00  0.00     0.029 A 
ATOM     38  N   UNL A   1      41.375  27.112  28.950  1.00  0.00    -0.354 N 
ATOM     39  C   UNL A   1      42.205  31.074  30.514  1.00  0.00     0.074 A 
ATOM     40  C   UNL A   1      41.020  31.899  30.481  1.00  0.00     0.031 C 
ATOM     41  C   UNL A   1      40.145  25.538  27.947  1.00  0.00     0.029 A 
ATOM     42  C   UNL A   1      41.483  25.838  28.446  1.00  0.00     0.049 A 
ATOM     43  H   UNL A   1      42.124  27.587  29.378  1.00  0.00     0.167 HD
ATOM     44  C   UNL A   1      43.405  31.490  30.988  1.00  0.00     0.031 A 
ATOM     45  C   UNL A   1      42.543  25.009  28.382  1.00  0.00     0.031 A 
ATOM     46  C   UNL A   1      44.569  30.650  31.046  1.00  0.00     0.049 A 
ATOM     47  C   UNL A   1      43.858  25.471  28.952  1.00  0.00     0.074 A 
ATOM     48  C   UNL A   1      45.818  30.940  31.562  1.00  0.00     0.029 A 
ATOM     49  N   UNL A   1      44.618  29.342  30.582  1.00  0.00    -0.354 N 
ATOM     50  N   UNL A   1      44.165  26.637  29.472  1.00  0.00    -0.248 NA
ATOM     51  C   UNL A   1      44.963  24.505  28.942  1.00  0.00     0.031 C 
ATOM     52  C   UNL A   1      46.635  29.820  31.376  1.00  0.00     0.029 A 
ATOM     53  C   UNL A   1      45.878  28.814  30.793  1.00  0.00     0.049 A 
ATOM     54  H   UNL A   1      43.867  28.863  30.165  1.00  0.00     0.167 HD
ATOM     55  C   UNL A   1      45.491  26.536  29.874  1.00  0.00     0.074 A 
ATOM     56  C   UNL A   1      45.922  25.191  29.549  1.00  0.00     0.031 C 
ATOM     57  C   UNL A   1      46.281  27.470  30.460  1.00  0.00     0.031 A 
BRANCH  44  58
ATOM     58  C   UNL A   1      43.494  32.913  31.477  1.00  0.00    -0.014 A 
ATOM     59  C   UNL A   1      43.816  33.964  30.597  1.00  0.00     0.010 A 
ATOM     60  C   UNL A   1      43.276  33.205  32.835  1.00  0.00     0.010 A 
ATOM     61  C   UNL A   1      43.992  35.264  31.077  1.00  0.00     0.020 A 
ATOM     62  C   UNL A   1      43.413  34.513  33.313  1.00  0.00     0.020 A 
ATOM     63  C   UNL A   1      43.799  35.528  32.436  1.00  0.00     0.054 A 
BRANCH  63  64
ATOM     64  S   UNL A   1      44.048  37.222  33.035  1.00  0.00     0.124 S 
ATOM     65  O   UNL A   1      44.051  37.984  31.788  1.00  0.00    -0.237 OA
ATOM     66  O   UNL A   1      42.888  37.433  33.896  1.00  0.00    -0.237 OA
ATOM     67  O   UNL A   1      45.332  37.158  33.729  1.00  0.00    -0.744 OA
ENDBRANCH  63  64
ENDBRANCH  44  58
BRANCH  45  68
ATOM     68  C   UNL A   1      42.389  23.653  27.786  1.00  0.00    -0.014 A 
ATOM     69  C   UNL A   1      42.894  23.376  26.503  1.00  0.00     0.010 A 
ATOM     70  C   UNL A   1      41.780  22.617  28.516  1.00  0.00     0.010 A 
ATOM     71  C   UNL A   1      42.788  22.091  25.959  1.00  0.00     0.020 A 
ATOM     72  C   UNL A   1      41.695  21.324  27.987  1.00  0.00     0.020 A 
ATOM     73  C   UNL A   1      42.195  21.071  26.708  1.00  0.00     0.054 A 
BRANCH  73  74
ATOM     74  S   UNL A   1      42.140  19.394  26.016  1.00  0.00     0.124 S 
ATOM     75  O   UNL A   1      40.712  19.207  25.780  1.00  0.00    -0.237 OA
ATOM     76  O   UNL A   1      42.967  19.520  24.818  1.00  0.00    -0.237 OA
ATOM     77  O   UNL A   1      42.715  18.568  27.075  1.00  0.00    -0.744 OA
ENDBRANCH  73  74
ENDBRANCH  45  68
BRANCH  57  78
ATOM     78  C   UNL A   1      47.683  27.060  30.823  1.00  0.00    -0.014 A 
ATOM     79  C   UNL A   1      47.962  26.414  32.040  1.00  0.00     0.010 A 
ATOM     80  C   UNL A   1      48.722  27.261  29.896  1.00  0.00     0.010 A 
ATOM     81  C   UNL A   1      49.263  26.000  32.335  1.00  0.00     0.020 A 
ATOM     82  C   UNL A   1      50.018  26.823  30.176  1.00  0.00     0.020 A 
ATOM     83  C   UNL A   1      50.282  26.205  31.400  1.00  0.00     0.054 A 
BRANCH  83  84
ATOM     84  S   UNL A   1      51.952  25.610  31.784  1.00  0.00     0.124 S 
ATOM     85  O   UNL A   1      52.292  26.401  32.963  1.00  0.00    -0.237 OA
ATOM     86  O   UNL A   1      51.735  24.184  32.023  1.00  0.00    -0.237 OA
ATOM     87  O   UNL A   1      52.717  25.923  30.580  1.00  0.00    -0.744 OA
ENDBRANCH  83  84
ENDBRANCH  57  78
ENDBRANCH  31  32
ENDBRANCH  23  26
ENDBRANCH   1  22
TORSDOF 15
ENDMDL
