MODEL 1
REMARK VINA RESULT:     -12.9      0.000      0.000
REMARK SMILES NC(=O)[C@@H]1CCC[N@H+]1[C@H](C(=O)NCCCNC(=O)c1ccc(-c2c3nc(c(-c4ccc(S(=O)(=O)[O-])cc4)c4ccc([nH]4)c(-c4ccc(S(=O)(=O)[O-])cc4)c4nc(c(-c5ccc(S(=O)(=O)[O-])cc5)c5ccc2[nH]5)C=C4)C=C3)cc1)c1c[nH]c2cc(NC(=O)c3ccccc3)ccc12
REMARK SMILES IDX 14 1 13 2 12 3 10 4 11 5 9 7 8 8 4 9 5 10 6 11 7 12 2 14
REMARK SMILES IDX 1 15 3 18 79 19 80 20 96 21 81 22 82 23 95 24 83 26 94 27
REMARK SMILES IDX 84 28 85 29 86 30 87 32 88 33 89 34 93 35 90 36 92 37 91 38
REMARK SMILES IDX 15 39 16 40 17 41 18 43 19 44 20 45 78 46 21 47 77 48 22 49
REMARK SMILES IDX 23 50 24 51 71 52 25 53 76 54 70 55 72 56 26 57 75 58 69 59
REMARK SMILES IDX 68 60 27 62 57 63 38 64 56 65 39 66 42 67 55 68 73 69 40 70
REMARK SMILES IDX 41 71 54 73 74 74 43 75 28 76 29 77 37 78 30 79 36 80 31 81
REMARK SMILES IDX 32 82 33 83 34 84 35 85 58 86 59 87 67 88 60 89 66 90 61 91
REMARK SMILES IDX 62 92 63 93 64 94 65 95 44 96 45 97 53 98 46 99 52 100
REMARK SMILES IDX 47 101 48 102 49 103 50 104 51 105
REMARK H PARENT 12 6 8 13 1 16 1 17 81 25 85 31 16 42 72 61 42 72
REMARK Flexibility Score: inf
ROOT
ATOM      1  C   UNL A   1      31.965  29.611  26.988  1.00  0.00     0.042 C 
ENDROOT
BRANCH   1   2
ATOM      2  C   UNL A   1      31.811  28.230  27.597  1.00  0.00     0.118 C 
BRANCH   2   3
ATOM      3  N   UNL A   1      32.758  27.263  27.097  1.00  0.00    -0.351 N 
ATOM      4  C   UNL A   1      32.814  26.565  25.930  1.00  0.00     0.283 C 
ATOM      5  O   UNL A   1      33.844  25.887  25.774  1.00  0.00    -0.268 OA
ATOM      6  H   UNL A   1      33.502  27.075  27.714  1.00  0.00     0.163 HD
BRANCH   4   7
ATOM      7  C   UNL A   1      31.699  26.530  24.841  1.00  0.00     0.308 C 
BRANCH   7   8
ATOM      8  N   UNL A   1      32.030  27.256  23.632  1.00  0.00    -0.311 N 
ATOM      9  C   UNL A   1      31.839  28.669  23.361  1.00  0.00     0.275 C 
ATOM     10  C   UNL A   1      33.062  29.056  22.518  1.00  0.00     0.081 C 
ATOM     11  C   UNL A   1      33.883  27.784  22.361  1.00  0.00     0.068 C 
ATOM     12  C   UNL A   1      32.916  26.660  22.657  1.00  0.00     0.264 C 
ATOM     13  H   UNL A   1      31.042  27.024  23.728  1.00  0.00     0.349 HD
BRANCH   9  14
ATOM     14  C   UNL A   1      30.563  28.981  22.550  1.00  0.00     0.275 C 
ATOM     15  N   UNL A   1      30.599  30.013  21.665  1.00  0.00    -0.365 N 
ATOM     16  H   UNL A   1      29.800  30.235  21.134  1.00  0.00     0.159 HD
ATOM     17  H   UNL A   1      31.425  30.539  21.556  1.00  0.00     0.159 HD
ATOM     18  O   UNL A   1      29.542  28.302  22.642  1.00  0.00    -0.268 OA
ENDBRANCH   9  14
ENDBRANCH   7   8
BRANCH   7  19
ATOM     19  C   UNL A   1      30.963  25.199  24.803  1.00  0.00     0.044 A 
ATOM     20  C   UNL A   1      30.027  24.892  25.791  1.00  0.00     0.094 A 
ATOM     21  C   UNL A   1      31.232  23.939  24.158  1.00  0.00     0.009 A 
ATOM     22  N   UNL A   1      30.144  23.555  26.054  1.00  0.00    -0.361 N 
ATOM     23  C   UNL A   1      31.033  22.998  25.170  1.00  0.00     0.048 A 
ATOM     24  C   UNL A   1      31.843  23.474  22.973  1.00  0.00     0.013 A 
ATOM     25  H   UNL A   1      29.666  23.069  26.764  1.00  0.00     0.166 HD
ATOM     26  C   UNL A   1      31.701  21.769  25.208  1.00  0.00     0.052 A 
ATOM     27  C   UNL A   1      32.457  22.203  22.967  1.00  0.00     0.027 A 
ATOM     28  C   UNL A   1      32.525  21.440  24.135  1.00  0.00     0.043 A 
BRANCH  28  29
ATOM     29  N   UNL A   1      33.400  20.338  24.173  1.00  0.00    -0.322 N 
ATOM     30  C   UNL A   1      34.646  20.204  24.763  1.00  0.00     0.255 C 
ATOM     31  H   UNL A   1      33.076  19.535  23.704  1.00  0.00     0.170 HD
ATOM     32  O   UNL A   1      35.141  19.097  24.971  1.00  0.00    -0.269 OA
BRANCH  30  33
ATOM     33  C   UNL A   1      35.529  21.387  24.917  1.00  0.00     0.040 A 
ATOM     34  C   UNL A   1      35.494  22.079  26.135  1.00  0.00     0.014 A 
ATOM     35  C   UNL A   1      36.296  21.889  23.867  1.00  0.00     0.014 A 
ATOM     36  C   UNL A   1      36.316  23.189  26.343  1.00  0.00     0.001 A 
ATOM     37  C   UNL A   1      37.130  22.991  24.080  1.00  0.00     0.001 A 
ATOM     38  C   UNL A   1      37.155  23.627  25.322  1.00  0.00     0.000 A 
ENDBRANCH  30  33
ENDBRANCH  28  29
ENDBRANCH   7  19
ENDBRANCH   4   7
ENDBRANCH   2   3
ENDBRANCH   1   2
BRANCH   1  39
ATOM     39  C   UNL A   1      33.384  30.143  26.998  1.00  0.00     0.118 C 
BRANCH  39  40
ATOM     40  N   UNL A   1      33.616  31.293  27.860  1.00  0.00    -0.352 N 
ATOM     41  C   UNL A   1      34.724  31.604  28.629  1.00  0.00     0.251 C 
ATOM     42  H   UNL A   1      32.879  31.944  27.902  1.00  0.00     0.163 HD
ATOM     43  O   UNL A   1      34.732  32.621  29.304  1.00  0.00    -0.269 OA
BRANCH  41  44
ATOM     44  C   UNL A   1      35.857  30.646  28.670  1.00  0.00     0.039 A 
ATOM     45  C   UNL A   1      36.812  30.702  27.655  1.00  0.00     0.014 A 
ATOM     46  C   UNL A   1      36.054  29.814  29.772  1.00  0.00     0.014 A 
ATOM     47  C   UNL A   1      38.037  30.055  27.833  1.00  0.00     0.010 A 
ATOM     48  C   UNL A   1      37.315  29.288  30.010  1.00  0.00     0.010 A 
ATOM     49  C   UNL A   1      38.330  29.427  29.055  1.00  0.00    -0.014 A 
BRANCH  49  50
ATOM     50  C   UNL A   1      39.710  28.989  29.387  1.00  0.00     0.031 A 
ATOM     51  C   UNL A   1      40.662  29.921  30.083  1.00  0.00     0.074 A 
ATOM     52  C   UNL A   1      40.133  27.784  28.949  1.00  0.00     0.049 A 
ATOM     53  N   UNL A   1      41.913  29.725  30.407  1.00  0.00    -0.248 NA
ATOM     54  C   UNL A   1      40.159  31.265  30.413  1.00  0.00     0.031 C 
ATOM     55  C   UNL A   1      39.339  26.844  28.150  1.00  0.00     0.029 A 
ATOM     56  N   UNL A   1      41.335  27.144  29.108  1.00  0.00    -0.354 N 
ATOM     57  C   UNL A   1      42.357  30.931  30.937  1.00  0.00     0.074 A 
ATOM     58  C   UNL A   1      41.259  31.866  30.841  1.00  0.00     0.031 C 
ATOM     59  C   UNL A   1      40.055  25.729  27.937  1.00  0.00     0.029 A 
ATOM     60  C   UNL A   1      41.368  25.885  28.551  1.00  0.00     0.049 A 
ATOM     61  H   UNL A   1      42.103  27.545  29.575  1.00  0.00     0.167 HD
ATOM     62  C   UNL A   1      43.562  31.226  31.480  1.00  0.00     0.031 A 
ATOM     63  C   UNL A   1      42.340  24.953  28.549  1.00  0.00     0.031 A 
ATOM     64  C   UNL A   1      44.630  30.273  31.610  1.00  0.00     0.049 A 
ATOM     65  C   UNL A   1      43.627  25.256  29.262  1.00  0.00     0.074 A 
ATOM     66  C   UNL A   1      45.858  30.431  32.227  1.00  0.00     0.029 A 
ATOM     67  N   UNL A   1      44.590  28.977  31.117  1.00  0.00    -0.354 N 
ATOM     68  N   UNL A   1      43.993  26.368  29.857  1.00  0.00    -0.248 NA
ATOM     69  C   UNL A   1      44.623  24.180  29.325  1.00  0.00     0.031 C 
ATOM     70  C   UNL A   1      46.571  29.234  32.085  1.00  0.00     0.029 A 
ATOM     71  C   UNL A   1      45.773  28.322  31.411  1.00  0.00     0.049 A 
ATOM     72  H   UNL A   1      43.832  28.581  30.630  1.00  0.00     0.167 HD
ATOM     73  C   UNL A   1      45.255  26.120  30.377  1.00  0.00     0.074 A 
ATOM     74  C   UNL A   1      45.583  24.747  30.044  1.00  0.00     0.031 C 
ATOM     75  C   UNL A   1      46.071  26.954  31.068  1.00  0.00     0.031 A 
BRANCH  62  76
ATOM     76  C   UNL A   1      43.769  32.635  31.970  1.00  0.00    -0.014 A 
ATOM     77  C   UNL A   1      43.473  32.993  33.300  1.00  0.00     0.010 A 
ATOM     78  C   UNL A   1      44.238  33.622  31.086  1.00  0.00     0.010 A 
ATOM     79  C   UNL A   1      43.571  34.323  33.714  1.00  0.00     0.020 A 
ATOM     80  C   UNL A   1      44.367  34.950  31.506  1.00  0.00     0.020 A 
ATOM     81  C   UNL A   1      44.003  35.296  32.809  1.00  0.00     0.054 A 
BRANCH  81  82
ATOM     82  S   UNL A   1      44.095  37.022  33.360  1.00  0.00     0.124 S 
ATOM     83  O   UNL A   1      45.221  36.978  34.291  1.00  0.00    -0.237 OA
ATOM     84  O   UNL A   1      44.339  37.749  32.117  1.00  0.00    -0.237 OA
ATOM     85  O   UNL A   1      42.790  37.259  33.971  1.00  0.00    -0.744 OA
ENDBRANCH  81  82
ENDBRANCH  62  76
BRANCH  63  86
ATOM     86  C   UNL A   1      42.096  23.635  27.905  1.00  0.00    -0.014 A 
ATOM     87  C   UNL A   1      42.703  23.322  26.676  1.00  0.00     0.010 A 
ATOM     88  C   UNL A   1      41.310  22.658  28.545  1.00  0.00     0.010 A 
ATOM     89  C   UNL A   1      42.526  22.063  26.096  1.00  0.00     0.020 A 
ATOM     90  C   UNL A   1      41.148  21.390  27.978  1.00  0.00     0.020 A 
ATOM     91  C   UNL A   1      41.754  21.101  26.753  1.00  0.00     0.054 A 
BRANCH  91  92
ATOM     92  S   UNL A   1      41.604  19.447  26.021  1.00  0.00     0.124 S 
ATOM     93  O   UNL A   1      42.525  19.529  24.892  1.00  0.00    -0.237 OA
ATOM     94  O   UNL A   1      42.024  18.576  27.117  1.00  0.00    -0.237 OA
ATOM     95  O   UNL A   1      40.189  19.353  25.671  1.00  0.00    -0.744 OA
ENDBRANCH  91  92
ENDBRANCH  63  86
BRANCH  75  96
ATOM     96  C   UNL A   1      47.390  26.399  31.527  1.00  0.00    -0.014 A 
ATOM     97  C   UNL A   1      47.552  25.914  32.836  1.00  0.00     0.010 A 
ATOM     98  C   UNL A   1      48.454  26.297  30.614  1.00  0.00     0.010 A 
ATOM     99  C   UNL A   1      48.768  25.352  33.230  1.00  0.00     0.020 A 
ATOM    100  C   UNL A   1      49.663  25.717  31.000  1.00  0.00     0.020 A 
ATOM    101  C   UNL A   1      49.816  25.257  32.309  1.00  0.00     0.054 A 
BRANCH 101 102
ATOM    102  S   UNL A   1      51.365  24.467  32.826  1.00  0.00     0.124 S 
ATOM    103  O   UNL A   1      52.363  25.439  32.386  1.00  0.00    -0.237 OA
ATOM    104  O   UNL A   1      51.200  24.346  34.272  1.00  0.00    -0.237 OA
ATOM    105  O   UNL A   1      51.365  23.199  32.099  1.00  0.00    -0.744 OA
ENDBRANCH 101 102
ENDBRANCH  75  96
ENDBRANCH  49  50
ENDBRANCH  41  44
ENDBRANCH  39  40
ENDBRANCH   1  39
TORSDOF 18
ENDMDL
MODEL 2
REMARK VINA RESULT:     -12.7      3.346      4.031
REMARK SMILES NC(=O)[C@@H]1CCC[N@H+]1[C@H](C(=O)NCCCNC(=O)c1ccc(-c2c3nc(c(-c4ccc(S(=O)(=O)[O-])cc4)c4ccc([nH]4)c(-c4ccc(S(=O)(=O)[O-])cc4)c4nc(c(-c5ccc(S(=O)(=O)[O-])cc5)c5ccc2[nH]5)C=C4)C=C3)cc1)c1c[nH]c2cc(NC(=O)c3ccccc3)ccc12
REMARK SMILES IDX 14 1 13 2 12 3 10 4 11 5 9 7 8 8 4 9 5 10 6 11 7 12 2 14
REMARK SMILES IDX 1 15 3 18 79 19 80 20 96 21 81 22 82 23 95 24 83 26 94 27
REMARK SMILES IDX 84 28 85 29 86 30 87 32 88 33 89 34 93 35 90 36 92 37 91 38
REMARK SMILES IDX 15 39 16 40 17 41 18 43 19 44 20 45 78 46 21 47 77 48 22 49
REMARK SMILES IDX 23 50 24 51 71 52 25 53 76 54 70 55 72 56 26 57 75 58 69 59
REMARK SMILES IDX 68 60 27 62 57 63 38 64 56 65 39 66 42 67 55 68 73 69 40 70
REMARK SMILES IDX 41 71 54 73 74 74 43 75 28 76 29 77 37 78 30 79 36 80 31 81
REMARK SMILES IDX 32 82 33 83 34 84 35 85 58 86 59 87 67 88 60 89 66 90 61 91
REMARK SMILES IDX 62 92 63 93 64 94 65 95 44 96 45 97 53 98 46 99 52 100
REMARK SMILES IDX 47 101 48 102 49 103 50 104 51 105
REMARK H PARENT 12 6 8 13 1 16 1 17 81 25 85 31 16 42 72 61 42 72
REMARK Flexibility Score: inf
ROOT
ATOM      1  C   UNL A   1      34.353  30.054  27.107  1.00  0.00     0.042 C 
ENDROOT
BRANCH   1   2
ATOM      2  C   UNL A   1      33.307  28.992  27.390  1.00  0.00     0.118 C 
BRANCH   2   3
ATOM      3  N   UNL A   1      33.641  27.690  26.863  1.00  0.00    -0.351 N 
ATOM      4  C   UNL A   1      33.016  26.889  25.957  1.00  0.00     0.283 C 
ATOM      5  O   UNL A   1      33.645  25.864  25.643  1.00  0.00    -0.268 OA
ATOM      6  H   UNL A   1      34.475  27.313  27.224  1.00  0.00     0.163 HD
BRANCH   4   7
ATOM      7  C   UNL A   1      31.605  27.143  25.344  1.00  0.00     0.308 C 
BRANCH   7   8
ATOM      8  N   UNL A   1      31.592  28.121  24.275  1.00  0.00    -0.311 N 
ATOM      9  C   UNL A   1      31.942  27.920  22.881  1.00  0.00     0.275 C 
ATOM     10  C   UNL A   1      30.957  28.815  22.116  1.00  0.00     0.081 C 
ATOM     11  C   UNL A   1      30.093  29.487  23.174  1.00  0.00     0.068 C 
ATOM     12  C   UNL A   1      30.887  29.370  24.455  1.00  0.00     0.264 C 
ATOM     13  H   UNL A   1      32.517  27.922  24.655  1.00  0.00     0.349 HD
BRANCH   9  14
ATOM     14  C   UNL A   1      33.381  28.361  22.531  1.00  0.00     0.275 C 
ATOM     15  N   UNL A   1      33.960  29.328  23.292  1.00  0.00    -0.365 N 
ATOM     16  H   UNL A   1      34.877  29.628  23.092  1.00  0.00     0.159 HD
ATOM     17  H   UNL A   1      33.464  29.727  24.043  1.00  0.00     0.159 HD
ATOM     18  O   UNL A   1      34.028  27.836  21.626  1.00  0.00    -0.268 OA
ENDBRANCH   9  14
ENDBRANCH   7   8
BRANCH   7  19
ATOM     19  C   UNL A   1      30.758  25.880  25.289  1.00  0.00     0.044 A 
ATOM     20  C   UNL A   1      29.891  25.577  26.338  1.00  0.00     0.094 A 
ATOM     21  C   UNL A   1      30.861  24.654  24.541  1.00  0.00     0.009 A 
ATOM     22  N   UNL A   1      29.916  24.220  26.502  1.00  0.00    -0.361 N 
ATOM     23  C   UNL A   1      30.673  23.660  25.503  1.00  0.00     0.048 A 
ATOM     24  C   UNL A   1      31.323  24.229  23.276  1.00  0.00     0.013 A 
ATOM     25  H   UNL A   1      29.463  23.723  27.220  1.00  0.00     0.166 HD
ATOM     26  C   UNL A   1      31.235  22.382  25.398  1.00  0.00     0.052 A 
ATOM     27  C   UNL A   1      31.823  22.917  23.129  1.00  0.00     0.027 A 
ATOM     28  C   UNL A   1      31.929  22.068  24.233  1.00  0.00     0.043 A 
BRANCH  28  29
ATOM     29  N   UNL A   1      32.708  20.902  24.117  1.00  0.00    -0.322 N 
ATOM     30  C   UNL A   1      33.962  20.607  24.627  1.00  0.00     0.255 C 
ATOM     31  H   UNL A   1      32.296  20.179  23.589  1.00  0.00     0.170 HD
ATOM     32  O   UNL A   1      34.368  19.448  24.698  1.00  0.00    -0.269 OA
BRANCH  30  33
ATOM     33  C   UNL A   1      34.949  21.692  24.851  1.00  0.00     0.040 A 
ATOM     34  C   UNL A   1      35.017  22.265  26.127  1.00  0.00     0.014 A 
ATOM     35  C   UNL A   1      35.719  22.226  23.819  1.00  0.00     0.014 A 
ATOM     36  C   UNL A   1      35.938  23.279  26.401  1.00  0.00     0.001 A 
ATOM     37  C   UNL A   1      36.653  23.230  24.097  1.00  0.00     0.001 A 
ATOM     38  C   UNL A   1      36.777  23.741  25.390  1.00  0.00     0.000 A 
ENDBRANCH  30  33
ENDBRANCH  28  29
ENDBRANCH   7  19
ENDBRANCH   4   7
ENDBRANCH   2   3
ENDBRANCH   1   2
BRANCH   1  39
ATOM     39  C   UNL A   1      35.722  29.751  27.682  1.00  0.00     0.118 C 
BRANCH  39  40
ATOM     40  N   UNL A   1      35.802  29.737  29.135  1.00  0.00    -0.352 N 
ATOM     41  C   UNL A   1      36.841  29.328  29.952  1.00  0.00     0.251 C 
ATOM     42  H   UNL A   1      35.002  30.065  29.604  1.00  0.00     0.163 HD
ATOM     43  O   UNL A   1      36.720  29.379  31.166  1.00  0.00    -0.269 OA
BRANCH  41  44
ATOM     44  C   UNL A   1      38.062  28.762  29.326  1.00  0.00     0.039 A 
ATOM     45  C   UNL A   1      38.423  29.204  28.054  1.00  0.00     0.014 A 
ATOM     46  C   UNL A   1      38.918  27.929  30.047  1.00  0.00     0.014 A 
ATOM     47  C   UNL A   1      39.712  28.949  27.581  1.00  0.00     0.010 A 
ATOM     48  C   UNL A   1      40.237  27.793  29.639  1.00  0.00     0.010 A 
ATOM     49  C   UNL A   1      40.656  28.326  28.415  1.00  0.00    -0.014 A 
BRANCH  49  50
ATOM     50  C   UNL A   1      42.099  28.301  28.062  1.00  0.00     0.031 A 
ATOM     51  C   UNL A   1      42.951  29.526  28.241  1.00  0.00     0.074 A 
ATOM     52  C   UNL A   1      42.605  27.198  27.470  1.00  0.00     0.049 A 
ATOM     53  N   UNL A   1      44.213  29.699  27.943  1.00  0.00    -0.248 NA
ATOM     54  C   UNL A   1      42.290  30.728  28.775  1.00  0.00     0.031 C 
ATOM     55  C   UNL A   1      41.843  25.992  27.127  1.00  0.00     0.029 A 
ATOM     56  N   UNL A   1      43.877  26.912  27.046  1.00  0.00    -0.354 N 
ATOM     57  C   UNL A   1      44.482  31.035  28.213  1.00  0.00     0.074 A 
ATOM     58  C   UNL A   1      43.243  31.639  28.646  1.00  0.00     0.031 C 
ATOM     59  C   UNL A   1      42.672  25.079  26.597  1.00  0.00     0.029 A 
ATOM     60  C   UNL A   1      44.015  25.642  26.530  1.00  0.00     0.049 A 
ATOM     61  H   UNL A   1      44.622  27.552  27.105  1.00  0.00     0.167 HD
ATOM     62  C   UNL A   1      45.663  31.695  28.133  1.00  0.00     0.031 A 
ATOM     63  C   UNL A   1      45.103  24.998  26.069  1.00  0.00     0.031 A 
ATOM     64  C   UNL A   1      46.897  31.071  27.744  1.00  0.00     0.049 A 
ATOM     65  C   UNL A   1      46.427  25.707  26.102  1.00  0.00     0.074 A 
ATOM     66  C   UNL A   1      48.169  31.614  27.720  1.00  0.00     0.029 A 
ATOM     67  N   UNL A   1      47.012  29.755  27.319  1.00  0.00    -0.354 N 
ATOM     68  N   UNL A   1      46.686  26.942  26.465  1.00  0.00    -0.248 NA
ATOM     69  C   UNL A   1      47.606  24.938  25.687  1.00  0.00     0.031 C 
ATOM     70  C   UNL A   1      49.051  30.632  27.254  1.00  0.00     0.029 A 
ATOM     71  C   UNL A   1      48.334  29.468  27.024  1.00  0.00     0.049 A 
ATOM     72  H   UNL A   1      46.265  29.120  27.239  1.00  0.00     0.167 HD
ATOM     73  C   UNL A   1      48.060  27.093  26.336  1.00  0.00     0.074 A 
ATOM     74  C   UNL A   1      48.580  25.819  25.880  1.00  0.00     0.031 C 
ATOM     75  C   UNL A   1      48.822  28.188  26.573  1.00  0.00     0.031 A 
BRANCH  62  76
ATOM     76  C   UNL A   1      45.655  33.160  28.480  1.00  0.00    -0.014 A 
ATOM     77  C   UNL A   1      45.494  34.143  27.485  1.00  0.00     0.010 A 
ATOM     78  C   UNL A   1      45.839  33.565  29.814  1.00  0.00     0.010 A 
ATOM     79  C   UNL A   1      45.591  35.499  27.805  1.00  0.00     0.020 A 
ATOM     80  C   UNL A   1      45.906  34.922  30.143  1.00  0.00     0.020 A 
ATOM     81  C   UNL A   1      45.812  35.880  29.131  1.00  0.00     0.054 A 
BRANCH  81  82
ATOM     82  S   UNL A   1      45.965  37.645  29.519  1.00  0.00     0.124 S 
ATOM     83  O   UNL A   1      47.266  37.693  30.182  1.00  0.00    -0.237 OA
ATOM     84  O   UNL A   1      45.908  38.275  28.203  1.00  0.00    -0.237 OA
ATOM     85  O   UNL A   1      44.816  37.909  30.382  1.00  0.00    -0.744 OA
ENDBRANCH  81  82
ENDBRANCH  62  76
BRANCH  63  86
ATOM     86  C   UNL A   1      44.984  23.589  25.605  1.00  0.00    -0.014 A 
ATOM     87  C   UNL A   1      44.727  23.308  24.251  1.00  0.00     0.010 A 
ATOM     88  C   UNL A   1      45.192  22.520  26.496  1.00  0.00     0.010 A 
ATOM     89  C   UNL A   1      44.673  21.987  23.798  1.00  0.00     0.020 A 
ATOM     90  C   UNL A   1      45.161  21.198  26.041  1.00  0.00     0.020 A 
ATOM     91  C   UNL A   1      44.897  20.939  24.695  1.00  0.00     0.054 A 
BRANCH  91  92
ATOM     92  S   UNL A   1      44.903  19.235  24.068  1.00  0.00     0.124 S 
ATOM     93  O   UNL A   1      46.284  18.828  24.307  1.00  0.00    -0.237 OA
ATOM     94  O   UNL A   1      43.899  18.584  24.906  1.00  0.00    -0.237 OA
ATOM     95  O   UNL A   1      44.528  19.384  22.664  1.00  0.00    -0.744 OA
ENDBRANCH  91  92
ENDBRANCH  63  86
BRANCH  75  96
ATOM     96  C   UNL A   1      50.304  28.052  26.361  1.00  0.00    -0.014 A 
ATOM     97  C   UNL A   1      50.892  28.401  25.134  1.00  0.00     0.010 A 
ATOM     98  C   UNL A   1      51.121  27.639  27.428  1.00  0.00     0.010 A 
ATOM     99  C   UNL A   1      52.276  28.321  24.971  1.00  0.00     0.020 A 
ATOM    100  C   UNL A   1      52.507  27.577  27.274  1.00  0.00     0.020 A 
ATOM    101  C   UNL A   1      53.075  27.909  26.043  1.00  0.00     0.054 A 
BRANCH 101 102
ATOM    102  S   UNL A   1      54.876  27.871  25.828  1.00  0.00     0.124 S 
ATOM    103  O   UNL A   1      55.263  29.206  26.276  1.00  0.00    -0.237 OA
ATOM    104  O   UNL A   1      55.283  26.772  26.700  1.00  0.00    -0.237 OA
ATOM    105  O   UNL A   1      55.047  27.618  24.399  1.00  0.00    -0.744 OA
ENDBRANCH 101 102
ENDBRANCH  75  96
ENDBRANCH  49  50
ENDBRANCH  41  44
ENDBRANCH  39  40
ENDBRANCH   1  39
TORSDOF 18
ENDMDL
MODEL 3
REMARK VINA RESULT:     -12.6      1.621      7.970
REMARK SMILES NC(=O)[C@@H]1CCC[N@H+]1[C@H](C(=O)NCCCNC(=O)c1ccc(-c2c3nc(c(-c4ccc(S(=O)(=O)[O-])cc4)c4ccc([nH]4)c(-c4ccc(S(=O)(=O)[O-])cc4)c4nc(c(-c5ccc(S(=O)(=O)[O-])cc5)c5ccc2[nH]5)C=C4)C=C3)cc1)c1c[nH]c2cc(NC(=O)c3ccccc3)ccc12
REMARK SMILES IDX 14 1 13 2 12 3 10 4 11 5 9 7 8 8 4 9 5 10 6 11 7 12 2 14
REMARK SMILES IDX 1 15 3 18 79 19 80 20 96 21 81 22 82 23 95 24 83 26 94 27
REMARK SMILES IDX 84 28 85 29 86 30 87 32 88 33 89 34 93 35 90 36 92 37 91 38
REMARK SMILES IDX 15 39 16 40 17 41 18 43 19 44 20 45 78 46 21 47 77 48 22 49
REMARK SMILES IDX 23 50 24 51 71 52 25 53 76 54 70 55 72 56 26 57 75 58 69 59
REMARK SMILES IDX 68 60 27 62 57 63 38 64 56 65 39 66 42 67 55 68 73 69 40 70
REMARK SMILES IDX 41 71 54 73 74 74 43 75 28 76 29 77 37 78 30 79 36 80 31 81
REMARK SMILES IDX 32 82 33 83 34 84 35 85 58 86 59 87 67 88 60 89 66 90 61 91
REMARK SMILES IDX 62 92 63 93 64 94 65 95 44 96 45 97 53 98 46 99 52 100
REMARK SMILES IDX 47 101 48 102 49 103 50 104 51 105
REMARK H PARENT 12 6 8 13 1 16 1 17 81 25 85 31 16 42 72 61 42 72
REMARK Flexibility Score: inf
ROOT
ATOM      1  C   UNL A   1      32.498  30.232  26.808  1.00  0.00     0.042 C 
ENDROOT
BRANCH   1   2
ATOM      2  C   UNL A   1      31.826  28.973  27.326  1.00  0.00     0.118 C 
BRANCH   2   3
ATOM      3  N   UNL A   1      32.604  27.774  27.128  1.00  0.00    -0.351 N 
ATOM      4  C   UNL A   1      32.596  26.838  26.140  1.00  0.00     0.283 C 
ATOM      5  O   UNL A   1      33.488  25.978  26.225  1.00  0.00    -0.268 OA
ATOM      6  H   UNL A   1      33.263  27.601  27.839  1.00  0.00     0.163 HD
BRANCH   4   7
ATOM      7  C   UNL A   1      31.559  26.756  24.978  1.00  0.00     0.308 C 
BRANCH   7   8
ATOM      8  N   UNL A   1      31.990  27.399  23.753  1.00  0.00    -0.311 N 
ATOM      9  C   UNL A   1      31.785  28.778  23.353  1.00  0.00     0.275 C 
ATOM     10  C   UNL A   1      33.076  29.145  22.607  1.00  0.00     0.081 C 
ATOM     11  C   UNL A   1      33.946  27.896  22.634  1.00  0.00     0.068 C 
ATOM     12  C   UNL A   1      32.988  26.763  22.923  1.00  0.00     0.264 C 
ATOM     13  H   UNL A   1      31.004  27.138  23.770  1.00  0.00     0.349 HD
BRANCH   9  14
ATOM     14  C   UNL A   1      30.590  28.978  22.396  1.00  0.00     0.275 C 
ATOM     15  N   UNL A   1      30.586  30.075  21.591  1.00  0.00    -0.365 N 
ATOM     16  H   UNL A   1      29.837  30.228  20.970  1.00  0.00     0.159 HD
ATOM     17  H   UNL A   1      31.333  30.715  21.628  1.00  0.00     0.159 HD
ATOM     18  O   UNL A   1      29.675  28.161  22.306  1.00  0.00    -0.268 OA
ENDBRANCH   9  14
ENDBRANCH   7   8
BRANCH   7  19
ATOM     19  C   UNL A   1      30.797  25.439  24.970  1.00  0.00     0.044 A 
ATOM     20  C   UNL A   1      29.913  25.139  26.006  1.00  0.00     0.094 A 
ATOM     21  C   UNL A   1      31.005  24.182  24.298  1.00  0.00     0.009 A 
ATOM     22  N   UNL A   1      30.019  23.797  26.249  1.00  0.00    -0.361 N 
ATOM     23  C   UNL A   1      30.845  23.234  25.311  1.00  0.00     0.048 A 
ATOM     24  C   UNL A   1      31.538  23.718  23.076  1.00  0.00     0.013 A 
ATOM     25  H   UNL A   1      29.573  23.313  26.981  1.00  0.00     0.166 HD
ATOM     26  C   UNL A   1      31.491  21.992  25.299  1.00  0.00     0.052 A 
ATOM     27  C   UNL A   1      32.126  22.436  23.022  1.00  0.00     0.027 A 
ATOM     28  C   UNL A   1      32.246  21.659  24.177  1.00  0.00     0.043 A 
BRANCH  28  29
ATOM     29  N   UNL A   1      33.101  20.541  24.155  1.00  0.00    -0.322 N 
ATOM     30  C   UNL A   1      34.337  20.347  24.749  1.00  0.00     0.255 C 
ATOM     31  H   UNL A   1      32.769  19.776  23.632  1.00  0.00     0.170 HD
ATOM     32  O   UNL A   1      34.810  19.220  24.891  1.00  0.00    -0.269 OA
BRANCH  30  33
ATOM     33  C   UNL A   1      35.240  21.500  24.988  1.00  0.00     0.040 A 
ATOM     34  C   UNL A   1      36.243  21.756  24.045  1.00  0.00     0.014 A 
ATOM     35  C   UNL A   1      35.192  22.256  26.159  1.00  0.00     0.014 A 
ATOM     36  C   UNL A   1      37.112  22.838  24.209  1.00  0.00     0.001 A 
ATOM     37  C   UNL A   1      36.051  23.350  26.315  1.00  0.00     0.001 A 
ATOM     38  C   UNL A   1      36.995  23.652  25.333  1.00  0.00     0.000 A 
ENDBRANCH  30  33
ENDBRANCH  28  29
ENDBRANCH   7  19
ENDBRANCH   4   7
ENDBRANCH   2   3
ENDBRANCH   1   2
BRANCH   1  39
ATOM     39  C   UNL A   1      33.904  30.449  27.331  1.00  0.00     0.118 C 
BRANCH  39  40
ATOM     40  N   UNL A   1      34.007  31.279  28.523  1.00  0.00    -0.352 N 
ATOM     41  C   UNL A   1      35.056  31.404  29.417  1.00  0.00     0.251 C 
ATOM     42  H   UNL A   1      33.217  31.831  28.722  1.00  0.00     0.163 HD
ATOM     43  O   UNL A   1      34.955  32.151  30.376  1.00  0.00    -0.269 OA
BRANCH  41  44
ATOM     44  C   UNL A   1      36.263  30.562  29.224  1.00  0.00     0.039 A 
ATOM     45  C   UNL A   1      36.949  30.649  28.012  1.00  0.00     0.014 A 
ATOM     46  C   UNL A   1      36.795  29.818  30.277  1.00  0.00     0.014 A 
ATOM     47  C   UNL A   1      38.243  30.134  27.920  1.00  0.00     0.010 A 
ATOM     48  C   UNL A   1      38.125  29.428  30.230  1.00  0.00     0.010 A 
ATOM     49  C   UNL A   1      38.873  29.608  29.060  1.00  0.00    -0.014 A 
BRANCH  49  50
ATOM     50  C   UNL A   1      40.331  29.323  29.074  1.00  0.00     0.031 A 
ATOM     51  C   UNL A   1      40.852  27.984  28.631  1.00  0.00     0.074 A 
ATOM     52  C   UNL A   1      41.169  30.241  29.600  1.00  0.00     0.049 A 
ATOM     53  N   UNL A   1      42.084  27.545  28.622  1.00  0.00    -0.248 NA
ATOM     54  C   UNL A   1      39.857  26.992  28.191  1.00  0.00     0.031 C 
ATOM     55  C   UNL A   1      40.765  31.526  30.181  1.00  0.00     0.029 A 
ATOM     56  N   UNL A   1      42.534  30.235  29.738  1.00  0.00    -0.354 N 
ATOM     57  C   UNL A   1      42.006  26.218  28.217  1.00  0.00     0.074 A 
ATOM     58  C   UNL A   1      40.605  25.908  28.044  1.00  0.00     0.031 C 
ATOM     59  C   UNL A   1      41.859  32.205  30.560  1.00  0.00     0.029 A 
ATOM     60  C   UNL A   1      43.038  31.394  30.284  1.00  0.00     0.049 A 
ATOM     61  H   UNL A   1      43.099  29.475  29.472  1.00  0.00     0.167 HD
ATOM     62  C   UNL A   1      43.012  25.342  27.984  1.00  0.00     0.031 A 
ATOM     63  C   UNL A   1      44.310  31.769  30.521  1.00  0.00     0.031 A 
ATOM     64  C   UNL A   1      44.403  25.676  28.117  1.00  0.00     0.049 A 
ATOM     65  C   UNL A   1      45.419  30.829  30.144  1.00  0.00     0.074 A 
ATOM     66  C   UNL A   1      45.510  24.903  27.817  1.00  0.00     0.029 A 
ATOM     67  N   UNL A   1      44.878  26.894  28.584  1.00  0.00    -0.354 N 
ATOM     68  N   UNL A   1      45.332  29.612  29.657  1.00  0.00    -0.248 NA
ATOM     69  C   UNL A   1      46.792  31.313  30.323  1.00  0.00     0.031 C 
ATOM     70  C   UNL A   1      46.655  25.646  28.127  1.00  0.00     0.029 A 
ATOM     71  C   UNL A   1      46.262  26.894  28.585  1.00  0.00     0.049 A 
ATOM     72  H   UNL A   1      44.313  27.647  28.871  1.00  0.00     0.167 HD
ATOM     73  C   UNL A   1      46.640  29.192  29.459  1.00  0.00     0.074 A 
ATOM     74  C   UNL A   1      47.498  30.289  29.860  1.00  0.00     0.031 C 
ATOM     75  C   UNL A   1      47.090  28.003  28.988  1.00  0.00     0.031 A 
BRANCH  62  76
ATOM     76  C   UNL A   1      42.627  23.949  27.561  1.00  0.00    -0.014 A 
ATOM     77  C   UNL A   1      42.310  22.961  28.512  1.00  0.00     0.010 A 
ATOM     78  C   UNL A   1      42.607  23.613  26.195  1.00  0.00     0.010 A 
ATOM     79  C   UNL A   1      42.054  21.648  28.112  1.00  0.00     0.020 A 
ATOM     80  C   UNL A   1      42.321  22.306  25.789  1.00  0.00     0.020 A 
ATOM     81  C   UNL A   1      42.076  21.325  26.752  1.00  0.00     0.054 A 
BRANCH  81  82
ATOM     82  S   UNL A   1      41.770  19.607  26.256  1.00  0.00     0.124 S 
ATOM     83  O   UNL A   1      42.558  19.506  25.029  1.00  0.00    -0.237 OA
ATOM     84  O   UNL A   1      42.279  18.844  27.393  1.00  0.00    -0.237 OA
ATOM     85  O   UNL A   1      40.322  19.554  26.073  1.00  0.00    -0.744 OA
ENDBRANCH  81  82
ENDBRANCH  62  76
BRANCH  63  86
ATOM     86  C   UNL A   1      44.587  33.118  31.085  1.00  0.00    -0.014 A 
ATOM     87  C   UNL A   1      44.723  33.292  32.474  1.00  0.00     0.010 A 
ATOM     88  C   UNL A   1      44.783  34.223  30.237  1.00  0.00     0.010 A 
ATOM     89  C   UNL A   1      45.043  34.545  33.004  1.00  0.00     0.020 A 
ATOM     90  C   UNL A   1      45.126  35.473  30.763  1.00  0.00     0.020 A 
ATOM     91  C   UNL A   1      45.248  35.628  32.145  1.00  0.00     0.054 A 
BRANCH  91  92
ATOM     92  S   UNL A   1      45.743  37.225  32.851  1.00  0.00     0.124 S 
ATOM     93  O   UNL A   1      46.307  37.909  31.691  1.00  0.00    -0.237 OA
ATOM     94  O   UNL A   1      44.476  37.760  33.345  1.00  0.00    -0.237 OA
ATOM     95  O   UNL A   1      46.703  36.859  33.890  1.00  0.00    -0.744 OA
ENDBRANCH  91  92
ENDBRANCH  63  86
BRANCH  75  96
ATOM     96  C   UNL A   1      48.578  27.833  28.863  1.00  0.00    -0.014 A 
ATOM     97  C   UNL A   1      49.255  28.238  27.701  1.00  0.00     0.010 A 
ATOM     98  C   UNL A   1      49.311  27.329  29.952  1.00  0.00     0.010 A 
ATOM     99  C   UNL A   1      50.644  28.125  27.622  1.00  0.00     0.020 A 
ATOM    100  C   UNL A   1      50.702  27.232  29.883  1.00  0.00     0.020 A 
ATOM    101  C   UNL A   1      51.359  27.622  28.714  1.00  0.00     0.054 A 
BRANCH 101 102
ATOM    102  S   UNL A   1      53.168  27.540  28.612  1.00  0.00     0.124 S 
ATOM    103  O   UNL A   1      53.452  28.463  27.516  1.00  0.00    -0.237 OA
ATOM    104  O   UNL A   1      53.588  27.990  29.938  1.00  0.00    -0.237 OA
ATOM    105  O   UNL A   1      53.435  26.132  28.329  1.00  0.00    -0.744 OA
ENDBRANCH 101 102
ENDBRANCH  75  96
ENDBRANCH  49  50
ENDBRANCH  41  44
ENDBRANCH  39  40
ENDBRANCH   1  39
TORSDOF 18
ENDMDL
