MODEL 1
REMARK VINA RESULT:      -9.4      0.000      0.000
REMARK SMILES C=CCc1cccc(-c2ccc([C@@H](C)C(=O)NCCCNC(=O)c3ccc(-c4c5nc(c(-c6ccc(S(=O)(=O)[O-])cc6)c6ccc([nH]6)c(-c6ccc(S(=O)(=O)[O-])cc6)c6nc(c(-c7ccc(S(=O)(=O)[O-])cc7)c7ccc4[nH]7)C=C6)C=C5)cc3)cc2)c1
REMARK SMILES IDX 18 1 17 2 15 3 16 4 13 6 14 7 12 8 9 9 10 10 85 11 11 12
REMARK SMILES IDX 84 13 8 14 4 15 5 16 86 17 6 18 7 19 3 20 2 21 1 22 19 23
REMARK SMILES IDX 20 24 21 25 22 26 23 28 24 29 25 30 83 31 26 32 82 33 27 34
REMARK SMILES IDX 28 35 29 36 76 37 30 38 81 39 75 40 77 41 31 42 80 43 74 44
REMARK SMILES IDX 73 45 32 47 62 48 43 49 61 50 44 51 47 52 60 53 78 54 45 55
REMARK SMILES IDX 46 56 59 58 79 59 48 60 33 61 34 62 42 63 35 64 41 65 36 66
REMARK SMILES IDX 37 67 38 68 39 69 40 70 63 71 64 72 72 73 65 74 71 75 66 76
REMARK SMILES IDX 67 77 68 78 69 79 70 80 49 81 50 82 58 83 51 84 57 85 52 86
REMARK SMILES IDX 53 87 54 88 55 89 56 90
REMARK H PARENT 17 5 21 27 77 46 47 57
REMARK Flexibility Score: inf
ROOT
ATOM      1  C   UNL A   1      41.234  19.319  25.838  1.00  0.00     0.117 C 
ENDROOT
BRANCH   1   2
ATOM      2  N   UNL A   1      42.513  18.702  26.135  1.00  0.00    -0.356 N 
ATOM      3  C   UNL A   1      43.743  18.827  25.567  1.00  0.00     0.227 C 
ATOM      4  O   UNL A   1      44.637  18.118  26.047  1.00  0.00    -0.274 OA
ATOM      5  H   UNL A   1      42.485  18.073  26.892  1.00  0.00     0.163 HD
BRANCH   3   6
ATOM      6  C   UNL A   1      44.071  19.789  24.415  1.00  0.00     0.105 C 
ATOM      7  C   UNL A   1      44.930  19.174  23.310  1.00  0.00     0.023 C 
BRANCH   6   8
ATOM      8  C   UNL A   1      44.488  21.177  24.875  1.00  0.00    -0.036 A 
ATOM      9  C   UNL A   1      45.130  23.794  25.850  1.00  0.00    -0.018 A 
ATOM     10  C   UNL A   1      45.922  22.674  26.147  1.00  0.00     0.009 A 
ATOM     11  C   UNL A   1      44.019  23.573  25.022  1.00  0.00     0.009 A 
ATOM     12  C   UNL A   1      45.633  21.403  25.638  1.00  0.00     0.005 A 
ATOM     13  C   UNL A   1      43.691  22.288  24.560  1.00  0.00     0.005 A 
BRANCH   9  14
ATOM     14  C   UNL A   1      45.470  25.132  26.399  1.00  0.00    -0.018 A 
ATOM     15  C   UNL A   1      44.935  27.504  26.786  1.00  0.00    -0.044 A 
ATOM     16  C   UNL A   1      46.108  27.647  27.535  1.00  0.00     0.004 A 
ATOM     17  C   UNL A   1      44.620  26.245  26.239  1.00  0.00     0.012 A 
ATOM     18  C   UNL A   1      46.969  26.569  27.700  1.00  0.00     0.001 A 
ATOM     19  C   UNL A   1      46.658  25.336  27.126  1.00  0.00     0.009 A 
BRANCH  15  20
ATOM     20  C   UNL A   1      44.042  28.699  26.547  1.00  0.00     0.062 C 
BRANCH  20  21
ATOM     21  C   UNL A   1      44.443  29.879  27.392  1.00  0.00    -0.030 C 
ATOM     22  C   UNL A   1      43.602  30.805  27.871  1.00  0.00     0.004 C 
ENDBRANCH  20  21
ENDBRANCH  15  20
ENDBRANCH   9  14
ENDBRANCH   6   8
ENDBRANCH   3   6
ENDBRANCH   1   2
BRANCH   1  23
ATOM     23  C   UNL A   1      40.825  20.352  26.885  1.00  0.00     0.042 C 
BRANCH  23  24
ATOM     24  C   UNL A   1      40.841  21.789  26.376  1.00  0.00     0.118 C 
BRANCH  24  25
ATOM     25  N   UNL A   1      39.544  22.204  25.855  1.00  0.00    -0.352 N 
ATOM     26  C   UNL A   1      38.782  23.312  26.137  1.00  0.00     0.251 C 
ATOM     27  H   UNL A   1      39.150  21.592  25.193  1.00  0.00     0.163 HD
ATOM     28  O   UNL A   1      37.617  23.349  25.751  1.00  0.00    -0.269 OA
BRANCH  26  29
ATOM     29  C   UNL A   1      39.339  24.448  26.907  1.00  0.00     0.039 A 
ATOM     30  C   UNL A   1      40.204  25.341  26.265  1.00  0.00     0.014 A 
ATOM     31  C   UNL A   1      39.049  24.619  28.262  1.00  0.00     0.014 A 
ATOM     32  C   UNL A   1      40.714  26.442  26.961  1.00  0.00     0.010 A 
ATOM     33  C   UNL A   1      39.495  25.755  28.933  1.00  0.00     0.010 A 
ATOM     34  C   UNL A   1      40.329  26.682  28.289  1.00  0.00    -0.014 A 
BRANCH  34  35
ATOM     35  C   UNL A   1      40.763  27.900  29.021  1.00  0.00     0.031 A 
ATOM     36  C   UNL A   1      42.096  27.931  29.719  1.00  0.00     0.074 A 
ATOM     37  C   UNL A   1      39.918  28.945  29.132  1.00  0.00     0.049 A 
ATOM     38  N   UNL A   1      42.596  28.852  30.502  1.00  0.00    -0.248 NA
ATOM     39  C   UNL A   1      42.972  26.762  29.532  1.00  0.00     0.031 C 
ATOM     40  C   UNL A   1      38.586  29.024  28.528  1.00  0.00     0.029 A 
ATOM     41  N   UNL A   1      40.045  30.132  29.809  1.00  0.00    -0.354 N 
ATOM     42  C   UNL A   1      43.830  28.368  30.918  1.00  0.00     0.074 A 
ATOM     43  C   UNL A   1      43.987  27.054  30.333  1.00  0.00     0.031 C 
ATOM     44  C   UNL A   1      38.027  30.201  28.849  1.00  0.00     0.029 A 
ATOM     45  C   UNL A   1      38.935  30.938  29.723  1.00  0.00     0.049 A 
ATOM     46  H   UNL A   1      40.856  30.384  30.309  1.00  0.00     0.167 HD
ATOM     47  C   UNL A   1      44.756  28.969  31.704  1.00  0.00     0.031 A 
ATOM     48  C   UNL A   1      38.662  32.126  30.299  1.00  0.00     0.031 A 
ATOM     49  C   UNL A   1      44.597  30.279  32.277  1.00  0.00     0.049 A 
ATOM     50  C   UNL A   1      39.690  32.757  31.197  1.00  0.00     0.074 A 
ATOM     51  C   UNL A   1      45.502  31.000  33.036  1.00  0.00     0.029 A 
ATOM     52  N   UNL A   1      43.458  31.062  32.163  1.00  0.00    -0.354 N 
ATOM     53  N   UNL A   1      40.881  32.315  31.522  1.00  0.00    -0.248 NA
ATOM     54  C   UNL A   1      39.338  34.045  31.810  1.00  0.00     0.031 C 
ATOM     55  C   UNL A   1      44.888  32.193  33.431  1.00  0.00     0.029 A 
ATOM     56  C   UNL A   1      43.623  32.242  32.868  1.00  0.00     0.049 A 
ATOM     57  H   UNL A   1      42.651  30.815  31.656  1.00  0.00     0.167 HD
ATOM     58  C   UNL A   1      41.427  33.278  32.361  1.00  0.00     0.074 A 
ATOM     59  C   UNL A   1      40.444  34.337  32.480  1.00  0.00     0.031 C 
ATOM     60  C   UNL A   1      42.634  33.285  32.979  1.00  0.00     0.031 A 
BRANCH  47  61
ATOM     61  C   UNL A   1      46.023  28.209  32.001  1.00  0.00    -0.014 A 
ATOM     62  C   UNL A   1      46.129  27.386  33.137  1.00  0.00     0.010 A 
ATOM     63  C   UNL A   1      47.106  28.280  31.105  1.00  0.00     0.010 A 
ATOM     64  C   UNL A   1      47.308  26.684  33.395  1.00  0.00     0.020 A 
ATOM     65  C   UNL A   1      48.278  27.556  31.344  1.00  0.00     0.020 A 
ATOM     66  C   UNL A   1      48.378  26.776  32.498  1.00  0.00     0.054 A 
BRANCH  66  67
ATOM     67  S   UNL A   1      49.889  25.836  32.850  1.00  0.00     0.124 S 
ATOM     68  O   UNL A   1      50.783  26.879  33.345  1.00  0.00    -0.237 OA
ATOM     69  O   UNL A   1      49.439  24.869  33.848  1.00  0.00    -0.237 OA
ATOM     70  O   UNL A   1      50.254  25.268  31.555  1.00  0.00    -0.744 OA
ENDBRANCH  66  67
ENDBRANCH  47  61
BRANCH  48  71
ATOM     71  C   UNL A   1      37.351  32.787  30.051  1.00  0.00    -0.014 A 
ATOM     72  C   UNL A   1      36.233  32.474  30.843  1.00  0.00     0.010 A 
ATOM     73  C   UNL A   1      37.221  33.750  29.034  1.00  0.00     0.010 A 
ATOM     74  C   UNL A   1      35.006  33.103  30.614  1.00  0.00     0.020 A 
ATOM     75  C   UNL A   1      36.003  34.401  28.821  1.00  0.00     0.020 A 
ATOM     76  C   UNL A   1      34.899  34.066  29.608  1.00  0.00     0.054 A 
BRANCH  76  77
ATOM     77  S   UNL A   1      33.315  34.915  29.367  1.00  0.00     0.124 S 
ATOM     78  O   UNL A   1      32.848  35.082  30.739  1.00  0.00    -0.237 OA
ATOM     79  O   UNL A   1      33.715  36.140  28.679  1.00  0.00    -0.237 OA
ATOM     80  O   UNL A   1      32.546  33.976  28.552  1.00  0.00    -0.744 OA
ENDBRANCH  76  77
ENDBRANCH  48  71
BRANCH  60  81
ATOM     81  C   UNL A   1      42.973  34.476  33.834  1.00  0.00    -0.014 A 
ATOM     82  C   UNL A   1      42.614  34.517  35.193  1.00  0.00     0.010 A 
ATOM     83  C   UNL A   1      43.735  35.528  33.293  1.00  0.00     0.010 A 
ATOM     84  C   UNL A   1      43.004  35.595  35.993  1.00  0.00     0.020 A 
ATOM     85  C   UNL A   1      44.148  36.594  34.096  1.00  0.00     0.020 A 
ATOM     86  C   UNL A   1      43.774  36.623  35.441  1.00  0.00     0.054 A 
BRANCH  86  87
ATOM     87  S   UNL A   1      44.331  37.970  36.520  1.00  0.00     0.124 S 
ATOM     88  O   UNL A   1      45.734  37.625  36.739  1.00  0.00    -0.237 OA
ATOM     89  O   UNL A   1      44.098  39.155  35.697  1.00  0.00    -0.237 OA
ATOM     90  O   UNL A   1      43.470  37.854  37.694  1.00  0.00    -0.744 OA
ENDBRANCH  86  87
ENDBRANCH  60  81
ENDBRANCH  34  35
ENDBRANCH  26  29
ENDBRANCH  24  25
ENDBRANCH  23  24
ENDBRANCH   1  23
TORSDOF 17
ENDMDL
MODEL 2
REMARK VINA RESULT:      -9.4      3.395      6.425
REMARK SMILES C=CCc1cccc(-c2ccc([C@@H](C)C(=O)NCCCNC(=O)c3ccc(-c4c5nc(c(-c6ccc(S(=O)(=O)[O-])cc6)c6ccc([nH]6)c(-c6ccc(S(=O)(=O)[O-])cc6)c6nc(c(-c7ccc(S(=O)(=O)[O-])cc7)c7ccc4[nH]7)C=C6)C=C5)cc3)cc2)c1
REMARK SMILES IDX 18 1 17 2 15 3 16 4 13 6 14 7 12 8 9 9 10 10 85 11 11 12
REMARK SMILES IDX 84 13 8 14 4 15 5 16 86 17 6 18 7 19 3 20 2 21 1 22 19 23
REMARK SMILES IDX 20 24 21 25 22 26 23 28 24 29 25 30 83 31 26 32 82 33 27 34
REMARK SMILES IDX 28 35 29 36 76 37 30 38 81 39 75 40 77 41 31 42 80 43 74 44
REMARK SMILES IDX 73 45 32 47 62 48 43 49 61 50 44 51 47 52 60 53 78 54 45 55
REMARK SMILES IDX 46 56 59 58 79 59 48 60 33 61 34 62 42 63 35 64 41 65 36 66
REMARK SMILES IDX 37 67 38 68 39 69 40 70 63 71 64 72 72 73 65 74 71 75 66 76
REMARK SMILES IDX 67 77 68 78 69 79 70 80 49 81 50 82 58 83 51 84 57 85 52 86
REMARK SMILES IDX 53 87 54 88 55 89 56 90
REMARK H PARENT 17 5 21 27 77 46 47 57
REMARK Flexibility Score: inf
ROOT
ATOM      1  C   UNL A   1      35.545  21.910  24.378  1.00  0.00     0.117 C 
ENDROOT
BRANCH   1   2
ATOM      2  N   UNL A   1      34.983  21.317  25.576  1.00  0.00    -0.356 N 
ATOM      3  C   UNL A   1      33.700  21.097  25.973  1.00  0.00     0.227 C 
ATOM      4  O   UNL A   1      33.557  20.590  27.094  1.00  0.00    -0.274 OA
ATOM      5  H   UNL A   1      35.659  21.016  26.226  1.00  0.00     0.163 HD
BRANCH   3   6
ATOM      6  C   UNL A   1      32.463  21.412  25.118  1.00  0.00     0.105 C 
ATOM      7  C   UNL A   1      32.434  20.693  23.769  1.00  0.00     0.023 C 
BRANCH   6   8
ATOM      8  C   UNL A   1      32.102  22.889  25.083  1.00  0.00    -0.036 A 
ATOM      9  C   UNL A   1      31.597  25.709  25.008  1.00  0.00    -0.018 A 
ATOM     10  C   UNL A   1      31.234  24.859  23.951  1.00  0.00     0.009 A 
ATOM     11  C   UNL A   1      32.194  25.101  26.122  1.00  0.00     0.009 A 
ATOM     12  C   UNL A   1      31.443  23.476  24.004  1.00  0.00     0.005 A 
ATOM     13  C   UNL A   1      32.461  23.722  26.153  1.00  0.00     0.005 A 
BRANCH   9  14
ATOM     14  C   UNL A   1      31.353  27.172  24.924  1.00  0.00    -0.018 A 
ATOM     15  C   UNL A   1      31.669  29.463  25.768  1.00  0.00    -0.044 A 
ATOM     16  C   UNL A   1      30.941  29.964  24.683  1.00  0.00     0.004 A 
ATOM     17  C   UNL A   1      31.881  28.074  25.868  1.00  0.00     0.012 A 
ATOM     18  C   UNL A   1      30.400  29.096  23.742  1.00  0.00     0.001 A 
ATOM     19  C   UNL A   1      30.593  27.720  23.873  1.00  0.00     0.009 A 
BRANCH  15  20
ATOM     20  C   UNL A   1      32.189  30.407  26.827  1.00  0.00     0.062 C 
BRANCH  20  21
ATOM     21  C   UNL A   1      33.692  30.385  26.911  1.00  0.00    -0.030 C 
ATOM     22  C   UNL A   1      34.423  31.057  27.809  1.00  0.00     0.004 C 
ENDBRANCH  20  21
ENDBRANCH  15  20
ENDBRANCH   9  14
ENDBRANCH   6   8
ENDBRANCH   3   6
ENDBRANCH   1   2
BRANCH   1  23
ATOM     23  C   UNL A   1      35.819  23.403  24.537  1.00  0.00     0.042 C 
BRANCH  23  24
ATOM     24  C   UNL A   1      36.654  23.751  25.764  1.00  0.00     0.118 C 
BRANCH  24  25
ATOM     25  N   UNL A   1      37.806  22.871  25.916  1.00  0.00    -0.352 N 
ATOM     26  C   UNL A   1      39.083  23.137  26.347  1.00  0.00     0.251 C 
ATOM     27  H   UNL A   1      37.642  21.932  25.670  1.00  0.00     0.163 HD
ATOM     28  O   UNL A   1      39.958  22.291  26.181  1.00  0.00    -0.269 OA
BRANCH  26  29
ATOM     29  C   UNL A   1      39.419  24.428  26.991  1.00  0.00     0.039 A 
ATOM     30  C   UNL A   1      38.976  24.668  28.296  1.00  0.00     0.014 A 
ATOM     31  C   UNL A   1      40.131  25.416  26.309  1.00  0.00     0.014 A 
ATOM     32  C   UNL A   1      39.312  25.864  28.939  1.00  0.00     0.010 A 
ATOM     33  C   UNL A   1      40.530  26.574  26.974  1.00  0.00     0.010 A 
ATOM     34  C   UNL A   1      40.129  26.809  28.298  1.00  0.00    -0.014 A 
BRANCH  34  35
ATOM     35  C   UNL A   1      40.596  28.037  28.991  1.00  0.00     0.031 A 
ATOM     36  C   UNL A   1      41.945  28.066  29.656  1.00  0.00     0.074 A 
ATOM     37  C   UNL A   1      39.766  29.095  29.099  1.00  0.00     0.049 A 
ATOM     38  N   UNL A   1      42.475  28.999  30.406  1.00  0.00    -0.248 NA
ATOM     39  C   UNL A   1      42.802  26.883  29.475  1.00  0.00     0.031 C 
ATOM     40  C   UNL A   1      38.421  29.178  28.525  1.00  0.00     0.029 A 
ATOM     41  N   UNL A   1      39.925  30.296  29.745  1.00  0.00    -0.354 N 
ATOM     42  C   UNL A   1      43.713  28.509  30.803  1.00  0.00     0.074 A 
ATOM     43  C   UNL A   1      43.839  27.179  30.244  1.00  0.00     0.031 C 
ATOM     44  C   UNL A   1      37.884  30.369  28.832  1.00  0.00     0.029 A 
ATOM     45  C   UNL A   1      38.822  31.114  29.667  1.00  0.00     0.049 A 
ATOM     46  H   UNL A   1      40.750  30.548  30.220  1.00  0.00     0.167 HD
ATOM     47  C   UNL A   1      44.665  29.115  31.553  1.00  0.00     0.031 A 
ATOM     48  C   UNL A   1      38.578  32.318  30.222  1.00  0.00     0.031 A 
ATOM     49  C   UNL A   1      44.536  30.439  32.100  1.00  0.00     0.049 A 
ATOM     50  C   UNL A   1      39.635  32.956  31.081  1.00  0.00     0.074 A 
ATOM     51  C   UNL A   1      45.468  31.166  32.820  1.00  0.00     0.029 A 
ATOM     52  N   UNL A   1      43.404  31.234  31.995  1.00  0.00    -0.354 N 
ATOM     53  N   UNL A   1      40.829  32.505  31.387  1.00  0.00    -0.248 NA
ATOM     54  C   UNL A   1      39.314  34.262  31.672  1.00  0.00     0.031 C 
ATOM     55  C   UNL A   1      44.878  32.375  33.202  1.00  0.00     0.029 A 
ATOM     56  C   UNL A   1      43.601  32.427  32.669  1.00  0.00     0.049 A 
ATOM     57  H   UNL A   1      42.582  30.986  31.513  1.00  0.00     0.167 HD
ATOM     58  C   UNL A   1      41.406  33.480  32.191  1.00  0.00     0.074 A 
ATOM     59  C   UNL A   1      40.440  34.554  32.309  1.00  0.00     0.031 C 
ATOM     60  C   UNL A   1      42.627  33.485  32.780  1.00  0.00     0.031 A 
BRANCH  47  61
ATOM     61  C   UNL A   1      45.929  28.345  31.836  1.00  0.00    -0.014 A 
ATOM     62  C   UNL A   1      47.058  28.469  31.007  1.00  0.00     0.010 A 
ATOM     63  C   UNL A   1      46.004  27.521  32.975  1.00  0.00     0.010 A 
ATOM     64  C   UNL A   1      48.223  27.752  31.285  1.00  0.00     0.020 A 
ATOM     65  C   UNL A   1      47.179  26.824  33.273  1.00  0.00     0.020 A 
ATOM     66  C   UNL A   1      48.276  26.930  32.416  1.00  0.00     0.054 A 
BRANCH  66  67
ATOM     67  S   UNL A   1      49.811  26.028  32.762  1.00  0.00     0.124 S 
ATOM     68  O   UNL A   1      50.825  26.972  32.303  1.00  0.00    -0.237 OA
ATOM     69  O   UNL A   1      49.746  25.830  34.208  1.00  0.00    -0.237 OA
ATOM     70  O   UNL A   1      49.686  24.811  31.963  1.00  0.00    -0.744 OA
ENDBRANCH  66  67
ENDBRANCH  47  61
BRANCH  48  71
ATOM     71  C   UNL A   1      37.270  32.990  29.990  1.00  0.00    -0.014 A 
ATOM     72  C   UNL A   1      37.080  33.811  28.866  1.00  0.00     0.010 A 
ATOM     73  C   UNL A   1      36.200  32.792  30.882  1.00  0.00     0.010 A 
ATOM     74  C   UNL A   1      35.847  34.433  28.644  1.00  0.00     0.020 A 
ATOM     75  C   UNL A   1      34.959  33.390  30.649  1.00  0.00     0.020 A 
ATOM     76  C   UNL A   1      34.793  34.215  29.535  1.00  0.00     0.054 A 
BRANCH  76  77
ATOM     77  S   UNL A   1      33.184  34.982  29.198  1.00  0.00     0.124 S 
ATOM     78  O   UNL A   1      32.550  34.949  30.511  1.00  0.00    -0.237 OA
ATOM     79  O   UNL A   1      33.563  36.306  28.710  1.00  0.00    -0.237 OA
ATOM     80  O   UNL A   1      32.592  34.103  28.192  1.00  0.00    -0.744 OA
ENDBRANCH  76  77
ENDBRANCH  48  71
BRANCH  60  81
ATOM     81  C   UNL A   1      43.002  34.691  33.599  1.00  0.00    -0.014 A 
ATOM     82  C   UNL A   1      42.831  34.699  34.994  1.00  0.00     0.010 A 
ATOM     83  C   UNL A   1      43.613  35.795  32.975  1.00  0.00     0.010 A 
ATOM     84  C   UNL A   1      43.254  35.795  35.751  1.00  0.00     0.020 A 
ATOM     85  C   UNL A   1      44.061  36.881  33.732  1.00  0.00     0.020 A 
ATOM     86  C   UNL A   1      43.873  36.876  35.115  1.00  0.00     0.054 A 
BRANCH  86  87
ATOM     87  S   UNL A   1      44.484  38.250  36.129  1.00  0.00     0.124 S 
ATOM     88  O   UNL A   1      45.912  37.956  36.213  1.00  0.00    -0.237 OA
ATOM     89  O   UNL A   1      44.129  39.420  35.328  1.00  0.00    -0.237 OA
ATOM     90  O   UNL A   1      43.745  38.112  37.382  1.00  0.00    -0.744 OA
ENDBRANCH  86  87
ENDBRANCH  60  81
ENDBRANCH  34  35
ENDBRANCH  26  29
ENDBRANCH  24  25
ENDBRANCH  23  24
ENDBRANCH   1  23
TORSDOF 17
ENDMDL
MODEL 3
REMARK VINA RESULT:      -9.3      0.969      8.275
REMARK SMILES C=CCc1cccc(-c2ccc([C@@H](C)C(=O)NCCCNC(=O)c3ccc(-c4c5nc(c(-c6ccc(S(=O)(=O)[O-])cc6)c6ccc([nH]6)c(-c6ccc(S(=O)(=O)[O-])cc6)c6nc(c(-c7ccc(S(=O)(=O)[O-])cc7)c7ccc4[nH]7)C=C6)C=C5)cc3)cc2)c1
REMARK SMILES IDX 18 1 17 2 15 3 16 4 13 6 14 7 12 8 9 9 10 10 85 11 11 12
REMARK SMILES IDX 84 13 8 14 4 15 5 16 86 17 6 18 7 19 3 20 2 21 1 22 19 23
REMARK SMILES IDX 20 24 21 25 22 26 23 28 24 29 25 30 83 31 26 32 82 33 27 34
REMARK SMILES IDX 28 35 29 36 76 37 30 38 81 39 75 40 77 41 31 42 80 43 74 44
REMARK SMILES IDX 73 45 32 47 62 48 43 49 61 50 44 51 47 52 60 53 78 54 45 55
REMARK SMILES IDX 46 56 59 58 79 59 48 60 33 61 34 62 42 63 35 64 41 65 36 66
REMARK SMILES IDX 37 67 38 68 39 69 40 70 63 71 64 72 72 73 65 74 71 75 66 76
REMARK SMILES IDX 67 77 68 78 69 79 70 80 49 81 50 82 58 83 51 84 57 85 52 86
REMARK SMILES IDX 53 87 54 88 55 89 56 90
REMARK H PARENT 17 5 21 27 77 46 47 57
REMARK Flexibility Score: inf
ROOT
ATOM      1  C   UNL A   1      41.554  19.301  25.936  1.00  0.00     0.117 C 
ENDROOT
BRANCH   1   2
ATOM      2  N   UNL A   1      42.855  18.684  26.109  1.00  0.00    -0.356 N 
ATOM      3  C   UNL A   1      44.023  18.802  25.420  1.00  0.00     0.227 C 
ATOM      4  O   UNL A   1      44.959  18.095  25.814  1.00  0.00    -0.274 OA
ATOM      5  H   UNL A   1      42.902  18.060  26.869  1.00  0.00     0.163 HD
BRANCH   3   6
ATOM      6  C   UNL A   1      44.236  19.757  24.235  1.00  0.00     0.105 C 
ATOM      7  C   UNL A   1      45.083  19.172  23.105  1.00  0.00     0.023 C 
BRANCH   6   8
ATOM      8  C   UNL A   1      44.581  21.178  24.647  1.00  0.00    -0.036 A 
ATOM      9  C   UNL A   1      45.313  23.880  25.263  1.00  0.00    -0.018 A 
ATOM     10  C   UNL A   1      43.977  23.496  25.071  1.00  0.00     0.009 A 
ATOM     11  C   UNL A   1      46.276  22.863  25.169  1.00  0.00     0.009 A 
ATOM     12  C   UNL A   1      43.615  22.170  24.810  1.00  0.00     0.005 A 
ATOM     13  C   UNL A   1      45.922  21.543  24.847  1.00  0.00     0.005 A 
BRANCH   9  14
ATOM     14  C   UNL A   1      45.664  25.295  25.548  1.00  0.00    -0.018 A 
ATOM     15  C   UNL A   1      45.027  27.594  26.157  1.00  0.00    -0.044 A 
ATOM     16  C   UNL A   1      46.376  27.965  26.171  1.00  0.00     0.004 A 
ATOM     17  C   UNL A   1      44.686  26.260  25.862  1.00  0.00     0.012 A 
ATOM     18  C   UNL A   1      47.360  27.036  25.854  1.00  0.00     0.001 A 
ATOM     19  C   UNL A   1      47.004  25.726  25.533  1.00  0.00     0.009 A 
BRANCH  15  20
ATOM     20  C   UNL A   1      43.958  28.627  26.428  1.00  0.00     0.062 C 
BRANCH  20  21
ATOM     21  C   UNL A   1      44.516  29.850  27.105  1.00  0.00    -0.030 C 
ATOM     22  C   UNL A   1      44.052  31.096  26.949  1.00  0.00     0.004 C 
ENDBRANCH  20  21
ENDBRANCH  15  20
ENDBRANCH   9  14
ENDBRANCH   6   8
ENDBRANCH   3   6
ENDBRANCH   1   2
BRANCH   1  23
ATOM     23  C   UNL A   1      41.110  20.086  27.168  1.00  0.00     0.042 C 
BRANCH  23  24
ATOM     24  C   UNL A   1      40.964  21.584  26.928  1.00  0.00     0.118 C 
BRANCH  24  25
ATOM     25  N   UNL A   1      39.786  21.903  26.129  1.00  0.00    -0.352 N 
ATOM     26  C   UNL A   1      38.990  23.023  26.118  1.00  0.00     0.251 C 
ATOM     27  H   UNL A   1      39.517  21.201  25.494  1.00  0.00     0.163 HD
ATOM     28  O   UNL A   1      37.915  22.986  25.526  1.00  0.00    -0.269 OA
BRANCH  26  29
ATOM     29  C   UNL A   1      39.403  24.261  26.820  1.00  0.00     0.039 A 
ATOM     30  C   UNL A   1      38.946  24.484  28.124  1.00  0.00     0.014 A 
ATOM     31  C   UNL A   1      40.201  25.219  26.194  1.00  0.00     0.014 A 
ATOM     32  C   UNL A   1      39.351  25.626  28.820  1.00  0.00     0.010 A 
ATOM     33  C   UNL A   1      40.666  26.318  26.912  1.00  0.00     0.010 A 
ATOM     34  C   UNL A   1      40.250  26.532  28.235  1.00  0.00    -0.014 A 
BRANCH  34  35
ATOM     35  C   UNL A   1      40.787  27.696  28.986  1.00  0.00     0.031 A 
ATOM     36  C   UNL A   1      39.935  28.916  29.205  1.00  0.00     0.074 A 
ATOM     37  C   UNL A   1      42.073  27.688  29.392  1.00  0.00     0.049 A 
ATOM     38  N   UNL A   1      40.264  30.069  29.730  1.00  0.00    -0.248 NA
ATOM     39  C   UNL A   1      38.535  28.839  28.755  1.00  0.00     0.031 C 
ATOM     40  C   UNL A   1      43.011  26.578  29.211  1.00  0.00     0.029 A 
ATOM     41  N   UNL A   1      42.819  28.652  30.023  1.00  0.00    -0.354 N 
ATOM     42  C   UNL A   1      39.124  30.860  29.653  1.00  0.00     0.074 A 
ATOM     43  C   UNL A   1      38.105  30.070  28.995  1.00  0.00     0.031 C 
ATOM     44  C   UNL A   1      44.201  26.918  29.732  1.00  0.00     0.029 A 
ATOM     45  C   UNL A   1      44.128  28.286  30.235  1.00  0.00     0.049 A 
ATOM     46  H   UNL A   1      42.452  29.524  30.298  1.00  0.00     0.167 HD
ATOM     47  C   UNL A   1      38.937  32.125  30.102  1.00  0.00     0.031 A 
ATOM     48  C   UNL A   1      45.162  28.978  30.754  1.00  0.00     0.031 A 
ATOM     49  C   UNL A   1      39.952  32.902  30.762  1.00  0.00     0.049 A 
ATOM     50  C   UNL A   1      44.941  30.393  31.212  1.00  0.00     0.074 A 
ATOM     51  C   UNL A   1      39.843  34.169  31.309  1.00  0.00     0.029 A 
ATOM     52  N   UNL A   1      41.262  32.493  30.959  1.00  0.00    -0.354 N 
ATOM     53  N   UNL A   1      43.836  31.100  31.195  1.00  0.00    -0.248 NA
ATOM     54  C   UNL A   1      46.104  31.106  31.758  1.00  0.00     0.031 C 
ATOM     55  C   UNL A   1      41.103  34.549  31.783  1.00  0.00     0.029 A 
ATOM     56  C   UNL A   1      41.982  33.496  31.585  1.00  0.00     0.049 A 
ATOM     57  H   UNL A   1      41.627  31.618  30.692  1.00  0.00     0.167 HD
ATOM     58  C   UNL A   1      44.167  32.333  31.743  1.00  0.00     0.074 A 
ATOM     59  C   UNL A   1      45.570  32.271  32.099  1.00  0.00     0.031 C 
ATOM     60  C   UNL A   1      43.379  33.420  31.931  1.00  0.00     0.031 A 
BRANCH  47  61
ATOM     61  C   UNL A   1      37.585  32.752  29.885  1.00  0.00    -0.014 A 
ATOM     62  C   UNL A   1      36.548  32.590  30.821  1.00  0.00     0.010 A 
ATOM     63  C   UNL A   1      37.362  33.555  28.750  1.00  0.00     0.010 A 
ATOM     64  C   UNL A   1      35.301  33.181  30.607  1.00  0.00     0.020 A 
ATOM     65  C   UNL A   1      36.124  34.174  28.547  1.00  0.00     0.020 A 
ATOM     66  C   UNL A   1      35.096  33.968  29.468  1.00  0.00     0.054 A 
BRANCH  66  67
ATOM     67  S   UNL A   1      33.472  34.740  29.228  1.00  0.00     0.124 S 
ATOM     68  O   UNL A   1      33.835  36.026  28.640  1.00  0.00    -0.237 OA
ATOM     69  O   UNL A   1      32.803  33.805  28.328  1.00  0.00    -0.237 OA
ATOM     70  O   UNL A   1      32.917  34.808  30.578  1.00  0.00    -0.744 OA
ENDBRANCH  66  67
ENDBRANCH  47  61
BRANCH  48  71
ATOM     71  C   UNL A   1      46.504  28.341  30.853  1.00  0.00    -0.014 A 
ATOM     72  C   UNL A   1      46.885  27.659  32.022  1.00  0.00     0.010 A 
ATOM     73  C   UNL A   1      47.399  28.393  29.769  1.00  0.00     0.010 A 
ATOM     74  C   UNL A   1      48.142  27.053  32.110  1.00  0.00     0.020 A 
ATOM     75  C   UNL A   1      48.645  27.765  29.843  1.00  0.00     0.020 A 
ATOM     76  C   UNL A   1      49.013  27.106  31.018  1.00  0.00     0.054 A 
BRANCH  76  77
ATOM     77  S   UNL A   1      50.614  26.261  31.129  1.00  0.00     0.124 S 
ATOM     78  O   UNL A   1      51.190  26.528  29.816  1.00  0.00    -0.237 OA
ATOM     79  O   UNL A   1      51.252  26.943  32.252  1.00  0.00    -0.237 OA
ATOM     80  O   UNL A   1      50.248  24.869  31.383  1.00  0.00    -0.744 OA
ENDBRANCH  76  77
ENDBRANCH  48  71
BRANCH  60  81
ATOM     81  C   UNL A   1      44.006  34.634  32.563  1.00  0.00    -0.014 A 
ATOM     82  C   UNL A   1      44.455  35.709  31.776  1.00  0.00     0.010 A 
ATOM     83  C   UNL A   1      44.067  34.737  33.965  1.00  0.00     0.010 A 
ATOM     84  C   UNL A   1      44.964  36.862  32.380  1.00  0.00     0.020 A 
ATOM     85  C   UNL A   1      44.550  35.899  34.573  1.00  0.00     0.020 A 
ATOM     86  C   UNL A   1      45.001  36.952  33.775  1.00  0.00     0.054 A 
BRANCH  86  87
ATOM     87  S   UNL A   1      45.593  38.490  34.533  1.00  0.00     0.124 S 
ATOM     88  O   UNL A   1      45.142  39.495  33.574  1.00  0.00    -0.237 OA
ATOM     89  O   UNL A   1      44.903  38.497  35.821  1.00  0.00    -0.237 OA
ATOM     90  O   UNL A   1      47.040  38.305  34.608  1.00  0.00    -0.744 OA
ENDBRANCH  86  87
ENDBRANCH  60  81
ENDBRANCH  34  35
ENDBRANCH  26  29
ENDBRANCH  24  25
ENDBRANCH  23  24
ENDBRANCH   1  23
TORSDOF 17
ENDMDL
