MODEL 1
REMARK VINA RESULT:     -13.4      0.000      0.000
REMARK SMILES O=C(NCCCNC(=O)[C@@H](Cc1ccccc1)/N=C1\C(=O)c2ccccc2C(=O)[C@H]1Cl)c1ccc(-c2c3nc(c(-c4ccc(S(=O)(=O)[O-])cc4)c4ccc([nH]4)c(-c4ccc(S(=O)(=O)[O-])cc4)c4nc(c(-c5ccc(S(=O)(=O)[O-])cc5)c5ccc2[nH]5)C=C4)C=C3)cc1
REMARK SMILES IDX 4 1 3 2 1 3 2 4 32 6 33 7 91 8 34 9 90 10 35 11 36 12 37 13
REMARK SMILES IDX 84 14 38 15 89 16 83 17 85 18 39 19 88 20 82 21 81 22 40 24
REMARK SMILES IDX 70 25 51 26 69 27 52 28 55 29 68 30 86 31 53 32 54 33 67 35
REMARK SMILES IDX 87 36 56 37 41 38 42 39 50 40 43 41 49 42 44 43 45 44 46 45
REMARK SMILES IDX 47 46 48 47 71 48 72 49 80 50 73 51 79 52 74 53 75 54 76 55
REMARK SMILES IDX 77 56 78 57 57 58 58 59 66 60 59 61 65 62 60 63 61 64 62 65
REMARK SMILES IDX 63 66 64 67 5 68 6 69 7 70 8 71 9 73 10 74 11 75 12 76 13 77
REMARK SMILES IDX 17 78 14 79 16 80 15 81 18 82 19 83 20 84 30 85 21 86 22 87
REMARK SMILES IDX 28 88 31 89 23 90 27 91 29 92 24 93 26 94 25 95
REMARK H PARENT 3 5 85 23 55 34 7 72
REMARK Flexibility Score: inf
ROOT
ATOM      1  C   UNL A   1      38.822  23.843  26.513  1.00  0.00     0.118 C 
ENDROOT
BRANCH   1   2
ATOM      2  N   UNL A   1      39.889  24.518  25.783  1.00  0.00    -0.352 N 
ATOM      3  O   UNL A   1      41.468  25.990  25.206  1.00  0.00    -0.269 OA
ATOM      4  C   UNL A   1      40.701  25.588  26.083  1.00  0.00     0.251 C 
ATOM      5  H   UNL A   1      40.063  24.130  24.895  1.00  0.00     0.163 HD
BRANCH   4   6
ATOM      6  C   UNL A   1      40.668  26.299  27.389  1.00  0.00     0.039 A 
ATOM      7  C   UNL A   1      41.447  27.421  27.647  1.00  0.00     0.014 A 
ATOM      8  C   UNL A   1      39.753  25.879  28.370  1.00  0.00     0.014 A 
ATOM      9  C   UNL A   1      41.445  28.011  28.906  1.00  0.00     0.010 A 
ATOM     10  C   UNL A   1      39.646  26.560  29.592  1.00  0.00     0.010 A 
ATOM     11  C   UNL A   1      40.503  27.629  29.872  1.00  0.00    -0.014 A 
BRANCH  11  12
ATOM     12  C   UNL A   1      40.345  28.508  31.061  1.00  0.00     0.031 A 
ATOM     13  C   UNL A   1      41.288  28.454  32.226  1.00  0.00     0.074 A 
ATOM     14  C   UNL A   1      39.364  29.434  31.018  1.00  0.00     0.049 A 
ATOM     15  N   UNL A   1      41.370  29.272  33.244  1.00  0.00    -0.248 NA
ATOM     16  C   UNL A   1      42.252  27.345  32.264  1.00  0.00     0.031 C 
ATOM     17  C   UNL A   1      38.373  29.553  29.940  1.00  0.00     0.029 A 
ATOM     18  N   UNL A   1      39.071  30.483  31.848  1.00  0.00    -0.354 N 
ATOM     19  C   UNL A   1      42.383  28.775  34.054  1.00  0.00     0.074 A 
ATOM     20  C   UNL A   1      42.873  27.569  33.417  1.00  0.00     0.031 C 
ATOM     21  C   UNL A   1      37.657  30.670  30.120  1.00  0.00     0.029 A 
ATOM     22  C   UNL A   1      38.078  31.302  31.362  1.00  0.00     0.049 A 
ATOM     23  H   UNL A   1      39.526  30.635  32.708  1.00  0.00     0.167 HD
ATOM     24  C   UNL A   1      42.856  29.278  35.220  1.00  0.00     0.031 A 
ATOM     25  C   UNL A   1      37.558  32.442  31.856  1.00  0.00     0.031 A 
ATOM     26  C   UNL A   1      42.346  30.471  35.849  1.00  0.00     0.049 A 
ATOM     27  C   UNL A   1      38.100  32.976  33.145  1.00  0.00     0.074 A 
ATOM     28  C   UNL A   1      42.768  31.076  37.021  1.00  0.00     0.029 A 
ATOM     29  N   UNL A   1      41.297  31.239  35.361  1.00  0.00    -0.354 N 
ATOM     30  N   UNL A   1      39.085  32.509  33.875  1.00  0.00    -0.248 NA
ATOM     31  C   UNL A   1      37.458  34.180  33.684  1.00  0.00     0.031 C 
ATOM     32  C   UNL A   1      41.941  32.179  37.268  1.00  0.00     0.029 A 
ATOM     33  C   UNL A   1      41.039  32.295  36.222  1.00  0.00     0.049 A 
ATOM     34  H   UNL A   1      40.807  31.060  34.526  1.00  0.00     0.167 HD
ATOM     35  C   UNL A   1      39.180  33.362  34.966  1.00  0.00     0.074 A 
ATOM     36  C   UNL A   1      38.175  34.391  34.780  1.00  0.00     0.031 C 
ATOM     37  C   UNL A   1      40.019  33.295  36.029  1.00  0.00     0.031 A 
BRANCH  24  38
ATOM     38  C   UNL A   1      43.955  28.516  35.914  1.00  0.00    -0.014 A 
ATOM     39  C   UNL A   1      45.309  28.823  35.693  1.00  0.00     0.010 A 
ATOM     40  C   UNL A   1      43.626  27.498  36.828  1.00  0.00     0.010 A 
ATOM     41  C   UNL A   1      46.315  28.096  36.338  1.00  0.00     0.020 A 
ATOM     42  C   UNL A   1      44.629  26.783  37.493  1.00  0.00     0.020 A 
ATOM     43  C   UNL A   1      45.968  27.073  37.227  1.00  0.00     0.054 A 
BRANCH  43  44
ATOM     44  S   UNL A   1      47.292  26.142  38.048  1.00  0.00     0.124 S 
ATOM     45  O   UNL A   1      46.641  24.858  38.301  1.00  0.00    -0.237 OA
ATOM     46  O   UNL A   1      48.347  26.121  37.038  1.00  0.00    -0.237 OA
ATOM     47  O   UNL A   1      47.588  26.936  39.238  1.00  0.00    -0.744 OA
ENDBRANCH  43  44
ENDBRANCH  24  38
BRANCH  25  48
ATOM     48  C   UNL A   1      36.462  33.128  31.119  1.00  0.00    -0.014 A 
ATOM     49  C   UNL A   1      35.151  33.136  31.622  1.00  0.00     0.010 A 
ATOM     50  C   UNL A   1      36.745  33.831  29.932  1.00  0.00     0.010 A 
ATOM     51  C   UNL A   1      34.141  33.834  30.952  1.00  0.00     0.020 A 
ATOM     52  C   UNL A   1      35.746  34.554  29.277  1.00  0.00     0.020 A 
ATOM     53  C   UNL A   1      34.447  34.545  29.787  1.00  0.00     0.054 A 
BRANCH  53  54
ATOM     54  S   UNL A   1      33.144  35.511  28.975  1.00  0.00     0.124 S 
ATOM     55  O   UNL A   1      33.921  36.449  28.171  1.00  0.00    -0.237 OA
ATOM     56  O   UNL A   1      32.411  34.491  28.230  1.00  0.00    -0.237 OA
ATOM     57  O   UNL A   1      32.410  36.100  30.094  1.00  0.00    -0.744 OA
ENDBRANCH  53  54
ENDBRANCH  25  48
BRANCH  37  58
ATOM     58  C   UNL A   1      39.878  34.370  37.070  1.00  0.00    -0.014 A 
ATOM     59  C   UNL A   1      40.598  35.574  36.967  1.00  0.00     0.010 A 
ATOM     60  C   UNL A   1      38.995  34.185  38.148  1.00  0.00     0.010 A 
ATOM     61  C   UNL A   1      40.462  36.563  37.944  1.00  0.00     0.020 A 
ATOM     62  C   UNL A   1      38.837  35.182  39.113  1.00  0.00     0.020 A 
ATOM     63  C   UNL A   1      39.584  36.359  39.013  1.00  0.00     0.054 A 
BRANCH  63  64
ATOM     64  S   UNL A   1      39.396  37.670  40.251  1.00  0.00     0.124 S 
ATOM     65  O   UNL A   1      39.378  36.910  41.497  1.00  0.00    -0.237 OA
ATOM     66  O   UNL A   1      40.584  38.492  40.033  1.00  0.00    -0.237 OA
ATOM     67  O   UNL A   1      38.131  38.307  39.890  1.00  0.00    -0.744 OA
ENDBRANCH  63  64
ENDBRANCH  37  58
ENDBRANCH  11  12
ENDBRANCH   4   6
ENDBRANCH   1   2
BRANCH   1  68
ATOM     68  C   UNL A   1      37.574  23.534  25.696  1.00  0.00     0.042 C 
BRANCH  68  69
ATOM     69  C   UNL A   1      37.128  22.075  25.759  1.00  0.00     0.117 C 
BRANCH  69  70
ATOM     70  N   UNL A   1      35.923  21.872  26.553  1.00  0.00    -0.354 N 
ATOM     71  C   UNL A   1      34.629  21.536  26.406  1.00  0.00     0.245 C 
ATOM     72  H   UNL A   1      36.120  22.033  27.505  1.00  0.00     0.163 HD
ATOM     73  O   UNL A   1      34.069  21.420  27.518  1.00  0.00    -0.273 OA
BRANCH  71  74
ATOM     74  C   UNL A   1      33.741  21.368  25.146  1.00  0.00     0.199 C 
BRANCH  74  75
ATOM     75  C   UNL A   1      34.025  20.193  24.181  1.00  0.00     0.073 C 
BRANCH  75  76
ATOM     76  C   UNL A   1      33.850  18.769  24.633  1.00  0.00    -0.045 A 
ATOM     77  C   UNL A   1      32.750  18.414  25.426  1.00  0.00     0.004 A 
ATOM     78  C   UNL A   1      34.778  17.778  24.279  1.00  0.00     0.004 A 
ATOM     79  C   UNL A   1      32.537  17.083  25.785  1.00  0.00     0.000 A 
ATOM     80  C   UNL A   1      34.558  16.444  24.631  1.00  0.00     0.000 A 
ATOM     81  C   UNL A   1      33.430  16.098  25.372  1.00  0.00     0.000 A 
ENDBRANCH  75  76
ENDBRANCH  74  75
BRANCH  74  82
ATOM     82  N   UNL A   1      32.447  22.085  25.029  1.00  0.00    -0.270 NA
ATOM     83  C   UNL A   1      32.203  23.338  25.168  1.00  0.00     0.109 C 
ATOM     84  C   UNL A   1      33.225  24.411  25.316  1.00  0.00     0.209 C 
ATOM     85  C   UNL A   1      30.779  23.822  25.212  1.00  0.00     0.205 C 
ATOM     86  O   UNL A   1      34.403  24.125  25.209  1.00  0.00    -0.287 OA
ATOM     87  C   UNL A   1      32.855  25.784  25.621  1.00  0.00     0.035 A 
ATOM     88  C   UNL A   1      30.555  25.014  26.116  1.00  0.00     0.187 C 
ATOM     89  Cl  UNL A   1      30.291  24.274  23.558  1.00  0.00    -0.107 Cl
ATOM     90  C   UNL A   1      33.825  26.786  25.503  1.00  0.00     0.013 A 
ATOM     91  C   UNL A   1      31.590  26.072  26.109  1.00  0.00     0.031 A 
ATOM     92  O   UNL A   1      29.537  25.163  26.786  1.00  0.00    -0.292 OA
ATOM     93  C   UNL A   1      33.535  28.081  25.913  1.00  0.00     0.001 A 
ATOM     94  C   UNL A   1      31.312  27.363  26.566  1.00  0.00     0.012 A 
ATOM     95  C   UNL A   1      32.288  28.363  26.469  1.00  0.00     0.001 A 
ENDBRANCH  74  82
ENDBRANCH  71  74
ENDBRANCH  69  70
ENDBRANCH  68  69
ENDBRANCH   1  68
TORSDOF 16
ENDMDL
MODEL 2
REMARK VINA RESULT:     -13.4      4.952     10.055
REMARK SMILES O=C(NCCCNC(=O)[C@@H](Cc1ccccc1)/N=C1\C(=O)c2ccccc2C(=O)[C@H]1Cl)c1ccc(-c2c3nc(c(-c4ccc(S(=O)(=O)[O-])cc4)c4ccc([nH]4)c(-c4ccc(S(=O)(=O)[O-])cc4)c4nc(c(-c5ccc(S(=O)(=O)[O-])cc5)c5ccc2[nH]5)C=C4)C=C3)cc1
REMARK SMILES IDX 4 1 3 2 1 3 2 4 32 6 33 7 91 8 34 9 90 10 35 11 36 12 37 13
REMARK SMILES IDX 84 14 38 15 89 16 83 17 85 18 39 19 88 20 82 21 81 22 40 24
REMARK SMILES IDX 70 25 51 26 69 27 52 28 55 29 68 30 86 31 53 32 54 33 67 35
REMARK SMILES IDX 87 36 56 37 41 38 42 39 50 40 43 41 49 42 44 43 45 44 46 45
REMARK SMILES IDX 47 46 48 47 71 48 72 49 80 50 73 51 79 52 74 53 75 54 76 55
REMARK SMILES IDX 77 56 78 57 57 58 58 59 66 60 59 61 65 62 60 63 61 64 62 65
REMARK SMILES IDX 63 66 64 67 5 68 6 69 7 70 8 71 9 73 10 74 11 75 12 76 13 77
REMARK SMILES IDX 17 78 14 79 16 80 15 81 18 82 19 83 20 84 30 85 21 86 22 87
REMARK SMILES IDX 28 88 31 89 23 90 27 91 29 92 24 93 26 94 25 95
REMARK H PARENT 3 5 85 23 55 34 7 72
REMARK Flexibility Score: inf
ROOT
ATOM      1  C   UNL A   1      33.838  29.123  26.175  1.00  0.00     0.118 C 
ENDROOT
BRANCH   1   2
ATOM      2  N   UNL A   1      33.766  30.268  27.075  1.00  0.00    -0.352 N 
ATOM      3  O   UNL A   1      34.244  31.733  28.694  1.00  0.00    -0.269 OA
ATOM      4  C   UNL A   1      34.632  30.780  28.014  1.00  0.00     0.251 C 
ATOM      5  H   UNL A   1      32.928  30.778  26.994  1.00  0.00     0.163 HD
BRANCH   4   6
ATOM      6  C   UNL A   1      35.985  30.219  28.271  1.00  0.00     0.039 A 
ATOM      7  C   UNL A   1      37.016  30.304  27.341  1.00  0.00     0.014 A 
ATOM      8  C   UNL A   1      36.263  29.660  29.530  1.00  0.00     0.014 A 
ATOM      9  C   UNL A   1      38.244  29.699  27.588  1.00  0.00     0.010 A 
ATOM     10  C   UNL A   1      37.544  29.176  29.835  1.00  0.00     0.010 A 
ATOM     11  C   UNL A   1      38.544  29.183  28.858  1.00  0.00    -0.014 A 
BRANCH  11  12
ATOM     12  C   UNL A   1      39.964  28.850  29.144  1.00  0.00     0.031 A 
ATOM     13  C   UNL A   1      40.579  27.546  28.733  1.00  0.00     0.074 A 
ATOM     14  C   UNL A   1      40.720  29.812  29.715  1.00  0.00     0.049 A 
ATOM     15  N   UNL A   1      41.838  27.194  28.766  1.00  0.00    -0.248 NA
ATOM     16  C   UNL A   1      39.674  26.502  28.231  1.00  0.00     0.031 C 
ATOM     17  C   UNL A   1      40.212  31.109  30.181  1.00  0.00     0.029 A 
ATOM     18  N   UNL A   1      42.068  29.888  29.945  1.00  0.00    -0.354 N 
ATOM     19  C   UNL A   1      41.882  25.885  28.304  1.00  0.00     0.074 A 
ATOM     20  C   UNL A   1      40.516  25.498  28.015  1.00  0.00     0.031 C 
ATOM     21  C   UNL A   1      41.243  31.885  30.536  1.00  0.00     0.029 A 
ATOM     22  C   UNL A   1      42.475  31.120  30.404  1.00  0.00     0.049 A 
ATOM     23  H   UNL A   1      42.685  29.135  29.796  1.00  0.00     0.167 HD
ATOM     24  C   UNL A   1      42.963  25.083  28.138  1.00  0.00     0.031 A 
ATOM     25  C   UNL A   1      43.703  31.591  30.689  1.00  0.00     0.031 A 
ATOM     26  C   UNL A   1      44.315  25.479  28.445  1.00  0.00     0.049 A 
ATOM     27  C   UNL A   1      44.879  30.684  30.497  1.00  0.00     0.074 A 
ATOM     28  C   UNL A   1      45.483  24.749  28.296  1.00  0.00     0.029 A 
ATOM     29  N   UNL A   1      44.682  26.712  28.970  1.00  0.00    -0.354 N 
ATOM     30  N   UNL A   1      44.901  29.461  30.022  1.00  0.00    -0.248 NA
ATOM     31  C   UNL A   1      46.192  31.211  30.886  1.00  0.00     0.031 C 
ATOM     32  C   UNL A   1      46.547  25.522  28.778  1.00  0.00     0.029 A 
ATOM     33  C   UNL A   1      46.051  26.753  29.176  1.00  0.00     0.049 A 
ATOM     34  H   UNL A   1      44.059  27.449  29.166  1.00  0.00     0.167 HD
ATOM     35  C   UNL A   1      46.232  29.068  30.058  1.00  0.00     0.074 A 
ATOM     36  C   UNL A   1      46.986  30.197  30.569  1.00  0.00     0.031 C 
ATOM     37  C   UNL A   1      46.779  27.879  29.707  1.00  0.00     0.031 A 
BRANCH  24  38
ATOM     38  C   UNL A   1      42.722  23.682  27.640  1.00  0.00    -0.014 A 
ATOM     39  C   UNL A   1      42.596  22.601  28.532  1.00  0.00     0.010 A 
ATOM     40  C   UNL A   1      42.587  23.447  26.260  1.00  0.00     0.010 A 
ATOM     41  C   UNL A   1      42.385  21.305  28.049  1.00  0.00     0.020 A 
ATOM     42  C   UNL A   1      42.352  22.156  25.774  1.00  0.00     0.020 A 
ATOM     43  C   UNL A   1      42.274  21.090  26.671  1.00  0.00     0.054 A 
BRANCH  43  44
ATOM     44  S   UNL A   1      42.004  19.399  26.069  1.00  0.00     0.124 S 
ATOM     45  O   UNL A   1      40.561  19.391  25.840  1.00  0.00    -0.237 OA
ATOM     46  O   UNL A   1      42.831  19.349  24.866  1.00  0.00    -0.237 OA
ATOM     47  O   UNL A   1      42.464  18.560  27.174  1.00  0.00    -0.744 OA
ENDBRANCH  43  44
ENDBRANCH  24  38
BRANCH  25  48
ATOM     48  C   UNL A   1      43.857  32.982  31.193  1.00  0.00    -0.014 A 
ATOM     49  C   UNL A   1      44.005  34.059  30.303  1.00  0.00     0.010 A 
ATOM     50  C   UNL A   1      43.797  33.240  32.576  1.00  0.00     0.010 A 
ATOM     51  C   UNL A   1      44.089  35.368  30.786  1.00  0.00     0.020 A 
ATOM     52  C   UNL A   1      43.850  34.549  33.061  1.00  0.00     0.020 A 
ATOM     53  C   UNL A   1      44.004  35.605  32.162  1.00  0.00     0.054 A 
BRANCH  53  54
ATOM     54  S   UNL A   1      44.033  37.316  32.765  1.00  0.00     0.124 S 
ATOM     55  O   UNL A   1      45.354  37.396  33.383  1.00  0.00    -0.237 OA
ATOM     56  O   UNL A   1      43.859  38.088  31.538  1.00  0.00    -0.237 OA
ATOM     57  O   UNL A   1      42.903  37.370  33.690  1.00  0.00    -0.744 OA
ENDBRANCH  53  54
ENDBRANCH  25  48
BRANCH  37  58
ATOM     58  C   UNL A   1      48.268  27.746  29.867  1.00  0.00    -0.014 A 
ATOM     59  C   UNL A   1      48.823  27.230  31.052  1.00  0.00     0.010 A 
ATOM     60  C   UNL A   1      49.118  28.115  28.811  1.00  0.00     0.010 A 
ATOM     61  C   UNL A   1      50.208  27.116  31.189  1.00  0.00     0.020 A 
ATOM     62  C   UNL A   1      50.503  27.979  28.935  1.00  0.00     0.020 A 
ATOM     63  C   UNL A   1      51.040  27.494  30.130  1.00  0.00     0.054 A 
BRANCH  63  64
ATOM     64  S   UNL A   1      52.833  27.304  30.318  1.00  0.00     0.124 S 
ATOM     65  O   UNL A   1      53.141  26.310  29.294  1.00  0.00    -0.237 OA
ATOM     66  O   UNL A   1      53.330  28.652  30.053  1.00  0.00    -0.237 OA
ATOM     67  O   UNL A   1      52.990  26.848  31.698  1.00  0.00    -0.744 OA
ENDBRANCH  63  64
ENDBRANCH  37  58
ENDBRANCH  11  12
ENDBRANCH   4   6
ENDBRANCH   1   2
BRANCH   1  68
ATOM     68  C   UNL A   1      33.210  27.841  26.708  1.00  0.00     0.042 C 
BRANCH  68  69
ATOM     69  C   UNL A   1      31.725  27.962  27.041  1.00  0.00     0.117 C 
BRANCH  69  70
ATOM     70  N   UNL A   1      30.991  26.713  26.877  1.00  0.00    -0.354 N 
ATOM     71  C   UNL A   1      30.964  25.622  26.090  1.00  0.00     0.245 C 
ATOM     72  H   UNL A   1      30.289  26.646  27.564  1.00  0.00     0.163 HD
ATOM     73  O   UNL A   1      30.132  24.790  26.511  1.00  0.00    -0.273 OA
BRANCH  71  74
ATOM     74  C   UNL A   1      31.690  25.287  24.762  1.00  0.00     0.199 C 
BRANCH  74  75
ATOM     75  C   UNL A   1      31.137  25.869  23.439  1.00  0.00     0.073 C 
BRANCH  75  76
ATOM     76  C   UNL A   1      30.402  27.182  23.427  1.00  0.00    -0.045 A 
ATOM     77  C   UNL A   1      31.114  28.387  23.483  1.00  0.00     0.004 A 
ATOM     78  C   UNL A   1      29.000  27.225  23.368  1.00  0.00     0.004 A 
ATOM     79  C   UNL A   1      30.447  29.608  23.393  1.00  0.00     0.000 A 
ATOM     80  C   UNL A   1      28.334  28.449  23.269  1.00  0.00     0.000 A 
ATOM     81  C   UNL A   1      29.060  29.638  23.267  1.00  0.00     0.000 A 
ENDBRANCH  75  76
ENDBRANCH  74  75
BRANCH  74  82
ATOM     82  N   UNL A   1      33.060  24.718  24.768  1.00  0.00    -0.270 NA
ATOM     83  C   UNL A   1      33.432  23.506  24.567  1.00  0.00     0.109 C 
ATOM     84  C   UNL A   1      32.557  22.395  24.100  1.00  0.00     0.209 C 
ATOM     85  C   UNL A   1      34.859  23.108  24.828  1.00  0.00     0.205 C 
ATOM     86  O   UNL A   1      31.408  22.640  23.784  1.00  0.00    -0.287 OA
ATOM     87  C   UNL A   1      33.028  21.020  24.046  1.00  0.00     0.035 A 
ATOM     88  C   UNL A   1      35.028  21.695  25.339  1.00  0.00     0.187 C 
ATOM     89  Cl  UNL A   1      35.770  23.264  23.303  1.00  0.00    -0.107 Cl
ATOM     90  C   UNL A   1      32.255  20.068  23.372  1.00  0.00     0.013 A 
ATOM     91  C   UNL A   1      34.174  20.649  24.732  1.00  0.00     0.031 A 
ATOM     92  O   UNL A   1      35.875  21.382  26.170  1.00  0.00    -0.292 OA
ATOM     93  C   UNL A   1      32.614  18.727  23.418  1.00  0.00     0.001 A 
ATOM     94  C   UNL A   1      34.510  19.296  24.819  1.00  0.00     0.012 A 
ATOM     95  C   UNL A   1      33.726  18.339  24.162  1.00  0.00     0.001 A 
ENDBRANCH  74  82
ENDBRANCH  71  74
ENDBRANCH  69  70
ENDBRANCH  68  69
ENDBRANCH   1  68
TORSDOF 16
ENDMDL
MODEL 3
REMARK VINA RESULT:     -13.1      2.928      9.293
REMARK SMILES O=C(NCCCNC(=O)[C@@H](Cc1ccccc1)/N=C1\C(=O)c2ccccc2C(=O)[C@H]1Cl)c1ccc(-c2c3nc(c(-c4ccc(S(=O)(=O)[O-])cc4)c4ccc([nH]4)c(-c4ccc(S(=O)(=O)[O-])cc4)c4nc(c(-c5ccc(S(=O)(=O)[O-])cc5)c5ccc2[nH]5)C=C4)C=C3)cc1
REMARK SMILES IDX 4 1 3 2 1 3 2 4 32 6 33 7 91 8 34 9 90 10 35 11 36 12 37 13
REMARK SMILES IDX 84 14 38 15 89 16 83 17 85 18 39 19 88 20 82 21 81 22 40 24
REMARK SMILES IDX 70 25 51 26 69 27 52 28 55 29 68 30 86 31 53 32 54 33 67 35
REMARK SMILES IDX 87 36 56 37 41 38 42 39 50 40 43 41 49 42 44 43 45 44 46 45
REMARK SMILES IDX 47 46 48 47 71 48 72 49 80 50 73 51 79 52 74 53 75 54 76 55
REMARK SMILES IDX 77 56 78 57 57 58 58 59 66 60 59 61 65 62 60 63 61 64 62 65
REMARK SMILES IDX 63 66 64 67 5 68 6 69 7 70 8 71 9 73 10 74 11 75 12 76 13 77
REMARK SMILES IDX 17 78 14 79 16 80 15 81 18 82 19 83 20 84 30 85 21 86 22 87
REMARK SMILES IDX 28 88 31 89 23 90 27 91 29 92 24 93 26 94 25 95
REMARK H PARENT 3 5 85 23 55 34 7 72
REMARK Flexibility Score: inf
ROOT
ATOM      1  C   UNL A   1      32.948  32.266  27.239  1.00  0.00     0.118 C 
ENDROOT
BRANCH   1   2
ATOM      2  N   UNL A   1      32.648  33.632  27.653  1.00  0.00    -0.352 N 
ATOM      3  O   UNL A   1      32.670  35.568  28.769  1.00  0.00    -0.269 OA
ATOM      4  C   UNL A   1      33.212  34.477  28.582  1.00  0.00     0.251 C 
ATOM      5  H   UNL A   1      31.889  34.030  27.170  1.00  0.00     0.163 HD
BRANCH   4   6
ATOM      6  C   UNL A   1      34.410  34.122  29.389  1.00  0.00     0.039 A 
ATOM      7  C   UNL A   1      34.319  33.445  30.600  1.00  0.00     0.014 A 
ATOM      8  C   UNL A   1      35.687  34.402  28.872  1.00  0.00     0.014 A 
ATOM      9  C   UNL A   1      35.456  33.201  31.362  1.00  0.00     0.010 A 
ATOM     10  C   UNL A   1      36.844  34.028  29.573  1.00  0.00     0.010 A 
ATOM     11  C   UNL A   1      36.735  33.432  30.832  1.00  0.00    -0.014 A 
BRANCH  11  12
ATOM     12  C   UNL A   1      37.894  32.854  31.562  1.00  0.00     0.031 A 
ATOM     13  C   UNL A   1      38.311  33.344  32.917  1.00  0.00     0.074 A 
ATOM     14  C   UNL A   1      38.513  31.797  30.997  1.00  0.00     0.049 A 
ATOM     15  N   UNL A   1      39.188  32.823  33.736  1.00  0.00    -0.248 NA
ATOM     16  C   UNL A   1      37.676  34.573  33.416  1.00  0.00     0.031 C 
ATOM     17  C   UNL A   1      38.203  31.258  29.667  1.00  0.00     0.029 A 
ATOM     18  N   UNL A   1      39.475  30.947  31.478  1.00  0.00    -0.354 N 
ATOM     19  C   UNL A   1      39.226  33.662  34.842  1.00  0.00     0.074 A 
ATOM     20  C   UNL A   1      38.295  34.741  34.579  1.00  0.00     0.031 C 
ATOM     21  C   UNL A   1      38.877  30.116  29.485  1.00  0.00     0.029 A 
ATOM     22  C   UNL A   1      39.727  29.882  30.644  1.00  0.00     0.049 A 
ATOM     23  H   UNL A   1      39.940  31.085  32.335  1.00  0.00     0.167 HD
ATOM     24  C   UNL A   1      39.970  33.542  35.968  1.00  0.00     0.031 A 
ATOM     25  C   UNL A   1      40.550  28.826  30.789  1.00  0.00     0.031 A 
ATOM     26  C   UNL A   1      40.904  32.470  36.208  1.00  0.00     0.049 A 
ATOM     27  C   UNL A   1      41.359  28.718  32.044  1.00  0.00     0.074 A 
ATOM     28  C   UNL A   1      41.692  32.245  37.323  1.00  0.00     0.029 A 
ATOM     29  N   UNL A   1      41.180  31.444  35.313  1.00  0.00    -0.354 N 
ATOM     30  N   UNL A   1      41.350  29.504  33.094  1.00  0.00    -0.248 NA
ATOM     31  C   UNL A   1      42.295  27.592  32.133  1.00  0.00     0.031 C 
ATOM     32  C   UNL A   1      42.482  31.114  37.082  1.00  0.00     0.029 A 
ATOM     33  C   UNL A   1      42.147  30.601  35.839  1.00  0.00     0.049 A 
ATOM     34  H   UNL A   1      40.752  31.332  34.433  1.00  0.00     0.167 HD
ATOM     35  C   UNL A   1      42.284  28.969  33.971  1.00  0.00     0.074 A 
ATOM     36  C   UNL A   1      42.812  27.775  33.340  1.00  0.00     0.031 C 
ATOM     37  C   UNL A   1      42.674  29.429  35.185  1.00  0.00     0.031 A 
BRANCH  24  38
ATOM     38  C   UNL A   1      39.835  34.620  37.012  1.00  0.00    -0.014 A 
ATOM     39  C   UNL A   1      38.987  34.461  38.123  1.00  0.00     0.010 A 
ATOM     40  C   UNL A   1      40.594  35.800  36.897  1.00  0.00     0.010 A 
ATOM     41  C   UNL A   1      38.866  35.479  39.074  1.00  0.00     0.020 A 
ATOM     42  C   UNL A   1      40.494  36.810  37.859  1.00  0.00     0.020 A 
ATOM     43  C   UNL A   1      39.613  36.652  38.931  1.00  0.00     0.054 A 
BRANCH  43  44
ATOM     44  S   UNL A   1      39.436  37.959  40.177  1.00  0.00     0.124 S 
ATOM     45  O   UNL A   1      39.231  37.183  41.397  1.00  0.00    -0.237 OA
ATOM     46  O   UNL A   1      40.712  38.665  40.089  1.00  0.00    -0.237 OA
ATOM     47  O   UNL A   1      38.275  38.719  39.719  1.00  0.00    -0.744 OA
ENDBRANCH  43  44
ENDBRANCH  24  38
BRANCH  25  48
ATOM     48  C   UNL A   1      40.640  27.811  29.705  1.00  0.00    -0.014 A 
ATOM     49  C   UNL A   1      39.668  26.805  29.577  1.00  0.00     0.010 A 
ATOM     50  C   UNL A   1      41.677  27.886  28.756  1.00  0.00     0.010 A 
ATOM     51  C   UNL A   1      39.730  25.893  28.519  1.00  0.00     0.020 A 
ATOM     52  C   UNL A   1      41.726  26.996  27.681  1.00  0.00     0.020 A 
ATOM     53  C   UNL A   1      40.755  25.998  27.574  1.00  0.00     0.054 A 
BRANCH  53  54
ATOM     54  S   UNL A   1      40.775  24.858  26.163  1.00  0.00     0.124 S 
ATOM     55  O   UNL A   1      41.167  25.739  25.068  1.00  0.00    -0.237 OA
ATOM     56  O   UNL A   1      41.770  23.869  26.569  1.00  0.00    -0.237 OA
ATOM     57  O   UNL A   1      39.402  24.360  26.109  1.00  0.00    -0.744 OA
ENDBRANCH  53  54
ENDBRANCH  25  48
BRANCH  37  58
ATOM     58  C   UNL A   1      43.725  28.631  35.905  1.00  0.00    -0.014 A 
ATOM     59  C   UNL A   1      45.086  28.972  35.804  1.00  0.00     0.010 A 
ATOM     60  C   UNL A   1      43.344  27.546  36.712  1.00  0.00     0.010 A 
ATOM     61  C   UNL A   1      46.052  28.220  36.475  1.00  0.00     0.020 A 
ATOM     62  C   UNL A   1      44.305  26.806  37.405  1.00  0.00     0.020 A 
ATOM     63  C   UNL A   1      45.656  27.139  37.269  1.00  0.00     0.054 A 
BRANCH  63  64
ATOM     64  S   UNL A   1      46.924  26.197  38.159  1.00  0.00     0.124 S 
ATOM     65  O   UNL A   1      46.130  25.159  38.810  1.00  0.00    -0.237 OA
ATOM     66  O   UNL A   1      47.798  25.737  37.082  1.00  0.00    -0.237 OA
ATOM     67  O   UNL A   1      47.520  27.184  39.058  1.00  0.00    -0.744 OA
ENDBRANCH  63  64
ENDBRANCH  37  58
ENDBRANCH  11  12
ENDBRANCH   4   6
ENDBRANCH   1   2
BRANCH   1  68
ATOM     68  C   UNL A   1      31.825  31.554  26.495  1.00  0.00     0.042 C 
BRANCH  68  69
ATOM     69  C   UNL A   1      32.072  30.066  26.262  1.00  0.00     0.117 C 
BRANCH  69  70
ATOM     70  N   UNL A   1      32.408  29.745  24.880  1.00  0.00    -0.354 N 
ATOM     71  C   UNL A   1      31.905  29.096  23.814  1.00  0.00     0.245 C 
ATOM     72  H   UNL A   1      33.288  30.125  24.654  1.00  0.00     0.163 HD
ATOM     73  O   UNL A   1      32.639  29.245  22.814  1.00  0.00    -0.273 OA
BRANCH  71  74
ATOM     74  C   UNL A   1      30.675  28.165  23.657  1.00  0.00     0.199 C 
BRANCH  74  75
ATOM     75  C   UNL A   1      29.257  28.766  23.801  1.00  0.00     0.073 C 
BRANCH  75  76
ATOM     76  C   UNL A   1      28.890  30.042  23.093  1.00  0.00    -0.045 A 
ATOM     77  C   UNL A   1      28.922  31.262  23.782  1.00  0.00     0.004 A 
ATOM     78  C   UNL A   1      28.507  30.036  21.743  1.00  0.00     0.004 A 
ATOM     79  C   UNL A   1      28.660  32.459  23.115  1.00  0.00     0.000 A 
ATOM     80  C   UNL A   1      28.254  31.236  21.074  1.00  0.00     0.000 A 
ATOM     81  C   UNL A   1      28.345  32.446  21.758  1.00  0.00     0.000 A 
ENDBRANCH  75  76
ENDBRANCH  74  75
BRANCH  74  82
ATOM     82  N   UNL A   1      30.816  26.818  23.050  1.00  0.00    -0.270 NA
ATOM     83  C   UNL A   1      31.703  25.918  23.279  1.00  0.00     0.109 C 
ATOM     84  C   UNL A   1      32.722  25.959  24.364  1.00  0.00     0.209 C 
ATOM     85  C   UNL A   1      31.779  24.702  22.396  1.00  0.00     0.205 C 
ATOM     86  O   UNL A   1      32.684  26.862  25.178  1.00  0.00    -0.287 OA
ATOM     87  C   UNL A   1      33.784  24.969  24.455  1.00  0.00     0.035 A 
ATOM     88  C   UNL A   1      33.180  24.170  22.191  1.00  0.00     0.187 C 
ATOM     89  Cl  UNL A   1      30.793  23.412  23.134  1.00  0.00    -0.107 Cl
ATOM     90  C   UNL A   1      34.554  24.912  25.621  1.00  0.00     0.013 A 
ATOM     91  C   UNL A   1      34.081  24.165  23.365  1.00  0.00     0.031 A 
ATOM     92  O   UNL A   1      33.563  23.690  21.128  1.00  0.00    -0.292 OA
ATOM     93  C   UNL A   1      35.655  24.067  25.682  1.00  0.00     0.001 A 
ATOM     94  C   UNL A   1      35.216  23.350  23.408  1.00  0.00     0.012 A 
ATOM     95  C   UNL A   1      36.000  23.307  24.566  1.00  0.00     0.001 A 
ENDBRANCH  74  82
ENDBRANCH  71  74
ENDBRANCH  69  70
ENDBRANCH  68  69
ENDBRANCH   1  68
TORSDOF 16
ENDMDL
