MODEL 1
REMARK VINA RESULT:     -11.2      0.000      0.000
REMARK SMILES C[C@H]1CCCN1c1cccc(OCC(=O)NCCCNC(=O)c2ccc(-c3c4nc(c(-c5ccc(S(=O)(=O)[O-])cc5)c5ccc([nH]5)c(-c5ccc(S(=O)(=O)[O-])cc5)c5nc(c(-c6ccc(S(=O)(=O)[O-])cc6)c6ccc3[nH]6)C=C5)C=C4)cc2)c1
REMARK SMILES IDX 18 1 17 2 16 3 14 4 15 5 13 7 12 8 11 9 7 10 8 11 83 12 9 13
REMARK SMILES IDX 10 14 6 15 1 16 2 17 3 18 4 19 5 20 19 21 20 22 21 23 22 25
REMARK SMILES IDX 23 26 24 27 82 28 25 29 81 30 26 31 27 32 28 33 75 34 29 35
REMARK SMILES IDX 80 36 74 37 76 38 30 39 79 40 73 41 72 42 31 44 61 45 42 46
REMARK SMILES IDX 60 47 43 48 46 49 59 50 77 51 44 52 45 53 58 55 78 56 47 57
REMARK SMILES IDX 32 58 33 59 41 60 34 61 40 62 35 63 36 64 37 65 38 66 39 67
REMARK SMILES IDX 62 68 63 69 71 70 64 71 70 72 65 73 66 74 67 75 68 76 69 77
REMARK SMILES IDX 48 78 49 79 57 80 50 81 56 82 51 83 52 84 53 85 54 86 55 87
REMARK H PARENT 16 6 20 24 76 43 46 54
REMARK Flexibility Score: inf
ROOT
ATOM      1  C   UNL A   1      31.988  28.017  26.949  1.00  0.00     0.042 C 
ENDROOT
BRANCH   1   2
ATOM      2  C   UNL A   1      31.991  26.732  26.127  1.00  0.00     0.117 C 
BRANCH   2   3
ATOM      3  N   UNL A   1      31.288  25.642  26.779  1.00  0.00    -0.353 N 
ATOM      4  C   UNL A   1      31.550  24.304  26.712  1.00  0.00     0.257 C 
ATOM      5  O   UNL A   1      30.869  23.531  27.391  1.00  0.00    -0.271 OA
ATOM      6  H   UNL A   1      30.525  25.903  27.346  1.00  0.00     0.163 HD
BRANCH   4   7
ATOM      7  C   UNL A   1      32.710  23.804  25.847  1.00  0.00     0.329 C 
BRANCH   7   8
ATOM      8  O   UNL A   1      33.785  23.201  26.547  1.00  0.00    -0.484 OA
BRANCH   8   9
ATOM      9  C   UNL A   1      34.407  22.126  25.974  1.00  0.00     0.122 A 
ATOM     10  C   UNL A   1      34.518  19.923  24.919  1.00  0.00     0.041 A 
ATOM     11  C   UNL A   1      35.910  20.048  24.879  1.00  0.00     0.026 A 
ATOM     12  C   UNL A   1      33.781  20.979  25.476  1.00  0.00     0.072 A 
ATOM     13  C   UNL A   1      36.548  21.196  25.351  1.00  0.00     0.006 A 
ATOM     14  C   UNL A   1      35.794  22.232  25.899  1.00  0.00     0.046 A 
BRANCH  10  15
ATOM     15  N   UNL A   1      33.910  18.784  24.442  1.00  0.00    -0.369 N 
ATOM     16  C   UNL A   1      35.091  16.768  25.201  1.00  0.00     0.031 C 
ATOM     17  C   UNL A   1      34.626  17.585  24.001  1.00  0.00     0.079 C 
ATOM     18  C   UNL A   1      33.580  16.818  23.176  1.00  0.00     0.026 C 
ATOM     19  C   UNL A   1      32.617  17.902  22.711  1.00  0.00     0.023 C 
ATOM     20  C   UNL A   1      32.558  18.850  23.905  1.00  0.00     0.117 C 
ENDBRANCH  10  15
ENDBRANCH   8   9
ENDBRANCH   7   8
ENDBRANCH   4   7
ENDBRANCH   2   3
ENDBRANCH   1   2
BRANCH   1  21
ATOM     21  C   UNL A   1      33.373  28.510  27.363  1.00  0.00     0.118 C 
BRANCH  21  22
ATOM     22  N   UNL A   1      33.420  29.946  27.612  1.00  0.00    -0.352 N 
ATOM     23  C   UNL A   1      34.416  30.728  28.145  1.00  0.00     0.251 C 
ATOM     24  H   UNL A   1      32.604  30.435  27.358  1.00  0.00     0.163 HD
ATOM     25  O   UNL A   1      34.181  31.904  28.414  1.00  0.00    -0.269 OA
BRANCH  23  26
ATOM     26  C   UNL A   1      35.753  30.162  28.424  1.00  0.00     0.039 A 
ATOM     27  C   UNL A   1      36.715  30.171  27.407  1.00  0.00     0.014 A 
ATOM     28  C   UNL A   1      36.063  29.618  29.672  1.00  0.00     0.014 A 
ATOM     29  C   UNL A   1      38.013  29.725  27.674  1.00  0.00     0.010 A 
ATOM     30  C   UNL A   1      37.373  29.235  29.955  1.00  0.00     0.010 A 
ATOM     31  C   UNL A   1      38.365  29.303  28.966  1.00  0.00    -0.014 A 
BRANCH  31  32
ATOM     32  C   UNL A   1      39.773  28.984  29.323  1.00  0.00     0.031 A 
ATOM     33  C   UNL A   1      40.665  30.031  29.929  1.00  0.00     0.074 A 
ATOM     34  C   UNL A   1      40.274  27.772  29.007  1.00  0.00     0.049 A 
ATOM     35  N   UNL A   1      41.945  29.969  30.193  1.00  0.00    -0.248 NA
ATOM     36  C   UNL A   1      40.043  31.322  30.262  1.00  0.00     0.031 C 
ATOM     37  C   UNL A   1      39.522  26.679  28.385  1.00  0.00     0.029 A 
ATOM     38  N   UNL A   1      41.542  27.262  29.144  1.00  0.00    -0.354 N 
ATOM     39  C   UNL A   1      42.288  31.216  30.704  1.00  0.00     0.074 A 
ATOM     40  C   UNL A   1      41.087  32.025  30.681  1.00  0.00     0.031 C 
ATOM     41  C   UNL A   1      40.337  25.628  28.206  1.00  0.00     0.029 A 
ATOM     42  C   UNL A   1      41.681  25.986  28.649  1.00  0.00     0.049 A 
ATOM     43  H   UNL A   1      42.282  27.762  29.558  1.00  0.00     0.167 HD
ATOM     44  C   UNL A   1      43.490  31.644  31.158  1.00  0.00     0.031 A 
ATOM     45  C   UNL A   1      42.768  25.199  28.537  1.00  0.00     0.031 A 
ATOM     46  C   UNL A   1      44.680  30.836  31.182  1.00  0.00     0.049 A 
ATOM     47  C   UNL A   1      44.098  25.709  29.018  1.00  0.00     0.074 A 
ATOM     48  C   UNL A   1      45.930  31.162  31.681  1.00  0.00     0.029 A 
ATOM     49  N   UNL A   1      44.777  29.549  30.677  1.00  0.00    -0.354 N 
ATOM     50  N   UNL A   1      44.386  26.867  29.563  1.00  0.00    -0.248 NA
ATOM     51  C   UNL A   1      45.250  24.808  28.871  1.00  0.00     0.031 C 
ATOM     52  C   UNL A   1      46.796  30.095  31.423  1.00  0.00     0.029 A 
ATOM     53  C   UNL A   1      46.072  29.079  30.820  1.00  0.00     0.049 A 
ATOM     54  H   UNL A   1      44.033  29.042  30.276  1.00  0.00     0.167 HD
ATOM     55  C   UNL A   1      45.747  26.825  29.843  1.00  0.00     0.074 A 
ATOM     56  C   UNL A   1      46.221  25.521  29.423  1.00  0.00     0.031 C 
ATOM     57  C   UNL A   1      46.533  27.781  30.395  1.00  0.00     0.031 A 
BRANCH  44  58
ATOM     58  C   UNL A   1      43.584  33.063  31.658  1.00  0.00    -0.014 A 
ATOM     59  C   UNL A   1      43.814  34.132  30.773  1.00  0.00     0.010 A 
ATOM     60  C   UNL A   1      43.386  33.337  33.024  1.00  0.00     0.010 A 
ATOM     61  C   UNL A   1      43.881  35.445  31.252  1.00  0.00     0.020 A 
ATOM     62  C   UNL A   1      43.426  34.650  33.502  1.00  0.00     0.020 A 
ATOM     63  C   UNL A   1      43.689  35.694  32.613  1.00  0.00     0.054 A 
BRANCH  63  64
ATOM     64  S   UNL A   1      43.758  37.409  33.200  1.00  0.00     0.124 S 
ATOM     65  O   UNL A   1      44.973  37.400  34.012  1.00  0.00    -0.237 OA
ATOM     66  O   UNL A   1      43.840  38.170  31.957  1.00  0.00    -0.237 OA
ATOM     67  O   UNL A   1      42.512  37.571  33.947  1.00  0.00    -0.744 OA
ENDBRANCH  63  64
ENDBRANCH  44  58
BRANCH  45  68
ATOM     68  C   UNL A   1      42.645  23.845  27.928  1.00  0.00    -0.014 A 
ATOM     69  C   UNL A   1      42.301  22.734  28.717  1.00  0.00     0.010 A 
ATOM     70  C   UNL A   1      42.859  23.663  26.549  1.00  0.00     0.010 A 
ATOM     71  C   UNL A   1      42.189  21.464  28.144  1.00  0.00     0.020 A 
ATOM     72  C   UNL A   1      42.719  22.401  25.966  1.00  0.00     0.020 A 
ATOM     73  C   UNL A   1      42.396  21.306  26.770  1.00  0.00     0.054 A 
BRANCH  73  74
ATOM     74  S   UNL A   1      42.192  19.658  26.039  1.00  0.00     0.124 S 
ATOM     75  O   UNL A   1      43.093  19.722  24.892  1.00  0.00    -0.237 OA
ATOM     76  O   UNL A   1      42.612  18.777  27.125  1.00  0.00    -0.237 OA
ATOM     77  O   UNL A   1      40.769  19.602  25.715  1.00  0.00    -0.744 OA
ENDBRANCH  73  74
ENDBRANCH  45  68
BRANCH  57  78
ATOM     78  C   UNL A   1      47.988  27.452  30.603  1.00  0.00    -0.014 A 
ATOM     79  C   UNL A   1      48.405  26.649  31.679  1.00  0.00     0.010 A 
ATOM     80  C   UNL A   1      48.941  27.895  29.668  1.00  0.00     0.010 A 
ATOM     81  C   UNL A   1      49.754  26.313  31.829  1.00  0.00     0.020 A 
ATOM     82  C   UNL A   1      50.287  27.538  29.799  1.00  0.00     0.020 A 
ATOM     83  C   UNL A   1      50.685  26.756  30.884  1.00  0.00     0.054 A 
BRANCH  83  84
ATOM     84  S   UNL A   1      52.419  26.254  31.068  1.00  0.00     0.124 S 
ATOM     85  O   UNL A   1      52.986  27.382  31.802  1.00  0.00    -0.237 OA
ATOM     86  O   UNL A   1      52.312  25.005  31.818  1.00  0.00    -0.237 OA
ATOM     87  O   UNL A   1      52.886  26.110  29.691  1.00  0.00    -0.744 OA
ENDBRANCH  83  84
ENDBRANCH  57  78
ENDBRANCH  31  32
ENDBRANCH  23  26
ENDBRANCH  21  22
ENDBRANCH   1  21
TORSDOF 16
ENDMDL
MODEL 2
REMARK VINA RESULT:     -10.9      1.412      2.259
REMARK SMILES C[C@H]1CCCN1c1cccc(OCC(=O)NCCCNC(=O)c2ccc(-c3c4nc(c(-c5ccc(S(=O)(=O)[O-])cc5)c5ccc([nH]5)c(-c5ccc(S(=O)(=O)[O-])cc5)c5nc(c(-c6ccc(S(=O)(=O)[O-])cc6)c6ccc3[nH]6)C=C5)C=C4)cc2)c1
REMARK SMILES IDX 18 1 17 2 16 3 14 4 15 5 13 7 12 8 11 9 7 10 8 11 83 12 9 13
REMARK SMILES IDX 10 14 6 15 1 16 2 17 3 18 4 19 5 20 19 21 20 22 21 23 22 25
REMARK SMILES IDX 23 26 24 27 82 28 25 29 81 30 26 31 27 32 28 33 75 34 29 35
REMARK SMILES IDX 80 36 74 37 76 38 30 39 79 40 73 41 72 42 31 44 61 45 42 46
REMARK SMILES IDX 60 47 43 48 46 49 59 50 77 51 44 52 45 53 58 55 78 56 47 57
REMARK SMILES IDX 32 58 33 59 41 60 34 61 40 62 35 63 36 64 37 65 38 66 39 67
REMARK SMILES IDX 62 68 63 69 71 70 64 71 70 72 65 73 66 74 67 75 68 76 69 77
REMARK SMILES IDX 48 78 49 79 57 80 50 81 56 82 51 83 52 84 53 85 54 86 55 87
REMARK H PARENT 16 6 20 24 76 43 46 54
REMARK Flexibility Score: inf
ROOT
ATOM      1  C   UNL A   1      33.492  28.781  25.010  1.00  0.00     0.042 C 
ENDROOT
BRANCH   1   2
ATOM      2  C   UNL A   1      32.094  28.442  24.503  1.00  0.00     0.117 C 
BRANCH   2   3
ATOM      3  N   UNL A   1      31.259  27.825  25.517  1.00  0.00    -0.353 N 
ATOM      4  C   UNL A   1      30.931  26.507  25.660  1.00  0.00     0.257 C 
ATOM      5  O   UNL A   1      30.249  26.166  26.629  1.00  0.00    -0.271 OA
ATOM      6  H   UNL A   1      30.881  28.436  26.191  1.00  0.00     0.163 HD
BRANCH   4   7
ATOM      7  C   UNL A   1      31.462  25.484  24.652  1.00  0.00     0.329 C 
BRANCH   7   8
ATOM      8  O   UNL A   1      31.324  24.123  25.025  1.00  0.00    -0.484 OA
BRANCH   8   9
ATOM      9  C   UNL A   1      32.346  23.538  25.721  1.00  0.00     0.122 A 
ATOM     10  C   UNL A   1      34.645  22.791  26.089  1.00  0.00     0.041 A 
ATOM     11  C   UNL A   1      34.241  22.260  27.318  1.00  0.00     0.026 A 
ATOM     12  C   UNL A   1      33.675  23.427  25.300  1.00  0.00     0.072 A 
ATOM     13  C   UNL A   1      32.923  22.381  27.762  1.00  0.00     0.006 A 
ATOM     14  C   UNL A   1      31.979  23.019  26.961  1.00  0.00     0.046 A 
BRANCH  10  15
ATOM     15  N   UNL A   1      35.951  22.665  25.675  1.00  0.00    -0.369 N 
ATOM     16  C   UNL A   1      36.428  20.368  24.946  1.00  0.00     0.031 C 
ATOM     17  C   UNL A   1      36.787  21.487  25.917  1.00  0.00     0.079 C 
ATOM     18  C   UNL A   1      38.216  21.998  25.675  1.00  0.00     0.026 C 
ATOM     19  C   UNL A   1      38.116  23.494  25.934  1.00  0.00     0.023 C 
ATOM     20  C   UNL A   1      36.740  23.853  25.381  1.00  0.00     0.117 C 
ENDBRANCH  10  15
ENDBRANCH   8   9
ENDBRANCH   7   8
ENDBRANCH   4   7
ENDBRANCH   2   3
ENDBRANCH   1   2
BRANCH   1  21
ATOM     21  C   UNL A   1      33.618  28.848  26.531  1.00  0.00     0.118 C 
BRANCH  21  22
ATOM     22  N   UNL A   1      33.599  30.210  27.049  1.00  0.00    -0.352 N 
ATOM     23  C   UNL A   1      34.497  30.874  27.848  1.00  0.00     0.251 C 
ATOM     24  H   UNL A   1      32.813  30.741  26.784  1.00  0.00     0.163 HD
ATOM     25  O   UNL A   1      34.202  31.979  28.299  1.00  0.00    -0.269 OA
BRANCH  23  26
ATOM     26  C   UNL A   1      35.799  30.262  28.193  1.00  0.00     0.039 A 
ATOM     27  C   UNL A   1      36.803  30.219  27.219  1.00  0.00     0.014 A 
ATOM     28  C   UNL A   1      36.033  29.727  29.461  1.00  0.00     0.014 A 
ATOM     29  C   UNL A   1      38.070  29.727  27.549  1.00  0.00     0.010 A 
ATOM     30  C   UNL A   1      37.314  29.300  29.807  1.00  0.00     0.010 A 
ATOM     31  C   UNL A   1      38.350  29.313  28.860  1.00  0.00    -0.014 A 
BRANCH  31  32
ATOM     32  C   UNL A   1      39.727  28.946  29.283  1.00  0.00     0.031 A 
ATOM     33  C   UNL A   1      40.619  29.959  29.945  1.00  0.00     0.074 A 
ATOM     34  C   UNL A   1      40.206  27.723  28.977  1.00  0.00     0.049 A 
ATOM     35  N   UNL A   1      41.883  29.855  30.271  1.00  0.00    -0.248 NA
ATOM     36  C   UNL A   1      40.022  31.265  30.263  1.00  0.00     0.031 C 
ATOM     37  C   UNL A   1      39.452  26.661  28.306  1.00  0.00     0.029 A 
ATOM     38  N   UNL A   1      41.449  27.172  29.171  1.00  0.00    -0.354 N 
ATOM     39  C   UNL A   1      42.237  31.085  30.814  1.00  0.00     0.074 A 
ATOM     40  C   UNL A   1      41.064  31.930  30.741  1.00  0.00     0.031 C 
ATOM     41  C   UNL A   1      40.244  25.587  28.154  1.00  0.00     0.029 A 
ATOM     42  C   UNL A   1      41.573  25.898  28.667  1.00  0.00     0.049 A 
ATOM     43  H   UNL A   1      42.183  27.645  29.627  1.00  0.00     0.167 HD
ATOM     44  C   UNL A   1      43.427  31.470  31.333  1.00  0.00     0.031 A 
ATOM     45  C   UNL A   1      42.640  25.078  28.599  1.00  0.00     0.031 A 
ATOM     46  C   UNL A   1      44.590  30.625  31.405  1.00  0.00     0.049 A 
ATOM     47  C   UNL A   1      43.960  25.542  29.152  1.00  0.00     0.074 A 
ATOM     48  C   UNL A   1      45.823  30.906  31.970  1.00  0.00     0.029 A 
ATOM     49  N   UNL A   1      44.672  29.340  30.890  1.00  0.00    -0.354 N 
ATOM     50  N   UNL A   1      44.256  26.685  29.725  1.00  0.00    -0.248 NA
ATOM     51  C   UNL A   1      45.089  24.607  29.052  1.00  0.00     0.031 C 
ATOM     52  C   UNL A   1      46.667  29.815  31.742  1.00  0.00     0.029 A 
ATOM     53  C   UNL A   1      45.944  28.829  31.091  1.00  0.00     0.049 A 
ATOM     54  H   UNL A   1      43.934  28.861  30.446  1.00  0.00     0.167 HD
ATOM     55  C   UNL A   1      45.599  26.596  30.071  1.00  0.00     0.074 A 
ATOM     56  C   UNL A   1      46.053  25.283  29.660  1.00  0.00     0.031 C 
ATOM     57  C   UNL A   1      46.385  27.522  30.674  1.00  0.00     0.031 A 
BRANCH  44  58
ATOM     58  C   UNL A   1      43.541  32.880  31.854  1.00  0.00    -0.014 A 
ATOM     59  C   UNL A   1      44.022  33.920  31.039  1.00  0.00     0.010 A 
ATOM     60  C   UNL A   1      43.107  33.178  33.159  1.00  0.00     0.010 A 
ATOM     61  C   UNL A   1      44.104  35.226  31.533  1.00  0.00     0.020 A 
ATOM     62  C   UNL A   1      43.162  34.487  33.647  1.00  0.00     0.020 A 
ATOM     63  C   UNL A   1      43.675  35.499  32.835  1.00  0.00     0.054 A 
BRANCH  63  64
ATOM     64  S   UNL A   1      43.771  37.207  33.440  1.00  0.00     0.124 S 
ATOM     65  O   UNL A   1      45.039  37.199  34.165  1.00  0.00    -0.237 OA
ATOM     66  O   UNL A   1      43.761  37.986  32.204  1.00  0.00    -0.237 OA
ATOM     67  O   UNL A   1      42.578  37.348  34.273  1.00  0.00    -0.744 OA
ENDBRANCH  63  64
ENDBRANCH  44  58
BRANCH  45  68
ATOM     68  C   UNL A   1      42.507  23.736  27.969  1.00  0.00    -0.014 A 
ATOM     69  C   UNL A   1      42.728  23.567  26.592  1.00  0.00     0.010 A 
ATOM     70  C   UNL A   1      42.170  22.614  28.749  1.00  0.00     0.010 A 
ATOM     71  C   UNL A   1      42.600  22.306  26.002  1.00  0.00     0.020 A 
ATOM     72  C   UNL A   1      42.069  21.346  28.169  1.00  0.00     0.020 A 
ATOM     73  C   UNL A   1      42.274  21.202  26.796  1.00  0.00     0.054 A 
BRANCH  73  74
ATOM     74  S   UNL A   1      42.165  19.567  26.019  1.00  0.00     0.124 S 
ATOM     75  O   UNL A   1      40.745  19.477  25.696  1.00  0.00    -0.237 OA
ATOM     76  O   UNL A   1      43.067  19.699  24.877  1.00  0.00    -0.237 OA
ATOM     77  O   UNL A   1      42.628  18.659  27.066  1.00  0.00    -0.744 OA
ENDBRANCH  73  74
ENDBRANCH  45  68
BRANCH  57  78
ATOM     78  C   UNL A   1      47.817  27.145  30.949  1.00  0.00    -0.014 A 
ATOM     79  C   UNL A   1      48.184  26.511  32.149  1.00  0.00     0.010 A 
ATOM     80  C   UNL A   1      48.796  27.367  29.964  1.00  0.00     0.010 A 
ATOM     81  C   UNL A   1      49.509  26.124  32.368  1.00  0.00     0.020 A 
ATOM     82  C   UNL A   1      50.117  26.956  30.167  1.00  0.00     0.020 A 
ATOM     83  C   UNL A   1      50.467  26.345  31.372  1.00  0.00     0.054 A 
BRANCH  83  84
ATOM     84  S   UNL A   1      52.166  25.778  31.656  1.00  0.00     0.124 S 
ATOM     85  O   UNL A   1      51.972  24.356  31.929  1.00  0.00    -0.237 OA
ATOM     86  O   UNL A   1      52.824  26.091  30.390  1.00  0.00    -0.237 OA
ATOM     87  O   UNL A   1      52.612  26.575  32.797  1.00  0.00    -0.744 OA
ENDBRANCH  83  84
ENDBRANCH  57  78
ENDBRANCH  31  32
ENDBRANCH  23  26
ENDBRANCH  21  22
ENDBRANCH   1  21
TORSDOF 16
ENDMDL
MODEL 3
REMARK VINA RESULT:     -10.9      0.607      8.364
REMARK SMILES C[C@H]1CCCN1c1cccc(OCC(=O)NCCCNC(=O)c2ccc(-c3c4nc(c(-c5ccc(S(=O)(=O)[O-])cc5)c5ccc([nH]5)c(-c5ccc(S(=O)(=O)[O-])cc5)c5nc(c(-c6ccc(S(=O)(=O)[O-])cc6)c6ccc3[nH]6)C=C5)C=C4)cc2)c1
REMARK SMILES IDX 18 1 17 2 16 3 14 4 15 5 13 7 12 8 11 9 7 10 8 11 83 12 9 13
REMARK SMILES IDX 10 14 6 15 1 16 2 17 3 18 4 19 5 20 19 21 20 22 21 23 22 25
REMARK SMILES IDX 23 26 24 27 82 28 25 29 81 30 26 31 27 32 28 33 75 34 29 35
REMARK SMILES IDX 80 36 74 37 76 38 30 39 79 40 73 41 72 42 31 44 61 45 42 46
REMARK SMILES IDX 60 47 43 48 46 49 59 50 77 51 44 52 45 53 58 55 78 56 47 57
REMARK SMILES IDX 32 58 33 59 41 60 34 61 40 62 35 63 36 64 37 65 38 66 39 67
REMARK SMILES IDX 62 68 63 69 71 70 64 71 70 72 65 73 66 74 67 75 68 76 69 77
REMARK SMILES IDX 48 78 49 79 57 80 50 81 56 82 51 83 52 84 53 85 54 86 55 87
REMARK H PARENT 16 6 20 24 76 43 46 54
REMARK Flexibility Score: inf
ROOT
ATOM      1  C   UNL A   1      32.138  27.839  27.308  1.00  0.00     0.042 C 
ENDROOT
BRANCH   1   2
ATOM      2  C   UNL A   1      31.881  26.826  26.198  1.00  0.00     0.117 C 
BRANCH   2   3
ATOM      3  N   UNL A   1      31.103  25.684  26.644  1.00  0.00    -0.353 N 
ATOM      4  C   UNL A   1      31.498  24.382  26.760  1.00  0.00     0.257 C 
ATOM      5  O   UNL A   1      30.702  23.558  27.216  1.00  0.00    -0.271 OA
ATOM      6  H   UNL A   1      30.171  25.873  26.898  1.00  0.00     0.163 HD
BRANCH   4   7
ATOM      7  C   UNL A   1      32.929  23.990  26.376  1.00  0.00     0.329 C 
BRANCH   7   8
ATOM      8  O   UNL A   1      33.459  22.861  27.049  1.00  0.00    -0.484 OA
BRANCH   8   9
ATOM      9  C   UNL A   1      34.124  21.922  26.310  1.00  0.00     0.122 A 
ATOM     10  C   UNL A   1      34.344  19.869  24.999  1.00  0.00     0.041 A 
ATOM     11  C   UNL A   1      35.711  20.136  24.871  1.00  0.00     0.026 A 
ATOM     12  C   UNL A   1      33.565  20.780  25.729  1.00  0.00     0.072 A 
ATOM     13  C   UNL A   1      36.280  21.283  25.426  1.00  0.00     0.006 A 
ATOM     14  C   UNL A   1      35.485  22.173  26.145  1.00  0.00     0.046 A 
BRANCH  10  15
ATOM     15  N   UNL A   1      33.803  18.734  24.439  1.00  0.00    -0.369 N 
ATOM     16  C   UNL A   1      34.992  16.723  25.197  1.00  0.00     0.031 C 
ATOM     17  C   UNL A   1      34.583  17.575  24.001  1.00  0.00     0.079 C 
ATOM     18  C   UNL A   1      33.616  16.814  23.079  1.00  0.00     0.026 C 
ATOM     19  C   UNL A   1      32.655  17.888  22.593  1.00  0.00     0.023 C 
ATOM     20  C   UNL A   1      32.488  18.785  23.816  1.00  0.00     0.117 C 
ENDBRANCH  10  15
ENDBRANCH   8   9
ENDBRANCH   7   8
ENDBRANCH   4   7
ENDBRANCH   2   3
ENDBRANCH   1   2
BRANCH   1  21
ATOM     21  C   UNL A   1      33.521  28.485  27.272  1.00  0.00     0.118 C 
BRANCH  21  22
ATOM     22  N   UNL A   1      33.508  29.893  27.650  1.00  0.00    -0.352 N 
ATOM     23  C   UNL A   1      34.482  30.673  28.223  1.00  0.00     0.251 C 
ATOM     24  H   UNL A   1      32.662  30.360  27.466  1.00  0.00     0.163 HD
ATOM     25  O   UNL A   1      34.201  31.807  28.605  1.00  0.00    -0.269 OA
BRANCH  23  26
ATOM     26  C   UNL A   1      35.854  30.153  28.410  1.00  0.00     0.039 A 
ATOM     27  C   UNL A   1      36.733  30.160  27.321  1.00  0.00     0.014 A 
ATOM     28  C   UNL A   1      36.277  29.654  29.644  1.00  0.00     0.014 A 
ATOM     29  C   UNL A   1      38.060  29.758  27.496  1.00  0.00     0.010 A 
ATOM     30  C   UNL A   1      37.616  29.316  29.833  1.00  0.00     0.010 A 
ATOM     31  C   UNL A   1      38.526  29.383  28.766  1.00  0.00    -0.014 A 
BRANCH  31  32
ATOM     32  C   UNL A   1      39.966  29.114  29.019  1.00  0.00     0.031 A 
ATOM     33  C   UNL A   1      40.566  27.779  28.677  1.00  0.00     0.074 A 
ATOM     34  C   UNL A   1      40.710  30.046  29.650  1.00  0.00     0.049 A 
ATOM     35  N   UNL A   1      41.766  27.325  28.935  1.00  0.00    -0.248 NA
ATOM     36  C   UNL A   1      39.699  26.820  27.974  1.00  0.00     0.031 C 
ATOM     37  C   UNL A   1      40.237  31.369  30.065  1.00  0.00     0.029 A 
ATOM     38  N   UNL A   1      42.016  30.015  30.074  1.00  0.00    -0.354 N 
ATOM     39  C   UNL A   1      41.794  26.025  28.445  1.00  0.00     0.074 A 
ATOM     40  C   UNL A   1      40.479  25.750  27.905  1.00  0.00     0.031 C 
ATOM     41  C   UNL A   1      41.239  32.025  30.671  1.00  0.00     0.029 A 
ATOM     42  C   UNL A   1      42.407  31.154  30.737  1.00  0.00     0.049 A 
ATOM     43  H   UNL A   1      42.615  29.250  29.917  1.00  0.00     0.167 HD
ATOM     44  C   UNL A   1      42.823  25.144  28.437  1.00  0.00     0.031 A 
ATOM     45  C   UNL A   1      43.565  31.459  31.355  1.00  0.00     0.031 A 
ATOM     46  C   UNL A   1      44.130  25.423  28.972  1.00  0.00     0.049 A 
ATOM     47  C   UNL A   1      44.682  30.452  31.362  1.00  0.00     0.074 A 
ATOM     48  C   UNL A   1      45.255  24.616  28.955  1.00  0.00     0.029 A 
ATOM     49  N   UNL A   1      44.487  26.589  29.630  1.00  0.00    -0.354 N 
ATOM     50  N   UNL A   1      44.711  29.252  30.831  1.00  0.00    -0.248 NA
ATOM     51  C   UNL A   1      45.923  30.838  32.049  1.00  0.00     0.031 C 
ATOM     52  C   UNL A   1      46.273  25.270  29.655  1.00  0.00     0.029 A 
ATOM     53  C   UNL A   1      45.803  26.511  30.055  1.00  0.00     0.049 A 
ATOM     54  H   UNL A   1      43.892  27.361  29.775  1.00  0.00     0.167 HD
ATOM     55  C   UNL A   1      45.978  28.750  31.102  1.00  0.00     0.074 A 
ATOM     56  C   UNL A   1      46.692  29.781  31.829  1.00  0.00     0.031 C 
ATOM     57  C   UNL A   1      46.502  27.542  30.780  1.00  0.00     0.031 A 
BRANCH  44  58
ATOM     58  C   UNL A   1      42.575  23.782  27.842  1.00  0.00    -0.014 A 
ATOM     59  C   UNL A   1      42.870  23.512  26.494  1.00  0.00     0.010 A 
ATOM     60  C   UNL A   1      42.091  22.742  28.657  1.00  0.00     0.010 A 
ATOM     61  C   UNL A   1      42.649  22.238  25.962  1.00  0.00     0.020 A 
ATOM     62  C   UNL A   1      41.895  21.460  28.136  1.00  0.00     0.020 A 
ATOM     63  C   UNL A   1      42.161  21.221  26.787  1.00  0.00     0.054 A 
BRANCH  63  64
ATOM     64  S   UNL A   1      41.908  19.572  26.075  1.00  0.00     0.124 S 
ATOM     65  O   UNL A   1      40.469  19.570  25.823  1.00  0.00    -0.237 OA
ATOM     66  O   UNL A   1      42.753  19.603  24.885  1.00  0.00    -0.237 OA
ATOM     67  O   UNL A   1      42.355  18.665  27.131  1.00  0.00    -0.744 OA
ENDBRANCH  63  64
ENDBRANCH  44  58
BRANCH  45  68
ATOM     68  C   UNL A   1      43.722  32.776  32.031  1.00  0.00    -0.014 A 
ATOM     69  C   UNL A   1      44.231  33.884  31.332  1.00  0.00     0.010 A 
ATOM     70  C   UNL A   1      43.349  32.933  33.379  1.00  0.00     0.010 A 
ATOM     71  C   UNL A   1      44.380  35.119  31.971  1.00  0.00     0.020 A 
ATOM     72  C   UNL A   1      43.467  34.172  34.013  1.00  0.00     0.020 A 
ATOM     73  C   UNL A   1      43.993  35.256  33.307  1.00  0.00     0.054 A 
BRANCH  73  74
ATOM     74  S   UNL A   1      44.145  36.881  34.100  1.00  0.00     0.124 S 
ATOM     75  O   UNL A   1      43.588  36.626  35.425  1.00  0.00    -0.237 OA
ATOM     76  O   UNL A   1      45.585  37.121  34.053  1.00  0.00    -0.237 OA
ATOM     77  O   UNL A   1      43.347  37.755  33.243  1.00  0.00    -0.744 OA
ENDBRANCH  73  74
ENDBRANCH  45  68
BRANCH  57  78
ATOM     78  C   UNL A   1      47.925  27.269  31.190  1.00  0.00    -0.014 A 
ATOM     79  C   UNL A   1      49.002  27.653  30.372  1.00  0.00     0.010 A 
ATOM     80  C   UNL A   1      48.189  26.683  32.441  1.00  0.00     0.010 A 
ATOM     81  C   UNL A   1      50.319  27.436  30.789  1.00  0.00     0.020 A 
ATOM     82  C   UNL A   1      49.504  26.490  32.874  1.00  0.00     0.020 A 
ATOM     83  C   UNL A   1      50.561  26.860  32.041  1.00  0.00     0.054 A 
BRANCH  83  84
ATOM     84  S   UNL A   1      52.279  26.647  32.584  1.00  0.00     0.124 S 
ATOM     85  O   UNL A   1      52.724  25.531  31.754  1.00  0.00    -0.237 OA
ATOM     86  O   UNL A   1      52.877  27.942  32.270  1.00  0.00    -0.237 OA
ATOM     87  O   UNL A   1      52.157  26.352  34.010  1.00  0.00    -0.744 OA
ENDBRANCH  83  84
ENDBRANCH  57  78
ENDBRANCH  31  32
ENDBRANCH  23  26
ENDBRANCH  21  22
ENDBRANCH   1  21
TORSDOF 16
ENDMDL
