MODEL 1
REMARK VINA RESULT:     -12.9      0.000      0.000
REMARK SMILES O=C(COc1ccc(Cl)c2ccccc12)N[C@@H](Cc1c[nH]c2ccccc12)C(=O)NCCCNC(=O)c1ccc(-c2c3nc(c(-c4ccc(S(=O)(=O)[O-])cc4)c4ccc([nH]4)c(-c4ccc(S(=O)(=O)[O-])cc4)c4nc(c(-c5ccc(S(=O)(=O)[O-])cc5)c5ccc2[nH]5)C=C4)C=C3)cc1
REMARK SMILES IDX 31 1 30 2 28 3 29 4 17 6 16 7 1 8 2 9 3 11 4 12 5 13 6 14
REMARK SMILES IDX 15 15 7 16 10 17 14 18 8 19 11 20 13 21 9 22 12 23 18 24
REMARK SMILES IDX 19 25 20 26 27 27 21 28 22 29 26 30 23 32 25 33 24 34 32 35
REMARK SMILES IDX 33 36 34 37 35 38 36 40 37 41 38 42 96 43 39 44 95 45 40 46
REMARK SMILES IDX 41 47 42 48 89 49 43 50 94 51 88 52 90 53 44 54 93 55 87 56
REMARK SMILES IDX 86 57 45 59 75 60 56 61 74 62 57 63 60 64 73 65 91 66 58 67
REMARK SMILES IDX 59 68 72 70 92 71 61 72 46 73 47 74 55 75 48 76 54 77 49 78
REMARK SMILES IDX 50 79 51 80 52 81 53 82 76 83 77 84 85 85 78 86 84 87 79 88
REMARK SMILES IDX 80 89 81 90 82 91 83 92 62 93 63 94 71 95 64 96 70 97 65 98
REMARK SMILES IDX 66 99 67 100 68 101 69 102
REMARK H PARENT 30 5 16 10 21 31 34 39 90 58 60 69
REMARK Flexibility Score: inf
ROOT
ATOM      1  C   UNL A   1      32.910  29.375  26.205  1.00  0.00     0.117 C 
ENDROOT
BRANCH   1   2
ATOM      2  N   UNL A   1      32.308  29.710  24.930  1.00  0.00    -0.354 N 
ATOM      3  C   UNL A   1      31.302  29.065  24.264  1.00  0.00     0.242 C 
ATOM      4  O   UNL A   1      30.621  29.752  23.492  1.00  0.00    -0.273 OA
ATOM      5  H   UNL A   1      32.672  30.509  24.484  1.00  0.00     0.163 HD
BRANCH   3   6
ATOM      6  C   UNL A   1      30.964  27.570  24.488  1.00  0.00     0.175 C 
BRANCH   6   7
ATOM      7  N   UNL A   1      31.386  26.752  23.345  1.00  0.00    -0.341 N 
ATOM      8  O   UNL A   1      33.647  27.089  23.567  1.00  0.00    -0.271 OA
ATOM      9  C   UNL A   1      32.709  26.461  23.088  1.00  0.00     0.258 C 
ATOM     10  H   UNL A   1      30.697  26.397  22.737  1.00  0.00     0.164 HD
BRANCH   9  11
ATOM     11  C   UNL A   1      32.905  25.262  22.154  1.00  0.00     0.329 C 
BRANCH  11  12
ATOM     12  O   UNL A   1      34.078  24.499  22.468  1.00  0.00    -0.483 OA
BRANCH  12  13
ATOM     13  C   UNL A   1      33.774  23.291  23.060  1.00  0.00     0.128 A 
ATOM     14  C   UNL A   1      32.478  22.785  22.951  1.00  0.00     0.048 A 
ATOM     15  C   UNL A   1      34.800  22.540  23.684  1.00  0.00     0.025 A 
ATOM     16  C   UNL A   1      32.164  21.551  23.509  1.00  0.00     0.025 A 
ATOM     17  C   UNL A   1      34.484  21.274  24.251  1.00  0.00     0.004 A 
ATOM     18  C   UNL A   1      36.130  23.006  23.763  1.00  0.00     0.012 A 
ATOM     19  C   UNL A   1      33.150  20.807  24.157  1.00  0.00     0.049 A 
ATOM     20  C   UNL A   1      35.522  20.540  24.874  1.00  0.00     0.010 A 
ATOM     21  C   UNL A   1      37.133  22.257  24.380  1.00  0.00     0.001 A 
ATOM     22  Cl  UNL A   1      32.653  19.284  24.822  1.00  0.00    -0.084 Cl
ATOM     23  C   UNL A   1      36.828  21.024  24.936  1.00  0.00     0.001 A 
ENDBRANCH  12  13
ENDBRANCH  11  12
ENDBRANCH   9  11
ENDBRANCH   6   7
BRANCH   6  24
ATOM     24  C   UNL A   1      31.321  27.025  25.884  1.00  0.00     0.072 C 
BRANCH  24  25
ATOM     25  C   UNL A   1      31.040  25.576  26.147  1.00  0.00    -0.020 A 
ATOM     26  C   UNL A   1      29.792  24.978  26.191  1.00  0.00     0.087 A 
ATOM     27  C   UNL A   1      31.997  24.550  26.440  1.00  0.00     0.003 A 
ATOM     28  N   UNL A   1      29.951  23.676  26.588  1.00  0.00    -0.361 N 
ATOM     29  C   UNL A   1      31.283  23.405  26.799  1.00  0.00     0.046 A 
ATOM     30  C   UNL A   1      33.403  24.517  26.523  1.00  0.00     0.010 A 
ATOM     31  H   UNL A   1      29.218  23.028  26.706  1.00  0.00     0.166 HD
ATOM     32  C   UNL A   1      31.900  22.252  27.294  1.00  0.00     0.026 A 
ATOM     33  C   UNL A   1      34.038  23.368  27.007  1.00  0.00     0.001 A 
ATOM     34  C   UNL A   1      33.294  22.260  27.402  1.00  0.00     0.002 A 
ENDBRANCH  24  25
ENDBRANCH   6  24
ENDBRANCH   3   6
ENDBRANCH   1   2
BRANCH   1  35
ATOM     35  C   UNL A   1      33.984  30.331  26.679  1.00  0.00     0.042 C 
BRANCH  35  36
ATOM     36  C   UNL A   1      34.978  29.689  27.634  1.00  0.00     0.118 C 
BRANCH  36  37
ATOM     37  N   UNL A   1      35.191  30.472  28.853  1.00  0.00    -0.352 N 
ATOM     38  C   UNL A   1      36.249  30.520  29.730  1.00  0.00     0.251 C 
ATOM     39  H   UNL A   1      34.444  31.070  29.085  1.00  0.00     0.163 HD
ATOM     40  O   UNL A   1      36.111  31.098  30.806  1.00  0.00    -0.269 OA
BRANCH  38  41
ATOM     41  C   UNL A   1      37.530  29.857  29.402  1.00  0.00     0.039 A 
ATOM     42  C   UNL A   1      38.001  29.874  28.086  1.00  0.00     0.014 A 
ATOM     43  C   UNL A   1      38.278  29.225  30.395  1.00  0.00     0.014 A 
ATOM     44  C   UNL A   1      39.273  29.369  27.797  1.00  0.00     0.010 A 
ATOM     45  C   UNL A   1      39.584  28.832  30.131  1.00  0.00     0.010 A 
ATOM     46  C   UNL A   1      40.103  28.907  28.831  1.00  0.00    -0.014 A 
BRANCH  46  47
ATOM     47  C   UNL A   1      41.522  28.525  28.604  1.00  0.00     0.031 A 
ATOM     48  C   UNL A   1      42.600  29.578  28.630  1.00  0.00     0.074 A 
ATOM     49  C   UNL A   1      41.824  27.259  28.245  1.00  0.00     0.049 A 
ATOM     50  N   UNL A   1      43.858  29.478  28.290  1.00  0.00    -0.248 NA
ATOM     51  C   UNL A   1      42.200  30.931  29.054  1.00  0.00     0.031 C 
ATOM     52  C   UNL A   1      40.866  26.155  28.126  1.00  0.00     0.029 A 
ATOM     53  N   UNL A   1      43.023  26.690  27.895  1.00  0.00    -0.354 N 
ATOM     54  C   UNL A   1      44.386  30.759  28.410  1.00  0.00     0.074 A 
ATOM     55  C   UNL A   1      43.304  31.626  28.821  1.00  0.00     0.031 C 
ATOM     56  C   UNL A   1      41.519  25.039  27.760  1.00  0.00     0.029 A 
ATOM     57  C   UNL A   1      42.929  25.357  27.566  1.00  0.00     0.049 A 
ATOM     58  H   UNL A   1      43.872  27.189  27.881  1.00  0.00     0.167 HD
ATOM     59  C   UNL A   1      45.659  31.173  28.211  1.00  0.00     0.031 A 
ATOM     60  C   UNL A   1      43.868  24.490  27.139  1.00  0.00     0.031 A 
ATOM     61  C   UNL A   1      46.743  30.298  27.859  1.00  0.00     0.049 A 
ATOM     62  C   UNL A   1      45.280  24.971  26.950  1.00  0.00     0.074 A 
ATOM     63  C   UNL A   1      48.089  30.603  27.745  1.00  0.00     0.029 A 
ATOM     64  N   UNL A   1      46.609  28.950  27.569  1.00  0.00    -0.354 N 
ATOM     65  N   UNL A   1      45.772  26.170  27.148  1.00  0.00    -0.248 NA
ATOM     66  C   UNL A   1      46.261  23.984  26.479  1.00  0.00     0.031 C 
ATOM     67  C   UNL A   1      48.763  29.446  27.342  1.00  0.00     0.029 A 
ATOM     68  C   UNL A   1      47.844  28.413  27.249  1.00  0.00     0.049 A 
ATOM     69  H   UNL A   1      45.763  28.449  27.589  1.00  0.00     0.167 HD
ATOM     70  C   UNL A   1      47.126  26.075  26.848  1.00  0.00     0.074 A 
ATOM     71  C   UNL A   1      47.377  24.700  26.468  1.00  0.00     0.031 C 
ATOM     72  C   UNL A   1      48.076  27.040  26.881  1.00  0.00     0.031 A 
BRANCH  59  73
ATOM     73  C   UNL A   1      45.954  32.640  28.375  1.00  0.00    -0.014 A 
ATOM     74  C   UNL A   1      46.386  33.162  29.607  1.00  0.00     0.010 A 
ATOM     75  C   UNL A   1      45.854  33.498  27.264  1.00  0.00     0.010 A 
ATOM     76  C   UNL A   1      46.677  34.523  29.735  1.00  0.00     0.020 A 
ATOM     77  C   UNL A   1      46.170  34.854  27.381  1.00  0.00     0.020 A 
ATOM     78  C   UNL A   1      46.564  35.361  28.620  1.00  0.00     0.054 A 
BRANCH  78  79
ATOM     79  S   UNL A   1      46.985  37.116  28.807  1.00  0.00     0.124 S 
ATOM     80  O   UNL A   1      47.489  37.159  30.178  1.00  0.00    -0.237 OA
ATOM     81  O   UNL A   1      47.986  37.320  27.764  1.00  0.00    -0.237 OA
ATOM     82  O   UNL A   1      45.713  37.802  28.590  1.00  0.00    -0.744 OA
ENDBRANCH  78  79
ENDBRANCH  59  73
BRANCH  60  83
ATOM     83  C   UNL A   1      43.510  23.071  26.865  1.00  0.00    -0.014 A 
ATOM     84  C   UNL A   1      42.816  22.319  27.829  1.00  0.00     0.010 A 
ATOM     85  C   UNL A   1      43.863  22.463  25.647  1.00  0.00     0.010 A 
ATOM     86  C   UNL A   1      42.504  20.977  27.592  1.00  0.00     0.020 A 
ATOM     87  C   UNL A   1      43.530  21.128  25.395  1.00  0.00     0.020 A 
ATOM     88  C   UNL A   1      42.865  20.390  26.376  1.00  0.00     0.054 A 
BRANCH  88  89
ATOM     89  S   UNL A   1      42.419  18.658  26.072  1.00  0.00     0.124 S 
ATOM     90  O   UNL A   1      42.684  18.044  27.369  1.00  0.00    -0.237 OA
ATOM     91  O   UNL A   1      41.012  18.755  25.692  1.00  0.00    -0.237 OA
ATOM     92  O   UNL A   1      43.320  18.260  24.993  1.00  0.00    -0.744 OA
ENDBRANCH  88  89
ENDBRANCH  60  83
BRANCH  72  93
ATOM     93  C   UNL A   1      49.481  26.644  26.526  1.00  0.00    -0.014 A 
ATOM     94  C   UNL A   1      50.354  26.129  27.501  1.00  0.00     0.010 A 
ATOM     95  C   UNL A   1      49.906  26.716  25.188  1.00  0.00     0.010 A 
ATOM     96  C   UNL A   1      51.637  25.709  27.144  1.00  0.00     0.020 A 
ATOM     97  C   UNL A   1      51.180  26.275  24.823  1.00  0.00     0.020 A 
ATOM     98  C   UNL A   1      52.040  25.781  25.806  1.00  0.00     0.054 A 
BRANCH  98  99
ATOM     99  S   UNL A   1      53.687  25.165  25.356  1.00  0.00     0.124 S 
ATOM    100  O   UNL A   1      53.492  23.719  25.403  1.00  0.00    -0.237 OA
ATOM    101  O   UNL A   1      53.888  25.730  24.024  1.00  0.00    -0.237 OA
ATOM    102  O   UNL A   1      54.556  25.712  26.395  1.00  0.00    -0.744 OA
ENDBRANCH  98  99
ENDBRANCH  72  93
ENDBRANCH  46  47
ENDBRANCH  38  41
ENDBRANCH  36  37
ENDBRANCH  35  36
ENDBRANCH   1  35
TORSDOF 19
ENDMDL
MODEL 2
REMARK VINA RESULT:     -12.5      2.933      9.313
REMARK SMILES O=C(COc1ccc(Cl)c2ccccc12)N[C@@H](Cc1c[nH]c2ccccc12)C(=O)NCCCNC(=O)c1ccc(-c2c3nc(c(-c4ccc(S(=O)(=O)[O-])cc4)c4ccc([nH]4)c(-c4ccc(S(=O)(=O)[O-])cc4)c4nc(c(-c5ccc(S(=O)(=O)[O-])cc5)c5ccc2[nH]5)C=C4)C=C3)cc1
REMARK SMILES IDX 31 1 30 2 28 3 29 4 17 6 16 7 1 8 2 9 3 11 4 12 5 13 6 14
REMARK SMILES IDX 15 15 7 16 10 17 14 18 8 19 11 20 13 21 9 22 12 23 18 24
REMARK SMILES IDX 19 25 20 26 27 27 21 28 22 29 26 30 23 32 25 33 24 34 32 35
REMARK SMILES IDX 33 36 34 37 35 38 36 40 37 41 38 42 96 43 39 44 95 45 40 46
REMARK SMILES IDX 41 47 42 48 89 49 43 50 94 51 88 52 90 53 44 54 93 55 87 56
REMARK SMILES IDX 86 57 45 59 75 60 56 61 74 62 57 63 60 64 73 65 91 66 58 67
REMARK SMILES IDX 59 68 72 70 92 71 61 72 46 73 47 74 55 75 48 76 54 77 49 78
REMARK SMILES IDX 50 79 51 80 52 81 53 82 76 83 77 84 85 85 78 86 84 87 79 88
REMARK SMILES IDX 80 89 81 90 82 91 83 92 62 93 63 94 71 95 64 96 70 97 65 98
REMARK SMILES IDX 66 99 67 100 68 101 69 102
REMARK H PARENT 30 5 16 10 21 31 34 39 90 58 60 69
REMARK Flexibility Score: inf
ROOT
ATOM      1  C   UNL A   1      35.364  20.911  25.110  1.00  0.00     0.117 C 
ENDROOT
BRANCH   1   2
ATOM      2  N   UNL A   1      34.123  20.255  25.469  1.00  0.00    -0.354 N 
ATOM      3  C   UNL A   1      32.879  20.422  24.926  1.00  0.00     0.242 C 
ATOM      4  O   UNL A   1      32.104  19.462  25.013  1.00  0.00    -0.273 OA
ATOM      5  H   UNL A   1      34.184  19.602  26.204  1.00  0.00     0.163 HD
BRANCH   3   6
ATOM      6  C   UNL A   1      32.451  21.708  24.176  1.00  0.00     0.175 C 
BRANCH   6   7
ATOM      7  N   UNL A   1      31.355  22.391  24.871  1.00  0.00    -0.341 N 
ATOM      8  O   UNL A   1      32.409  22.640  26.897  1.00  0.00    -0.271 OA
ATOM      9  C   UNL A   1      31.499  22.936  26.129  1.00  0.00     0.258 C 
ATOM     10  H   UNL A   1      30.481  22.463  24.423  1.00  0.00     0.164 HD
BRANCH   9  11
ATOM     11  C   UNL A   1      30.420  23.966  26.482  1.00  0.00     0.329 C 
BRANCH  11  12
ATOM     12  O   UNL A   1      30.962  25.258  26.786  1.00  0.00    -0.483 OA
BRANCH  12  13
ATOM     13  C   UNL A   1      30.752  26.167  25.770  1.00  0.00     0.128 A 
ATOM     14  C   UNL A   1      30.049  25.768  24.632  1.00  0.00     0.048 A 
ATOM     15  C   UNL A   1      31.167  27.511  25.937  1.00  0.00     0.025 A 
ATOM     16  C   UNL A   1      29.796  26.681  23.616  1.00  0.00     0.025 A 
ATOM     17  C   UNL A   1      30.903  28.450  24.902  1.00  0.00     0.004 A 
ATOM     18  C   UNL A   1      31.834  27.952  27.100  1.00  0.00     0.012 A 
ATOM     19  C   UNL A   1      30.222  28.004  23.742  1.00  0.00     0.049 A 
ATOM     20  C   UNL A   1      31.328  29.788  25.085  1.00  0.00     0.010 A 
ATOM     21  C   UNL A   1      32.237  29.280  27.253  1.00  0.00     0.001 A 
ATOM     22  Cl  UNL A   1      29.858  29.060  22.416  1.00  0.00    -0.084 Cl
ATOM     23  C   UNL A   1      31.984  30.198  26.245  1.00  0.00     0.001 A 
ENDBRANCH  12  13
ENDBRANCH  11  12
ENDBRANCH   9  11
ENDBRANCH   6   7
BRANCH   6  24
ATOM     24  C   UNL A   1      33.614  22.600  23.698  1.00  0.00     0.072 C 
BRANCH  24  25
ATOM     25  C   UNL A   1      33.261  23.823  22.907  1.00  0.00    -0.020 A 
ATOM     26  C   UNL A   1      32.693  23.847  21.645  1.00  0.00     0.087 A 
ATOM     27  C   UNL A   1      33.478  25.189  23.285  1.00  0.00     0.003 A 
ATOM     28  N   UNL A   1      32.650  25.148  21.215  1.00  0.00    -0.361 N 
ATOM     29  C   UNL A   1      33.174  25.980  22.176  1.00  0.00     0.046 A 
ATOM     30  C   UNL A   1      33.994  25.816  24.437  1.00  0.00     0.010 A 
ATOM     31  H   UNL A   1      32.297  25.443  20.345  1.00  0.00     0.166 HD
ATOM     32  C   UNL A   1      33.416  27.357  22.140  1.00  0.00     0.026 A 
ATOM     33  C   UNL A   1      34.234  27.194  24.421  1.00  0.00     0.001 A 
ATOM     34  C   UNL A   1      33.964  27.948  23.283  1.00  0.00     0.002 A 
ENDBRANCH  24  25
ENDBRANCH   6  24
ENDBRANCH   3   6
ENDBRANCH   1   2
BRANCH   1  35
ATOM     35  C   UNL A   1      35.889  21.896  26.133  1.00  0.00     0.042 C 
BRANCH  35  36
ATOM     36  C   UNL A   1      37.193  22.558  25.712  1.00  0.00     0.118 C 
BRANCH  36  37
ATOM     37  N   UNL A   1      38.366  21.713  25.945  1.00  0.00    -0.352 N 
ATOM     38  C   UNL A   1      39.645  22.023  26.345  1.00  0.00     0.251 C 
ATOM     39  H   UNL A   1      38.211  20.753  25.789  1.00  0.00     0.163 HD
ATOM     40  O   UNL A   1      40.523  21.166  26.265  1.00  0.00    -0.269 OA
BRANCH  38  41
ATOM     41  C   UNL A   1      39.974  23.380  26.833  1.00  0.00     0.039 A 
ATOM     42  C   UNL A   1      40.626  23.534  28.060  1.00  0.00     0.014 A 
ATOM     43  C   UNL A   1      39.650  24.506  26.078  1.00  0.00     0.014 A 
ATOM     44  C   UNL A   1      41.060  24.801  28.461  1.00  0.00     0.010 A 
ATOM     45  C   UNL A   1      40.183  25.742  26.418  1.00  0.00     0.010 A 
ATOM     46  C   UNL A   1      40.903  25.906  27.609  1.00  0.00    -0.014 A 
BRANCH  46  47
ATOM     47  C   UNL A   1      41.499  27.235  27.908  1.00  0.00     0.031 A 
ATOM     48  C   UNL A   1      42.983  27.449  27.750  1.00  0.00     0.074 A 
ATOM     49  C   UNL A   1      40.732  28.206  28.446  1.00  0.00     0.049 A 
ATOM     50  N   UNL A   1      43.713  28.469  28.118  1.00  0.00    -0.248 NA
ATOM     51  C   UNL A   1      43.752  26.353  27.133  1.00  0.00     0.031 C 
ATOM     52  C   UNL A   1      39.292  28.110  28.706  1.00  0.00     0.029 A 
ATOM     53  N   UNL A   1      41.059  29.464  28.890  1.00  0.00    -0.354 N 
ATOM     54  C   UNL A   1      45.027  28.119  27.826  1.00  0.00     0.074 A 
ATOM     55  C   UNL A   1      44.998  26.780  27.281  1.00  0.00     0.031 C 
ATOM     56  C   UNL A   1      38.858  29.266  29.235  1.00  0.00     0.029 A 
ATOM     57  C   UNL A   1      39.993  30.166  29.402  1.00  0.00     0.049 A 
ATOM     58  H   UNL A   1      41.972  29.828  28.846  1.00  0.00     0.167 HD
ATOM     59  C   UNL A   1      46.153  28.852  27.983  1.00  0.00     0.031 A 
ATOM     60  C   UNL A   1      39.935  31.391  29.960  1.00  0.00     0.031 A 
ATOM     61  C   UNL A   1      46.172  30.204  28.470  1.00  0.00     0.049 A 
ATOM     62  C   UNL A   1      41.199  32.194  30.100  1.00  0.00     0.074 A 
ATOM     63  C   UNL A   1      47.248  31.069  28.560  1.00  0.00     0.029 A 
ATOM     64  N   UNL A   1      45.064  30.889  28.945  1.00  0.00    -0.354 N 
ATOM     65  N   UNL A   1      42.419  31.874  29.742  1.00  0.00    -0.248 NA
ATOM     66  C   UNL A   1      41.078  33.521  30.720  1.00  0.00     0.031 C 
ATOM     67  C   UNL A   1      46.800  32.264  29.132  1.00  0.00     0.029 A 
ATOM     68  C   UNL A   1      45.436  32.157  29.356  1.00  0.00     0.049 A 
ATOM     69  H   UNL A   1      44.150  30.527  28.985  1.00  0.00     0.167 HD
ATOM     70  C   UNL A   1      43.207  32.970  30.072  1.00  0.00     0.074 A 
ATOM     71  C   UNL A   1      42.325  33.965  30.645  1.00  0.00     0.031 C 
ATOM     72  C   UNL A   1      44.542  33.137  29.917  1.00  0.00     0.031 A 
BRANCH  59  73
ATOM     73  C   UNL A   1      47.466  28.211  27.619  1.00  0.00    -0.014 A 
ATOM     74  C   UNL A   1      47.970  28.280  26.308  1.00  0.00     0.010 A 
ATOM     75  C   UNL A   1      48.232  27.581  28.615  1.00  0.00     0.010 A 
ATOM     76  C   UNL A   1      49.200  27.698  25.993  1.00  0.00     0.020 A 
ATOM     77  C   UNL A   1      49.476  27.020  28.310  1.00  0.00     0.020 A 
ATOM     78  C   UNL A   1      49.945  27.069  26.996  1.00  0.00     0.054 A 
BRANCH  78  79
ATOM     79  S   UNL A   1      51.556  26.355  26.565  1.00  0.00     0.124 S 
ATOM     80  O   UNL A   1      52.470  27.182  27.350  1.00  0.00    -0.237 OA
ATOM     81  O   UNL A   1      51.424  24.971  27.010  1.00  0.00    -0.237 OA
ATOM     82  O   UNL A   1      51.639  26.536  25.118  1.00  0.00    -0.744 OA
ENDBRANCH  78  79
ENDBRANCH  59  73
BRANCH  60  83
ATOM     83  C   UNL A   1      38.633  31.943  30.427  1.00  0.00    -0.014 A 
ATOM     84  C   UNL A   1      37.849  32.727  29.563  1.00  0.00     0.010 A 
ATOM     85  C   UNL A   1      38.174  31.694  31.733  1.00  0.00     0.010 A 
ATOM     86  C   UNL A   1      36.641  33.274  30.003  1.00  0.00     0.020 A 
ATOM     87  C   UNL A   1      36.954  32.220  32.169  1.00  0.00     0.020 A 
ATOM     88  C   UNL A   1      36.201  33.019  31.305  1.00  0.00     0.054 A 
BRANCH  88  89
ATOM     89  S   UNL A   1      34.613  33.708  31.847  1.00  0.00     0.124 S 
ATOM     90  O   UNL A   1      33.994  34.077  30.579  1.00  0.00    -0.237 OA
ATOM     91  O   UNL A   1      34.001  32.581  32.548  1.00  0.00    -0.237 OA
ATOM     92  O   UNL A   1      35.003  34.825  32.705  1.00  0.00    -0.744 OA
ENDBRANCH  88  89
ENDBRANCH  60  83
BRANCH  72  93
ATOM     93  C   UNL A   1      45.132  34.451  30.344  1.00  0.00    -0.014 A 
ATOM     94  C   UNL A   1      45.173  35.545  29.462  1.00  0.00     0.010 A 
ATOM     95  C   UNL A   1      45.580  34.614  31.667  1.00  0.00     0.010 A 
ATOM     96  C   UNL A   1      45.670  36.777  29.893  1.00  0.00     0.020 A 
ATOM     97  C   UNL A   1      46.055  35.851  32.108  1.00  0.00     0.020 A 
ATOM     98  C   UNL A   1      46.104  36.923  31.215  1.00  0.00     0.054 A 
BRANCH  98  99
ATOM     99  S   UNL A   1      46.680  38.552  31.769  1.00  0.00     0.124 S 
ATOM    100  O   UNL A   1      46.638  38.409  33.222  1.00  0.00    -0.237 OA
ATOM    101  O   UNL A   1      48.016  38.637  31.185  1.00  0.00    -0.237 OA
ATOM    102  O   UNL A   1      45.700  39.476  31.204  1.00  0.00    -0.744 OA
ENDBRANCH  98  99
ENDBRANCH  72  93
ENDBRANCH  46  47
ENDBRANCH  38  41
ENDBRANCH  36  37
ENDBRANCH  35  36
ENDBRANCH   1  35
TORSDOF 19
ENDMDL
MODEL 3
REMARK VINA RESULT:     -12.4      4.835      8.792
REMARK SMILES O=C(COc1ccc(Cl)c2ccccc12)N[C@@H](Cc1c[nH]c2ccccc12)C(=O)NCCCNC(=O)c1ccc(-c2c3nc(c(-c4ccc(S(=O)(=O)[O-])cc4)c4ccc([nH]4)c(-c4ccc(S(=O)(=O)[O-])cc4)c4nc(c(-c5ccc(S(=O)(=O)[O-])cc5)c5ccc2[nH]5)C=C4)C=C3)cc1
REMARK SMILES IDX 31 1 30 2 28 3 29 4 17 6 16 7 1 8 2 9 3 11 4 12 5 13 6 14
REMARK SMILES IDX 15 15 7 16 10 17 14 18 8 19 11 20 13 21 9 22 12 23 18 24
REMARK SMILES IDX 19 25 20 26 27 27 21 28 22 29 26 30 23 32 25 33 24 34 32 35
REMARK SMILES IDX 33 36 34 37 35 38 36 40 37 41 38 42 96 43 39 44 95 45 40 46
REMARK SMILES IDX 41 47 42 48 89 49 43 50 94 51 88 52 90 53 44 54 93 55 87 56
REMARK SMILES IDX 86 57 45 59 75 60 56 61 74 62 57 63 60 64 73 65 91 66 58 67
REMARK SMILES IDX 59 68 72 70 92 71 61 72 46 73 47 74 55 75 48 76 54 77 49 78
REMARK SMILES IDX 50 79 51 80 52 81 53 82 76 83 77 84 85 85 78 86 84 87 79 88
REMARK SMILES IDX 80 89 81 90 82 91 83 92 62 93 63 94 71 95 64 96 70 97 65 98
REMARK SMILES IDX 66 99 67 100 68 101 69 102
REMARK H PARENT 30 5 16 10 21 31 34 39 90 58 60 69
REMARK Flexibility Score: inf
ROOT
ATOM      1  C   UNL A   1      31.844  29.580  24.984  1.00  0.00     0.117 C 
ENDROOT
BRANCH   1   2
ATOM      2  N   UNL A   1      31.301  29.446  23.648  1.00  0.00    -0.354 N 
ATOM      3  C   UNL A   1      30.546  28.430  23.129  1.00  0.00     0.242 C 
ATOM      4  O   UNL A   1      29.795  28.722  22.191  1.00  0.00    -0.273 OA
ATOM      5  H   UNL A   1      31.503  30.186  23.030  1.00  0.00     0.163 HD
BRANCH   3   6
ATOM      6  C   UNL A   1      30.559  26.991  23.703  1.00  0.00     0.175 C 
BRANCH   6   7
ATOM      7  N   UNL A   1      31.110  26.036  22.736  1.00  0.00    -0.341 N 
ATOM      8  O   UNL A   1      33.199  26.974  22.562  1.00  0.00    -0.271 OA
ATOM      9  C   UNL A   1      32.441  26.029  22.375  1.00  0.00     0.258 C 
ATOM     10  H   UNL A   1      30.507  25.374  22.327  1.00  0.00     0.164 HD
BRANCH   9  11
ATOM     11  C   UNL A   1      32.896  24.717  21.728  1.00  0.00     0.329 C 
BRANCH  11  12
ATOM     12  O   UNL A   1      34.069  24.170  22.345  1.00  0.00    -0.483 OA
BRANCH  12  13
ATOM     13  C   UNL A   1      33.797  23.027  23.067  1.00  0.00     0.128 A 
ATOM     14  C   UNL A   1      32.493  22.532  23.094  1.00  0.00     0.048 A 
ATOM     15  C   UNL A   1      34.857  22.323  23.688  1.00  0.00     0.025 A 
ATOM     16  C   UNL A   1      32.208  21.361  23.785  1.00  0.00     0.025 A 
ATOM     17  C   UNL A   1      34.571  21.120  24.391  1.00  0.00     0.004 A 
ATOM     18  C   UNL A   1      36.193  22.775  23.632  1.00  0.00     0.012 A 
ATOM     19  C   UNL A   1      33.230  20.665  24.433  1.00  0.00     0.049 A 
ATOM     20  C   UNL A   1      35.643  20.432  25.009  1.00  0.00     0.010 A 
ATOM     21  C   UNL A   1      37.230  22.071  24.248  1.00  0.00     0.001 A 
ATOM     22  Cl  UNL A   1      32.767  19.218  25.270  1.00  0.00    -0.084 Cl
ATOM     23  C   UNL A   1      36.955  20.900  24.936  1.00  0.00     0.001 A 
ENDBRANCH  12  13
ENDBRANCH  11  12
ENDBRANCH   9  11
ENDBRANCH   6   7
BRANCH   6  24
ATOM     24  C   UNL A   1      31.079  26.873  25.149  1.00  0.00     0.072 C 
BRANCH  24  25
ATOM     25  C   UNL A   1      31.083  25.507  25.767  1.00  0.00    -0.020 A 
ATOM     26  C   UNL A   1      29.971  24.774  26.144  1.00  0.00     0.087 A 
ATOM     27  C   UNL A   1      32.230  24.722  26.119  1.00  0.00     0.003 A 
ATOM     28  N   UNL A   1      30.398  23.641  26.786  1.00  0.00    -0.361 N 
ATOM     29  C   UNL A   1      31.772  23.613  26.832  1.00  0.00     0.046 A 
ATOM     30  C   UNL A   1      33.621  24.902  25.978  1.00  0.00     0.010 A 
ATOM     31  H   UNL A   1      29.806  22.948  27.161  1.00  0.00     0.166 HD
ATOM     32  C   UNL A   1      32.633  22.709  27.462  1.00  0.00     0.026 A 
ATOM     33  C   UNL A   1      34.498  24.002  26.593  1.00  0.00     0.001 A 
ATOM     34  C   UNL A   1      34.008  22.932  27.337  1.00  0.00     0.002 A 
ENDBRANCH  24  25
ENDBRANCH   6  24
ENDBRANCH   3   6
ENDBRANCH   1   2
BRANCH   1  35
ATOM     35  C   UNL A   1      33.347  29.428  25.085  1.00  0.00     0.042 C 
BRANCH  35  36
ATOM     36  C   UNL A   1      33.857  29.450  26.518  1.00  0.00     0.118 C 
BRANCH  36  37
ATOM     37  N   UNL A   1      33.626  30.730  27.189  1.00  0.00    -0.352 N 
ATOM     38  C   UNL A   1      34.343  31.390  28.159  1.00  0.00     0.251 C 
ATOM     39  H   UNL A   1      32.814  31.201  26.894  1.00  0.00     0.163 HD
ATOM     40  O   UNL A   1      33.837  32.356  28.727  1.00  0.00    -0.269 OA
BRANCH  38  41
ATOM     41  C   UNL A   1      35.694  30.927  28.544  1.00  0.00     0.039 A 
ATOM     42  C   UNL A   1      36.812  31.687  28.190  1.00  0.00     0.014 A 
ATOM     43  C   UNL A   1      35.863  29.746  29.267  1.00  0.00     0.014 A 
ATOM     44  C   UNL A   1      38.077  31.326  28.667  1.00  0.00     0.010 A 
ATOM     45  C   UNL A   1      37.095  29.456  29.837  1.00  0.00     0.010 A 
ATOM     46  C   UNL A   1      38.217  30.246  29.553  1.00  0.00    -0.014 A 
BRANCH  46  47
ATOM     47  C   UNL A   1      39.505  29.929  30.226  1.00  0.00     0.031 A 
ATOM     48  C   UNL A   1      40.375  28.815  29.702  1.00  0.00     0.074 A 
ATOM     49  C   UNL A   1      39.827  30.550  31.380  1.00  0.00     0.049 A 
ATOM     50  N   UNL A   1      41.437  28.275  30.241  1.00  0.00    -0.248 NA
ATOM     51  C   UNL A   1      39.973  28.200  28.424  1.00  0.00     0.031 C 
ATOM     52  C   UNL A   1      39.043  31.606  32.028  1.00  0.00     0.029 A 
ATOM     53  N   UNL A   1      40.892  30.369  32.227  1.00  0.00    -0.354 N 
ATOM     54  C   UNL A   1      41.799  27.230  29.398  1.00  0.00     0.074 A 
ATOM     55  C   UNL A   1      40.824  27.189  28.330  1.00  0.00     0.031 C 
ATOM     56  C   UNL A   1      39.668  31.998  33.150  1.00  0.00     0.029 A 
ATOM     57  C   UNL A   1      40.866  31.187  33.333  1.00  0.00     0.049 A 
ATOM     58  H   UNL A   1      41.608  29.715  32.059  1.00  0.00     0.167 HD
ATOM     59  C   UNL A   1      42.855  26.390  29.496  1.00  0.00     0.031 A 
ATOM     60  C   UNL A   1      41.703  31.266  34.387  1.00  0.00     0.031 A 
ATOM     61  C   UNL A   1      43.854  26.470  30.527  1.00  0.00     0.049 A 
ATOM     62  C   UNL A   1      42.883  30.337  34.458  1.00  0.00     0.074 A 
ATOM     63  C   UNL A   1      45.022  25.738  30.649  1.00  0.00     0.029 A 
ATOM     64  N   UNL A   1      43.807  27.336  31.607  1.00  0.00    -0.354 N 
ATOM     65  N   UNL A   1      43.250  29.409  33.607  1.00  0.00    -0.248 NA
ATOM     66  C   UNL A   1      43.759  30.464  35.631  1.00  0.00     0.031 C 
ATOM     67  C   UNL A   1      45.660  26.130  31.830  1.00  0.00     0.029 A 
ATOM     68  C   UNL A   1      44.911  27.137  32.417  1.00  0.00     0.049 A 
ATOM     69  H   UNL A   1      43.094  27.994  31.774  1.00  0.00     0.167 HD
ATOM     70  C   UNL A   1      44.414  28.858  34.131  1.00  0.00     0.074 A 
ATOM     71  C   UNL A   1      44.695  29.564  35.363  1.00  0.00     0.031 C 
ATOM     72  C   UNL A   1      45.179  27.855  33.637  1.00  0.00     0.031 A 
BRANCH  59  73
ATOM     73  C   UNL A   1      42.992  25.309  28.457  1.00  0.00    -0.014 A 
ATOM     74  C   UNL A   1      43.671  25.544  27.248  1.00  0.00     0.010 A 
ATOM     75  C   UNL A   1      42.486  24.023  28.720  1.00  0.00     0.010 A 
ATOM     76  C   UNL A   1      43.808  24.523  26.305  1.00  0.00     0.020 A 
ATOM     77  C   UNL A   1      42.644  22.992  27.790  1.00  0.00     0.020 A 
ATOM     78  C   UNL A   1      43.291  23.253  26.581  1.00  0.00     0.054 A 
BRANCH  78  79
ATOM     79  S   UNL A   1      43.517  21.936  25.353  1.00  0.00     0.124 S 
ATOM     80  O   UNL A   1      44.820  21.394  25.731  1.00  0.00    -0.237 OA
ATOM     81  O   UNL A   1      42.376  21.061  25.607  1.00  0.00    -0.237 OA
ATOM     82  O   UNL A   1      43.483  22.645  24.076  1.00  0.00    -0.744 OA
ENDBRANCH  78  79
ENDBRANCH  59  73
BRANCH  60  83
ATOM     83  C   UNL A   1      41.462  32.266  35.463  1.00  0.00    -0.014 A 
ATOM     84  C   UNL A   1      40.656  31.936  36.566  1.00  0.00     0.010 A 
ATOM     85  C   UNL A   1      42.029  33.551  35.389  1.00  0.00     0.010 A 
ATOM     86  C   UNL A   1      40.399  32.880  37.565  1.00  0.00     0.020 A 
ATOM     87  C   UNL A   1      41.796  34.490  36.399  1.00  0.00     0.020 A 
ATOM     88  C   UNL A   1      40.970  34.152  37.474  1.00  0.00     0.054 A 
BRANCH  88  89
ATOM     89  S   UNL A   1      40.655  35.352  38.798  1.00  0.00     0.124 S 
ATOM     90  O   UNL A   1      40.841  34.539  39.995  1.00  0.00    -0.237 OA
ATOM     91  O   UNL A   1      41.677  36.367  38.555  1.00  0.00    -0.237 OA
ATOM     92  O   UNL A   1      39.284  35.788  38.542  1.00  0.00    -0.744 OA
ENDBRANCH  88  89
ENDBRANCH  60  83
BRANCH  72  93
ATOM     93  C   UNL A   1      46.410  27.477  34.409  1.00  0.00    -0.014 A 
ATOM     94  C   UNL A   1      46.373  26.455  35.374  1.00  0.00     0.010 A 
ATOM     95  C   UNL A   1      47.636  28.100  34.111  1.00  0.00     0.010 A 
ATOM     96  C   UNL A   1      47.539  26.074  36.041  1.00  0.00     0.020 A 
ATOM     97  C   UNL A   1      48.808  27.705  34.758  1.00  0.00     0.020 A 
ATOM     98  C   UNL A   1      48.751  26.699  35.726  1.00  0.00     0.054 A 
BRANCH  98  99
ATOM     99  S   UNL A   1      50.264  26.140  36.556  1.00  0.00     0.124 S 
ATOM    100  O   UNL A   1      50.357  24.751  36.112  1.00  0.00    -0.237 OA
ATOM    101  O   UNL A   1      51.279  27.041  36.016  1.00  0.00    -0.237 OA
ATOM    102  O   UNL A   1      49.968  26.323  37.974  1.00  0.00    -0.744 OA
ENDBRANCH  98  99
ENDBRANCH  72  93
ENDBRANCH  46  47
ENDBRANCH  38  41
ENDBRANCH  36  37
ENDBRANCH  35  36
ENDBRANCH   1  35
TORSDOF 19
ENDMDL
