MODEL 1
REMARK VINA RESULT:     -10.2      0.000      0.000
REMARK SMILES COc1ccc([C@H]2CC(c3ccc(S(C)(=O)=O)cc3)=NN2c2ccc(C(=O)NCCCNC(=O)c3ccc(-c4c5nc(c(-c6ccc(S(=O)(=O)[O-])cc6)c6ccc([nH]6)c(-c6ccc(S(=O)(=O)[O-])cc6)c6nc(c(-c7ccc(S(=O)(=O)[O-])cc7)c7ccc4[nH]7)C=C6)C=C5)cc3)cc2)cc1
REMARK SMILES IDX 30 1 29 2 28 3 26 4 27 5 25 7 22 8 23 9 96 10 24 11 95 12
REMARK SMILES IDX 21 13 7 14 8 15 9 16 20 17 6 18 3 19 4 20 98 21 5 22 97 23
REMARK SMILES IDX 2 24 1 25 10 26 11 27 19 28 12 29 18 30 13 31 14 32 15 33
REMARK SMILES IDX 16 34 17 35 31 36 32 37 33 38 34 40 35 41 36 42 94 43 37 44
REMARK SMILES IDX 93 45 38 46 39 47 40 48 87 49 41 50 92 51 86 52 88 53 42 54
REMARK SMILES IDX 91 55 85 56 84 57 43 59 73 60 54 61 72 62 55 63 58 64 71 65
REMARK SMILES IDX 89 66 56 67 57 68 70 70 90 71 59 72 44 73 45 74 53 75 46 76
REMARK SMILES IDX 52 77 47 78 48 79 49 80 50 81 51 82 74 83 75 84 83 85 76 86
REMARK SMILES IDX 82 87 77 88 78 89 79 90 80 91 81 92 60 93 61 94 69 95 62 96
REMARK SMILES IDX 68 97 63 98 64 99 65 100 66 101 67 102
REMARK H PARENT 28 6 32 39 88 58 58 69
REMARK Flexibility Score: inf
ROOT
ATOM      1  C   UNL A   1      42.183  21.752  27.444  1.00  0.00     0.042 C 
ENDROOT
BRANCH   1   2
ATOM      2  C   UNL A   1      41.967  21.176  26.046  1.00  0.00     0.118 C 
BRANCH   2   3
ATOM      3  N   UNL A   1      43.197  20.624  25.511  1.00  0.00    -0.352 N 
ATOM      4  C   UNL A   1      44.423  21.177  25.245  1.00  0.00     0.251 C 
ATOM      5  O   UNL A   1      45.307  20.420  24.839  1.00  0.00    -0.269 OA
ATOM      6  H   UNL A   1      43.142  19.664  25.299  1.00  0.00     0.163 HD
BRANCH   4   7
ATOM      7  C   UNL A   1      44.747  22.614  25.473  1.00  0.00     0.039 A 
ATOM      8  C   UNL A   1      45.449  25.286  26.095  1.00  0.00     0.060 A 
ATOM      9  C   UNL A   1      46.096  24.213  26.715  1.00  0.00     0.029 A 
ATOM     10  C   UNL A   1      44.492  25.003  25.118  1.00  0.00     0.029 A 
ATOM     11  C   UNL A   1      45.737  22.893  26.425  1.00  0.00     0.016 A 
ATOM     12  C   UNL A   1      44.171  23.682  24.783  1.00  0.00     0.016 A 
BRANCH   8  13
ATOM     13  N   UNL A   1      45.776  26.584  26.448  1.00  0.00    -0.257 N 
ATOM     14  C   UNL A   1      47.131  27.130  26.408  1.00  0.00     0.144 C 
ATOM     15  C   UNL A   1      46.981  28.463  27.151  1.00  0.00     0.091 C 
ATOM     16  C   UNL A   1      45.536  28.378  27.550  1.00  0.00     0.071 C 
ATOM     17  N   UNL A   1      44.888  27.331  27.150  1.00  0.00    -0.176 NA
BRANCH  14  18
ATOM     18  C   UNL A   1      47.609  27.306  24.975  1.00  0.00    -0.023 A 
ATOM     19  C   UNL A   1      48.501  27.609  22.313  1.00  0.00     0.118 A 
ATOM     20  C   UNL A   1      49.240  26.860  23.229  1.00  0.00     0.047 A 
ATOM     21  C   UNL A   1      47.300  28.188  22.718  1.00  0.00     0.047 A 
ATOM     22  C   UNL A   1      48.805  26.712  24.550  1.00  0.00     0.010 A 
ATOM     23  C   UNL A   1      46.858  28.034  24.037  1.00  0.00     0.010 A 
BRANCH  19  24
ATOM     24  O   UNL A   1      49.035  27.677  21.055  1.00  0.00    -0.497 OA
ATOM     25  C   UNL A   1      50.325  27.103  20.886  1.00  0.00     0.278 C 
ENDBRANCH  19  24
ENDBRANCH  14  18
BRANCH  16  26
ATOM     26  C   UNL A   1      44.921  29.415  28.380  1.00  0.00    -0.002 A 
ATOM     27  C   UNL A   1      44.287  30.491  27.751  1.00  0.00     0.011 A 
ATOM     28  C   UNL A   1      45.002  29.335  29.771  1.00  0.00     0.011 A 
ATOM     29  C   UNL A   1      43.713  31.499  28.525  1.00  0.00     0.021 A 
ATOM     30  C   UNL A   1      44.451  30.356  30.546  1.00  0.00     0.021 A 
ATOM     31  C   UNL A   1      43.815  31.434  29.919  1.00  0.00     0.067 A 
BRANCH  31  32
ATOM     32  S   UNL A   1      43.120  32.743  30.900  1.00  0.00     0.175 S 
ATOM     33  C   UNL A   1      43.679  32.399  32.547  1.00  0.00     0.163 C 
ATOM     34  O   UNL A   1      43.732  33.977  30.450  1.00  0.00    -0.224 OA
ATOM     35  O   UNL A   1      41.677  32.579  30.888  1.00  0.00    -0.224 OA
ENDBRANCH  31  32
ENDBRANCH  16  26
ENDBRANCH   8  13
ENDBRANCH   4   7
ENDBRANCH   2   3
ENDBRANCH   1   2
BRANCH   1  36
ATOM     36  C   UNL A   1      41.429  23.059  27.684  1.00  0.00     0.118 C 
BRANCH  36  37
ATOM     37  N   UNL A   1      41.260  23.820  26.455  1.00  0.00    -0.352 N 
ATOM     38  C   UNL A   1      40.856  25.118  26.272  1.00  0.00     0.251 C 
ATOM     39  H   UNL A   1      41.467  23.328  25.627  1.00  0.00     0.163 HD
ATOM     40  O   UNL A   1      40.557  25.499  25.144  1.00  0.00    -0.269 OA
BRANCH  38  41
ATOM     41  C   UNL A   1      40.769  26.054  27.416  1.00  0.00     0.039 A 
ATOM     42  C   UNL A   1      41.697  27.095  27.504  1.00  0.00     0.014 A 
ATOM     43  C   UNL A   1      39.818  25.880  28.427  1.00  0.00     0.014 A 
ATOM     44  C   UNL A   1      41.644  27.989  28.577  1.00  0.00     0.010 A 
ATOM     45  C   UNL A   1      39.728  26.806  29.465  1.00  0.00     0.010 A 
ATOM     46  C   UNL A   1      40.643  27.866  29.554  1.00  0.00    -0.014 A 
BRANCH  46  47
ATOM     47  C   UNL A   1      40.540  28.834  30.676  1.00  0.00     0.031 A 
ATOM     48  C   UNL A   1      41.441  28.705  31.874  1.00  0.00     0.074 A 
ATOM     49  C   UNL A   1      39.600  29.799  30.637  1.00  0.00     0.049 A 
ATOM     50  N   UNL A   1      41.456  29.415  32.974  1.00  0.00    -0.248 NA
ATOM     51  C   UNL A   1      42.442  27.627  31.842  1.00  0.00     0.031 C 
ATOM     52  C   UNL A   1      38.651  30.014  29.542  1.00  0.00     0.029 A 
ATOM     53  N   UNL A   1      39.286  30.779  31.544  1.00  0.00    -0.354 N 
ATOM     54  C   UNL A   1      42.452  28.862  33.769  1.00  0.00     0.074 A 
ATOM     55  C   UNL A   1      42.993  27.732  33.044  1.00  0.00     0.031 C 
ATOM     56  C   UNL A   1      37.881  31.075  29.829  1.00  0.00     0.029 A 
ATOM     57  C   UNL A   1      38.252  31.592  31.143  1.00  0.00     0.049 A 
ATOM     58  H   UNL A   1      39.757  30.891  32.402  1.00  0.00     0.167 HD
ATOM     59  C   UNL A   1      42.889  29.266  34.986  1.00  0.00     0.031 A 
ATOM     60  C   UNL A   1      37.663  32.632  31.764  1.00  0.00     0.031 A 
ATOM     61  C   UNL A   1      42.359  30.398  35.700  1.00  0.00     0.049 A 
ATOM     62  C   UNL A   1      38.159  33.055  33.119  1.00  0.00     0.074 A 
ATOM     63  C   UNL A   1      42.763  30.911  36.920  1.00  0.00     0.029 A 
ATOM     64  N   UNL A   1      41.312  31.193  35.258  1.00  0.00    -0.354 N 
ATOM     65  N   UNL A   1      39.128  32.540  33.837  1.00  0.00    -0.248 NA
ATOM     66  C   UNL A   1      37.487  34.204  33.741  1.00  0.00     0.031 C 
ATOM     67  C   UNL A   1      41.934  31.993  37.236  1.00  0.00     0.029 A 
ATOM     68  C   UNL A   1      41.048  32.184  36.187  1.00  0.00     0.049 A 
ATOM     69  H   UNL A   1      40.829  31.071  34.409  1.00  0.00     0.167 HD
ATOM     70  C   UNL A   1      39.199  33.320  34.987  1.00  0.00     0.074 A 
ATOM     71  C   UNL A   1      38.184  34.347  34.860  1.00  0.00     0.031 C 
ATOM     72  C   UNL A   1      40.033  33.199  36.048  1.00  0.00     0.031 A 
BRANCH  59  73
ATOM     73  C   UNL A   1      44.001  28.475  35.625  1.00  0.00    -0.014 A 
ATOM     74  C   UNL A   1      45.348  28.815  35.408  1.00  0.00     0.010 A 
ATOM     75  C   UNL A   1      43.694  27.408  36.489  1.00  0.00     0.010 A 
ATOM     76  C   UNL A   1      46.370  28.078  36.013  1.00  0.00     0.020 A 
ATOM     77  C   UNL A   1      44.714  26.685  37.116  1.00  0.00     0.020 A 
ATOM     78  C   UNL A   1      46.046  27.015  36.860  1.00  0.00     0.054 A 
BRANCH  78  79
ATOM     79  S   UNL A   1      47.392  26.092  37.653  1.00  0.00     0.124 S 
ATOM     80  O   UNL A   1      47.688  25.072  36.650  1.00  0.00    -0.237 OA
ATOM     81  O   UNL A   1      48.421  27.114  37.831  1.00  0.00    -0.237 OA
ATOM     82  O   UNL A   1      46.792  25.595  38.889  1.00  0.00    -0.744 OA
ENDBRANCH  78  79
ENDBRANCH  59  73
BRANCH  60  83
ATOM     83  C   UNL A   1      36.553  33.363  31.094  1.00  0.00    -0.014 A 
ATOM     84  C   UNL A   1      36.748  33.937  29.825  1.00  0.00     0.010 A 
ATOM     85  C   UNL A   1      35.294  33.470  31.709  1.00  0.00     0.010 A 
ATOM     86  C   UNL A   1      35.706  34.617  29.190  1.00  0.00     0.020 A 
ATOM     87  C   UNL A   1      34.242  34.127  31.065  1.00  0.00     0.020 A 
ATOM     88  C   UNL A   1      34.457  34.705  29.812  1.00  0.00     0.054 A 
BRANCH  88  89
ATOM     89  S   UNL A   1      33.101  35.538  28.941  1.00  0.00     0.124 S 
ATOM     90  O   UNL A   1      32.508  34.440  28.183  1.00  0.00    -0.237 OA
ATOM     91  O   UNL A   1      32.291  36.059  30.039  1.00  0.00    -0.237 OA
ATOM     92  O   UNL A   1      33.783  36.555  28.144  1.00  0.00    -0.744 OA
ENDBRANCH  88  89
ENDBRANCH  60  83
BRANCH  72  93
ATOM     93  C   UNL A   1      39.908  34.219  37.146  1.00  0.00    -0.014 A 
ATOM     94  C   UNL A   1      40.506  35.486  37.035  1.00  0.00     0.010 A 
ATOM     95  C   UNL A   1      39.136  33.920  38.285  1.00  0.00     0.010 A 
ATOM     96  C   UNL A   1      40.358  36.428  38.056  1.00  0.00     0.020 A 
ATOM     97  C   UNL A   1      38.965  34.868  39.296  1.00  0.00     0.020 A 
ATOM     98  C   UNL A   1      39.589  36.112  39.182  1.00  0.00     0.054 A 
BRANCH  98  99
ATOM     99  S   UNL A   1      39.376  37.366  40.475  1.00  0.00     0.124 S 
ATOM    100  O   UNL A   1      38.523  38.347  39.809  1.00  0.00    -0.237 OA
ATOM    101  O   UNL A   1      38.742  36.611  41.554  1.00  0.00    -0.237 OA
ATOM    102  O   UNL A   1      40.739  37.811  40.753  1.00  0.00    -0.744 OA
ENDBRANCH  98  99
ENDBRANCH  72  93
ENDBRANCH  46  47
ENDBRANCH  38  41
ENDBRANCH  36  37
ENDBRANCH   1  36
TORSDOF 18
ENDMDL
MODEL 2
REMARK VINA RESULT:     -10.2      2.984      3.825
REMARK SMILES COc1ccc([C@H]2CC(c3ccc(S(C)(=O)=O)cc3)=NN2c2ccc(C(=O)NCCCNC(=O)c3ccc(-c4c5nc(c(-c6ccc(S(=O)(=O)[O-])cc6)c6ccc([nH]6)c(-c6ccc(S(=O)(=O)[O-])cc6)c6nc(c(-c7ccc(S(=O)(=O)[O-])cc7)c7ccc4[nH]7)C=C6)C=C5)cc3)cc2)cc1
REMARK SMILES IDX 30 1 29 2 28 3 26 4 27 5 25 7 22 8 23 9 96 10 24 11 95 12
REMARK SMILES IDX 21 13 7 14 8 15 9 16 20 17 6 18 3 19 4 20 98 21 5 22 97 23
REMARK SMILES IDX 2 24 1 25 10 26 11 27 19 28 12 29 18 30 13 31 14 32 15 33
REMARK SMILES IDX 16 34 17 35 31 36 32 37 33 38 34 40 35 41 36 42 94 43 37 44
REMARK SMILES IDX 93 45 38 46 39 47 40 48 87 49 41 50 92 51 86 52 88 53 42 54
REMARK SMILES IDX 91 55 85 56 84 57 43 59 73 60 54 61 72 62 55 63 58 64 71 65
REMARK SMILES IDX 89 66 56 67 57 68 70 70 90 71 59 72 44 73 45 74 53 75 46 76
REMARK SMILES IDX 52 77 47 78 48 79 49 80 50 81 51 82 74 83 75 84 83 85 76 86
REMARK SMILES IDX 82 87 77 88 78 89 79 90 80 91 81 92 60 93 61 94 69 95 62 96
REMARK SMILES IDX 68 97 63 98 64 99 65 100 66 101 67 102
REMARK H PARENT 28 6 32 39 88 58 58 69
REMARK Flexibility Score: inf
ROOT
ATOM      1  C   UNL A   1      41.721  20.876  26.178  1.00  0.00     0.042 C 
ENDROOT
BRANCH   1   2
ATOM      2  C   UNL A   1      42.848  21.881  25.944  1.00  0.00     0.118 C 
BRANCH   2   3
ATOM      3  N   UNL A   1      44.103  21.206  25.673  1.00  0.00    -0.352 N 
ATOM      4  C   UNL A   1      45.407  21.625  25.705  1.00  0.00     0.251 C 
ATOM      5  O   UNL A   1      46.276  20.782  25.475  1.00  0.00    -0.269 OA
ATOM      6  H   UNL A   1      43.997  20.262  25.415  1.00  0.00     0.163 HD
BRANCH   4   7
ATOM      7  C   UNL A   1      45.819  23.013  26.057  1.00  0.00     0.039 A 
ATOM      8  C   UNL A   1      46.709  25.659  26.538  1.00  0.00     0.060 A 
ATOM      9  C   UNL A   1      46.677  25.138  25.241  1.00  0.00     0.029 A 
ATOM     10  C   UNL A   1      46.232  24.860  27.580  1.00  0.00     0.029 A 
ATOM     11  C   UNL A   1      46.258  23.827  25.002  1.00  0.00     0.016 A 
ATOM     12  C   UNL A   1      45.757  23.565  27.337  1.00  0.00     0.016 A 
BRANCH   8  13
ATOM     13  N   UNL A   1      47.191  26.938  26.755  1.00  0.00    -0.257 N 
ATOM     14  C   UNL A   1      48.502  27.235  27.329  1.00  0.00     0.144 C 
ATOM     15  C   UNL A   1      48.412  28.740  27.615  1.00  0.00     0.091 C 
ATOM     16  C   UNL A   1      46.992  28.999  27.205  1.00  0.00     0.071 C 
ATOM     17  N   UNL A   1      46.334  27.989  26.731  1.00  0.00    -0.176 NA
BRANCH  14  18
ATOM     18  C   UNL A   1      49.617  26.886  26.357  1.00  0.00    -0.023 A 
ATOM     19  C   UNL A   1      51.692  26.261  24.545  1.00  0.00     0.118 A 
ATOM     20  C   UNL A   1      50.670  27.140  24.181  1.00  0.00     0.047 A 
ATOM     21  C   UNL A   1      51.693  25.712  25.826  1.00  0.00     0.047 A 
ATOM     22  C   UNL A   1      49.638  27.447  25.074  1.00  0.00     0.010 A 
ATOM     23  C   UNL A   1      50.666  26.025  26.724  1.00  0.00     0.010 A 
BRANCH  19  24
ATOM     24  O   UNL A   1      52.639  26.043  23.583  1.00  0.00    -0.497 OA
ATOM     25  C   UNL A   1      52.642  26.947  22.485  1.00  0.00     0.278 C 
ENDBRANCH  19  24
ENDBRANCH  14  18
BRANCH  16  26
ATOM     26  C   UNL A   1      46.388  30.322  27.374  1.00  0.00    -0.002 A 
ATOM     27  C   UNL A   1      45.371  30.481  28.319  1.00  0.00     0.011 A 
ATOM     28  C   UNL A   1      46.808  31.388  26.576  1.00  0.00     0.011 A 
ATOM     29  C   UNL A   1      44.771  31.730  28.480  1.00  0.00     0.021 A 
ATOM     30  C   UNL A   1      46.191  32.631  26.718  1.00  0.00     0.021 A 
ATOM     31  C   UNL A   1      45.173  32.793  27.665  1.00  0.00     0.067 A 
BRANCH  31  32
ATOM     32  S   UNL A   1      44.375  34.371  27.844  1.00  0.00     0.175 S 
ATOM     33  C   UNL A   1      43.634  34.668  26.260  1.00  0.00     0.163 C 
ATOM     34  O   UNL A   1      43.321  34.201  28.825  1.00  0.00    -0.224 OA
ATOM     35  O   UNL A   1      45.413  35.368  28.031  1.00  0.00    -0.224 OA
ENDBRANCH  31  32
ENDBRANCH  16  26
ENDBRANCH   8  13
ENDBRANCH   4   7
ENDBRANCH   2   3
ENDBRANCH   1   2
BRANCH   1  36
ATOM     36  C   UNL A   1      40.531  21.465  26.935  1.00  0.00     0.118 C 
BRANCH  36  37
ATOM     37  N   UNL A   1      39.468  21.882  26.033  1.00  0.00    -0.352 N 
ATOM     38  C   UNL A   1      38.774  23.064  25.978  1.00  0.00     0.251 C 
ATOM     39  H   UNL A   1      39.207  21.214  25.359  1.00  0.00     0.163 HD
ATOM     40  O   UNL A   1      37.758  23.130  25.291  1.00  0.00    -0.269 OA
BRANCH  38  41
ATOM     41  C   UNL A   1      39.229  24.248  26.741  1.00  0.00     0.039 A 
ATOM     42  C   UNL A   1      40.075  25.167  26.112  1.00  0.00     0.014 A 
ATOM     43  C   UNL A   1      38.875  24.429  28.081  1.00  0.00     0.014 A 
ATOM     44  C   UNL A   1      40.527  26.290  26.811  1.00  0.00     0.010 A 
ATOM     45  C   UNL A   1      39.277  25.579  28.758  1.00  0.00     0.010 A 
ATOM     46  C   UNL A   1      40.112  26.518  28.133  1.00  0.00    -0.014 A 
BRANCH  46  47
ATOM     47  C   UNL A   1      40.543  27.730  28.875  1.00  0.00     0.031 A 
ATOM     48  C   UNL A   1      41.897  27.778  29.530  1.00  0.00     0.074 A 
ATOM     49  C   UNL A   1      39.693  28.769  29.002  1.00  0.00     0.049 A 
ATOM     50  N   UNL A   1      42.421  28.721  30.271  1.00  0.00    -0.248 NA
ATOM     51  C   UNL A   1      42.767  26.605  29.345  1.00  0.00     0.031 C 
ATOM     52  C   UNL A   1      38.345  28.835  28.435  1.00  0.00     0.029 A 
ATOM     53  N   UNL A   1      39.838  29.968  29.654  1.00  0.00    -0.354 N 
ATOM     54  C   UNL A   1      43.672  28.251  30.653  1.00  0.00     0.074 A 
ATOM     55  C   UNL A   1      43.813  26.923  30.097  1.00  0.00     0.031 C 
ATOM     56  C   UNL A   1      37.797  30.021  28.739  1.00  0.00     0.029 A 
ATOM     57  C   UNL A   1      38.736  30.785  29.555  1.00  0.00     0.049 A 
ATOM     58  H   UNL A   1      40.652  30.220  30.145  1.00  0.00     0.167 HD
ATOM     59  C   UNL A   1      44.625  28.875  31.387  1.00  0.00     0.031 A 
ATOM     60  C   UNL A   1      38.504  32.009  30.068  1.00  0.00     0.031 A 
ATOM     61  C   UNL A   1      44.488  30.202  31.929  1.00  0.00     0.049 A 
ATOM     62  C   UNL A   1      39.572  32.676  30.889  1.00  0.00     0.074 A 
ATOM     63  C   UNL A   1      45.413  30.935  32.652  1.00  0.00     0.029 A 
ATOM     64  N   UNL A   1      43.357  30.994  31.806  1.00  0.00    -0.354 N 
ATOM     65  N   UNL A   1      40.764  32.229  31.208  1.00  0.00    -0.248 NA
ATOM     66  C   UNL A   1      39.267  34.015  31.412  1.00  0.00     0.031 C 
ATOM     67  C   UNL A   1      44.826  32.156  33.001  1.00  0.00     0.029 A 
ATOM     68  C   UNL A   1      43.555  32.203  32.451  1.00  0.00     0.049 A 
ATOM     69  H   UNL A   1      42.535  30.736  31.330  1.00  0.00     0.167 HD
ATOM     70  C   UNL A   1      41.362  33.244  31.947  1.00  0.00     0.074 A 
ATOM     71  C   UNL A   1      40.405  34.331  32.017  1.00  0.00     0.031 C 
ATOM     72  C   UNL A   1      42.592  33.274  32.512  1.00  0.00     0.031 A 
BRANCH  59  73
ATOM     73  C   UNL A   1      45.905  28.125  31.649  1.00  0.00    -0.014 A 
ATOM     74  C   UNL A   1      47.083  28.438  30.946  1.00  0.00     0.010 A 
ATOM     75  C   UNL A   1      45.943  27.128  32.639  1.00  0.00     0.010 A 
ATOM     76  C   UNL A   1      48.266  27.740  31.204  1.00  0.00     0.020 A 
ATOM     77  C   UNL A   1      47.131  26.445  32.917  1.00  0.00     0.020 A 
ATOM     78  C   UNL A   1      48.282  26.745  32.185  1.00  0.00     0.054 A 
BRANCH  78  79
ATOM     79  S   UNL A   1      49.838  25.873  32.516  1.00  0.00     0.124 S 
ATOM     80  O   UNL A   1      50.799  26.973  32.542  1.00  0.00    -0.237 OA
ATOM     81  O   UNL A   1      49.581  25.234  33.804  1.00  0.00    -0.237 OA
ATOM     82  O   UNL A   1      49.971  24.957  31.385  1.00  0.00    -0.744 OA
ENDBRANCH  78  79
ENDBRANCH  59  73
BRANCH  60  83
ATOM     83  C   UNL A   1      37.211  32.693  29.796  1.00  0.00    -0.014 A 
ATOM     84  C   UNL A   1      36.146  32.582  30.707  1.00  0.00     0.010 A 
ATOM     85  C   UNL A   1      37.044  33.473  28.639  1.00  0.00     0.010 A 
ATOM     86  C   UNL A   1      34.932  33.229  30.459  1.00  0.00     0.020 A 
ATOM     87  C   UNL A   1      35.841  34.143  28.400  1.00  0.00     0.020 A 
ATOM     88  C   UNL A   1      34.788  34.009  29.308  1.00  0.00     0.054 A 
BRANCH  88  89
ATOM     89  S   UNL A   1      33.226  34.891  29.037  1.00  0.00     0.124 S 
ATOM     90  O   UNL A   1      33.691  36.218  28.647  1.00  0.00    -0.237 OA
ATOM     91  O   UNL A   1      32.597  34.104  27.980  1.00  0.00    -0.237 OA
ATOM     92  O   UNL A   1      32.563  34.814  30.337  1.00  0.00    -0.744 OA
ENDBRANCH  88  89
ENDBRANCH  60  83
BRANCH  72  93
ATOM     93  C   UNL A   1      42.992  34.534  33.231  1.00  0.00    -0.014 A 
ATOM     94  C   UNL A   1      42.807  34.672  34.617  1.00  0.00     0.010 A 
ATOM     95  C   UNL A   1      43.611  35.575  32.513  1.00  0.00     0.010 A 
ATOM     96  C   UNL A   1      43.206  35.842  35.269  1.00  0.00     0.020 A 
ATOM     97  C   UNL A   1      44.035  36.734  33.166  1.00  0.00     0.020 A 
ATOM     98  C   UNL A   1      43.817  36.866  34.538  1.00  0.00     0.054 A 
BRANCH  98  99
ATOM     99  S   UNL A   1      44.366  38.357  35.414  1.00  0.00     0.124 S 
ATOM    100  O   UNL A   1      43.809  38.149  36.747  1.00  0.00    -0.237 OA
ATOM    101  O   UNL A   1      45.822  38.267  35.319  1.00  0.00    -0.237 OA
ATOM    102  O   UNL A   1      43.765  39.448  34.650  1.00  0.00    -0.744 OA
ENDBRANCH  98  99
ENDBRANCH  72  93
ENDBRANCH  46  47
ENDBRANCH  38  41
ENDBRANCH  36  37
ENDBRANCH   1  36
TORSDOF 18
ENDMDL
MODEL 3
REMARK VINA RESULT:     -10.1      2.659      8.182
REMARK SMILES COc1ccc([C@H]2CC(c3ccc(S(C)(=O)=O)cc3)=NN2c2ccc(C(=O)NCCCNC(=O)c3ccc(-c4c5nc(c(-c6ccc(S(=O)(=O)[O-])cc6)c6ccc([nH]6)c(-c6ccc(S(=O)(=O)[O-])cc6)c6nc(c(-c7ccc(S(=O)(=O)[O-])cc7)c7ccc4[nH]7)C=C6)C=C5)cc3)cc2)cc1
REMARK SMILES IDX 30 1 29 2 28 3 26 4 27 5 25 7 22 8 23 9 96 10 24 11 95 12
REMARK SMILES IDX 21 13 7 14 8 15 9 16 20 17 6 18 3 19 4 20 98 21 5 22 97 23
REMARK SMILES IDX 2 24 1 25 10 26 11 27 19 28 12 29 18 30 13 31 14 32 15 33
REMARK SMILES IDX 16 34 17 35 31 36 32 37 33 38 34 40 35 41 36 42 94 43 37 44
REMARK SMILES IDX 93 45 38 46 39 47 40 48 87 49 41 50 92 51 86 52 88 53 42 54
REMARK SMILES IDX 91 55 85 56 84 57 43 59 73 60 54 61 72 62 55 63 58 64 71 65
REMARK SMILES IDX 89 66 56 67 57 68 70 70 90 71 59 72 44 73 45 74 53 75 46 76
REMARK SMILES IDX 52 77 47 78 48 79 49 80 50 81 51 82 74 83 75 84 83 85 76 86
REMARK SMILES IDX 82 87 77 88 78 89 79 90 80 91 81 92 60 93 61 94 69 95 62 96
REMARK SMILES IDX 68 97 63 98 64 99 65 100 66 101 67 102
REMARK H PARENT 28 6 32 39 88 58 58 69
REMARK Flexibility Score: inf
ROOT
ATOM      1  C   UNL A   1      41.659  21.058  26.326  1.00  0.00     0.042 C 
ENDROOT
BRANCH   1   2
ATOM      2  C   UNL A   1      42.628  21.892  25.489  1.00  0.00     0.118 C 
BRANCH   2   3
ATOM      3  N   UNL A   1      43.901  21.214  25.333  1.00  0.00    -0.352 N 
ATOM      4  C   UNL A   1      45.197  21.616  25.534  1.00  0.00     0.251 C 
ATOM      5  O   UNL A   1      46.080  20.773  25.366  1.00  0.00    -0.269 OA
ATOM      6  H   UNL A   1      43.820  20.284  25.022  1.00  0.00     0.163 HD
BRANCH   4   7
ATOM      7  C   UNL A   1      45.575  22.982  25.992  1.00  0.00     0.039 A 
ATOM      8  C   UNL A   1      46.344  25.626  26.659  1.00  0.00     0.060 A 
ATOM      9  C   UNL A   1      45.991  25.291  25.348  1.00  0.00     0.029 A 
ATOM     10  C   UNL A   1      46.247  24.636  27.640  1.00  0.00     0.029 A 
ATOM     11  C   UNL A   1      45.631  23.983  25.012  1.00  0.00     0.016 A 
ATOM     12  C   UNL A   1      45.831  23.338  27.317  1.00  0.00     0.016 A 
BRANCH   8  13
ATOM     13  N   UNL A   1      46.761  26.912  26.953  1.00  0.00    -0.257 N 
ATOM     14  C   UNL A   1      48.120  27.262  27.362  1.00  0.00     0.144 C 
ATOM     15  C   UNL A   1      47.968  28.714  27.832  1.00  0.00     0.091 C 
ATOM     16  C   UNL A   1      46.486  28.889  27.666  1.00  0.00     0.071 C 
ATOM     17  N   UNL A   1      45.837  27.880  27.177  1.00  0.00    -0.176 NA
BRANCH  14  18
ATOM     18  C   UNL A   1      49.094  27.117  26.204  1.00  0.00    -0.023 A 
ATOM     19  C   UNL A   1      50.909  26.826  24.059  1.00  0.00     0.118 A 
ATOM     20  C   UNL A   1      51.223  26.338  25.328  1.00  0.00     0.047 A 
ATOM     21  C   UNL A   1      49.674  27.439  23.853  1.00  0.00     0.047 A 
ATOM     22  C   UNL A   1      50.330  26.485  26.394  1.00  0.00     0.010 A 
ATOM     23  C   UNL A   1      48.775  27.579  24.916  1.00  0.00     0.010 A 
BRANCH  19  24
ATOM     24  O   UNL A   1      51.866  26.619  23.105  1.00  0.00    -0.497 OA
ATOM     25  C   UNL A   1      53.122  26.136  23.566  1.00  0.00     0.278 C 
ENDBRANCH  19  24
ENDBRANCH  14  18
BRANCH  16  26
ATOM     26  C   UNL A   1      45.823  30.128  28.075  1.00  0.00    -0.002 A 
ATOM     27  C   UNL A   1      44.447  30.255  27.865  1.00  0.00     0.011 A 
ATOM     28  C   UNL A   1      46.569  31.167  28.634  1.00  0.00     0.011 A 
ATOM     29  C   UNL A   1      43.802  31.436  28.231  1.00  0.00     0.021 A 
ATOM     30  C   UNL A   1      45.930  32.359  28.976  1.00  0.00     0.021 A 
ATOM     31  C   UNL A   1      44.552  32.488  28.767  1.00  0.00     0.067 A 
BRANCH  31  32
ATOM     32  S   UNL A   1      43.732  34.007  29.191  1.00  0.00     0.175 S 
ATOM     33  C   UNL A   1      43.848  34.991  27.720  1.00  0.00     0.163 C 
ATOM     34  O   UNL A   1      42.339  33.683  29.424  1.00  0.00    -0.224 OA
ATOM     35  O   UNL A   1      44.526  34.662  30.215  1.00  0.00    -0.224 OA
ENDBRANCH  31  32
ENDBRANCH  16  26
ENDBRANCH   8  13
ENDBRANCH   4   7
ENDBRANCH   2   3
ENDBRANCH   1   2
BRANCH   1  36
ATOM     36  C   UNL A   1      40.587  21.894  27.022  1.00  0.00     0.118 C 
BRANCH  36  37
ATOM     37  N   UNL A   1      39.564  22.347  26.092  1.00  0.00    -0.352 N 
ATOM     38  C   UNL A   1      38.882  23.537  26.044  1.00  0.00     0.251 C 
ATOM     39  H   UNL A   1      39.323  21.701  25.389  1.00  0.00     0.163 HD
ATOM     40  O   UNL A   1      37.894  23.632  25.320  1.00  0.00    -0.269 OA
BRANCH  38  41
ATOM     41  C   UNL A   1      39.317  24.694  26.859  1.00  0.00     0.039 A 
ATOM     42  C   UNL A   1      38.790  24.846  28.144  1.00  0.00     0.014 A 
ATOM     43  C   UNL A   1      40.194  25.655  26.345  1.00  0.00     0.014 A 
ATOM     44  C   UNL A   1      39.177  25.934  28.932  1.00  0.00     0.010 A 
ATOM     45  C   UNL A   1      40.625  26.706  27.153  1.00  0.00     0.010 A 
ATOM     46  C   UNL A   1      40.117  26.860  28.452  1.00  0.00    -0.014 A 
BRANCH  46  47
ATOM     47  C   UNL A   1      40.576  27.994  29.292  1.00  0.00     0.031 A 
ATOM     48  C   UNL A   1      39.696  29.199  29.489  1.00  0.00     0.074 A 
ATOM     49  C   UNL A   1      41.809  27.961  29.838  1.00  0.00     0.049 A 
ATOM     50  N   UNL A   1      39.951  30.309  30.134  1.00  0.00    -0.248 NA
ATOM     51  C   UNL A   1      38.365  29.160  28.863  1.00  0.00     0.031 C 
ATOM     52  C   UNL A   1      42.766  26.861  29.702  1.00  0.00     0.029 A 
ATOM     53  N   UNL A   1      42.468  28.880  30.615  1.00  0.00    -0.354 N 
ATOM     54  C   UNL A   1      38.822  31.105  29.979  1.00  0.00     0.074 A 
ATOM     55  C   UNL A   1      37.897  30.369  29.145  1.00  0.00     0.031 C 
ATOM     56  C   UNL A   1      43.877  27.157  30.393  1.00  0.00     0.029 A 
ATOM     57  C   UNL A   1      43.730  28.482  30.989  1.00  0.00     0.049 A 
ATOM     58  H   UNL A   1      42.076  29.744  30.879  1.00  0.00     0.167 HD
ATOM     59  C   UNL A   1      38.571  32.332  30.496  1.00  0.00     0.031 A 
ATOM     60  C   UNL A   1      44.667  29.113  31.724  1.00  0.00     0.031 A 
ATOM     61  C   UNL A   1      39.487  33.058  31.336  1.00  0.00     0.049 A 
ATOM     62  C   UNL A   1      44.368  30.478  32.278  1.00  0.00     0.074 A 
ATOM     63  C   UNL A   1      39.308  34.289  31.942  1.00  0.00     0.029 A 
ATOM     64  N   UNL A   1      40.754  32.618  31.691  1.00  0.00    -0.354 N 
ATOM     65  N   UNL A   1      43.279  31.198  32.149  1.00  0.00    -0.248 NA
ATOM     66  C   UNL A   1      45.422  31.111  33.082  1.00  0.00     0.031 C 
ATOM     67  C   UNL A   1      40.481  34.613  32.630  1.00  0.00     0.029 A 
ATOM     68  C   UNL A   1      41.372  33.560  32.495  1.00  0.00     0.049 A 
ATOM     69  H   UNL A   1      41.154  31.763  31.412  1.00  0.00     0.167 HD
ATOM     70  C   UNL A   1      43.507  32.360  32.880  1.00  0.00     0.074 A 
ATOM     71  C   UNL A   1      44.832  32.239  33.456  1.00  0.00     0.031 C 
ATOM     72  C   UNL A   1      42.692  33.426  33.060  1.00  0.00     0.031 A 
BRANCH  59  73
ATOM     73  C   UNL A   1      37.246  32.969  30.166  1.00  0.00    -0.014 A 
ATOM     74  C   UNL A   1      36.215  33.031  31.121  1.00  0.00     0.010 A 
ATOM     75  C   UNL A   1      37.045  33.554  28.903  1.00  0.00     0.010 A 
ATOM     76  C   UNL A   1      34.994  33.632  30.805  1.00  0.00     0.020 A 
ATOM     77  C   UNL A   1      35.834  34.178  28.592  1.00  0.00     0.020 A 
ATOM     78  C   UNL A   1      34.810  34.198  29.541  1.00  0.00     0.054 A 
BRANCH  78  79
ATOM     79  S   UNL A   1      33.223  34.995  29.167  1.00  0.00     0.124 S 
ATOM     80  O   UNL A   1      32.552  34.953  30.464  1.00  0.00    -0.237 OA
ATOM     81  O   UNL A   1      33.629  36.323  28.712  1.00  0.00    -0.237 OA
ATOM     82  O   UNL A   1      32.639  34.139  28.136  1.00  0.00    -0.744 OA
ENDBRANCH  78  79
ENDBRANCH  59  73
BRANCH  60  83
ATOM     83  C   UNL A   1      45.967  28.444  31.999  1.00  0.00    -0.014 A 
ATOM     84  C   UNL A   1      46.059  27.458  32.997  1.00  0.00     0.010 A 
ATOM     85  C   UNL A   1      47.112  28.772  31.253  1.00  0.00     0.010 A 
ATOM     86  C   UNL A   1      47.276  26.822  33.253  1.00  0.00     0.020 A 
ATOM     87  C   UNL A   1      48.325  28.120  31.488  1.00  0.00     0.020 A 
ATOM     88  C   UNL A   1      48.402  27.154  32.494  1.00  0.00     0.054 A 
BRANCH  88  89
ATOM     89  S   UNL A   1      49.957  26.271  32.801  1.00  0.00     0.124 S 
ATOM     90  O   UNL A   1      50.880  26.963  31.906  1.00  0.00    -0.237 OA
ATOM     91  O   UNL A   1      50.172  26.494  34.228  1.00  0.00    -0.237 OA
ATOM     92  O   UNL A   1      49.643  24.892  32.435  1.00  0.00    -0.744 OA
ENDBRANCH  88  89
ENDBRANCH  60  83
BRANCH  72  93
ATOM     93  C   UNL A   1      43.192  34.538  33.941  1.00  0.00    -0.014 A 
ATOM     94  C   UNL A   1      43.869  35.646  33.403  1.00  0.00     0.010 A 
ATOM     95  C   UNL A   1      42.933  34.496  35.324  1.00  0.00     0.010 A 
ATOM     96  C   UNL A   1      44.305  36.679  34.236  1.00  0.00     0.020 A 
ATOM     97  C   UNL A   1      43.345  35.539  36.156  1.00  0.00     0.020 A 
ATOM     98  C   UNL A   1      44.042  36.618  35.608  1.00  0.00     0.054 A 
BRANCH  98  99
ATOM     99  S   UNL A   1      44.580  37.992  36.664  1.00  0.00     0.124 S 
ATOM    100  O   UNL A   1      44.274  39.152  35.831  1.00  0.00    -0.237 OA
ATOM    101  O   UNL A   1      43.743  37.831  37.852  1.00  0.00    -0.237 OA
ATOM    102  O   UNL A   1      46.002  37.731  36.872  1.00  0.00    -0.744 OA
ENDBRANCH  98  99
ENDBRANCH  72  93
ENDBRANCH  46  47
ENDBRANCH  38  41
ENDBRANCH  36  37
ENDBRANCH   1  36
TORSDOF 18
ENDMDL
