MODEL 1
REMARK VINA RESULT:     -13.5      0.000      0.000
REMARK SMILES Cc1ccccc1[C@@H](Cc1c(Cl)cccc1Cl)C(=O)NCCCNC(=O)c1ccc(-c2c3nc(c(-c4ccc(S(=O)(=O)[O-])cc4)c4ccc([nH]4)c(-c4ccc(S(=O)(=O)[O-])cc4)c4nc(c(-c5ccc(S(=O)(=O)[O-])cc5)c5ccc2[nH]5)C=C4)C=C3)cc1
REMARK SMILES IDX 22 1 21 2 20 3 18 4 19 5 8 7 7 8 1 9 2 10 3 11 4 12 6 13
REMARK SMILES IDX 5 14 9 15 10 16 11 17 16 18 12 19 13 20 15 21 17 22 14 23
REMARK SMILES IDX 23 24 24 25 25 26 26 28 27 29 28 30 86 31 29 32 85 33 30 34
REMARK SMILES IDX 31 35 32 36 79 37 33 38 84 39 78 40 80 41 34 42 83 43 77 44
REMARK SMILES IDX 76 45 35 47 65 48 46 49 64 50 47 51 50 52 63 53 81 54 48 55
REMARK SMILES IDX 49 56 62 58 82 59 51 60 36 61 37 62 45 63 38 64 44 65 39 66
REMARK SMILES IDX 40 67 41 68 42 69 43 70 66 71 67 72 75 73 68 74 74 75 69 76
REMARK SMILES IDX 70 77 71 78 72 79 73 80 52 81 53 82 61 83 54 84 60 85 55 86
REMARK SMILES IDX 56 87 57 88 58 89 59 90
REMARK H PARENT 20 6 24 27 80 46 50 57
REMARK Flexibility Score: inf
ROOT
ATOM      1  C   UNL A   1      37.766  21.994  25.182  1.00  0.00     0.042 C 
ENDROOT
BRANCH   1   2
ATOM      2  C   UNL A   1      36.251  21.834  25.090  1.00  0.00     0.117 C 
BRANCH   2   3
ATOM      3  N   UNL A   1      35.684  22.494  23.930  1.00  0.00    -0.355 N 
ATOM      4  C   UNL A   1      34.407  22.692  23.513  1.00  0.00     0.227 C 
ATOM      5  O   UNL A   1      34.280  23.185  22.383  1.00  0.00    -0.274 OA
ATOM      6  H   UNL A   1      36.360  22.874  23.324  1.00  0.00     0.163 HD
BRANCH   4   7
ATOM      7  C   UNL A   1      33.137  22.333  24.318  1.00  0.00     0.113 C 
BRANCH   7   8
ATOM      8  C   UNL A   1      32.840  20.823  24.255  1.00  0.00    -0.032 A 
ATOM      9  C   UNL A   1      31.879  20.879  21.857  1.00  0.00     0.044 C 
ATOM     10  C   UNL A   1      32.379  20.171  23.088  1.00  0.00    -0.047 A 
ATOM     11  C   UNL A   1      32.401  18.761  23.031  1.00  0.00     0.004 A 
ATOM     12  C   UNL A   1      32.804  17.997  24.123  1.00  0.00     0.000 A 
ATOM     13  C   UNL A   1      33.129  20.025  25.375  1.00  0.00     0.005 A 
ATOM     14  C   UNL A   1      33.137  18.630  25.308  1.00  0.00     0.000 A 
ENDBRANCH   7   8
BRANCH   7  15
ATOM     15  C   UNL A   1      32.915  22.968  25.713  1.00  0.00     0.057 C 
BRANCH  15  16
ATOM     16  C   UNL A   1      32.131  24.270  25.863  1.00  0.00    -0.010 A 
ATOM     17  C   UNL A   1      32.783  25.513  25.668  1.00  0.00     0.045 A 
ATOM     18  C   UNL A   1      30.771  24.333  26.231  1.00  0.00     0.045 A 
ATOM     19  Cl  UNL A   1      34.497  25.641  25.427  1.00  0.00    -0.084 Cl
ATOM     20  C   UNL A   1      32.084  26.727  25.698  1.00  0.00     0.021 A 
ATOM     21  C   UNL A   1      30.071  25.549  26.233  1.00  0.00     0.021 A 
ATOM     22  Cl  UNL A   1      29.882  22.973  26.818  1.00  0.00    -0.084 Cl
ATOM     23  C   UNL A   1      30.719  26.744  25.948  1.00  0.00     0.003 A 
ENDBRANCH  15  16
ENDBRANCH   7  15
ENDBRANCH   4   7
ENDBRANCH   2   3
ENDBRANCH   1   2
BRANCH   1  24
ATOM     24  C   UNL A   1      38.210  23.111  26.112  1.00  0.00     0.118 C 
BRANCH  24  25
ATOM     25  N   UNL A   1      39.563  22.867  26.611  1.00  0.00    -0.352 N 
ATOM     26  C   UNL A   1      40.428  23.758  27.229  1.00  0.00     0.251 C 
ATOM     27  H   UNL A   1      39.906  21.952  26.492  1.00  0.00     0.163 HD
ATOM     28  O   UNL A   1      41.541  23.461  27.581  1.00  0.00    -0.269 OA
BRANCH  26  29
ATOM     29  C   UNL A   1      39.870  25.098  27.492  1.00  0.00     0.039 A 
ATOM     30  C   UNL A   1      40.340  26.153  26.704  1.00  0.00     0.014 A 
ATOM     31  C   UNL A   1      39.198  25.312  28.691  1.00  0.00     0.014 A 
ATOM     32  C   UNL A   1      40.286  27.447  27.211  1.00  0.00     0.010 A 
ATOM     33  C   UNL A   1      39.230  26.584  29.228  1.00  0.00     0.010 A 
ATOM     34  C   UNL A   1      39.818  27.640  28.512  1.00  0.00    -0.014 A 
BRANCH  34  35
ATOM     35  C   UNL A   1      39.978  28.895  29.238  1.00  0.00     0.031 A 
ATOM     36  C   UNL A   1      38.962  29.963  29.083  1.00  0.00     0.074 A 
ATOM     37  C   UNL A   1      41.018  29.090  30.079  1.00  0.00     0.049 A 
ATOM     38  N   UNL A   1      39.181  31.219  29.293  1.00  0.00    -0.248 NA
ATOM     39  C   UNL A   1      37.618  29.690  28.585  1.00  0.00     0.031 C 
ATOM     40  C   UNL A   1      41.136  30.149  31.078  1.00  0.00     0.029 A 
ATOM     41  N   UNL A   1      42.288  28.508  30.053  1.00  0.00    -0.354 N 
ATOM     42  C   UNL A   1      37.960  31.855  29.275  1.00  0.00     0.074 A 
ATOM     43  C   UNL A   1      37.048  30.891  28.709  1.00  0.00     0.031 C 
ATOM     44  C   UNL A   1      42.437  30.353  31.335  1.00  0.00     0.029 A 
ATOM     45  C   UNL A   1      43.193  29.521  30.415  1.00  0.00     0.049 A 
ATOM     46  H   UNL A   1      42.506  27.575  29.827  1.00  0.00     0.167 HD
ATOM     47  C   UNL A   1      37.820  33.067  29.889  1.00  0.00     0.031 A 
ATOM     48  C   UNL A   1      44.238  29.945  29.646  1.00  0.00     0.031 A 
ATOM     49  C   UNL A   1      39.108  33.604  30.331  1.00  0.00     0.049 A 
ATOM     50  C   UNL A   1      44.209  31.430  29.363  1.00  0.00     0.074 A 
ATOM     51  C   UNL A   1      39.721  33.692  31.569  1.00  0.00     0.029 A 
ATOM     52  N   UNL A   1      40.078  33.920  29.386  1.00  0.00    -0.354 N 
ATOM     53  N   UNL A   1      43.168  32.186  29.573  1.00  0.00    -0.248 NA
ATOM     54  C   UNL A   1      45.320  32.170  28.769  1.00  0.00     0.031 C 
ATOM     55  C   UNL A   1      41.090  33.999  31.360  1.00  0.00     0.029 A 
ATOM     56  C   UNL A   1      41.301  34.122  29.997  1.00  0.00     0.049 A 
ATOM     57  H   UNL A   1      39.916  33.992  28.418  1.00  0.00     0.167 HD
ATOM     58  C   UNL A   1      43.426  33.461  29.142  1.00  0.00     0.074 A 
ATOM     59  C   UNL A   1      44.796  33.405  28.663  1.00  0.00     0.031 C 
ATOM     60  C   UNL A   1      42.480  34.442  29.202  1.00  0.00     0.031 A 
BRANCH  47  61
ATOM     61  C   UNL A   1      36.485  33.622  30.358  1.00  0.00    -0.014 A 
ATOM     62  C   UNL A   1      35.509  33.989  29.405  1.00  0.00     0.010 A 
ATOM     63  C   UNL A   1      36.155  33.894  31.699  1.00  0.00     0.010 A 
ATOM     64  C   UNL A   1      34.338  34.680  29.759  1.00  0.00     0.020 A 
ATOM     65  C   UNL A   1      35.004  34.607  32.068  1.00  0.00     0.020 A 
ATOM     66  C   UNL A   1      34.108  35.014  31.090  1.00  0.00     0.054 A 
BRANCH  66  67
ATOM     67  S   UNL A   1      32.646  35.985  31.531  1.00  0.00     0.124 S 
ATOM     68  O   UNL A   1      32.079  36.311  30.225  1.00  0.00    -0.237 OA
ATOM     69  O   UNL A   1      31.874  35.045  32.338  1.00  0.00    -0.237 OA
ATOM     70  O   UNL A   1      33.193  37.125  32.265  1.00  0.00    -0.744 OA
ENDBRANCH  66  67
ENDBRANCH  47  61
BRANCH  48  71
ATOM     71  C   UNL A   1      44.787  28.915  28.726  1.00  0.00    -0.014 A 
ATOM     72  C   UNL A   1      44.089  28.689  27.522  1.00  0.00     0.010 A 
ATOM     73  C   UNL A   1      46.135  28.526  28.820  1.00  0.00     0.010 A 
ATOM     74  C   UNL A   1      44.767  28.255  26.383  1.00  0.00     0.020 A 
ATOM     75  C   UNL A   1      46.816  28.088  27.676  1.00  0.00     0.020 A 
ATOM     76  C   UNL A   1      46.141  28.022  26.454  1.00  0.00     0.054 A 
BRANCH  76  77
ATOM     77  S   UNL A   1      47.051  27.853  24.890  1.00  0.00     0.124 S 
ATOM     78  O   UNL A   1      46.693  29.081  24.188  1.00  0.00    -0.237 OA
ATOM     79  O   UNL A   1      48.436  27.777  25.356  1.00  0.00    -0.237 OA
ATOM     80  O   UNL A   1      46.518  26.619  24.322  1.00  0.00    -0.744 OA
ENDBRANCH  76  77
ENDBRANCH  48  71
BRANCH  60  81
ATOM     81  C   UNL A   1      42.581  35.822  28.593  1.00  0.00    -0.014 A 
ATOM     82  C   UNL A   1      42.048  36.180  27.345  1.00  0.00     0.010 A 
ATOM     83  C   UNL A   1      43.142  36.866  29.369  1.00  0.00     0.010 A 
ATOM     84  C   UNL A   1      42.125  37.499  26.869  1.00  0.00     0.020 A 
ATOM     85  C   UNL A   1      43.187  38.189  28.924  1.00  0.00     0.020 A 
ATOM     86  C   UNL A   1      42.698  38.496  27.660  1.00  0.00     0.054 A 
BRANCH  86  87
ATOM     87  S   UNL A   1      42.736  40.207  27.070  1.00  0.00     0.124 S 
ATOM     88  O   UNL A   1      41.317  40.485  26.860  1.00  0.00    -0.237 OA
ATOM     89  O   UNL A   1      43.356  40.926  28.181  1.00  0.00    -0.237 OA
ATOM     90  O   UNL A   1      43.548  40.131  25.858  1.00  0.00    -0.744 OA
ENDBRANCH  86  87
ENDBRANCH  60  81
ENDBRANCH  34  35
ENDBRANCH  26  29
ENDBRANCH  24  25
ENDBRANCH   1  24
TORSDOF 16
ENDMDL
MODEL 2
REMARK VINA RESULT:     -13.2      1.203      3.004
REMARK SMILES Cc1ccccc1[C@@H](Cc1c(Cl)cccc1Cl)C(=O)NCCCNC(=O)c1ccc(-c2c3nc(c(-c4ccc(S(=O)(=O)[O-])cc4)c4ccc([nH]4)c(-c4ccc(S(=O)(=O)[O-])cc4)c4nc(c(-c5ccc(S(=O)(=O)[O-])cc5)c5ccc2[nH]5)C=C4)C=C3)cc1
REMARK SMILES IDX 22 1 21 2 20 3 18 4 19 5 8 7 7 8 1 9 2 10 3 11 4 12 6 13
REMARK SMILES IDX 5 14 9 15 10 16 11 17 16 18 12 19 13 20 15 21 17 22 14 23
REMARK SMILES IDX 23 24 24 25 25 26 26 28 27 29 28 30 86 31 29 32 85 33 30 34
REMARK SMILES IDX 31 35 32 36 79 37 33 38 84 39 78 40 80 41 34 42 83 43 77 44
REMARK SMILES IDX 76 45 35 47 65 48 46 49 64 50 47 51 50 52 63 53 81 54 48 55
REMARK SMILES IDX 49 56 62 58 82 59 51 60 36 61 37 62 45 63 38 64 44 65 39 66
REMARK SMILES IDX 40 67 41 68 42 69 43 70 66 71 67 72 75 73 68 74 74 75 69 76
REMARK SMILES IDX 70 77 71 78 72 79 73 80 52 81 53 82 61 83 54 84 60 85 55 86
REMARK SMILES IDX 56 87 57 88 58 89 59 90
REMARK H PARENT 20 6 24 27 80 46 50 57
REMARK Flexibility Score: inf
ROOT
ATOM      1  C   UNL A   1      36.854  23.016  26.441  1.00  0.00     0.042 C 
ENDROOT
BRANCH   1   2
ATOM      2  C   UNL A   1      36.062  22.082  25.531  1.00  0.00     0.117 C 
BRANCH   2   3
ATOM      3  N   UNL A   1      36.069  22.506  24.144  1.00  0.00    -0.355 N 
ATOM      4  C   UNL A   1      35.118  23.046  23.339  1.00  0.00     0.227 C 
ATOM      5  O   UNL A   1      35.427  23.162  22.144  1.00  0.00    -0.274 OA
ATOM      6  H   UNL A   1      36.936  22.376  23.697  1.00  0.00     0.163 HD
BRANCH   4   7
ATOM      7  C   UNL A   1      33.709  23.492  23.794  1.00  0.00     0.113 C 
BRANCH   7   8
ATOM      8  C   UNL A   1      33.472  24.986  23.502  1.00  0.00    -0.032 A 
ATOM      9  C   UNL A   1      34.157  25.791  25.860  1.00  0.00     0.044 C 
ATOM     10  C   UNL A   1      33.793  26.015  24.416  1.00  0.00    -0.047 A 
ATOM     11  C   UNL A   1      33.809  27.354  23.971  1.00  0.00     0.004 A 
ATOM     12  C   UNL A   1      33.450  27.689  22.669  1.00  0.00     0.000 A 
ATOM     13  C   UNL A   1      33.004  25.366  22.232  1.00  0.00     0.005 A 
ATOM     14  C   UNL A   1      33.015  26.696  21.807  1.00  0.00     0.000 A 
ENDBRANCH   7   8
BRANCH   7  15
ATOM     15  C   UNL A   1      32.490  22.583  23.496  1.00  0.00     0.057 C 
BRANCH  15  16
ATOM     16  C   UNL A   1      32.505  21.107  23.884  1.00  0.00    -0.010 A 
ATOM     17  C   UNL A   1      32.270  20.116  22.897  1.00  0.00     0.045 A 
ATOM     18  C   UNL A   1      32.701  20.639  25.199  1.00  0.00     0.045 A 
ATOM     19  Cl  UNL A   1      31.793  20.508  21.275  1.00  0.00    -0.084 Cl
ATOM     20  C   UNL A   1      32.369  18.748  23.184  1.00  0.00     0.021 A 
ATOM     21  C   UNL A   1      32.827  19.268  25.475  1.00  0.00     0.021 A 
ATOM     22  Cl  UNL A   1      32.689  21.668  26.585  1.00  0.00    -0.084 Cl
ATOM     23  C   UNL A   1      32.682  18.323  24.468  1.00  0.00     0.003 A 
ENDBRANCH  15  16
ENDBRANCH   7  15
ENDBRANCH   4   7
ENDBRANCH   2   3
ENDBRANCH   1   2
BRANCH   1  24
ATOM     24  C   UNL A   1      38.089  23.612  25.784  1.00  0.00     0.118 C 
BRANCH  24  25
ATOM     25  N   UNL A   1      39.303  23.206  26.491  1.00  0.00    -0.352 N 
ATOM     26  C   UNL A   1      40.098  23.959  27.342  1.00  0.00     0.251 C 
ATOM     27  H   UNL A   1      39.595  22.277  26.345  1.00  0.00     0.163 HD
ATOM     28  O   UNL A   1      41.101  23.534  27.857  1.00  0.00    -0.269 OA
BRANCH  26  29
ATOM     29  C   UNL A   1      39.600  25.316  27.633  1.00  0.00     0.039 A 
ATOM     30  C   UNL A   1      40.089  26.361  26.842  1.00  0.00     0.014 A 
ATOM     31  C   UNL A   1      38.970  25.544  28.852  1.00  0.00     0.014 A 
ATOM     32  C   UNL A   1      40.098  27.651  27.364  1.00  0.00     0.010 A 
ATOM     33  C   UNL A   1      39.065  26.808  29.400  1.00  0.00     0.010 A 
ATOM     34  C   UNL A   1      39.674  27.848  28.679  1.00  0.00    -0.014 A 
BRANCH  34  35
ATOM     35  C   UNL A   1      39.901  29.088  29.411  1.00  0.00     0.031 A 
ATOM     36  C   UNL A   1      38.894  30.172  29.344  1.00  0.00     0.074 A 
ATOM     37  C   UNL A   1      41.000  29.254  30.182  1.00  0.00     0.049 A 
ATOM     38  N   UNL A   1      39.145  31.421  29.559  1.00  0.00    -0.248 NA
ATOM     39  C   UNL A   1      37.514  29.927  28.935  1.00  0.00     0.031 C 
ATOM     40  C   UNL A   1      41.202  30.294  31.188  1.00  0.00     0.029 A 
ATOM     41  N   UNL A   1      42.257  28.656  30.060  1.00  0.00    -0.354 N 
ATOM     42  C   UNL A   1      37.935  32.075  29.635  1.00  0.00     0.074 A 
ATOM     43  C   UNL A   1      36.972  31.133  29.118  1.00  0.00     0.031 C 
ATOM     44  C   UNL A   1      42.520  30.476  31.358  1.00  0.00     0.029 A 
ATOM     45  C   UNL A   1      43.199  29.650  30.375  1.00  0.00     0.049 A 
ATOM     46  H   UNL A   1      42.444  27.724  29.804  1.00  0.00     0.167 HD
ATOM     47  C   UNL A   1      37.855  33.277  30.277  1.00  0.00     0.031 A 
ATOM     48  C   UNL A   1      44.195  30.072  29.543  1.00  0.00     0.031 A 
ATOM     49  C   UNL A   1      39.178  33.789  30.638  1.00  0.00     0.049 A 
ATOM     50  C   UNL A   1      44.169  31.563  29.286  1.00  0.00     0.074 A 
ATOM     51  C   UNL A   1      39.877  33.848  31.832  1.00  0.00     0.029 A 
ATOM     52  N   UNL A   1      40.086  34.108  29.634  1.00  0.00    -0.354 N 
ATOM     53  N   UNL A   1      43.156  32.329  29.579  1.00  0.00    -0.248 NA
ATOM     54  C   UNL A   1      45.247  32.298  28.629  1.00  0.00     0.031 C 
ATOM     55  C   UNL A   1      41.233  34.139  31.534  1.00  0.00     0.029 A 
ATOM     56  C   UNL A   1      41.351  34.283  30.163  1.00  0.00     0.049 A 
ATOM     57  H   UNL A   1      39.859  34.199  28.680  1.00  0.00     0.167 HD
ATOM     58  C   UNL A   1      43.403  33.607  29.152  1.00  0.00     0.074 A 
ATOM     59  C   UNL A   1      44.735  33.541  28.579  1.00  0.00     0.031 C 
ATOM     60  C   UNL A   1      42.477  34.600  29.293  1.00  0.00     0.031 A 
BRANCH  47  61
ATOM     61  C   UNL A   1      36.564  33.842  30.846  1.00  0.00    -0.014 A 
ATOM     62  C   UNL A   1      35.440  33.996  30.004  1.00  0.00     0.010 A 
ATOM     63  C   UNL A   1      36.408  34.324  32.159  1.00  0.00     0.010 A 
ATOM     64  C   UNL A   1      34.285  34.683  30.414  1.00  0.00     0.020 A 
ATOM     65  C   UNL A   1      35.273  35.036  32.576  1.00  0.00     0.020 A 
ATOM     66  C   UNL A   1      34.222  35.228  31.692  1.00  0.00     0.054 A 
BRANCH  66  67
ATOM     67  S   UNL A   1      32.771  36.193  32.185  1.00  0.00     0.124 S 
ATOM     68  O   UNL A   1      32.488  36.971  30.982  1.00  0.00    -0.237 OA
ATOM     69  O   UNL A   1      31.798  35.154  32.510  1.00  0.00    -0.237 OA
ATOM     70  O   UNL A   1      33.245  36.974  33.326  1.00  0.00    -0.744 OA
ENDBRANCH  66  67
ENDBRANCH  47  61
BRANCH  48  71
ATOM     71  C   UNL A   1      44.664  29.051  28.570  1.00  0.00    -0.014 A 
ATOM     72  C   UNL A   1      44.063  29.052  27.295  1.00  0.00     0.010 A 
ATOM     73  C   UNL A   1      45.918  28.436  28.737  1.00  0.00     0.010 A 
ATOM     74  C   UNL A   1      44.776  28.613  26.178  1.00  0.00     0.020 A 
ATOM     75  C   UNL A   1      46.633  27.993  27.616  1.00  0.00     0.020 A 
ATOM     76  C   UNL A   1      46.081  28.149  26.341  1.00  0.00     0.054 A 
BRANCH  76  77
ATOM     77  S   UNL A   1      47.106  27.970  24.851  1.00  0.00     0.124 S 
ATOM     78  O   UNL A   1      46.749  26.634  24.386  1.00  0.00    -0.237 OA
ATOM     79  O   UNL A   1      46.623  29.074  24.020  1.00  0.00    -0.237 OA
ATOM     80  O   UNL A   1      48.466  28.123  25.358  1.00  0.00    -0.744 OA
ENDBRANCH  76  77
ENDBRANCH  48  71
BRANCH  60  81
ATOM     81  C   UNL A   1      42.556  35.989  28.701  1.00  0.00    -0.014 A 
ATOM     82  C   UNL A   1      42.018  36.354  27.457  1.00  0.00     0.010 A 
ATOM     83  C   UNL A   1      43.101  37.032  29.490  1.00  0.00     0.010 A 
ATOM     84  C   UNL A   1      42.074  37.679  26.998  1.00  0.00     0.020 A 
ATOM     85  C   UNL A   1      43.125  38.361  29.061  1.00  0.00     0.020 A 
ATOM     86  C   UNL A   1      42.631  38.675  27.801  1.00  0.00     0.054 A 
BRANCH  86  87
ATOM     87  S   UNL A   1      42.643  40.394  27.231  1.00  0.00     0.124 S 
ATOM     88  O   UNL A   1      43.380  40.290  25.974  1.00  0.00    -0.237 OA
ATOM     89  O   UNL A   1      41.221  40.706  27.097  1.00  0.00    -0.237 OA
ATOM     90  O   UNL A   1      43.329  41.105  28.306  1.00  0.00    -0.744 OA
ENDBRANCH  86  87
ENDBRANCH  60  81
ENDBRANCH  34  35
ENDBRANCH  26  29
ENDBRANCH  24  25
ENDBRANCH   1  24
TORSDOF 16
ENDMDL
MODEL 3
REMARK VINA RESULT:     -13.2      1.367      2.099
REMARK SMILES Cc1ccccc1[C@@H](Cc1c(Cl)cccc1Cl)C(=O)NCCCNC(=O)c1ccc(-c2c3nc(c(-c4ccc(S(=O)(=O)[O-])cc4)c4ccc([nH]4)c(-c4ccc(S(=O)(=O)[O-])cc4)c4nc(c(-c5ccc(S(=O)(=O)[O-])cc5)c5ccc2[nH]5)C=C4)C=C3)cc1
REMARK SMILES IDX 22 1 21 2 20 3 18 4 19 5 8 7 7 8 1 9 2 10 3 11 4 12 6 13
REMARK SMILES IDX 5 14 9 15 10 16 11 17 16 18 12 19 13 20 15 21 17 22 14 23
REMARK SMILES IDX 23 24 24 25 25 26 26 28 27 29 28 30 86 31 29 32 85 33 30 34
REMARK SMILES IDX 31 35 32 36 79 37 33 38 84 39 78 40 80 41 34 42 83 43 77 44
REMARK SMILES IDX 76 45 35 47 65 48 46 49 64 50 47 51 50 52 63 53 81 54 48 55
REMARK SMILES IDX 49 56 62 58 82 59 51 60 36 61 37 62 45 63 38 64 44 65 39 66
REMARK SMILES IDX 40 67 41 68 42 69 43 70 66 71 67 72 75 73 68 74 74 75 69 76
REMARK SMILES IDX 70 77 71 78 72 79 73 80 52 81 53 82 61 83 54 84 60 85 55 86
REMARK SMILES IDX 56 87 57 88 58 89 59 90
REMARK H PARENT 20 6 24 27 80 46 50 57
REMARK Flexibility Score: inf
ROOT
ATOM      1  C   UNL A   1      36.938  22.893  26.328  1.00  0.00     0.042 C 
ENDROOT
BRANCH   1   2
ATOM      2  C   UNL A   1      35.684  23.658  25.916  1.00  0.00     0.117 C 
BRANCH   2   3
ATOM      3  N   UNL A   1      34.526  23.314  26.717  1.00  0.00    -0.355 N 
ATOM      4  C   UNL A   1      33.238  23.745  26.711  1.00  0.00     0.227 C 
ATOM      5  O   UNL A   1      32.528  23.335  27.641  1.00  0.00    -0.274 OA
ATOM      6  H   UNL A   1      34.709  22.633  27.403  1.00  0.00     0.163 HD
BRANCH   4   7
ATOM      7  C   UNL A   1      32.620  24.703  25.666  1.00  0.00     0.113 C 
BRANCH   7   8
ATOM      8  C   UNL A   1      32.446  24.009  24.302  1.00  0.00    -0.032 A 
ATOM      9  C   UNL A   1      33.606  25.878  22.945  1.00  0.00     0.044 C 
ATOM     10  C   UNL A   1      33.004  24.506  23.102  1.00  0.00    -0.047 A 
ATOM     11  C   UNL A   1      33.038  23.677  21.961  1.00  0.00     0.004 A 
ATOM     12  C   UNL A   1      32.475  22.404  21.973  1.00  0.00     0.000 A 
ATOM     13  C   UNL A   1      31.786  22.769  24.248  1.00  0.00     0.005 A 
ATOM     14  C   UNL A   1      31.819  21.962  23.109  1.00  0.00     0.000 A 
ENDBRANCH   7   8
BRANCH   7  15
ATOM     15  C   UNL A   1      31.435  25.613  26.074  1.00  0.00     0.057 C 
BRANCH  15  16
ATOM     16  C   UNL A   1      31.243  26.983  25.428  1.00  0.00    -0.010 A 
ATOM     17  C   UNL A   1      30.330  27.135  24.354  1.00  0.00     0.045 A 
ATOM     18  C   UNL A   1      31.958  28.138  25.804  1.00  0.00     0.045 A 
ATOM     19  Cl  UNL A   1      29.527  25.787  23.613  1.00  0.00    -0.084 Cl
ATOM     20  C   UNL A   1      30.049  28.388  23.795  1.00  0.00     0.021 A 
ATOM     21  C   UNL A   1      31.652  29.395  25.259  1.00  0.00     0.021 A 
ATOM     22  Cl  UNL A   1      33.326  28.108  26.857  1.00  0.00    -0.084 Cl
ATOM     23  C   UNL A   1      30.685  29.526  24.270  1.00  0.00     0.003 A 
ENDBRANCH  15  16
ENDBRANCH   7  15
ENDBRANCH   4   7
ENDBRANCH   2   3
ENDBRANCH   1   2
BRANCH   1  24
ATOM     24  C   UNL A   1      38.221  23.453  25.736  1.00  0.00     0.118 C 
BRANCH  24  25
ATOM     25  N   UNL A   1      39.382  23.047  26.528  1.00  0.00    -0.352 N 
ATOM     26  C   UNL A   1      40.150  23.815  27.390  1.00  0.00     0.251 C 
ATOM     27  H   UNL A   1      39.655  22.105  26.438  1.00  0.00     0.163 HD
ATOM     28  O   UNL A   1      41.109  23.387  27.980  1.00  0.00    -0.269 OA
BRANCH  26  29
ATOM     29  C   UNL A   1      39.675  25.196  27.594  1.00  0.00     0.039 A 
ATOM     30  C   UNL A   1      40.298  26.204  26.851  1.00  0.00     0.014 A 
ATOM     31  C   UNL A   1      38.912  25.475  28.723  1.00  0.00     0.014 A 
ATOM     32  C   UNL A   1      40.296  27.504  27.347  1.00  0.00     0.010 A 
ATOM     33  C   UNL A   1      38.991  26.746  29.257  1.00  0.00     0.010 A 
ATOM     34  C   UNL A   1      39.724  27.746  28.597  1.00  0.00    -0.014 A 
BRANCH  34  35
ATOM     35  C   UNL A   1      39.911  28.993  29.330  1.00  0.00     0.031 A 
ATOM     36  C   UNL A   1      38.894  30.065  29.220  1.00  0.00     0.074 A 
ATOM     37  C   UNL A   1      40.979  29.175  30.139  1.00  0.00     0.049 A 
ATOM     38  N   UNL A   1      39.124  31.318  29.436  1.00  0.00    -0.248 NA
ATOM     39  C   UNL A   1      37.534  29.802  28.763  1.00  0.00     0.031 C 
ATOM     40  C   UNL A   1      41.133  30.223  31.145  1.00  0.00     0.029 A 
ATOM     41  N   UNL A   1      42.246  28.591  30.066  1.00  0.00    -0.354 N 
ATOM     42  C   UNL A   1      37.905  31.958  29.465  1.00  0.00     0.074 A 
ATOM     43  C   UNL A   1      36.972  31.003  28.918  1.00  0.00     0.031 C 
ATOM     44  C   UNL A   1      42.441  30.421  31.362  1.00  0.00     0.029 A 
ATOM     45  C   UNL A   1      43.165  29.597  30.409  1.00  0.00     0.049 A 
ATOM     46  H   UNL A   1      42.453  27.660  29.823  1.00  0.00     0.167 HD
ATOM     47  C   UNL A   1      37.789  33.163  30.096  1.00  0.00     0.031 A 
ATOM     48  C   UNL A   1      44.186  30.026  29.611  1.00  0.00     0.031 A 
ATOM     49  C   UNL A   1      39.092  33.692  30.501  1.00  0.00     0.049 A 
ATOM     50  C   UNL A   1      44.152  31.515  29.345  1.00  0.00     0.074 A 
ATOM     51  C   UNL A   1      39.746  33.765  31.720  1.00  0.00     0.029 A 
ATOM     52  N   UNL A   1      40.032  34.016  29.529  1.00  0.00    -0.354 N 
ATOM     53  N   UNL A   1      43.121  32.271  29.597  1.00  0.00    -0.248 NA
ATOM     54  C   UNL A   1      45.246  32.258  28.723  1.00  0.00     0.031 C 
ATOM     55  C   UNL A   1      41.108  34.070  31.469  1.00  0.00     0.029 A 
ATOM     56  C   UNL A   1      41.275  34.208  30.102  1.00  0.00     0.049 A 
ATOM     57  H   UNL A   1      39.839  34.098  28.567  1.00  0.00     0.167 HD
ATOM     58  C   UNL A   1      43.369  33.550  29.171  1.00  0.00     0.074 A 
ATOM     59  C   UNL A   1      44.722  33.495  28.647  1.00  0.00     0.031 C 
ATOM     60  C   UNL A   1      42.428  34.533  29.272  1.00  0.00     0.031 A 
BRANCH  47  61
ATOM     61  C   UNL A   1      36.471  33.717  30.614  1.00  0.00    -0.014 A 
ATOM     62  C   UNL A   1      35.490  34.153  29.696  1.00  0.00     0.010 A 
ATOM     63  C   UNL A   1      36.166  33.923  31.972  1.00  0.00     0.010 A 
ATOM     64  C   UNL A   1      34.338  34.846  30.105  1.00  0.00     0.020 A 
ATOM     65  C   UNL A   1      35.034  34.636  32.396  1.00  0.00     0.020 A 
ATOM     66  C   UNL A   1      34.133  35.112  31.455  1.00  0.00     0.054 A 
BRANCH  66  67
ATOM     67  S   UNL A   1      32.696  36.085  31.970  1.00  0.00     0.124 S 
ATOM     68  O   UNL A   1      32.321  36.769  30.734  1.00  0.00    -0.237 OA
ATOM     69  O   UNL A   1      31.767  35.057  32.430  1.00  0.00    -0.237 OA
ATOM     70  O   UNL A   1      33.223  36.956  33.018  1.00  0.00    -0.744 OA
ENDBRANCH  66  67
ENDBRANCH  47  61
BRANCH  48  71
ATOM     71  C   UNL A   1      44.701  29.004  28.663  1.00  0.00    -0.014 A 
ATOM     72  C   UNL A   1      44.072  28.919  27.404  1.00  0.00     0.010 A 
ATOM     73  C   UNL A   1      45.998  28.483  28.818  1.00  0.00     0.010 A 
ATOM     74  C   UNL A   1      44.786  28.489  26.284  1.00  0.00     0.020 A 
ATOM     75  C   UNL A   1      46.715  28.050  27.694  1.00  0.00     0.020 A 
ATOM     76  C   UNL A   1      46.124  28.122  26.429  1.00  0.00     0.054 A 
BRANCH  76  77
ATOM     77  S   UNL A   1      47.123  27.960  24.920  1.00  0.00     0.124 S 
ATOM     78  O   UNL A   1      46.767  26.624  24.453  1.00  0.00    -0.237 OA
ATOM     79  O   UNL A   1      46.618  29.065  24.105  1.00  0.00    -0.237 OA
ATOM     80  O   UNL A   1      48.491  28.118  25.403  1.00  0.00    -0.744 OA
ENDBRANCH  76  77
ENDBRANCH  48  71
BRANCH  60  81
ATOM     81  C   UNL A   1      42.514  35.919  28.675  1.00  0.00    -0.014 A 
ATOM     82  C   UNL A   1      41.903  36.304  27.472  1.00  0.00     0.010 A 
ATOM     83  C   UNL A   1      43.148  36.941  29.424  1.00  0.00     0.010 A 
ATOM     84  C   UNL A   1      41.973  37.628  27.008  1.00  0.00     0.020 A 
ATOM     85  C   UNL A   1      43.187  38.270  28.994  1.00  0.00     0.020 A 
ATOM     86  C   UNL A   1      42.618  38.603  27.770  1.00  0.00     0.054 A 
BRANCH  86  87
ATOM     87  S   UNL A   1      42.649  40.321  27.200  1.00  0.00     0.124 S 
ATOM     88  O   UNL A   1      41.264  40.525  26.782  1.00  0.00    -0.237 OA
ATOM     89  O   UNL A   1      43.055  41.058  28.395  1.00  0.00    -0.237 OA
ATOM     90  O   UNL A   1      43.635  40.305  26.123  1.00  0.00    -0.744 OA
ENDBRANCH  86  87
ENDBRANCH  60  81
ENDBRANCH  34  35
ENDBRANCH  26  29
ENDBRANCH  24  25
ENDBRANCH   1  24
TORSDOF 16
ENDMDL
