MODEL 1
REMARK VINA RESULT:     -12.9      0.000      0.000
REMARK SMILES CN1C(=O)C[C@@H](C(=O)NCCCNC(=O)c2ccc(-c3c4nc(c(-c5ccc(S(=O)(=O)[O-])cc5)c5ccc([nH]5)c(-c5ccc(S(=O)(=O)[O-])cc5)c5nc(c(-c6ccc(S(=O)(=O)[O-])cc6)c6ccc3[nH]6)C=C5)C=C4)cc2)C12CCN(c1ccc(Cl)cn1)CC2
REMARK SMILES IDX 12 1 11 2 10 3 9 4 7 5 8 6 6 8 1 9 2 10 3 11 76 12 4 13 5 14
REMARK SMILES IDX 77 15 88 16 78 17 87 18 79 19 80 20 81 21 86 22 82 23 85 24
REMARK SMILES IDX 83 25 84 26 13 27 14 28 15 30 16 31 17 32 75 33 18 34 74 35
REMARK SMILES IDX 19 36 20 37 21 38 68 39 22 40 73 41 67 42 69 43 23 44 72 45
REMARK SMILES IDX 66 46 65 47 24 49 54 50 35 51 53 52 36 53 39 54 52 55 70 56
REMARK SMILES IDX 37 57 38 58 51 60 71 61 40 62 25 63 26 64 34 65 27 66 33 67
REMARK SMILES IDX 28 68 29 69 30 70 31 71 32 72 55 73 56 74 64 75 57 76 63 77
REMARK SMILES IDX 58 78 59 79 60 80 61 81 62 82 41 83 42 84 50 85 43 86 49 87
REMARK SMILES IDX 44 88 45 89 46 90 47 91 48 92
REMARK H PARENT 9 7 13 29 69 48 39 59
REMARK Flexibility Score: inf
ROOT
ATOM      1  C   UNL A   1      40.497  23.255  27.148  1.00  0.00     0.118 C 
ENDROOT
BRANCH   1   2
ATOM      2  C   UNL A   1      39.296  22.532  26.554  1.00  0.00     0.042 C 
BRANCH   2   3
ATOM      3  C   UNL A   1      38.194  23.471  26.066  1.00  0.00     0.117 C 
BRANCH   3   4
ATOM      4  N   UNL A   1      37.698  23.159  24.733  1.00  0.00    -0.356 N 
ATOM      5  C   UNL A   1      36.493  22.800  24.231  1.00  0.00     0.226 C 
ATOM      6  O   UNL A   1      36.438  22.689  22.999  1.00  0.00    -0.275 OA
ATOM      7  H   UNL A   1      38.396  23.224  24.042  1.00  0.00     0.163 HD
BRANCH   5   8
ATOM      8  C   UNL A   1      35.237  22.491  25.044  1.00  0.00     0.113 C 
ATOM      9  C   UNL A   1      32.256  21.798  22.911  1.00  0.00     0.147 C 
ATOM     10  N   UNL A   1      33.355  21.807  23.860  1.00  0.00    -0.339 N 
ATOM     11  C   UNL A   1      33.876  20.639  24.398  1.00  0.00     0.223 C 
ATOM     12  C   UNL A   1      33.885  23.017  24.510  1.00  0.00     0.058 C 
ATOM     13  O   UNL A   1      33.507  19.495  24.169  1.00  0.00    -0.275 OA
ATOM     14  C   UNL A   1      35.027  20.999  25.297  1.00  0.00     0.116 C 
ATOM     15  C   UNL A   1      34.008  24.230  23.561  1.00  0.00     0.051 C 
ATOM     16  C   UNL A   1      32.941  23.390  25.702  1.00  0.00     0.051 C 
ATOM     17  C   UNL A   1      34.378  25.507  24.298  1.00  0.00     0.120 C 
ATOM     18  C   UNL A   1      33.270  24.742  26.358  1.00  0.00     0.120 C 
ATOM     19  N   UNL A   1      33.352  25.724  25.297  1.00  0.00    -0.356 N 
BRANCH  19  20
ATOM     20  C   UNL A   1      32.913  27.016  25.488  1.00  0.00     0.128 A 
ATOM     21  C   UNL A   1      33.559  27.807  26.444  1.00  0.00     0.048 A 
ATOM     22  N   UNL A   1      31.885  27.493  24.759  1.00  0.00    -0.238 NA
ATOM     23  C   UNL A   1      33.134  29.110  26.683  1.00  0.00     0.026 A 
ATOM     24  C   UNL A   1      31.465  28.757  25.030  1.00  0.00     0.134 A 
ATOM     25  C   UNL A   1      32.052  29.592  25.969  1.00  0.00     0.059 A 
ATOM     26  Cl  UNL A   1      31.463  31.180  26.239  1.00  0.00    -0.083 Cl
ENDBRANCH  19  20
ENDBRANCH   5   8
ENDBRANCH   3   4
ENDBRANCH   2   3
ENDBRANCH   1   2
BRANCH   1  27
ATOM     27  N   UNL A   1      41.155  24.083  26.152  1.00  0.00    -0.352 N 
ATOM     28  C   UNL A   1      41.251  25.449  26.066  1.00  0.00     0.251 C 
ATOM     29  H   UNL A   1      41.601  23.588  25.426  1.00  0.00     0.163 HD
ATOM     30  O   UNL A   1      41.532  25.957  24.984  1.00  0.00    -0.269 OA
BRANCH  28  31
ATOM     31  C   UNL A   1      41.028  26.308  27.253  1.00  0.00     0.039 A 
ATOM     32  C   UNL A   1      41.894  27.382  27.475  1.00  0.00     0.014 A 
ATOM     33  C   UNL A   1      40.028  26.020  28.188  1.00  0.00     0.014 A 
ATOM     34  C   UNL A   1      41.737  28.178  28.612  1.00  0.00     0.010 A 
ATOM     35  C   UNL A   1      39.814  26.872  29.272  1.00  0.00     0.010 A 
ATOM     36  C   UNL A   1      40.680  27.946  29.510  1.00  0.00    -0.014 A 
BRANCH  36  37
ATOM     37  C   UNL A   1      40.491  28.823  30.696  1.00  0.00     0.031 A 
ATOM     38  C   UNL A   1      41.364  28.674  31.915  1.00  0.00     0.074 A 
ATOM     39  C   UNL A   1      39.517  29.755  30.674  1.00  0.00     0.049 A 
ATOM     40  N   UNL A   1      41.379  29.393  33.009  1.00  0.00    -0.248 NA
ATOM     41  C   UNL A   1      42.328  27.561  31.921  1.00  0.00     0.031 C 
ATOM     42  C   UNL A   1      38.566  29.959  29.577  1.00  0.00     0.029 A 
ATOM     43  N   UNL A   1      39.174  30.717  31.591  1.00  0.00    -0.354 N 
ATOM     44  C   UNL A   1      42.342  28.818  33.831  1.00  0.00     0.074 A 
ATOM     45  C   UNL A   1      42.845  27.653  33.138  1.00  0.00     0.031 C 
ATOM     46  C   UNL A   1      37.787  31.014  29.861  1.00  0.00     0.029 A 
ATOM     47  C   UNL A   1      38.153  31.537  31.172  1.00  0.00     0.049 A 
ATOM     48  H   UNL A   1      39.617  30.811  32.465  1.00  0.00     0.167 HD
ATOM     49  C   UNL A   1      42.785  29.232  35.044  1.00  0.00     0.031 A 
ATOM     50  C   UNL A   1      37.581  32.600  31.770  1.00  0.00     0.031 A 
ATOM     51  C   UNL A   1      42.285  30.396  35.728  1.00  0.00     0.049 A 
ATOM     52  C   UNL A   1      38.098  33.049  33.107  1.00  0.00     0.074 A 
ATOM     53  C   UNL A   1      42.707  30.936  36.930  1.00  0.00     0.029 A 
ATOM     54  N   UNL A   1      41.246  31.196  35.274  1.00  0.00    -0.354 N 
ATOM     55  N   UNL A   1      39.067  32.539  33.831  1.00  0.00    -0.248 NA
ATOM     56  C   UNL A   1      37.456  34.228  33.701  1.00  0.00     0.031 C 
ATOM     57  C   UNL A   1      41.883  32.027  37.233  1.00  0.00     0.029 A 
ATOM     58  C   UNL A   1      40.993  32.207  36.185  1.00  0.00     0.049 A 
ATOM     59  H   UNL A   1      40.761  31.065  34.427  1.00  0.00     0.167 HD
ATOM     60  C   UNL A   1      39.161  33.345  34.958  1.00  0.00     0.074 A 
ATOM     61  C   UNL A   1      38.173  34.395  34.802  1.00  0.00     0.031 C 
ATOM     62  C   UNL A   1      39.988  33.229  36.029  1.00  0.00     0.031 A 
BRANCH  49  63
ATOM     63  C   UNL A   1      43.866  28.416  35.710  1.00  0.00    -0.014 A 
ATOM     64  C   UNL A   1      45.229  28.694  35.492  1.00  0.00     0.010 A 
ATOM     65  C   UNL A   1      43.516  27.381  36.596  1.00  0.00     0.010 A 
ATOM     66  C   UNL A   1      46.218  27.925  36.112  1.00  0.00     0.020 A 
ATOM     67  C   UNL A   1      44.503  26.629  37.243  1.00  0.00     0.020 A 
ATOM     68  C   UNL A   1      45.848  26.895  36.981  1.00  0.00     0.054 A 
BRANCH  68  69
ATOM     69  S   UNL A   1      47.154  25.928  37.788  1.00  0.00     0.124 S 
ATOM     70  O   UNL A   1      48.045  26.976  38.280  1.00  0.00    -0.237 OA
ATOM     71  O   UNL A   1      46.420  25.195  38.816  1.00  0.00    -0.237 OA
ATOM     72  O   UNL A   1      47.696  25.107  36.708  1.00  0.00    -0.744 OA
ENDBRANCH  68  69
ENDBRANCH  49  63
BRANCH  50  73
ATOM     73  C   UNL A   1      36.471  33.324  31.090  1.00  0.00    -0.014 A 
ATOM     74  C   UNL A   1      35.254  33.559  31.754  1.00  0.00     0.010 A 
ATOM     75  C   UNL A   1      36.635  33.801  29.777  1.00  0.00     0.010 A 
ATOM     76  C   UNL A   1      34.216  34.242  31.111  1.00  0.00     0.020 A 
ATOM     77  C   UNL A   1      35.613  34.512  29.142  1.00  0.00     0.020 A 
ATOM     78  C   UNL A   1      34.405  34.717  29.810  1.00  0.00     0.054 A 
BRANCH  78  79
ATOM     79  S   UNL A   1      33.067  35.651  29.017  1.00  0.00     0.124 S 
ATOM     80  O   UNL A   1      33.806  36.667  28.272  1.00  0.00    -0.237 OA
ATOM     81  O   UNL A   1      32.405  34.630  28.210  1.00  0.00    -0.237 OA
ATOM     82  O   UNL A   1      32.283  36.148  30.145  1.00  0.00    -0.744 OA
ENDBRANCH  78  79
ENDBRANCH  50  73
BRANCH  62  83
ATOM     83  C   UNL A   1      39.858  34.274  37.106  1.00  0.00    -0.014 A 
ATOM     84  C   UNL A   1      39.147  34.015  38.292  1.00  0.00     0.010 A 
ATOM     85  C   UNL A   1      40.464  35.532  36.933  1.00  0.00     0.010 A 
ATOM     86  C   UNL A   1      38.989  35.013  39.255  1.00  0.00     0.020 A 
ATOM     87  C   UNL A   1      40.339  36.523  37.911  1.00  0.00     0.020 A 
ATOM     88  C   UNL A   1      39.582  36.265  39.054  1.00  0.00     0.054 A 
BRANCH  88  89
ATOM     89  S   UNL A   1      39.361  37.547  40.318  1.00  0.00     0.124 S 
ATOM     90  O   UNL A   1      40.738  37.953  40.581  1.00  0.00    -0.237 OA
ATOM     91  O   UNL A   1      38.533  38.535  39.630  1.00  0.00    -0.237 OA
ATOM     92  O   UNL A   1      38.697  36.842  41.412  1.00  0.00    -0.744 OA
ENDBRANCH  88  89
ENDBRANCH  62  83
ENDBRANCH  36  37
ENDBRANCH  28  31
ENDBRANCH   1  27
TORSDOF 14
ENDMDL
MODEL 2
REMARK VINA RESULT:     -12.6      6.538     12.213
REMARK SMILES CN1C(=O)C[C@@H](C(=O)NCCCNC(=O)c2ccc(-c3c4nc(c(-c5ccc(S(=O)(=O)[O-])cc5)c5ccc([nH]5)c(-c5ccc(S(=O)(=O)[O-])cc5)c5nc(c(-c6ccc(S(=O)(=O)[O-])cc6)c6ccc3[nH]6)C=C5)C=C4)cc2)C12CCN(c1ccc(Cl)cn1)CC2
REMARK SMILES IDX 12 1 11 2 10 3 9 4 7 5 8 6 6 8 1 9 2 10 3 11 76 12 4 13 5 14
REMARK SMILES IDX 77 15 88 16 78 17 87 18 79 19 80 20 81 21 86 22 82 23 85 24
REMARK SMILES IDX 83 25 84 26 13 27 14 28 15 30 16 31 17 32 75 33 18 34 74 35
REMARK SMILES IDX 19 36 20 37 21 38 68 39 22 40 73 41 67 42 69 43 23 44 72 45
REMARK SMILES IDX 66 46 65 47 24 49 54 50 35 51 53 52 36 53 39 54 52 55 70 56
REMARK SMILES IDX 37 57 38 58 51 60 71 61 40 62 25 63 26 64 34 65 27 66 33 67
REMARK SMILES IDX 28 68 29 69 30 70 31 71 32 72 55 73 56 74 64 75 57 76 63 77
REMARK SMILES IDX 58 78 59 79 60 80 61 81 62 82 41 83 42 84 50 85 43 86 49 87
REMARK SMILES IDX 44 88 45 89 46 90 47 91 48 92
REMARK H PARENT 9 7 13 29 69 48 39 59
REMARK Flexibility Score: inf
ROOT
ATOM      1  C   UNL A   1      35.722  31.355  28.232  1.00  0.00     0.118 C 
ENDROOT
BRANCH   1   2
ATOM      2  C   UNL A   1      34.533  30.754  27.494  1.00  0.00     0.042 C 
BRANCH   2   3
ATOM      3  C   UNL A   1      34.474  29.228  27.566  1.00  0.00     0.117 C 
BRANCH   3   4
ATOM      4  N   UNL A   1      33.131  28.697  27.755  1.00  0.00    -0.356 N 
ATOM      5  C   UNL A   1      32.225  28.103  26.943  1.00  0.00     0.226 C 
ATOM      6  O   UNL A   1      31.190  27.708  27.495  1.00  0.00    -0.275 OA
ATOM      7  H   UNL A   1      32.811  28.790  28.681  1.00  0.00     0.163 HD
BRANCH   5   8
ATOM      8  C   UNL A   1      32.357  27.922  25.431  1.00  0.00     0.113 C 
ATOM      9  C   UNL A   1      29.591  25.893  23.963  1.00  0.00     0.147 C 
ATOM     10  N   UNL A   1      30.587  26.882  24.336  1.00  0.00    -0.339 N 
ATOM     11  C   UNL A   1      30.424  28.233  24.064  1.00  0.00     0.223 C 
ATOM     12  C   UNL A   1      31.936  26.562  24.830  1.00  0.00     0.058 C 
ATOM     13  O   UNL A   1      29.475  28.761  23.501  1.00  0.00    -0.275 OA
ATOM     14  C   UNL A   1      31.605  28.979  24.624  1.00  0.00     0.116 C 
ATOM     15  C   UNL A   1      31.969  25.387  25.834  1.00  0.00     0.051 C 
ATOM     16  C   UNL A   1      32.842  26.212  23.600  1.00  0.00     0.051 C 
ATOM     17  C   UNL A   1      33.386  24.961  26.181  1.00  0.00     0.120 C 
ATOM     18  C   UNL A   1      34.232  25.675  23.983  1.00  0.00     0.120 C 
ATOM     19  N   UNL A   1      34.030  24.602  24.934  1.00  0.00    -0.356 N 
BRANCH  19  20
ATOM     20  C   UNL A   1      34.844  23.491  24.934  1.00  0.00     0.128 A 
ATOM     21  C   UNL A   1      34.322  22.278  24.472  1.00  0.00     0.048 A 
ATOM     22  N   UNL A   1      36.115  23.587  25.372  1.00  0.00    -0.238 NA
ATOM     23  C   UNL A   1      35.104  21.128  24.474  1.00  0.00     0.026 A 
ATOM     24  C   UNL A   1      36.852  22.446  25.396  1.00  0.00     0.134 A 
ATOM     25  C   UNL A   1      36.396  21.210  24.962  1.00  0.00     0.059 A 
ATOM     26  Cl  UNL A   1      37.399  19.820  25.018  1.00  0.00    -0.083 Cl
ENDBRANCH  19  20
ENDBRANCH   5   8
ENDBRANCH   3   4
ENDBRANCH   2   3
ENDBRANCH   1   2
BRANCH   1  27
ATOM     27  N   UNL A   1      35.704  30.989  29.639  1.00  0.00    -0.352 N 
ATOM     28  C   UNL A   1      36.530  30.148  30.340  1.00  0.00     0.251 C 
ATOM     29  H   UNL A   1      34.989  31.410  30.170  1.00  0.00     0.163 HD
ATOM     30  O   UNL A   1      36.143  29.698  31.416  1.00  0.00    -0.269 OA
BRANCH  28  31
ATOM     31  C   UNL A   1      37.870  29.783  29.823  1.00  0.00     0.039 A 
ATOM     32  C   UNL A   1      38.903  29.560  30.737  1.00  0.00     0.014 A 
ATOM     33  C   UNL A   1      38.137  29.736  28.451  1.00  0.00     0.014 A 
ATOM     34  C   UNL A   1      40.188  29.264  30.275  1.00  0.00     0.010 A 
ATOM     35  C   UNL A   1      39.396  29.347  27.994  1.00  0.00     0.010 A 
ATOM     36  C   UNL A   1      40.442  29.131  28.899  1.00  0.00    -0.014 A 
BRANCH  36  37
ATOM     37  C   UNL A   1      41.801  28.771  28.414  1.00  0.00     0.031 A 
ATOM     38  C   UNL A   1      42.898  29.804  28.351  1.00  0.00     0.074 A 
ATOM     39  C   UNL A   1      42.045  27.506  28.020  1.00  0.00     0.049 A 
ATOM     40  N   UNL A   1      44.154  29.651  28.015  1.00  0.00    -0.248 NA
ATOM     41  C   UNL A   1      42.535  31.192  28.682  1.00  0.00     0.031 C 
ATOM     42  C   UNL A   1      41.052  26.428  27.976  1.00  0.00     0.029 A 
ATOM     43  N   UNL A   1      43.203  26.904  27.597  1.00  0.00    -0.354 N 
ATOM     44  C   UNL A   1      44.725  30.917  28.087  1.00  0.00     0.074 A 
ATOM     45  C   UNL A   1      43.667  31.837  28.437  1.00  0.00     0.031 C 
ATOM     46  C   UNL A   1      41.655  25.289  27.605  1.00  0.00     0.029 A 
ATOM     47  C   UNL A   1      43.065  25.559  27.346  1.00  0.00     0.049 A 
ATOM     48  H   UNL A   1      44.052  27.389  27.484  1.00  0.00     0.167 HD
ATOM     49  C   UNL A   1      46.019  31.279  27.903  1.00  0.00     0.031 A 
ATOM     50  C   UNL A   1      43.972  24.640  26.961  1.00  0.00     0.031 A 
ATOM     51  C   UNL A   1      47.071  30.358  27.561  1.00  0.00     0.049 A 
ATOM     52  C   UNL A   1      45.402  25.064  26.775  1.00  0.00     0.074 A 
ATOM     53  C   UNL A   1      48.423  30.612  27.410  1.00  0.00     0.029 A 
ATOM     54  N   UNL A   1      46.889  29.007  27.308  1.00  0.00    -0.354 N 
ATOM     55  N   UNL A   1      45.938  26.252  26.929  1.00  0.00    -0.248 NA
ATOM     56  C   UNL A   1      46.354  24.017  26.381  1.00  0.00     0.031 C 
ATOM     57  C   UNL A   1      49.049  29.427  27.007  1.00  0.00     0.029 A 
ATOM     58  C   UNL A   1      48.097  28.419  26.973  1.00  0.00     0.049 A 
ATOM     59  H   UNL A   1      46.027  28.534  27.360  1.00  0.00     0.167 HD
ATOM     60  C   UNL A   1      47.293  26.092  26.666  1.00  0.00     0.074 A 
ATOM     61  C   UNL A   1      47.497  24.686  26.377  1.00  0.00     0.031 C 
ATOM     62  C   UNL A   1      48.281  27.024  26.661  1.00  0.00     0.031 A 
BRANCH  49  63
ATOM     63  C   UNL A   1      46.366  32.739  28.065  1.00  0.00    -0.014 A 
ATOM     64  C   UNL A   1      46.347  33.620  26.967  1.00  0.00     0.010 A 
ATOM     65  C   UNL A   1      46.679  33.247  29.340  1.00  0.00     0.010 A 
ATOM     66  C   UNL A   1      46.677  34.968  27.132  1.00  0.00     0.020 A 
ATOM     67  C   UNL A   1      46.979  34.602  29.515  1.00  0.00     0.020 A 
ATOM     68  C   UNL A   1      46.993  35.450  28.406  1.00  0.00     0.054 A 
BRANCH  68  69
ATOM     69  S   UNL A   1      47.396  37.209  28.593  1.00  0.00     0.124 S 
ATOM     70  O   UNL A   1      48.097  37.493  27.344  1.00  0.00    -0.237 OA
ATOM     71  O   UNL A   1      46.079  37.826  28.728  1.00  0.00    -0.237 OA
ATOM     72  O   UNL A   1      48.225  37.250  29.795  1.00  0.00    -0.744 OA
ENDBRANCH  68  69
ENDBRANCH  49  63
BRANCH  50  73
ATOM     73  C   UNL A   1      43.553  23.227  26.751  1.00  0.00    -0.014 A 
ATOM     74  C   UNL A   1      43.736  22.601  25.506  1.00  0.00     0.010 A 
ATOM     75  C   UNL A   1      42.985  22.492  27.808  1.00  0.00     0.010 A 
ATOM     76  C   UNL A   1      43.343  21.271  25.317  1.00  0.00     0.020 A 
ATOM     77  C   UNL A   1      42.621  21.155  27.633  1.00  0.00     0.020 A 
ATOM     78  C   UNL A   1      42.791  20.556  26.384  1.00  0.00     0.054 A 
BRANCH  78  79
ATOM     79  S   UNL A   1      42.342  18.817  26.133  1.00  0.00     0.124 S 
ATOM     80  O   UNL A   1      42.552  18.254  27.463  1.00  0.00    -0.237 OA
ATOM     81  O   UNL A   1      40.952  18.909  25.696  1.00  0.00    -0.237 OA
ATOM     82  O   UNL A   1      43.281  18.368  25.107  1.00  0.00    -0.744 OA
ENDBRANCH  78  79
ENDBRANCH  50  73
BRANCH  62  83
ATOM     83  C   UNL A   1      49.671  26.540  26.340  1.00  0.00    -0.014 A 
ATOM     84  C   UNL A   1      50.451  25.873  27.301  1.00  0.00     0.010 A 
ATOM     85  C   UNL A   1      50.201  26.749  25.054  1.00  0.00     0.010 A 
ATOM     86  C   UNL A   1      51.758  25.480  27.003  1.00  0.00     0.020 A 
ATOM     87  C   UNL A   1      51.495  26.326  24.740  1.00  0.00     0.020 A 
ATOM     88  C   UNL A   1      52.274  25.717  25.725  1.00  0.00     0.054 A 
BRANCH  88  89
ATOM     89  S   UNL A   1      53.975  25.201  25.363  1.00  0.00     0.124 S 
ATOM     90  O   UNL A   1      53.940  23.782  25.704  1.00  0.00    -0.237 OA
ATOM     91  O   UNL A   1      54.105  25.504  23.939  1.00  0.00    -0.237 OA
ATOM     92  O   UNL A   1      54.785  26.037  26.247  1.00  0.00    -0.744 OA
ENDBRANCH  88  89
ENDBRANCH  62  83
ENDBRANCH  36  37
ENDBRANCH  28  31
ENDBRANCH   1  27
TORSDOF 14
ENDMDL
MODEL 3
REMARK VINA RESULT:     -12.5      2.240      3.735
REMARK SMILES CN1C(=O)C[C@@H](C(=O)NCCCNC(=O)c2ccc(-c3c4nc(c(-c5ccc(S(=O)(=O)[O-])cc5)c5ccc([nH]5)c(-c5ccc(S(=O)(=O)[O-])cc5)c5nc(c(-c6ccc(S(=O)(=O)[O-])cc6)c6ccc3[nH]6)C=C5)C=C4)cc2)C12CCN(c1ccc(Cl)cn1)CC2
REMARK SMILES IDX 12 1 11 2 10 3 9 4 7 5 8 6 6 8 1 9 2 10 3 11 76 12 4 13 5 14
REMARK SMILES IDX 77 15 88 16 78 17 87 18 79 19 80 20 81 21 86 22 82 23 85 24
REMARK SMILES IDX 83 25 84 26 13 27 14 28 15 30 16 31 17 32 75 33 18 34 74 35
REMARK SMILES IDX 19 36 20 37 21 38 68 39 22 40 73 41 67 42 69 43 23 44 72 45
REMARK SMILES IDX 66 46 65 47 24 49 54 50 35 51 53 52 36 53 39 54 52 55 70 56
REMARK SMILES IDX 37 57 38 58 51 60 71 61 40 62 25 63 26 64 34 65 27 66 33 67
REMARK SMILES IDX 28 68 29 69 30 70 31 71 32 72 55 73 56 74 64 75 57 76 63 77
REMARK SMILES IDX 58 78 59 79 60 80 61 81 62 82 41 83 42 84 50 85 43 86 49 87
REMARK SMILES IDX 44 88 45 89 46 90 47 91 48 92
REMARK H PARENT 9 7 13 29 69 48 39 59
REMARK Flexibility Score: inf
ROOT
ATOM      1  C   UNL A   1      38.348  24.192  26.458  1.00  0.00     0.118 C 
ENDROOT
BRANCH   1   2
ATOM      2  C   UNL A   1      37.479  23.714  25.302  1.00  0.00     0.042 C 
BRANCH   2   3
ATOM      3  C   UNL A   1      36.014  23.506  25.680  1.00  0.00     0.117 C 
BRANCH   3   4
ATOM      4  N   UNL A   1      35.282  24.744  25.916  1.00  0.00    -0.356 N 
ATOM      5  C   UNL A   1      34.295  25.399  25.262  1.00  0.00     0.226 C 
ATOM      6  O   UNL A   1      33.863  26.415  25.823  1.00  0.00    -0.275 OA
ATOM      7  H   UNL A   1      35.571  25.207  26.735  1.00  0.00     0.163 HD
BRANCH   5   8
ATOM      8  C   UNL A   1      33.712  25.018  23.902  1.00  0.00     0.113 C 
ATOM      9  C   UNL A   1      29.987  25.214  23.809  1.00  0.00     0.147 C 
ATOM     10  N   UNL A   1      31.422  25.317  23.614  1.00  0.00    -0.339 N 
ATOM     11  C   UNL A   1      32.003  26.393  22.957  1.00  0.00     0.223 C 
ATOM     12  C   UNL A   1      32.380  24.232  23.884  1.00  0.00     0.058 C 
ATOM     13  O   UNL A   1      31.427  27.356  22.471  1.00  0.00    -0.275 OA
ATOM     14  C   UNL A   1      33.497  26.213  22.975  1.00  0.00     0.116 C 
ATOM     15  C   UNL A   1      32.087  23.452  25.185  1.00  0.00     0.051 C 
ATOM     16  C   UNL A   1      32.355  23.240  22.672  1.00  0.00     0.051 C 
ATOM     17  C   UNL A   1      32.975  22.228  25.339  1.00  0.00     0.120 C 
ATOM     18  C   UNL A   1      33.172  21.957  22.901  1.00  0.00     0.120 C 
ATOM     19  N   UNL A   1      32.752  21.401  24.170  1.00  0.00    -0.356 N 
BRANCH  19  20
ATOM     20  C   UNL A   1      32.674  20.039  24.359  1.00  0.00     0.128 A 
ATOM     21  C   UNL A   1      32.836  19.532  25.653  1.00  0.00     0.048 A 
ATOM     22  N   UNL A   1      32.444  19.226  23.309  1.00  0.00    -0.238 NA
ATOM     23  C   UNL A   1      32.785  18.162  25.884  1.00  0.00     0.026 A 
ATOM     24  C   UNL A   1      32.430  17.888  23.551  1.00  0.00     0.134 A 
ATOM     25  C   UNL A   1      32.591  17.318  24.805  1.00  0.00     0.059 A 
ATOM     26  Cl  UNL A   1      32.549  15.618  25.022  1.00  0.00    -0.083 Cl
ENDBRANCH  19  20
ENDBRANCH   5   8
ENDBRANCH   3   4
ENDBRANCH   2   3
ENDBRANCH   1   2
BRANCH   1  27
ATOM     27  N   UNL A   1      39.747  24.253  26.071  1.00  0.00    -0.352 N 
ATOM     28  C   UNL A   1      40.707  25.182  26.383  1.00  0.00     0.251 C 
ATOM     29  H   UNL A   1      40.054  23.514  25.497  1.00  0.00     0.163 HD
ATOM     30  O   UNL A   1      41.713  25.252  25.683  1.00  0.00    -0.269 OA
BRANCH  28  31
ATOM     31  C   UNL A   1      40.547  26.088  27.546  1.00  0.00     0.039 A 
ATOM     32  C   UNL A   1      41.367  27.215  27.634  1.00  0.00     0.014 A 
ATOM     33  C   UNL A   1      39.656  25.797  28.583  1.00  0.00     0.014 A 
ATOM     34  C   UNL A   1      41.272  28.059  28.743  1.00  0.00     0.010 A 
ATOM     35  C   UNL A   1      39.495  26.690  29.642  1.00  0.00     0.010 A 
ATOM     36  C   UNL A   1      40.318  27.818  29.748  1.00  0.00    -0.014 A 
BRANCH  36  37
ATOM     37  C   UNL A   1      40.190  28.744  30.904  1.00  0.00     0.031 A 
ATOM     38  C   UNL A   1      41.076  28.596  32.115  1.00  0.00     0.074 A 
ATOM     39  C   UNL A   1      39.260  29.720  30.865  1.00  0.00     0.049 A 
ATOM     40  N   UNL A   1      41.143  29.351  33.182  1.00  0.00    -0.248 NA
ATOM     41  C   UNL A   1      41.987  27.440  32.145  1.00  0.00     0.031 C 
ATOM     42  C   UNL A   1      38.301  29.930  29.777  1.00  0.00     0.029 A 
ATOM     43  N   UNL A   1      38.978  30.728  31.753  1.00  0.00    -0.354 N 
ATOM     44  C   UNL A   1      42.092  28.759  34.009  1.00  0.00     0.074 A 
ATOM     45  C   UNL A   1      42.528  27.550  33.349  1.00  0.00     0.031 C 
ATOM     46  C   UNL A   1      37.577  31.030  30.035  1.00  0.00     0.029 A 
ATOM     47  C   UNL A   1      37.989  31.580  31.321  1.00  0.00     0.049 A 
ATOM     48  H   UNL A   1      39.440  30.830  32.616  1.00  0.00     0.167 HD
ATOM     49  C   UNL A   1      42.575  29.195  35.199  1.00  0.00     0.031 A 
ATOM     50  C   UNL A   1      37.477  32.689  31.890  1.00  0.00     0.031 A 
ATOM     51  C   UNL A   1      42.142  30.403  35.849  1.00  0.00     0.049 A 
ATOM     52  C   UNL A   1      38.038  33.159  33.203  1.00  0.00     0.074 A 
ATOM     53  C   UNL A   1      42.609  30.964  37.025  1.00  0.00     0.029 A 
ATOM     54  N   UNL A   1      41.134  31.235  35.384  1.00  0.00    -0.354 N 
ATOM     55  N   UNL A   1      38.994  32.628  33.928  1.00  0.00    -0.248 NA
ATOM     56  C   UNL A   1      37.462  34.387  33.764  1.00  0.00     0.031 C 
ATOM     57  C   UNL A   1      41.842  32.102  37.302  1.00  0.00     0.029 A 
ATOM     58  C   UNL A   1      40.943  32.288  36.263  1.00  0.00     0.049 A 
ATOM     59  H   UNL A   1      40.629  31.098  34.550  1.00  0.00     0.167 HD
ATOM     60  C   UNL A   1      39.146  33.468  35.025  1.00  0.00     0.074 A 
ATOM     61  C   UNL A   1      38.205  34.557  34.847  1.00  0.00     0.031 C 
ATOM     62  C   UNL A   1      39.985  33.350  36.086  1.00  0.00     0.031 A 
BRANCH  49  63
ATOM     63  C   UNL A   1      43.629  28.352  35.876  1.00  0.00    -0.014 A 
ATOM     64  C   UNL A   1      45.000  28.588  35.664  1.00  0.00     0.010 A 
ATOM     65  C   UNL A   1      43.243  27.333  36.767  1.00  0.00     0.010 A 
ATOM     66  C   UNL A   1      45.963  27.795  36.294  1.00  0.00     0.020 A 
ATOM     67  C   UNL A   1      44.205  26.557  37.424  1.00  0.00     0.020 A 
ATOM     68  C   UNL A   1      45.559  26.782  37.169  1.00  0.00     0.054 A 
BRANCH  68  69
ATOM     69  S   UNL A   1      46.831  25.784  37.989  1.00  0.00     0.124 S 
ATOM     70  O   UNL A   1      47.199  24.840  36.936  1.00  0.00    -0.237 OA
ATOM     71  O   UNL A   1      47.849  26.776  38.326  1.00  0.00    -0.237 OA
ATOM     72  O   UNL A   1      46.134  25.200  39.132  1.00  0.00    -0.744 OA
ENDBRANCH  68  69
ENDBRANCH  49  63
BRANCH  50  73
ATOM     73  C   UNL A   1      36.390  33.440  31.202  1.00  0.00    -0.014 A 
ATOM     74  C   UNL A   1      36.562  33.908  29.888  1.00  0.00     0.010 A 
ATOM     75  C   UNL A   1      35.167  33.674  31.856  1.00  0.00     0.010 A 
ATOM     76  C   UNL A   1      35.536  34.611  29.247  1.00  0.00     0.020 A 
ATOM     77  C   UNL A   1      34.129  34.347  31.209  1.00  0.00     0.020 A 
ATOM     78  C   UNL A   1      34.325  34.822  29.911  1.00  0.00     0.054 A 
BRANCH  78  79
ATOM     79  S   UNL A   1      32.988  35.685  29.040  1.00  0.00     0.124 S 
ATOM     80  O   UNL A   1      33.721  36.689  28.275  1.00  0.00    -0.237 OA
ATOM     81  O   UNL A   1      32.377  34.613  28.258  1.00  0.00    -0.237 OA
ATOM     82  O   UNL A   1      32.156  36.206  30.122  1.00  0.00    -0.744 OA
ENDBRANCH  78  79
ENDBRANCH  50  73
BRANCH  62  83
ATOM     83  C   UNL A   1      39.922  34.436  37.128  1.00  0.00    -0.014 A 
ATOM     84  C   UNL A   1      39.123  34.300  38.277  1.00  0.00     0.010 A 
ATOM     85  C   UNL A   1      40.681  35.609  36.958  1.00  0.00     0.010 A 
ATOM     86  C   UNL A   1      39.034  35.340  39.205  1.00  0.00     0.020 A 
ATOM     87  C   UNL A   1      40.623  36.638  37.902  1.00  0.00     0.020 A 
ATOM     88  C   UNL A   1      39.780  36.506  39.007  1.00  0.00     0.054 A 
BRANCH  88  89
ATOM     89  S   UNL A   1      39.645  37.845  40.223  1.00  0.00     0.124 S 
ATOM     90  O   UNL A   1      39.220  37.124  41.420  1.00  0.00    -0.237 OA
ATOM     91  O   UNL A   1      41.003  38.382  40.260  1.00  0.00    -0.237 OA
ATOM     92  O   UNL A   1      38.644  38.738  39.644  1.00  0.00    -0.744 OA
ENDBRANCH  88  89
ENDBRANCH  62  83
ENDBRANCH  36  37
ENDBRANCH  28  31
ENDBRANCH   1  27
TORSDOF 14
ENDMDL
