MODEL 1
REMARK VINA RESULT:     -11.3      0.000      0.000
REMARK SMILES CC[C@H](Oc1ccccc1/C=C1\SC(N)=[NH+]C1=O)C(=O)NCCCNC(=O)c1ccc(-c2c3nc(c(-c4ccc(S(=O)(=O)[O-])cc4)c4ccc([nH]4)c(-c4ccc(S(=O)(=O)[O-])cc4)c4nc(c(-c5ccc(S(=O)(=O)[O-])cc5)c5ccc2[nH]5)C=C4)C=C3)cc1
REMARK SMILES IDX 23 1 22 2 21 3 19 4 20 5 3 7 2 8 1 9 4 10 5 11 6 12 10 13
REMARK SMILES IDX 7 14 9 15 8 16 11 17 12 18 13 19 17 20 14 21 16 22 18 23
REMARK SMILES IDX 15 24 24 28 25 29 26 30 27 32 28 33 29 34 87 35 30 36 86 37
REMARK SMILES IDX 31 38 32 39 33 40 80 41 34 42 85 43 79 44 81 45 35 46 84 47
REMARK SMILES IDX 78 48 77 49 36 51 66 52 47 53 65 54 48 55 51 56 64 57 82 58
REMARK SMILES IDX 49 59 50 60 63 62 83 63 52 64 37 65 38 66 46 67 39 68 45 69
REMARK SMILES IDX 40 70 41 71 42 72 43 73 44 74 67 75 68 76 76 77 69 78 75 79
REMARK SMILES IDX 70 80 71 81 72 82 73 83 74 84 53 85 54 86 62 87 55 88 61 89
REMARK SMILES IDX 56 90 57 91 58 92 59 93 60 94
REMARK H PARENT 21 6 16 25 15 26 15 27 25 31 81 50 51 61
REMARK Flexibility Score: inf
ROOT
ATOM      1  C   UNL A   1      32.084  27.999  27.480  1.00  0.00     0.042 C 
ENDROOT
BRANCH   1   2
ATOM      2  C   UNL A   1      31.710  26.951  26.432  1.00  0.00     0.118 C 
BRANCH   2   3
ATOM      3  N   UNL A   1      31.293  25.680  26.991  1.00  0.00    -0.353 N 
ATOM      4  C   UNL A   1      31.184  24.438  26.447  1.00  0.00     0.261 C 
ATOM      5  O   UNL A   1      30.820  23.538  27.214  1.00  0.00    -0.271 OA
ATOM      6  H   UNL A   1      31.041  25.724  27.942  1.00  0.00     0.163 HD
BRANCH   4   7
ATOM      7  C   UNL A   1      31.569  24.115  24.988  1.00  0.00     0.261 C 
BRANCH   7   8
ATOM      8  C   UNL A   1      30.373  24.351  24.054  1.00  0.00     0.052 C 
ATOM      9  C   UNL A   1      30.224  25.799  23.608  1.00  0.00     0.008 C 
ENDBRANCH   7   8
BRANCH   7  10
ATOM     10  O   UNL A   1      32.463  23.018  24.850  1.00  0.00    -0.480 OA
BRANCH  10  11
ATOM     11  C   UNL A   1      33.813  22.945  24.965  1.00  0.00     0.127 A 
ATOM     12  C   UNL A   1      34.511  22.230  25.942  1.00  0.00     0.047 A 
ATOM     13  C   UNL A   1      34.559  23.581  23.944  1.00  0.00     0.018 A 
ATOM     14  C   UNL A   1      35.907  22.135  25.924  1.00  0.00     0.004 A 
ATOM     15  C   UNL A   1      35.964  23.468  23.932  1.00  0.00     0.012 A 
ATOM     16  C   UNL A   1      36.634  22.749  24.917  1.00  0.00     0.001 A 
BRANCH  13  17
ATOM     17  C   UNL A   1      33.982  24.338  22.811  1.00  0.00     0.036 C 
ATOM     18  C   UNL A   1      33.720  25.651  22.742  1.00  0.00     0.110 C 
ATOM     19  S   UNL A   1      33.905  26.840  23.956  1.00  0.00     0.006 SA
ATOM     20  C   UNL A   1      33.277  26.322  21.476  1.00  0.00     0.346 C 
ATOM     21  C   UNL A   1      33.513  28.079  22.810  1.00  0.00     0.314 C 
ATOM     22  N   UNL A   1      33.217  27.698  21.620  1.00  0.00    -0.200 N 
ATOM     23  O   UNL A   1      33.016  25.715  20.451  1.00  0.00    -0.240 OA
ATOM     24  N   UNL A   1      33.562  29.349  23.258  1.00  0.00    -0.281 N 
ATOM     25  H   UNL A   1      32.973  28.315  20.892  1.00  0.00     0.316 HD
ATOM     26  H   UNL A   1      33.802  29.533  24.195  1.00  0.00     0.302 HD
ATOM     27  H   UNL A   1      33.356  30.094  22.648  1.00  0.00     0.302 HD
ENDBRANCH  13  17
ENDBRANCH  10  11
ENDBRANCH   7  10
ENDBRANCH   4   7
ENDBRANCH   2   3
ENDBRANCH   1   2
BRANCH   1  28
ATOM     28  C   UNL A   1      33.483  28.592  27.330  1.00  0.00     0.118 C 
BRANCH  28  29
ATOM     29  N   UNL A   1      33.486  30.026  27.572  1.00  0.00    -0.352 N 
ATOM     30  C   UNL A   1      34.447  30.793  28.191  1.00  0.00     0.251 C 
ATOM     31  H   UNL A   1      32.694  30.514  27.252  1.00  0.00     0.163 HD
ATOM     32  O   UNL A   1      34.164  31.923  28.579  1.00  0.00    -0.269 OA
BRANCH  30  33
ATOM     33  C   UNL A   1      35.810  30.254  28.401  1.00  0.00     0.039 A 
ATOM     34  C   UNL A   1      36.713  30.257  27.334  1.00  0.00     0.014 A 
ATOM     35  C   UNL A   1      36.195  29.726  29.637  1.00  0.00     0.014 A 
ATOM     36  C   UNL A   1      38.021  29.801  27.528  1.00  0.00     0.010 A 
ATOM     37  C   UNL A   1      37.517  29.326  29.845  1.00  0.00     0.010 A 
ATOM     38  C   UNL A   1      38.448  29.372  28.796  1.00  0.00    -0.014 A 
BRANCH  38  39
ATOM     39  C   UNL A   1      39.875  29.032  29.051  1.00  0.00     0.031 A 
ATOM     40  C   UNL A   1      40.432  27.686  28.662  1.00  0.00     0.074 A 
ATOM     41  C   UNL A   1      40.657  29.920  29.700  1.00  0.00     0.049 A 
ATOM     42  N   UNL A   1      41.631  27.203  28.869  1.00  0.00    -0.248 NA
ATOM     43  C   UNL A   1      39.526  26.758  27.968  1.00  0.00     0.031 C 
ATOM     44  C   UNL A   1      40.230  31.244  30.164  1.00  0.00     0.029 A 
ATOM     45  N   UNL A   1      41.970  29.843  30.099  1.00  0.00    -0.354 N 
ATOM     46  C   UNL A   1      41.620  25.914  28.348  1.00  0.00     0.074 A 
ATOM     47  C   UNL A   1      40.287  25.678  27.840  1.00  0.00     0.031 C 
ATOM     48  C   UNL A   1      41.261  31.856  30.766  1.00  0.00     0.029 A 
ATOM     49  C   UNL A   1      42.408  30.955  30.781  1.00  0.00     0.049 A 
ATOM     50  H   UNL A   1      42.543  29.064  29.913  1.00  0.00     0.167 HD
ATOM     51  C   UNL A   1      42.631  25.016  28.293  1.00  0.00     0.031 A 
ATOM     52  C   UNL A   1      43.588  31.215  31.379  1.00  0.00     0.031 A 
ATOM     53  C   UNL A   1      43.963  25.261  28.785  1.00  0.00     0.049 A 
ATOM     54  C   UNL A   1      44.680  30.179  31.330  1.00  0.00     0.074 A 
ATOM     55  C   UNL A   1      45.073  24.437  28.696  1.00  0.00     0.029 A 
ATOM     56  N   UNL A   1      44.364  26.396  29.470  1.00  0.00    -0.354 N 
ATOM     57  N   UNL A   1      44.678  29.009  30.737  1.00  0.00    -0.248 NA
ATOM     58  C   UNL A   1      45.934  30.499  32.029  1.00  0.00     0.031 C 
ATOM     59  C   UNL A   1      46.123  25.041  29.393  1.00  0.00     0.029 A 
ATOM     60  C   UNL A   1      45.689  26.272  29.855  1.00  0.00     0.049 A 
ATOM     61  H   UNL A   1      43.792  27.176  29.655  1.00  0.00     0.167 HD
ATOM     62  C   UNL A   1      45.935  28.463  30.979  1.00  0.00     0.074 A 
ATOM     63  C   UNL A   1      46.679  29.441  31.742  1.00  0.00     0.031 C 
ATOM     64  C   UNL A   1      46.423  27.253  30.612  1.00  0.00     0.031 A 
BRANCH  51  65
ATOM     65  C   UNL A   1      42.358  23.662  27.689  1.00  0.00    -0.014 A 
ATOM     66  C   UNL A   1      42.700  23.376  26.356  1.00  0.00     0.010 A 
ATOM     67  C   UNL A   1      41.871  22.625  28.509  1.00  0.00     0.010 A 
ATOM     68  C   UNL A   1      42.552  22.081  25.852  1.00  0.00     0.020 A 
ATOM     69  C   UNL A   1      41.746  21.323  28.016  1.00  0.00     0.020 A 
ATOM     70  C   UNL A   1      42.084  21.060  26.688  1.00  0.00     0.054 A 
BRANCH  70  71
ATOM     71  S   UNL A   1      41.984  19.374  26.025  1.00  0.00     0.124 S 
ATOM     72  O   UNL A   1      42.496  18.582  27.141  1.00  0.00    -0.237 OA
ATOM     73  O   UNL A   1      40.557  19.224  25.752  1.00  0.00    -0.237 OA
ATOM     74  O   UNL A   1      42.843  19.412  24.845  1.00  0.00    -0.744 OA
ENDBRANCH  70  71
ENDBRANCH  51  65
BRANCH  52  75
ATOM     75  C   UNL A   1      43.796  32.494  32.117  1.00  0.00    -0.014 A 
ATOM     76  C   UNL A   1      44.352  33.615  31.475  1.00  0.00     0.010 A 
ATOM     77  C   UNL A   1      43.478  32.581  33.485  1.00  0.00     0.010 A 
ATOM     78  C   UNL A   1      44.623  34.783  32.195  1.00  0.00     0.020 A 
ATOM     79  C   UNL A   1      43.713  33.759  34.200  1.00  0.00     0.020 A 
ATOM     80  C   UNL A   1      44.305  34.845  33.554  1.00  0.00     0.054 A 
BRANCH  80  81
ATOM     81  S   UNL A   1      44.656  36.373  34.468  1.00  0.00     0.124 S 
ATOM     82  O   UNL A   1      43.466  37.172  34.190  1.00  0.00    -0.237 OA
ATOM     83  O   UNL A   1      44.792  35.893  35.841  1.00  0.00    -0.237 OA
ATOM     84  O   UNL A   1      45.894  36.857  33.861  1.00  0.00    -0.744 OA
ENDBRANCH  80  81
ENDBRANCH  52  75
BRANCH  64  85
ATOM     85  C   UNL A   1      47.834  26.919  31.016  1.00  0.00    -0.014 A 
ATOM     86  C   UNL A   1      48.927  27.308  30.221  1.00  0.00     0.010 A 
ATOM     87  C   UNL A   1      48.076  26.267  32.240  1.00  0.00     0.010 A 
ATOM     88  C   UNL A   1      50.234  27.032  30.631  1.00  0.00     0.020 A 
ATOM     89  C   UNL A   1      49.381  26.018  32.669  1.00  0.00     0.020 A 
ATOM     90  C   UNL A   1      50.453  26.393  31.856  1.00  0.00     0.054 A 
BRANCH  90  91
ATOM     91  S   UNL A   1      52.162  26.105  32.392  1.00  0.00     0.124 S 
ATOM     92  O   UNL A   1      52.333  24.681  32.114  1.00  0.00    -0.237 OA
ATOM     93  O   UNL A   1      52.923  27.009  31.533  1.00  0.00    -0.237 OA
ATOM     94  O   UNL A   1      52.147  26.465  33.808  1.00  0.00    -0.744 OA
ENDBRANCH  90  91
ENDBRANCH  64  85
ENDBRANCH  38  39
ENDBRANCH  30  33
ENDBRANCH  28  29
ENDBRANCH   1  28
TORSDOF 17
ENDMDL
MODEL 2
REMARK VINA RESULT:     -11.3      1.536      2.692
REMARK SMILES CC[C@H](Oc1ccccc1/C=C1\SC(N)=[NH+]C1=O)C(=O)NCCCNC(=O)c1ccc(-c2c3nc(c(-c4ccc(S(=O)(=O)[O-])cc4)c4ccc([nH]4)c(-c4ccc(S(=O)(=O)[O-])cc4)c4nc(c(-c5ccc(S(=O)(=O)[O-])cc5)c5ccc2[nH]5)C=C4)C=C3)cc1
REMARK SMILES IDX 23 1 22 2 21 3 19 4 20 5 3 7 2 8 1 9 4 10 5 11 6 12 10 13
REMARK SMILES IDX 7 14 9 15 8 16 11 17 12 18 13 19 17 20 14 21 16 22 18 23
REMARK SMILES IDX 15 24 24 28 25 29 26 30 27 32 28 33 29 34 87 35 30 36 86 37
REMARK SMILES IDX 31 38 32 39 33 40 80 41 34 42 85 43 79 44 81 45 35 46 84 47
REMARK SMILES IDX 78 48 77 49 36 51 66 52 47 53 65 54 48 55 51 56 64 57 82 58
REMARK SMILES IDX 49 59 50 60 63 62 83 63 52 64 37 65 38 66 46 67 39 68 45 69
REMARK SMILES IDX 40 70 41 71 42 72 43 73 44 74 67 75 68 76 76 77 69 78 75 79
REMARK SMILES IDX 70 80 71 81 72 82 73 83 74 84 53 85 54 86 62 87 55 88 61 89
REMARK SMILES IDX 56 90 57 91 58 92 59 93 60 94
REMARK H PARENT 21 6 16 25 15 26 15 27 25 31 81 50 51 61
REMARK Flexibility Score: inf
ROOT
ATOM      1  C   UNL A   1      32.348  28.466  27.066  1.00  0.00     0.042 C 
ENDROOT
BRANCH   1   2
ATOM      2  C   UNL A   1      31.709  28.802  25.719  1.00  0.00     0.118 C 
BRANCH   2   3
ATOM      3  N   UNL A   1      32.665  29.120  24.676  1.00  0.00    -0.353 N 
ATOM      4  C   UNL A   1      33.280  28.349  23.739  1.00  0.00     0.261 C 
ATOM      5  O   UNL A   1      34.035  28.940  22.957  1.00  0.00    -0.271 OA
ATOM      6  H   UNL A   1      32.915  30.072  24.638  1.00  0.00     0.163 HD
BRANCH   4   7
ATOM      7  C   UNL A   1      33.008  26.838  23.572  1.00  0.00     0.261 C 
BRANCH   7   8
ATOM      8  C   UNL A   1      31.855  26.608  22.586  1.00  0.00     0.052 C 
ATOM      9  C   UNL A   1      32.214  25.679  21.433  1.00  0.00     0.008 C 
ENDBRANCH   7   8
BRANCH   7  10
ATOM     10  O   UNL A   1      33.182  26.079  24.762  1.00  0.00    -0.480 OA
BRANCH  10  11
ATOM     11  C   UNL A   1      32.493  25.019  25.254  1.00  0.00     0.127 A 
ATOM     12  C   UNL A   1      31.298  25.085  25.974  1.00  0.00     0.047 A 
ATOM     13  C   UNL A   1      33.000  23.739  24.920  1.00  0.00     0.018 A 
ATOM     14  C   UNL A   1      30.608  23.930  26.359  1.00  0.00     0.004 A 
ATOM     15  C   UNL A   1      32.289  22.585  25.305  1.00  0.00     0.012 A 
ATOM     16  C   UNL A   1      31.100  22.679  26.021  1.00  0.00     0.001 A 
BRANCH  13  17
ATOM     17  C   UNL A   1      34.223  23.488  24.127  1.00  0.00     0.036 C 
ATOM     18  C   UNL A   1      35.477  23.319  24.571  1.00  0.00     0.110 C 
ATOM     19  S   UNL A   1      36.060  23.411  26.175  1.00  0.00     0.006 SA
ATOM     20  C   UNL A   1      36.607  22.914  23.672  1.00  0.00     0.346 C 
ATOM     21  C   UNL A   1      37.618  22.866  25.647  1.00  0.00     0.314 C 
ATOM     22  N   UNL A   1      37.765  22.660  24.388  1.00  0.00    -0.200 N 
ATOM     23  O   UNL A   1      36.498  22.817  22.461  1.00  0.00    -0.240 OA
ATOM     24  N   UNL A   1      38.550  22.691  26.603  1.00  0.00    -0.281 N 
ATOM     25  H   UNL A   1      38.607  22.356  23.977  1.00  0.00     0.316 HD
ATOM     26  H   UNL A   1      38.332  22.880  27.545  1.00  0.00     0.302 HD
ATOM     27  H   UNL A   1      39.451  22.376  26.360  1.00  0.00     0.302 HD
ENDBRANCH  13  17
ENDBRANCH  10  11
ENDBRANCH   7  10
ENDBRANCH   4   7
ENDBRANCH   2   3
ENDBRANCH   1   2
BRANCH   1  28
ATOM     28  C   UNL A   1      33.761  29.011  27.264  1.00  0.00     0.118 C 
BRANCH  28  29
ATOM     29  N   UNL A   1      33.743  30.356  27.816  1.00  0.00    -0.352 N 
ATOM     30  C   UNL A   1      34.682  30.973  28.611  1.00  0.00     0.251 C 
ATOM     31  H   UNL A   1      32.953  30.899  27.593  1.00  0.00     0.163 HD
ATOM     32  O   UNL A   1      34.379  31.988  29.232  1.00  0.00    -0.269 OA
BRANCH  30  33
ATOM     33  C   UNL A   1      36.046  30.409  28.729  1.00  0.00     0.039 A 
ATOM     34  C   UNL A   1      36.902  30.464  27.626  1.00  0.00     0.014 A 
ATOM     35  C   UNL A   1      36.477  29.805  29.915  1.00  0.00     0.014 A 
ATOM     36  C   UNL A   1      38.211  29.984  27.735  1.00  0.00     0.010 A 
ATOM     37  C   UNL A   1      37.802  29.380  30.041  1.00  0.00     0.010 A 
ATOM     38  C   UNL A   1      38.687  29.477  28.956  1.00  0.00    -0.014 A 
BRANCH  38  39
ATOM     39  C   UNL A   1      40.119  29.107  29.128  1.00  0.00     0.031 A 
ATOM     40  C   UNL A   1      40.622  27.747  28.720  1.00  0.00     0.074 A 
ATOM     41  C   UNL A   1      40.958  29.984  29.719  1.00  0.00     0.049 A 
ATOM     42  N   UNL A   1      41.821  27.239  28.858  1.00  0.00    -0.248 NA
ATOM     43  C   UNL A   1      39.655  26.833  28.091  1.00  0.00     0.031 C 
ATOM     44  C   UNL A   1      40.588  31.321  30.194  1.00  0.00     0.029 A 
ATOM     45  N   UNL A   1      42.291  29.881  30.038  1.00  0.00    -0.354 N 
ATOM     46  C   UNL A   1      41.750  25.946  28.352  1.00  0.00     0.074 A 
ATOM     47  C   UNL A   1      40.384  25.735  27.928  1.00  0.00     0.031 C 
ATOM     48  C   UNL A   1      41.667  31.916  30.726  1.00  0.00     0.029 A 
ATOM     49  C   UNL A   1      42.793  30.989  30.682  1.00  0.00     0.049 A 
ATOM     50  H   UNL A   1      42.835  29.088  29.826  1.00  0.00     0.167 HD
ATOM     51  C   UNL A   1      42.736  25.025  28.246  1.00  0.00     0.031 A 
ATOM     52  C   UNL A   1      44.013  31.229  31.204  1.00  0.00     0.031 A 
ATOM     53  C   UNL A   1      44.100  25.245  28.654  1.00  0.00     0.049 A 
ATOM     54  C   UNL A   1      45.078  30.168  31.099  1.00  0.00     0.074 A 
ATOM     55  C   UNL A   1      45.185  24.395  28.506  1.00  0.00     0.029 A 
ATOM     56  N   UNL A   1      44.567  26.377  29.301  1.00  0.00    -0.354 N 
ATOM     57  N   UNL A   1      45.014  28.993  30.520  1.00  0.00    -0.248 NA
ATOM     58  C   UNL A   1      46.377  30.466  31.718  1.00  0.00     0.031 C 
ATOM     59  C   UNL A   1      46.288  24.983  29.132  1.00  0.00     0.029 A 
ATOM     60  C   UNL A   1      45.910  26.226  29.607  1.00  0.00     0.049 A 
ATOM     61  H   UNL A   1      44.024  27.171  29.512  1.00  0.00     0.167 HD
ATOM     62  C   UNL A   1      46.271  28.421  30.691  1.00  0.00     0.074 A 
ATOM     63  C   UNL A   1      47.081  29.390  31.397  1.00  0.00     0.031 C 
ATOM     64  C   UNL A   1      46.709  27.198  30.307  1.00  0.00     0.031 A 
BRANCH  51  65
ATOM     65  C   UNL A   1      42.397  23.672  27.673  1.00  0.00    -0.014 A 
ATOM     66  C   UNL A   1      42.547  23.402  26.301  1.00  0.00     0.010 A 
ATOM     67  C   UNL A   1      42.049  22.621  28.544  1.00  0.00     0.010 A 
ATOM     68  C   UNL A   1      42.346  22.110  25.810  1.00  0.00     0.020 A 
ATOM     69  C   UNL A   1      41.873  21.322  28.059  1.00  0.00     0.020 A 
ATOM     70  C   UNL A   1      42.019  21.075  26.694  1.00  0.00     0.054 A 
BRANCH  70  71
ATOM     71  S   UNL A   1      41.847  19.393  26.035  1.00  0.00     0.124 S 
ATOM     72  O   UNL A   1      42.681  19.452  24.838  1.00  0.00    -0.237 OA
ATOM     73  O   UNL A   1      42.368  18.571  27.124  1.00  0.00    -0.237 OA
ATOM     74  O   UNL A   1      40.414  19.261  25.788  1.00  0.00    -0.744 OA
ENDBRANCH  70  71
ENDBRANCH  51  65
BRANCH  52  75
ATOM     75  C   UNL A   1      44.293  32.509  31.915  1.00  0.00    -0.014 A 
ATOM     76  C   UNL A   1      43.861  32.709  33.238  1.00  0.00     0.010 A 
ATOM     77  C   UNL A   1      44.958  33.557  31.251  1.00  0.00     0.010 A 
ATOM     78  C   UNL A   1      44.052  33.942  33.868  1.00  0.00     0.020 A 
ATOM     79  C   UNL A   1      45.184  34.779  31.890  1.00  0.00     0.020 A 
ATOM     80  C   UNL A   1      44.709  34.970  33.188  1.00  0.00     0.054 A 
BRANCH  80  81
ATOM     81  S   UNL A   1      44.954  36.561  34.027  1.00  0.00     0.124 S 
ATOM     82  O   UNL A   1      45.965  36.222  35.025  1.00  0.00    -0.237 OA
ATOM     83  O   UNL A   1      45.402  37.425  32.938  1.00  0.00    -0.237 OA
ATOM     84  O   UNL A   1      43.629  36.875  34.556  1.00  0.00    -0.744 OA
ENDBRANCH  80  81
ENDBRANCH  52  75
BRANCH  64  85
ATOM     85  C   UNL A   1      48.135  26.836  30.628  1.00  0.00    -0.014 A 
ATOM     86  C   UNL A   1      49.188  27.213  29.776  1.00  0.00     0.010 A 
ATOM     87  C   UNL A   1      48.434  26.170  31.832  1.00  0.00     0.010 A 
ATOM     88  C   UNL A   1      50.511  26.910  30.110  1.00  0.00     0.020 A 
ATOM     89  C   UNL A   1      49.757  25.895  32.185  1.00  0.00     0.020 A 
ATOM     90  C   UNL A   1      50.787  26.258  31.315  1.00  0.00     0.054 A 
BRANCH  90  91
ATOM     91  S   UNL A   1      52.518  25.936  31.752  1.00  0.00     0.124 S 
ATOM     92  O   UNL A   1      52.784  26.979  32.739  1.00  0.00    -0.237 OA
ATOM     93  O   UNL A   1      52.467  24.573  32.275  1.00  0.00    -0.237 OA
ATOM     94  O   UNL A   1      53.230  26.083  30.484  1.00  0.00    -0.744 OA
ENDBRANCH  90  91
ENDBRANCH  64  85
ENDBRANCH  38  39
ENDBRANCH  30  33
ENDBRANCH  28  29
ENDBRANCH   1  28
TORSDOF 17
ENDMDL
MODEL 3
REMARK VINA RESULT:     -11.3      1.558      8.495
REMARK SMILES CC[C@H](Oc1ccccc1/C=C1\SC(N)=[NH+]C1=O)C(=O)NCCCNC(=O)c1ccc(-c2c3nc(c(-c4ccc(S(=O)(=O)[O-])cc4)c4ccc([nH]4)c(-c4ccc(S(=O)(=O)[O-])cc4)c4nc(c(-c5ccc(S(=O)(=O)[O-])cc5)c5ccc2[nH]5)C=C4)C=C3)cc1
REMARK SMILES IDX 23 1 22 2 21 3 19 4 20 5 3 7 2 8 1 9 4 10 5 11 6 12 10 13
REMARK SMILES IDX 7 14 9 15 8 16 11 17 12 18 13 19 17 20 14 21 16 22 18 23
REMARK SMILES IDX 15 24 24 28 25 29 26 30 27 32 28 33 29 34 87 35 30 36 86 37
REMARK SMILES IDX 31 38 32 39 33 40 80 41 34 42 85 43 79 44 81 45 35 46 84 47
REMARK SMILES IDX 78 48 77 49 36 51 66 52 47 53 65 54 48 55 51 56 64 57 82 58
REMARK SMILES IDX 49 59 50 60 63 62 83 63 52 64 37 65 38 66 46 67 39 68 45 69
REMARK SMILES IDX 40 70 41 71 42 72 43 73 44 74 67 75 68 76 76 77 69 78 75 79
REMARK SMILES IDX 70 80 71 81 72 82 73 83 74 84 53 85 54 86 62 87 55 88 61 89
REMARK SMILES IDX 56 90 57 91 58 92 59 93 60 94
REMARK H PARENT 21 6 16 25 15 26 15 27 25 31 81 50 51 61
REMARK Flexibility Score: inf
ROOT
ATOM      1  C   UNL A   1      32.372  28.214  26.233  1.00  0.00     0.042 C 
ENDROOT
BRANCH   1   2
ATOM      2  C   UNL A   1      31.806  29.353  25.384  1.00  0.00     0.118 C 
BRANCH   2   3
ATOM      3  N   UNL A   1      30.978  28.910  24.279  1.00  0.00    -0.353 N 
ATOM      4  C   UNL A   1      31.174  27.968  23.316  1.00  0.00     0.261 C 
ATOM      5  O   UNL A   1      30.242  27.804  22.518  1.00  0.00    -0.271 OA
ATOM      6  H   UNL A   1      30.114  29.376  24.213  1.00  0.00     0.163 HD
BRANCH   4   7
ATOM      7  C   UNL A   1      32.430  27.074  23.246  1.00  0.00     0.261 C 
BRANCH   7   8
ATOM      8  C   UNL A   1      33.442  27.652  22.247  1.00  0.00     0.052 C 
ATOM      9  C   UNL A   1      34.409  28.653  22.867  1.00  0.00     0.008 C 
ENDBRANCH   7   8
BRANCH   7  10
ATOM     10  O   UNL A   1      32.165  25.683  23.373  1.00  0.00    -0.480 OA
BRANCH  10  11
ATOM     11  C   UNL A   1      31.895  24.920  24.462  1.00  0.00     0.127 A 
ATOM     12  C   UNL A   1      30.747  25.004  25.253  1.00  0.00     0.047 A 
ATOM     13  C   UNL A   1      32.829  23.895  24.750  1.00  0.00     0.018 A 
ATOM     14  C   UNL A   1      30.510  24.109  26.301  1.00  0.00     0.004 A 
ATOM     15  C   UNL A   1      32.573  22.994  25.802  1.00  0.00     0.012 A 
ATOM     16  C   UNL A   1      31.420  23.100  26.574  1.00  0.00     0.001 A 
BRANCH  13  17
ATOM     17  C   UNL A   1      34.070  23.635  23.989  1.00  0.00     0.036 C 
ATOM     18  C   UNL A   1      35.311  23.460  24.465  1.00  0.00     0.110 C 
ATOM     19  S   UNL A   1      35.854  23.552  26.083  1.00  0.00     0.006 SA
ATOM     20  C   UNL A   1      36.461  23.046  23.596  1.00  0.00     0.346 C 
ATOM     21  C   UNL A   1      37.421  22.997  25.596  1.00  0.00     0.314 C 
ATOM     22  N   UNL A   1      37.599  22.787  24.341  1.00  0.00    -0.200 N 
ATOM     23  O   UNL A   1      36.383  22.947  22.383  1.00  0.00    -0.240 OA
ATOM     24  N   UNL A   1      38.328  22.819  26.576  1.00  0.00    -0.281 N 
ATOM     25  H   UNL A   1      38.449  22.477  23.953  1.00  0.00     0.316 HD
ATOM     26  H   UNL A   1      38.087  23.011  27.512  1.00  0.00     0.302 HD
ATOM     27  H   UNL A   1      39.233  22.498  26.357  1.00  0.00     0.302 HD
ENDBRANCH  13  17
ENDBRANCH  10  11
ENDBRANCH   7  10
ENDBRANCH   4   7
ENDBRANCH   2   3
ENDBRANCH   1   2
BRANCH   1  28
ATOM     28  C   UNL A   1      33.514  28.609  27.165  1.00  0.00     0.118 C 
BRANCH  28  29
ATOM     29  N   UNL A   1      33.541  30.044  27.402  1.00  0.00    -0.352 N 
ATOM     30  C   UNL A   1      34.480  30.787  28.079  1.00  0.00     0.251 C 
ATOM     31  H   UNL A   1      32.785  30.551  27.029  1.00  0.00     0.163 HD
ATOM     32  O   UNL A   1      34.205  31.927  28.445  1.00  0.00    -0.269 OA
BRANCH  30  33
ATOM     33  C   UNL A   1      35.812  30.213  28.378  1.00  0.00     0.039 A 
ATOM     34  C   UNL A   1      36.790  30.210  27.380  1.00  0.00     0.014 A 
ATOM     35  C   UNL A   1      36.093  29.657  29.630  1.00  0.00     0.014 A 
ATOM     36  C   UNL A   1      38.070  29.719  27.661  1.00  0.00     0.010 A 
ATOM     37  C   UNL A   1      37.387  29.222  29.927  1.00  0.00     0.010 A 
ATOM     38  C   UNL A   1      38.394  29.261  28.949  1.00  0.00    -0.014 A 
BRANCH  38  39
ATOM     39  C   UNL A   1      39.790  28.882  29.301  1.00  0.00     0.031 A 
ATOM     40  C   UNL A   1      40.724  29.878  29.938  1.00  0.00     0.074 A 
ATOM     41  C   UNL A   1      40.238  27.650  28.982  1.00  0.00     0.049 A 
ATOM     42  N   UNL A   1      41.987  29.735  30.250  1.00  0.00    -0.248 NA
ATOM     43  C   UNL A   1      40.178  31.209  30.251  1.00  0.00     0.031 C 
ATOM     44  C   UNL A   1      39.445  26.604  28.329  1.00  0.00     0.029 A 
ATOM     45  N   UNL A   1      41.472  27.069  29.146  1.00  0.00    -0.354 N 
ATOM     46  C   UNL A   1      42.392  30.956  30.778  1.00  0.00     0.074 A 
ATOM     47  C   UNL A   1      41.249  31.839  30.720  1.00  0.00     0.031 C 
ATOM     48  C   UNL A   1      40.205  25.510  28.165  1.00  0.00     0.029 A 
ATOM     49  C   UNL A   1      41.552  25.788  28.649  1.00  0.00     0.049 A 
ATOM     50  H   UNL A   1      42.229  27.527  29.579  1.00  0.00     0.167 HD
ATOM     51  C   UNL A   1      43.604  31.304  31.272  1.00  0.00     0.031 A 
ATOM     52  C   UNL A   1      42.596  24.938  28.563  1.00  0.00     0.031 A 
ATOM     53  C   UNL A   1      44.736  30.416  31.344  1.00  0.00     0.049 A 
ATOM     54  C   UNL A   1      43.940  25.371  29.090  1.00  0.00     0.074 A 
ATOM     55  C   UNL A   1      45.980  30.659  31.906  1.00  0.00     0.029 A 
ATOM     56  N   UNL A   1      44.777  29.131  30.829  1.00  0.00    -0.354 N 
ATOM     57  N   UNL A   1      44.268  26.494  29.683  1.00  0.00    -0.248 NA
ATOM     58  C   UNL A   1      45.051  24.420  28.938  1.00  0.00     0.031 C 
ATOM     59  C   UNL A   1      46.793  29.549  31.663  1.00  0.00     0.029 A 
ATOM     60  C   UNL A   1      46.038  28.589  31.012  1.00  0.00     0.049 A 
ATOM     61  H   UNL A   1      44.021  28.672  30.398  1.00  0.00     0.167 HD
ATOM     62  C   UNL A   1      45.621  26.375  29.988  1.00  0.00     0.074 A 
ATOM     63  C   UNL A   1      46.039  25.063  29.546  1.00  0.00     0.031 C 
ATOM     64  C   UNL A   1      46.444  27.279  30.572  1.00  0.00     0.031 A 
BRANCH  51  65
ATOM     65  C   UNL A   1      43.799  32.712  31.774  1.00  0.00    -0.014 A 
ATOM     66  C   UNL A   1      44.128  33.760  30.896  1.00  0.00     0.010 A 
ATOM     67  C   UNL A   1      43.520  33.010  33.122  1.00  0.00     0.010 A 
ATOM     68  C   UNL A   1      44.182  35.077  31.358  1.00  0.00     0.020 A 
ATOM     69  C   UNL A   1      43.548  34.330  33.582  1.00  0.00     0.020 A 
ATOM     70  C   UNL A   1      43.883  35.355  32.697  1.00  0.00     0.054 A 
BRANCH  70  71
ATOM     71  S   UNL A   1      43.882  37.085  33.245  1.00  0.00     0.124 S 
ATOM     72  O   UNL A   1      45.086  37.140  34.071  1.00  0.00    -0.237 OA
ATOM     73  O   UNL A   1      43.952  37.818  31.984  1.00  0.00    -0.237 OA
ATOM     74  O   UNL A   1      42.624  37.218  33.974  1.00  0.00    -0.744 OA
ENDBRANCH  70  71
ENDBRANCH  51  65
BRANCH  52  75
ATOM     75  C   UNL A   1      42.434  23.606  27.916  1.00  0.00    -0.014 A 
ATOM     76  C   UNL A   1      41.970  22.498  28.649  1.00  0.00     0.010 A 
ATOM     77  C   UNL A   1      42.789  23.427  26.565  1.00  0.00     0.010 A 
ATOM     78  C   UNL A   1      41.903  21.233  28.057  1.00  0.00     0.020 A 
ATOM     79  C   UNL A   1      42.687  22.171  25.960  1.00  0.00     0.020 A 
ATOM     80  C   UNL A   1      42.265  21.078  26.717  1.00  0.00     0.054 A 
BRANCH  80  81
ATOM     81  S   UNL A   1      42.162  19.429  25.966  1.00  0.00     0.124 S 
ATOM     82  O   UNL A   1      42.976  19.593  24.766  1.00  0.00    -0.237 OA
ATOM     83  O   UNL A   1      42.729  18.574  27.006  1.00  0.00    -0.237 OA
ATOM     84  O   UNL A   1      40.730  19.249  25.735  1.00  0.00    -0.744 OA
ENDBRANCH  80  81
ENDBRANCH  52  75
BRANCH  64  85
ATOM     85  C   UNL A   1      47.881  26.880  30.782  1.00  0.00    -0.014 A 
ATOM     86  C   UNL A   1      48.846  27.096  29.782  1.00  0.00     0.010 A 
ATOM     87  C   UNL A   1      48.285  26.345  32.019  1.00  0.00     0.010 A 
ATOM     88  C   UNL A   1      50.185  26.763  30.008  1.00  0.00     0.020 A 
ATOM     89  C   UNL A   1      49.627  26.041  32.260  1.00  0.00     0.020 A 
ATOM     90  C   UNL A   1      50.567  26.243  31.248  1.00  0.00     0.054 A 
BRANCH  90  91
ATOM     91  S   UNL A   1      52.321  25.880  31.534  1.00  0.00     0.124 S 
ATOM     92  O   UNL A   1      52.651  26.801  32.618  1.00  0.00    -0.237 OA
ATOM     93  O   UNL A   1      52.299  24.465  31.896  1.00  0.00    -0.237 OA
ATOM     94  O   UNL A   1      52.952  26.178  30.250  1.00  0.00    -0.744 OA
ENDBRANCH  90  91
ENDBRANCH  64  85
ENDBRANCH  38  39
ENDBRANCH  30  33
ENDBRANCH  28  29
ENDBRANCH   1  28
TORSDOF 17
ENDMDL
