MODEL 1
REMARK VINA RESULT:     -11.9      0.000      0.000
REMARK SMILES O=C(NCCCNC(=O)c1cc(S[C@H]2CCOC3(CCC3)C2)ccn1)c1ccc(-c2c3nc(c(-c4ccc(S(=O)(=O)[O-])cc4)c4ccc([nH]4)c(-c4ccc(S(=O)(=O)[O-])cc4)c4nc(c(-c5ccc(S(=O)(=O)[O-])cc5)c5ccc2[nH]5)C=C4)C=C3)cc1
REMARK SMILES IDX 4 1 3 2 1 3 2 4 26 6 27 7 85 8 28 9 84 10 29 11 30 12 31 13
REMARK SMILES IDX 78 14 32 15 83 16 77 17 79 18 33 19 82 20 76 21 75 22 34 24
REMARK SMILES IDX 64 25 45 26 63 27 46 28 49 29 62 30 80 31 47 32 48 33 61 35
REMARK SMILES IDX 81 36 50 37 35 38 36 39 44 40 37 41 43 42 38 43 39 44 40 45
REMARK SMILES IDX 41 46 42 47 65 48 66 49 74 50 67 51 73 52 68 53 69 54 70 55
REMARK SMILES IDX 71 56 72 57 51 58 52 59 60 60 53 61 59 62 54 63 55 64 56 65
REMARK SMILES IDX 57 66 58 67 5 68 6 69 7 70 8 71 9 73 10 74 11 75 25 76 12 77
REMARK SMILES IDX 24 78 23 79 13 80 14 81 15 82 22 83 16 84 18 85 17 86 19 87
REMARK SMILES IDX 21 88 20 89
REMARK H PARENT 3 5 79 23 49 34 7 72
REMARK Flexibility Score: inf
ROOT
ATOM      1  C   UNL A   1      40.231  23.180  27.222  1.00  0.00     0.118 C 
ENDROOT
BRANCH   1   2
ATOM      2  N   UNL A   1      40.962  23.929  26.206  1.00  0.00    -0.352 N 
ATOM      3  O   UNL A   1      41.736  25.700  25.060  1.00  0.00    -0.269 OA
ATOM      4  C   UNL A   1      41.234  25.274  26.098  1.00  0.00     0.251 C 
ATOM      5  H   UNL A   1      41.322  23.379  25.472  1.00  0.00     0.163 HD
BRANCH   4   6
ATOM      6  C   UNL A   1      40.894  26.211  27.193  1.00  0.00     0.039 A 
ATOM      7  C   UNL A   1      41.502  27.461  27.288  1.00  0.00     0.014 A 
ATOM      8  C   UNL A   1      39.938  25.838  28.144  1.00  0.00     0.014 A 
ATOM      9  C   UNL A   1      41.331  28.231  28.433  1.00  0.00     0.010 A 
ATOM     10  C   UNL A   1      39.673  26.673  29.236  1.00  0.00     0.010 A 
ATOM     11  C   UNL A   1      40.411  27.850  29.423  1.00  0.00    -0.014 A 
BRANCH  11  12
ATOM     12  C   UNL A   1      40.242  28.716  30.623  1.00  0.00     0.031 A 
ATOM     13  C   UNL A   1      41.177  28.608  31.801  1.00  0.00     0.074 A 
ATOM     14  C   UNL A   1      39.274  29.656  30.620  1.00  0.00     0.049 A 
ATOM     15  N   UNL A   1      41.216  29.337  32.889  1.00  0.00    -0.248 NA
ATOM     16  C   UNL A   1      42.191  27.542  31.763  1.00  0.00     0.031 C 
ATOM     17  C   UNL A   1      38.300  29.860  29.544  1.00  0.00     0.029 A 
ATOM     18  N   UNL A   1      38.975  30.640  31.527  1.00  0.00    -0.354 N 
ATOM     19  C   UNL A   1      42.229  28.800  33.676  1.00  0.00     0.074 A 
ATOM     20  C   UNL A   1      42.769  27.671  32.949  1.00  0.00     0.031 C 
ATOM     21  C   UNL A   1      37.564  30.947  29.817  1.00  0.00     0.029 A 
ATOM     22  C   UNL A   1      37.966  31.479  31.113  1.00  0.00     0.049 A 
ATOM     23  H   UNL A   1      39.437  30.737  32.391  1.00  0.00     0.167 HD
ATOM     24  C   UNL A   1      42.674  29.211  34.889  1.00  0.00     0.031 A 
ATOM     25  C   UNL A   1      37.421  32.558  31.706  1.00  0.00     0.031 A 
ATOM     26  C   UNL A   1      42.152  30.348  35.602  1.00  0.00     0.049 A 
ATOM     27  C   UNL A   1      37.941  32.999  33.042  1.00  0.00     0.074 A 
ATOM     28  C   UNL A   1      42.561  30.861  36.820  1.00  0.00     0.029 A 
ATOM     29  N   UNL A   1      41.111  31.150  35.161  1.00  0.00    -0.354 N 
ATOM     30  N   UNL A   1      38.915  32.488  33.755  1.00  0.00    -0.248 NA
ATOM     31  C   UNL A   1      37.287  34.165  33.652  1.00  0.00     0.031 C 
ATOM     32  C   UNL A   1      41.741  31.951  37.135  1.00  0.00     0.029 A 
ATOM     33  C   UNL A   1      40.853  32.145  36.089  1.00  0.00     0.049 A 
ATOM     34  H   UNL A   1      40.626  31.031  34.312  1.00  0.00     0.167 HD
ATOM     35  C   UNL A   1      39.005  33.283  34.891  1.00  0.00     0.074 A 
ATOM     36  C   UNL A   1      37.999  34.317  34.761  1.00  0.00     0.031 C 
ATOM     37  C   UNL A   1      39.847  33.166  35.947  1.00  0.00     0.031 A 
BRANCH  24  38
ATOM     38  C   UNL A   1      43.766  28.402  35.541  1.00  0.00    -0.014 A 
ATOM     39  C   UNL A   1      45.124  28.694  35.319  1.00  0.00     0.010 A 
ATOM     40  C   UNL A   1      43.425  27.356  36.418  1.00  0.00     0.010 A 
ATOM     41  C   UNL A   1      46.120  27.925  35.929  1.00  0.00     0.020 A 
ATOM     42  C   UNL A   1      44.418  26.602  37.048  1.00  0.00     0.020 A 
ATOM     43  C   UNL A   1      45.761  26.878  36.784  1.00  0.00     0.054 A 
BRANCH  43  44
ATOM     44  S   UNL A   1      47.072  25.899  37.567  1.00  0.00     0.124 S 
ATOM     45  O   UNL A   1      46.353  24.685  37.947  1.00  0.00    -0.237 OA
ATOM     46  O   UNL A   1      48.044  25.741  36.489  1.00  0.00    -0.237 OA
ATOM     47  O   UNL A   1      47.512  26.736  38.681  1.00  0.00    -0.744 OA
ENDBRANCH  43  44
ENDBRANCH  24  38
BRANCH  25  48
ATOM     48  C   UNL A   1      36.326  33.298  31.023  1.00  0.00    -0.014 A 
ATOM     49  C   UNL A   1      35.040  33.353  31.589  1.00  0.00     0.010 A 
ATOM     50  C   UNL A   1      36.574  33.977  29.817  1.00  0.00     0.010 A 
ATOM     51  C   UNL A   1      34.020  34.065  30.954  1.00  0.00     0.020 A 
ATOM     52  C   UNL A   1      35.565  34.712  29.194  1.00  0.00     0.020 A 
ATOM     53  C   UNL A   1      34.289  34.743  29.761  1.00  0.00     0.054 A 
BRANCH  53  54
ATOM     54  S   UNL A   1      32.968  35.714  28.984  1.00  0.00     0.124 S 
ATOM     55  O   UNL A   1      32.355  34.733  28.095  1.00  0.00    -0.237 OA
ATOM     56  O   UNL A   1      32.160  36.125  30.129  1.00  0.00    -0.237 OA
ATOM     57  O   UNL A   1      33.690  36.799  28.320  1.00  0.00    -0.744 OA
ENDBRANCH  53  54
ENDBRANCH  25  48
BRANCH  37  58
ATOM     58  C   UNL A   1      39.737  34.206  37.028  1.00  0.00    -0.014 A 
ATOM     59  C   UNL A   1      38.928  34.000  38.159  1.00  0.00     0.010 A 
ATOM     60  C   UNL A   1      40.475  35.399  36.917  1.00  0.00     0.010 A 
ATOM     61  C   UNL A   1      38.827  34.988  39.142  1.00  0.00     0.020 A 
ATOM     62  C   UNL A   1      40.396  36.377  37.909  1.00  0.00     0.020 A 
ATOM     63  C   UNL A   1      39.557  36.174  39.007  1.00  0.00     0.054 A 
BRANCH  63  64
ATOM     64  S   UNL A   1      39.429  37.435  40.305  1.00  0.00     0.124 S 
ATOM     65  O   UNL A   1      38.308  38.242  39.833  1.00  0.00    -0.237 OA
ATOM     66  O   UNL A   1      39.171  36.640  41.504  1.00  0.00    -0.237 OA
ATOM     67  O   UNL A   1      40.732  38.096  40.272  1.00  0.00    -0.744 OA
ENDBRANCH  63  64
ENDBRANCH  37  58
ENDBRANCH  11  12
ENDBRANCH   4   6
ENDBRANCH   1   2
BRANCH   1  68
ATOM     68  C   UNL A   1      40.821  21.805  27.492  1.00  0.00     0.042 C 
BRANCH  68  69
ATOM     69  C   UNL A   1      41.639  21.246  26.341  1.00  0.00     0.118 C 
BRANCH  69  70
ATOM     70  N   UNL A   1      41.638  19.786  26.307  1.00  0.00    -0.351 N 
ATOM     71  C   UNL A   1      42.567  18.895  25.807  1.00  0.00     0.269 C 
ATOM     72  H   UNL A   1      40.841  19.368  26.707  1.00  0.00     0.163 HD
ATOM     73  O   UNL A   1      42.264  17.705  25.746  1.00  0.00    -0.268 OA
BRANCH  71  74
ATOM     74  C   UNL A   1      43.934  19.357  25.425  1.00  0.00     0.129 A 
ATOM     75  C   UNL A   1      44.194  20.717  25.400  1.00  0.00     0.049 A 
ATOM     76  N   UNL A   1      44.877  18.419  25.185  1.00  0.00    -0.251 NA
ATOM     77  C   UNL A   1      45.451  21.177  25.028  1.00  0.00     0.011 A 
ATOM     78  C   UNL A   1      46.105  18.877  24.865  1.00  0.00     0.113 A 
ATOM     79  C   UNL A   1      46.433  20.223  24.762  1.00  0.00     0.035 A 
BRANCH  77  80
ATOM     80  S   UNL A   1      45.862  22.921  24.868  1.00  0.00    -0.122 SA
BRANCH  80  81
ATOM     81  C   UNL A   1      45.928  23.502  26.614  1.00  0.00     0.057 C 
ATOM     82  C   UNL A   1      46.965  24.624  26.763  1.00  0.00     0.043 C 
ATOM     83  C   UNL A   1      44.572  24.018  27.116  1.00  0.00     0.050 C 
ATOM     84  C   UNL A   1      47.094  24.958  28.236  1.00  0.00     0.162 C 
ATOM     85  C   UNL A   1      44.725  24.438  28.587  1.00  0.00     0.069 C 
ATOM     86  O   UNL A   1      45.827  25.376  28.729  1.00  0.00    -0.375 OA
ATOM     87  C   UNL A   1      43.412  24.948  29.255  1.00  0.00     0.035 C 
ATOM     88  C   UNL A   1      44.683  23.278  29.634  1.00  0.00     0.035 C 
ATOM     89  C   UNL A   1      43.858  24.215  30.537  1.00  0.00     0.006 C 
ENDBRANCH  80  81
ENDBRANCH  77  80
ENDBRANCH  71  74
ENDBRANCH  69  70
ENDBRANCH  68  69
ENDBRANCH   1  68
TORSDOF 15
ENDMDL
MODEL 2
REMARK VINA RESULT:     -11.6      6.552     13.663
REMARK SMILES O=C(NCCCNC(=O)c1cc(S[C@H]2CCOC3(CCC3)C2)ccn1)c1ccc(-c2c3nc(c(-c4ccc(S(=O)(=O)[O-])cc4)c4ccc([nH]4)c(-c4ccc(S(=O)(=O)[O-])cc4)c4nc(c(-c5ccc(S(=O)(=O)[O-])cc5)c5ccc2[nH]5)C=C4)C=C3)cc1
REMARK SMILES IDX 4 1 3 2 1 3 2 4 26 6 27 7 85 8 28 9 84 10 29 11 30 12 31 13
REMARK SMILES IDX 78 14 32 15 83 16 77 17 79 18 33 19 82 20 76 21 75 22 34 24
REMARK SMILES IDX 64 25 45 26 63 27 46 28 49 29 62 30 80 31 47 32 48 33 61 35
REMARK SMILES IDX 81 36 50 37 35 38 36 39 44 40 37 41 43 42 38 43 39 44 40 45
REMARK SMILES IDX 41 46 42 47 65 48 66 49 74 50 67 51 73 52 68 53 69 54 70 55
REMARK SMILES IDX 71 56 72 57 51 58 52 59 60 60 53 61 59 62 54 63 55 64 56 65
REMARK SMILES IDX 57 66 58 67 5 68 6 69 7 70 8 71 9 73 10 74 11 75 25 76 12 77
REMARK SMILES IDX 24 78 23 79 13 80 14 81 15 82 22 83 16 84 18 85 17 86 19 87
REMARK SMILES IDX 21 88 20 89
REMARK H PARENT 3 5 79 23 49 34 7 72
REMARK Flexibility Score: inf
ROOT
ATOM      1  C   UNL A   1      35.612  31.084  28.107  1.00  0.00     0.118 C 
ENDROOT
BRANCH   1   2
ATOM      2  N   UNL A   1      35.565  30.539  29.459  1.00  0.00    -0.352 N 
ATOM      3  O   UNL A   1      36.195  29.361  31.266  1.00  0.00    -0.269 OA
ATOM      4  C   UNL A   1      36.518  29.872  30.196  1.00  0.00     0.251 C 
ATOM      5  H   UNL A   1      34.707  30.671  29.924  1.00  0.00     0.163 HD
BRANCH   4   6
ATOM      6  C   UNL A   1      37.905  29.728  29.697  1.00  0.00     0.039 A 
ATOM      7  C   UNL A   1      38.173  29.602  28.336  1.00  0.00     0.014 A 
ATOM      8  C   UNL A   1      38.966  29.728  30.609  1.00  0.00     0.014 A 
ATOM      9  C   UNL A   1      39.449  29.254  27.909  1.00  0.00     0.010 A 
ATOM     10  C   UNL A   1      40.274  29.500  30.163  1.00  0.00     0.010 A 
ATOM     11  C   UNL A   1      40.520  29.201  28.816  1.00  0.00    -0.014 A 
BRANCH  11  12
ATOM     12  C   UNL A   1      41.875  28.846  28.312  1.00  0.00     0.031 A 
ATOM     13  C   UNL A   1      42.998  29.853  28.316  1.00  0.00     0.074 A 
ATOM     14  C   UNL A   1      42.112  27.581  27.906  1.00  0.00     0.049 A 
ATOM     15  N   UNL A   1      44.255  29.685  27.985  1.00  0.00    -0.248 NA
ATOM     16  C   UNL A   1      42.673  31.225  28.737  1.00  0.00     0.031 C 
ATOM     17  C   UNL A   1      41.110  26.513  27.845  1.00  0.00     0.029 A 
ATOM     18  N   UNL A   1      43.273  26.967  27.509  1.00  0.00    -0.354 N 
ATOM     19  C   UNL A   1      44.859  30.930  28.122  1.00  0.00     0.074 A 
ATOM     20  C   UNL A   1      43.827  31.850  28.550  1.00  0.00     0.031 C 
ATOM     21  C   UNL A   1      41.712  25.363  27.511  1.00  0.00     0.029 A 
ATOM     22  C   UNL A   1      43.126  25.621  27.268  1.00  0.00     0.049 A 
ATOM     23  H   UNL A   1      44.128  27.444  27.405  1.00  0.00     0.167 HD
ATOM     24  C   UNL A   1      46.153  31.276  27.917  1.00  0.00     0.031 A 
ATOM     25  C   UNL A   1      44.025  24.692  26.895  1.00  0.00     0.031 A 
ATOM     26  C   UNL A   1      47.184  30.356  27.513  1.00  0.00     0.049 A 
ATOM     27  C   UNL A   1      45.455  25.098  26.687  1.00  0.00     0.074 A 
ATOM     28  C   UNL A   1      48.531  30.606  27.313  1.00  0.00     0.029 A 
ATOM     29  N   UNL A   1      46.987  29.008  27.252  1.00  0.00    -0.354 N 
ATOM     30  N   UNL A   1      46.005  26.277  26.845  1.00  0.00    -0.248 NA
ATOM     31  C   UNL A   1      46.383  24.047  26.251  1.00  0.00     0.031 C 
ATOM     32  C   UNL A   1      49.140  29.418  26.892  1.00  0.00     0.029 A 
ATOM     33  C   UNL A   1      48.182  28.418  26.877  1.00  0.00     0.049 A 
ATOM     34  H   UNL A   1      46.123  28.540  27.322  1.00  0.00     0.167 HD
ATOM     35  C   UNL A   1      47.351  26.106  26.547  1.00  0.00     0.074 A 
ATOM     36  C   UNL A   1      47.533  24.707  26.217  1.00  0.00     0.031 C 
ATOM     37  C   UNL A   1      48.348  27.025  26.549  1.00  0.00     0.031 A 
BRANCH  24  38
ATOM     38  C   UNL A   1      46.524  32.725  28.097  1.00  0.00    -0.014 A 
ATOM     39  C   UNL A   1      46.983  33.216  29.333  1.00  0.00     0.010 A 
ATOM     40  C   UNL A   1      46.444  33.602  27.000  1.00  0.00     0.010 A 
ATOM     41  C   UNL A   1      47.314  34.566  29.478  1.00  0.00     0.020 A 
ATOM     42  C   UNL A   1      46.798  34.948  27.135  1.00  0.00     0.020 A 
ATOM     43  C   UNL A   1      47.212  35.426  28.379  1.00  0.00     0.054 A 
BRANCH  43  44
ATOM     44  S   UNL A   1      47.652  37.174  28.593  1.00  0.00     0.124 S 
ATOM     45  O   UNL A   1      49.063  37.175  28.214  1.00  0.00    -0.237 OA
ATOM     46  O   UNL A   1      46.752  37.849  27.662  1.00  0.00    -0.237 OA
ATOM     47  O   UNL A   1      47.386  37.427  30.006  1.00  0.00    -0.744 OA
ENDBRANCH  43  44
ENDBRANCH  24  38
BRANCH  25  48
ATOM     48  C   UNL A   1      43.592  23.281  26.706  1.00  0.00    -0.014 A 
ATOM     49  C   UNL A   1      43.881  22.598  25.512  1.00  0.00     0.010 A 
ATOM     50  C   UNL A   1      42.911  22.606  27.735  1.00  0.00     0.010 A 
ATOM     51  C   UNL A   1      43.488  21.267  25.347  1.00  0.00     0.020 A 
ATOM     52  C   UNL A   1      42.542  21.268  27.585  1.00  0.00     0.020 A 
ATOM     53  C   UNL A   1      42.824  20.609  26.386  1.00  0.00     0.054 A 
BRANCH  53  54
ATOM     54  S   UNL A   1      42.376  18.863  26.178  1.00  0.00     0.124 S 
ATOM     55  O   UNL A   1      42.619  18.328  27.514  1.00  0.00    -0.237 OA
ATOM     56  O   UNL A   1      40.976  18.940  25.770  1.00  0.00    -0.237 OA
ATOM     57  O   UNL A   1      43.294  18.399  25.139  1.00  0.00    -0.744 OA
ENDBRANCH  53  54
ENDBRANCH  25  48
BRANCH  37  58
ATOM     58  C   UNL A   1      49.730  26.536  26.216  1.00  0.00    -0.014 A 
ATOM     59  C   UNL A   1      50.270  26.698  24.927  1.00  0.00     0.010 A 
ATOM     60  C   UNL A   1      50.507  25.926  27.216  1.00  0.00     0.010 A 
ATOM     61  C   UNL A   1      51.550  26.219  24.636  1.00  0.00     0.020 A 
ATOM     62  C   UNL A   1      51.796  25.470  26.935  1.00  0.00     0.020 A 
ATOM     63  C   UNL A   1      52.303  25.602  25.641  1.00  0.00     0.054 A 
BRANCH  63  64
ATOM     64  S   UNL A   1      53.971  25.007  25.248  1.00  0.00     0.124 S 
ATOM     65  O   UNL A   1      53.723  23.607  24.918  1.00  0.00    -0.237 OA
ATOM     66  O   UNL A   1      54.361  25.858  24.125  1.00  0.00    -0.237 OA
ATOM     67  O   UNL A   1      54.717  25.235  26.483  1.00  0.00    -0.744 OA
ENDBRANCH  63  64
ENDBRANCH  37  58
ENDBRANCH  11  12
ENDBRANCH   4   6
ENDBRANCH   1   2
BRANCH   1  68
ATOM     68  C   UNL A   1      34.429  30.660  27.250  1.00  0.00     0.042 C 
BRANCH  68  69
ATOM     69  C   UNL A   1      34.316  29.159  27.052  1.00  0.00     0.118 C 
BRANCH  69  70
ATOM     70  N   UNL A   1      33.162  28.587  27.739  1.00  0.00    -0.351 N 
ATOM     71  C   UNL A   1      31.936  28.175  27.254  1.00  0.00     0.269 C 
ATOM     72  H   UNL A   1      33.276  28.478  28.711  1.00  0.00     0.163 HD
ATOM     73  O   UNL A   1      31.057  27.877  28.059  1.00  0.00    -0.268 OA
BRANCH  71  74
ATOM     74  C   UNL A   1      31.713  28.019  25.786  1.00  0.00     0.129 A 
ATOM     75  C   UNL A   1      31.532  26.745  25.272  1.00  0.00     0.049 A 
ATOM     76  N   UNL A   1      31.632  29.138  25.034  1.00  0.00    -0.251 NA
ATOM     77  C   UNL A   1      31.342  26.567  23.908  1.00  0.00     0.011 A 
ATOM     78  C   UNL A   1      31.406  28.956  23.716  1.00  0.00     0.113 A 
ATOM     79  C   UNL A   1      31.270  27.711  23.113  1.00  0.00     0.035 A 
BRANCH  77  80
ATOM     80  S   UNL A   1      31.196  24.953  23.129  1.00  0.00    -0.122 SA
BRANCH  80  81
ATOM     81  C   UNL A   1      32.484  23.952  23.984  1.00  0.00     0.057 C 
ATOM     82  C   UNL A   1      32.208  22.454  23.794  1.00  0.00     0.043 C 
ATOM     83  C   UNL A   1      33.901  24.258  23.476  1.00  0.00     0.050 C 
ATOM     84  C   UNL A   1      33.199  21.678  24.641  1.00  0.00     0.162 C 
ATOM     85  C   UNL A   1      34.900  23.405  24.278  1.00  0.00     0.069 C 
ATOM     86  O   UNL A   1      34.519  22.003  24.222  1.00  0.00    -0.375 OA
ATOM     87  C   UNL A   1      36.395  23.638  23.905  1.00  0.00     0.035 C 
ATOM     88  C   UNL A   1      35.277  23.951  25.693  1.00  0.00     0.035 C 
ATOM     89  C   UNL A   1      36.722  23.500  25.406  1.00  0.00     0.006 C 
ENDBRANCH  80  81
ENDBRANCH  77  80
ENDBRANCH  71  74
ENDBRANCH  69  70
ENDBRANCH  68  69
ENDBRANCH   1  68
TORSDOF 15
ENDMDL
MODEL 3
REMARK VINA RESULT:     -11.5      3.382      5.799
REMARK SMILES O=C(NCCCNC(=O)c1cc(S[C@H]2CCOC3(CCC3)C2)ccn1)c1ccc(-c2c3nc(c(-c4ccc(S(=O)(=O)[O-])cc4)c4ccc([nH]4)c(-c4ccc(S(=O)(=O)[O-])cc4)c4nc(c(-c5ccc(S(=O)(=O)[O-])cc5)c5ccc2[nH]5)C=C4)C=C3)cc1
REMARK SMILES IDX 4 1 3 2 1 3 2 4 26 6 27 7 85 8 28 9 84 10 29 11 30 12 31 13
REMARK SMILES IDX 78 14 32 15 83 16 77 17 79 18 33 19 82 20 76 21 75 22 34 24
REMARK SMILES IDX 64 25 45 26 63 27 46 28 49 29 62 30 80 31 47 32 48 33 61 35
REMARK SMILES IDX 81 36 50 37 35 38 36 39 44 40 37 41 43 42 38 43 39 44 40 45
REMARK SMILES IDX 41 46 42 47 65 48 66 49 74 50 67 51 73 52 68 53 69 54 70 55
REMARK SMILES IDX 71 56 72 57 51 58 52 59 60 60 53 61 59 62 54 63 55 64 56 65
REMARK SMILES IDX 57 66 58 67 5 68 6 69 7 70 8 71 9 73 10 74 11 75 25 76 12 77
REMARK SMILES IDX 24 78 23 79 13 80 14 81 15 82 22 83 16 84 18 85 17 86 19 87
REMARK SMILES IDX 21 88 20 89
REMARK H PARENT 3 5 79 23 49 34 7 72
REMARK Flexibility Score: inf
ROOT
ATOM      1  C   UNL A   1      39.603  23.548  26.926  1.00  0.00     0.118 C 
ENDROOT
BRANCH   1   2
ATOM      2  N   UNL A   1      40.470  24.272  26.003  1.00  0.00    -0.352 N 
ATOM      3  O   UNL A   1      41.638  25.981  25.129  1.00  0.00    -0.269 OA
ATOM      4  C   UNL A   1      41.076  25.503  26.112  1.00  0.00     0.251 C 
ATOM      5  H   UNL A   1      40.654  23.799  25.159  1.00  0.00     0.163 HD
BRANCH   4   6
ATOM      6  C   UNL A   1      41.022  26.270  27.378  1.00  0.00     0.039 A 
ATOM      7  C   UNL A   1      40.121  25.936  28.386  1.00  0.00     0.014 A 
ATOM      8  C   UNL A   1      41.897  27.345  27.567  1.00  0.00     0.014 A 
ATOM      9  C   UNL A   1      39.939  26.792  29.466  1.00  0.00     0.010 A 
ATOM     10  C   UNL A   1      41.797  28.137  28.718  1.00  0.00     0.010 A 
ATOM     11  C   UNL A   1      40.776  27.904  29.650  1.00  0.00    -0.014 A 
BRANCH  11  12
ATOM     12  C   UNL A   1      40.560  28.783  30.833  1.00  0.00     0.031 A 
ATOM     13  C   UNL A   1      41.474  28.719  32.030  1.00  0.00     0.074 A 
ATOM     14  C   UNL A   1      39.565  29.694  30.798  1.00  0.00     0.049 A 
ATOM     15  N   UNL A   1      41.472  29.465  33.107  1.00  0.00    -0.248 NA
ATOM     16  C   UNL A   1      42.520  27.683  32.027  1.00  0.00     0.031 C 
ATOM     17  C   UNL A   1      38.605  29.853  29.701  1.00  0.00     0.029 A 
ATOM     18  N   UNL A   1      39.221  30.683  31.684  1.00  0.00    -0.354 N 
ATOM     19  C   UNL A   1      42.485  28.970  33.920  1.00  0.00     0.074 A 
ATOM     20  C   UNL A   1      43.071  27.846  33.221  1.00  0.00     0.031 C 
ATOM     21  C   UNL A   1      37.834  30.923  29.944  1.00  0.00     0.029 A 
ATOM     22  C   UNL A   1      38.196  31.485  31.239  1.00  0.00     0.049 A 
ATOM     23  H   UNL A   1      39.664  30.806  32.555  1.00  0.00     0.167 HD
ATOM     24  C   UNL A   1      42.895  29.411  35.135  1.00  0.00     0.031 A 
ATOM     25  C   UNL A   1      37.609  32.556  31.805  1.00  0.00     0.031 A 
ATOM     26  C   UNL A   1      42.327  30.543  35.820  1.00  0.00     0.049 A 
ATOM     27  C   UNL A   1      38.090  33.033  33.144  1.00  0.00     0.074 A 
ATOM     28  C   UNL A   1      42.698  31.086  37.038  1.00  0.00     0.029 A 
ATOM     29  N   UNL A   1      41.272  31.308  35.348  1.00  0.00    -0.354 N 
ATOM     30  N   UNL A   1      39.066  32.561  33.882  1.00  0.00    -0.248 NA
ATOM     31  C   UNL A   1      37.392  34.187  33.723  1.00  0.00     0.031 C 
ATOM     32  C   UNL A   1      41.842  32.156  37.321  1.00  0.00     0.029 A 
ATOM     33  C   UNL A   1      40.969  32.308  36.256  1.00  0.00     0.049 A 
ATOM     34  H   UNL A   1      40.807  31.162  34.493  1.00  0.00     0.167 HD
ATOM     35  C   UNL A   1      39.112  33.374  35.007  1.00  0.00     0.074 A 
ATOM     36  C   UNL A   1      38.078  34.377  34.843  1.00  0.00     0.031 C 
ATOM     37  C   UNL A   1      39.937  33.298  36.080  1.00  0.00     0.031 A 
BRANCH  24  38
ATOM     38  C   UNL A   1      43.998  28.644  35.819  1.00  0.00    -0.014 A 
ATOM     39  C   UNL A   1      45.349  28.994  35.645  1.00  0.00     0.010 A 
ATOM     40  C   UNL A   1      43.671  27.579  36.678  1.00  0.00     0.010 A 
ATOM     41  C   UNL A   1      46.355  28.263  36.284  1.00  0.00     0.020 A 
ATOM     42  C   UNL A   1      44.673  26.862  37.338  1.00  0.00     0.020 A 
ATOM     43  C   UNL A   1      46.011  27.196  37.121  1.00  0.00     0.054 A 
BRANCH  43  44
ATOM     44  S   UNL A   1      47.336  26.267  37.943  1.00  0.00     0.124 S 
ATOM     45  O   UNL A   1      46.751  24.931  38.036  1.00  0.00    -0.237 OA
ATOM     46  O   UNL A   1      48.450  26.399  37.008  1.00  0.00    -0.237 OA
ATOM     47  O   UNL A   1      47.508  26.962  39.216  1.00  0.00    -0.744 OA
ENDBRANCH  43  44
ENDBRANCH  24  38
BRANCH  25  48
ATOM     48  C   UNL A   1      36.506  33.254  31.091  1.00  0.00    -0.014 A 
ATOM     49  C   UNL A   1      35.233  33.363  31.677  1.00  0.00     0.010 A 
ATOM     50  C   UNL A   1      36.735  33.839  29.832  1.00  0.00     0.010 A 
ATOM     51  C   UNL A   1      34.205  34.036  31.011  1.00  0.00     0.020 A 
ATOM     52  C   UNL A   1      35.719  34.536  29.177  1.00  0.00     0.020 A 
ATOM     53  C   UNL A   1      34.455  34.621  29.766  1.00  0.00     0.054 A 
BRANCH  53  54
ATOM     54  S   UNL A   1      33.127  35.544  28.945  1.00  0.00     0.124 S 
ATOM     55  O   UNL A   1      32.489  34.506  28.142  1.00  0.00    -0.237 OA
ATOM     56  O   UNL A   1      32.344  36.045  30.072  1.00  0.00    -0.237 OA
ATOM     57  O   UNL A   1      33.843  36.571  28.190  1.00  0.00    -0.744 OA
ENDBRANCH  53  54
ENDBRANCH  25  48
BRANCH  37  58
ATOM     58  C   UNL A   1      39.777  34.350  37.142  1.00  0.00    -0.014 A 
ATOM     59  C   UNL A   1      39.007  34.112  38.295  1.00  0.00     0.010 A 
ATOM     60  C   UNL A   1      40.427  35.588  36.993  1.00  0.00     0.010 A 
ATOM     61  C   UNL A   1      38.857  35.112  39.260  1.00  0.00     0.020 A 
ATOM     62  C   UNL A   1      40.301  36.579  37.967  1.00  0.00     0.020 A 
ATOM     63  C   UNL A   1      39.500  36.341  39.087  1.00  0.00     0.054 A 
BRANCH  63  64
ATOM     64  S   UNL A   1      39.312  37.618  40.362  1.00  0.00     0.124 S 
ATOM     65  O   UNL A   1      38.258  38.456  39.798  1.00  0.00    -0.237 OA
ATOM     66  O   UNL A   1      38.934  36.842  41.542  1.00  0.00    -0.237 OA
ATOM     67  O   UNL A   1      40.634  38.236  40.428  1.00  0.00    -0.744 OA
ENDBRANCH  63  64
ENDBRANCH  37  58
ENDBRANCH  11  12
ENDBRANCH   4   6
ENDBRANCH   1   2
BRANCH   1  68
ATOM     68  C   UNL A   1      38.130  23.640  26.561  1.00  0.00     0.042 C 
BRANCH  68  69
ATOM     69  C   UNL A   1      37.622  22.466  25.743  1.00  0.00     0.118 C 
BRANCH  69  70
ATOM     70  N   UNL A   1      37.385  22.815  24.345  1.00  0.00    -0.351 N 
ATOM     71  C   UNL A   1      36.222  22.812  23.600  1.00  0.00     0.269 C 
ATOM     72  H   UNL A   1      38.188  23.098  23.852  1.00  0.00     0.163 HD
ATOM     73  O   UNL A   1      36.303  22.991  22.386  1.00  0.00    -0.268 OA
BRANCH  71  74
ATOM     74  C   UNL A   1      34.893  22.676  24.265  1.00  0.00     0.129 A 
ATOM     75  C   UNL A   1      33.998  23.731  24.187  1.00  0.00     0.049 A 
ATOM     76  N   UNL A   1      34.596  21.498  24.856  1.00  0.00    -0.251 NA
ATOM     77  C   UNL A   1      32.762  23.641  24.813  1.00  0.00     0.011 A 
ATOM     78  C   UNL A   1      33.377  21.406  25.425  1.00  0.00     0.113 A 
ATOM     79  C   UNL A   1      32.445  22.437  25.442  1.00  0.00     0.035 A 
BRANCH  77  80
ATOM     80  S   UNL A   1      31.571  24.988  24.857  1.00  0.00    -0.122 SA
BRANCH  80  81
ATOM     81  C   UNL A   1      32.633  26.486  24.998  1.00  0.00     0.057 C 
ATOM     82  C   UNL A   1      32.847  27.119  23.616  1.00  0.00     0.043 C 
ATOM     83  C   UNL A   1      32.036  27.547  25.935  1.00  0.00     0.050 C 
ATOM     84  C   UNL A   1      33.848  28.249  23.761  1.00  0.00     0.162 C 
ATOM     85  C   UNL A   1      33.013  28.732  26.014  1.00  0.00     0.069 C 
ATOM     86  O   UNL A   1      33.334  29.207  24.678  1.00  0.00    -0.375 OA
ATOM     87  C   UNL A   1      32.563  29.879  26.969  1.00  0.00     0.035 C 
ATOM     88  C   UNL A   1      34.228  28.548  26.979  1.00  0.00     0.035 C 
ATOM     89  C   UNL A   1      34.040  30.022  27.386  1.00  0.00     0.006 C 
ENDBRANCH  80  81
ENDBRANCH  77  80
ENDBRANCH  71  74
ENDBRANCH  69  70
ENDBRANCH  68  69
ENDBRANCH   1  68
TORSDOF 15
ENDMDL
