MODEL 1
REMARK VINA RESULT:     -10.3      0.000      0.000
REMARK SMILES C[C@@H](C(=O)NCCCNC(=O)c1ccc(-c2c3nc(c(-c4ccc(S(=O)(=O)[O-])cc4)c4ccc([nH]4)c(-c4ccc(S(=O)(=O)[O-])cc4)c4nc(c(-c5ccc(S(=O)(=O)[O-])cc5)c5ccc2[nH]5)C=C4)C=C3)cc1)N1C(=O)c2nccnc2C1=O
REMARK SMILES IDX 8 1 7 2 6 3 5 4 3 5 4 6 2 8 1 9 72 10 73 11 81 12 74 13
REMARK SMILES IDX 75 14 80 15 82 16 76 17 79 18 77 19 78 20 9 21 10 22 11 24
REMARK SMILES IDX 12 25 13 26 71 27 14 28 70 29 15 30 16 31 17 32 64 33 18 34
REMARK SMILES IDX 69 35 63 36 65 37 19 38 68 39 62 40 61 41 20 43 50 44 31 45
REMARK SMILES IDX 49 46 32 47 35 48 48 49 66 50 33 51 34 52 47 54 67 55 36 56
REMARK SMILES IDX 21 57 22 58 30 59 23 60 29 61 24 62 25 63 26 64 27 65 28 66
REMARK SMILES IDX 51 67 52 68 60 69 53 70 59 71 54 72 55 73 56 74 57 75 58 76
REMARK SMILES IDX 37 77 38 78 46 79 39 80 45 81 40 82 41 83 42 84 43 85 44 86
REMARK H PARENT 5 7 9 23 65 42 35 53
REMARK Flexibility Score: inf
ROOT
ATOM      1  C   UNL A   1      34.663  32.835  27.880  1.00  0.00     0.118 C 
ENDROOT
BRANCH   1   2
ATOM      2  C   UNL A   1      33.801  34.033  28.260  1.00  0.00     0.042 C 
BRANCH   2   3
ATOM      3  C   UNL A   1      34.135  34.638  29.620  1.00  0.00     0.117 C 
BRANCH   3   4
ATOM      4  N   UNL A   1      33.815  33.740  30.715  1.00  0.00    -0.354 N 
ATOM      5  C   UNL A   1      34.632  33.203  31.670  1.00  0.00     0.243 C 
ATOM      6  O   UNL A   1      34.105  32.530  32.560  1.00  0.00    -0.273 OA
ATOM      7  H   UNL A   1      32.867  33.479  30.779  1.00  0.00     0.163 HD
BRANCH   5   8
ATOM      8  C   UNL A   1      36.150  33.463  31.620  1.00  0.00     0.180 C 
ATOM      9  C   UNL A   1      36.838  32.773  30.448  1.00  0.00     0.042 C 
BRANCH   8  10
ATOM     10  N   UNL A   1      36.724  33.085  32.911  1.00  0.00    -0.259 N 
ATOM     11  C   UNL A   1      37.060  31.808  33.295  1.00  0.00     0.282 C 
ATOM     12  C   UNL A   1      36.888  33.976  33.941  1.00  0.00     0.282 C 
ATOM     13  O   UNL A   1      37.019  30.782  32.647  1.00  0.00    -0.267 OA
ATOM     14  C   UNL A   1      37.539  31.908  34.673  1.00  0.00     0.160 A 
ATOM     15  C   UNL A   1      37.437  33.217  35.062  1.00  0.00     0.160 A 
ATOM     16  O   UNL A   1      36.651  35.172  33.940  1.00  0.00    -0.267 OA
ATOM     17  N   UNL A   1      38.091  30.934  35.425  1.00  0.00    -0.247 NA
ATOM     18  N   UNL A   1      37.874  33.694  36.246  1.00  0.00    -0.247 NA
ATOM     19  C   UNL A   1      38.528  31.386  36.629  1.00  0.00     0.132 A 
ATOM     20  C   UNL A   1      38.423  32.727  37.027  1.00  0.00     0.132 A 
ENDBRANCH   8  10
ENDBRANCH   5   8
ENDBRANCH   3   4
ENDBRANCH   2   3
ENDBRANCH   1   2
BRANCH   1  21
ATOM     21  N   UNL A   1      33.896  31.605  27.766  1.00  0.00    -0.352 N 
ATOM     22  C   UNL A   1      34.314  30.296  27.755  1.00  0.00     0.251 C 
ATOM     23  H   UNL A   1      32.923  31.730  27.683  1.00  0.00     0.163 HD
ATOM     24  O   UNL A   1      33.505  29.417  27.467  1.00  0.00    -0.269 OA
BRANCH  22  25
ATOM     25  C   UNL A   1      35.717  29.937  28.069  1.00  0.00     0.039 A 
ATOM     26  C   UNL A   1      36.025  29.504  29.362  1.00  0.00     0.014 A 
ATOM     27  C   UNL A   1      36.736  30.068  27.122  1.00  0.00     0.014 A 
ATOM     28  C   UNL A   1      37.342  29.169  29.692  1.00  0.00     0.010 A 
ATOM     29  C   UNL A   1      38.030  29.649  27.425  1.00  0.00     0.010 A 
ATOM     30  C   UNL A   1      38.354  29.217  28.719  1.00  0.00    -0.014 A 
BRANCH  30  31
ATOM     31  C   UNL A   1      39.760  28.864  29.051  1.00  0.00     0.031 A 
ATOM     32  C   UNL A   1      40.655  29.876  29.723  1.00  0.00     0.074 A 
ATOM     33  C   UNL A   1      40.250  27.654  28.717  1.00  0.00     0.049 A 
ATOM     34  N   UNL A   1      41.915  29.770  30.061  1.00  0.00    -0.248 NA
ATOM     35  C   UNL A   1      40.063  31.188  30.035  1.00  0.00     0.031 C 
ATOM     36  C   UNL A   1      39.501  26.596  28.035  1.00  0.00     0.029 A 
ATOM     37  N   UNL A   1      41.496  27.107  28.905  1.00  0.00    -0.354 N 
ATOM     38  C   UNL A   1      42.268  31.001  30.605  1.00  0.00     0.074 A 
ATOM     39  C   UNL A   1      41.108  31.856  30.499  1.00  0.00     0.031 C 
ATOM     40  C   UNL A   1      40.292  25.520  27.890  1.00  0.00     0.029 A 
ATOM     41  C   UNL A   1      41.615  25.823  28.428  1.00  0.00     0.049 A 
ATOM     42  H   UNL A   1      42.235  27.590  29.341  1.00  0.00     0.167 HD
ATOM     43  C   UNL A   1      43.441  31.379  31.165  1.00  0.00     0.031 A 
ATOM     44  C   UNL A   1      42.670  24.984  28.418  1.00  0.00     0.031 A 
ATOM     45  C   UNL A   1      44.594  30.523  31.278  1.00  0.00     0.049 A 
ATOM     46  C   UNL A   1      43.968  25.431  29.035  1.00  0.00     0.074 A 
ATOM     47  C   UNL A   1      45.814  30.797  31.869  1.00  0.00     0.029 A 
ATOM     48  N   UNL A   1      44.669  29.228  30.788  1.00  0.00    -0.354 N 
ATOM     49  N   UNL A   1      44.264  26.580  29.596  1.00  0.00    -0.248 NA
ATOM     50  C   UNL A   1      45.071  24.460  29.035  1.00  0.00     0.031 C 
ATOM     51  C   UNL A   1      46.648  29.691  31.684  1.00  0.00     0.029 A 
ATOM     52  C   UNL A   1      45.922  28.698  31.046  1.00  0.00     0.049 A 
ATOM     53  H   UNL A   1      43.939  28.755  30.325  1.00  0.00     0.167 HD
ATOM     54  C   UNL A   1      45.572  26.453  30.054  1.00  0.00     0.074 A 
ATOM     55  C   UNL A   1      46.005  25.113  29.712  1.00  0.00     0.031 C 
ATOM     56  C   UNL A   1      46.341  27.361  30.706  1.00  0.00     0.031 A 
BRANCH  43  57
ATOM     57  C   UNL A   1      43.541  32.789  31.692  1.00  0.00    -0.014 A 
ATOM     58  C   UNL A   1      43.329  33.077  33.053  1.00  0.00     0.010 A 
ATOM     59  C   UNL A   1      43.891  33.838  30.822  1.00  0.00     0.010 A 
ATOM     60  C   UNL A   1      43.419  34.391  33.524  1.00  0.00     0.020 A 
ATOM     61  C   UNL A   1      44.015  35.148  31.294  1.00  0.00     0.020 A 
ATOM     62  C   UNL A   1      43.761  35.418  32.640  1.00  0.00     0.054 A 
BRANCH  62  63
ATOM     63  S   UNL A   1      43.893  37.108  33.284  1.00  0.00     0.124 S 
ATOM     64  O   UNL A   1      43.929  37.897  32.054  1.00  0.00    -0.237 OA
ATOM     65  O   UNL A   1      42.675  37.242  34.079  1.00  0.00    -0.237 OA
ATOM     66  O   UNL A   1      45.137  37.093  34.049  1.00  0.00    -0.744 OA
ENDBRANCH  62  63
ENDBRANCH  43  57
BRANCH  44  67
ATOM     67  C   UNL A   1      42.535  23.625  27.823  1.00  0.00    -0.014 A 
ATOM     68  C   UNL A   1      42.154  22.527  28.616  1.00  0.00     0.010 A 
ATOM     69  C   UNL A   1      42.787  23.421  26.453  1.00  0.00     0.010 A 
ATOM     70  C   UNL A   1      42.050  21.250  28.056  1.00  0.00     0.020 A 
ATOM     71  C   UNL A   1      42.652  22.152  25.884  1.00  0.00     0.020 A 
ATOM     72  C   UNL A   1      42.297  21.071  26.693  1.00  0.00     0.054 A 
BRANCH  72  73
ATOM     73  S   UNL A   1      42.111  19.412  25.980  1.00  0.00     0.124 S 
ATOM     74  O   UNL A   1      40.670  19.333  25.767  1.00  0.00    -0.237 OA
ATOM     75  O   UNL A   1      42.928  19.497  24.772  1.00  0.00    -0.237 OA
ATOM     76  O   UNL A   1      42.640  18.532  27.020  1.00  0.00    -0.744 OA
ENDBRANCH  72  73
ENDBRANCH  44  67
BRANCH  56  77
ATOM     77  C   UNL A   1      47.710  26.918  31.156  1.00  0.00    -0.014 A 
ATOM     78  C   UNL A   1      47.917  26.286  32.394  1.00  0.00     0.010 A 
ATOM     79  C   UNL A   1      48.807  27.106  30.293  1.00  0.00     0.010 A 
ATOM     80  C   UNL A   1      49.203  25.895  32.781  1.00  0.00     0.020 A 
ATOM     81  C   UNL A   1      50.087  26.686  30.661  1.00  0.00     0.020 A 
ATOM     82  C   UNL A   1      50.279  26.099  31.914  1.00  0.00     0.054 A 
BRANCH  82  83
ATOM     83  S   UNL A   1      51.934  25.565  32.429  1.00  0.00     0.124 S 
ATOM     84  O   UNL A   1      52.740  25.899  31.258  1.00  0.00    -0.237 OA
ATOM     85  O   UNL A   1      52.179  26.382  33.615  1.00  0.00    -0.237 OA
ATOM     86  O   UNL A   1      51.773  24.136  32.687  1.00  0.00    -0.744 OA
ENDBRANCH  82  83
ENDBRANCH  56  77
ENDBRANCH  30  31
ENDBRANCH  22  25
ENDBRANCH   1  21
TORSDOF 14
ENDMDL
MODEL 2
REMARK VINA RESULT:     -10.2      1.163      2.096
REMARK SMILES C[C@@H](C(=O)NCCCNC(=O)c1ccc(-c2c3nc(c(-c4ccc(S(=O)(=O)[O-])cc4)c4ccc([nH]4)c(-c4ccc(S(=O)(=O)[O-])cc4)c4nc(c(-c5ccc(S(=O)(=O)[O-])cc5)c5ccc2[nH]5)C=C4)C=C3)cc1)N1C(=O)c2nccnc2C1=O
REMARK SMILES IDX 8 1 7 2 6 3 5 4 3 5 4 6 2 8 1 9 72 10 73 11 81 12 74 13
REMARK SMILES IDX 75 14 80 15 82 16 76 17 79 18 77 19 78 20 9 21 10 22 11 24
REMARK SMILES IDX 12 25 13 26 71 27 14 28 70 29 15 30 16 31 17 32 64 33 18 34
REMARK SMILES IDX 69 35 63 36 65 37 19 38 68 39 62 40 61 41 20 43 50 44 31 45
REMARK SMILES IDX 49 46 32 47 35 48 48 49 66 50 33 51 34 52 47 54 67 55 36 56
REMARK SMILES IDX 21 57 22 58 30 59 23 60 29 61 24 62 25 63 26 64 27 65 28 66
REMARK SMILES IDX 51 67 52 68 60 69 53 70 59 71 54 72 55 73 56 74 57 75 58 76
REMARK SMILES IDX 37 77 38 78 46 79 39 80 45 81 40 82 41 83 42 84 43 85 44 86
REMARK H PARENT 5 7 9 23 65 42 35 53
REMARK Flexibility Score: inf
ROOT
ATOM      1  C   UNL A   1      34.704  32.680  28.494  1.00  0.00     0.118 C 
ENDROOT
BRANCH   1   2
ATOM      2  C   UNL A   1      34.309  33.085  29.909  1.00  0.00     0.042 C 
BRANCH   2   3
ATOM      3  C   UNL A   1      35.283  32.619  30.987  1.00  0.00     0.117 C 
BRANCH   3   4
ATOM      4  N   UNL A   1      36.260  33.640  31.323  1.00  0.00    -0.354 N 
ATOM      5  C   UNL A   1      37.010  33.789  32.456  1.00  0.00     0.243 C 
ATOM      6  O   UNL A   1      37.847  34.696  32.472  1.00  0.00    -0.273 OA
ATOM      7  H   UNL A   1      36.404  34.326  30.632  1.00  0.00     0.163 HD
BRANCH   5   8
ATOM      8  C   UNL A   1      36.807  32.831  33.646  1.00  0.00     0.180 C 
ATOM      9  C   UNL A   1      36.748  33.549  34.990  1.00  0.00     0.042 C 
BRANCH   8  10
ATOM     10  N   UNL A   1      37.855  31.811  33.599  1.00  0.00    -0.259 N 
ATOM     11  C   UNL A   1      39.182  32.012  33.899  1.00  0.00     0.282 C 
ATOM     12  C   UNL A   1      37.634  30.541  33.131  1.00  0.00     0.282 C 
ATOM     13  O   UNL A   1      39.726  33.015  34.316  1.00  0.00    -0.267 OA
ATOM     14  C   UNL A   1      39.853  30.735  33.659  1.00  0.00     0.160 A 
ATOM     15  C   UNL A   1      38.918  29.847  33.198  1.00  0.00     0.160 A 
ATOM     16  O   UNL A   1      36.583  30.057  32.750  1.00  0.00    -0.267 OA
ATOM     17  N   UNL A   1      41.134  30.415  33.931  1.00  0.00    -0.247 NA
ATOM     18  N   UNL A   1      39.164  28.542  32.956  1.00  0.00    -0.247 NA
ATOM     19  C   UNL A   1      41.411  29.108  33.684  1.00  0.00     0.132 A 
ATOM     20  C   UNL A   1      40.455  28.199  33.211  1.00  0.00     0.132 A 
ENDBRANCH   8  10
ENDBRANCH   5   8
ENDBRANCH   3   4
ENDBRANCH   2   3
ENDBRANCH   1   2
BRANCH   1  21
ATOM     21  N   UNL A   1      34.021  31.477  28.043  1.00  0.00    -0.352 N 
ATOM     22  C   UNL A   1      34.513  30.222  27.781  1.00  0.00     0.251 C 
ATOM     23  H   UNL A   1      33.051  31.579  27.904  1.00  0.00     0.163 HD
ATOM     24  O   UNL A   1      33.782  29.399  27.235  1.00  0.00    -0.269 OA
BRANCH  22  25
ATOM     25  C   UNL A   1      35.906  29.857  28.130  1.00  0.00     0.039 A 
ATOM     26  C   UNL A   1      36.899  29.989  27.155  1.00  0.00     0.014 A 
ATOM     27  C   UNL A   1      36.235  29.341  29.387  1.00  0.00     0.014 A 
ATOM     28  C   UNL A   1      38.221  29.642  27.452  1.00  0.00     0.010 A 
ATOM     29  C   UNL A   1      37.565  29.080  29.710  1.00  0.00     0.010 A 
ATOM     30  C   UNL A   1      38.571  29.204  28.740  1.00  0.00    -0.014 A 
BRANCH  30  31
ATOM     31  C   UNL A   1      39.971  28.830  29.074  1.00  0.00     0.031 A 
ATOM     32  C   UNL A   1      40.879  29.827  29.750  1.00  0.00     0.074 A 
ATOM     33  C   UNL A   1      40.444  27.614  28.737  1.00  0.00     0.049 A 
ATOM     34  N   UNL A   1      42.137  29.701  30.090  1.00  0.00    -0.248 NA
ATOM     35  C   UNL A   1      40.306  31.147  30.065  1.00  0.00     0.031 C 
ATOM     36  C   UNL A   1      39.680  26.569  28.050  1.00  0.00     0.029 A 
ATOM     37  N   UNL A   1      41.681  27.048  28.926  1.00  0.00    -0.354 N 
ATOM     38  C   UNL A   1      42.507  30.925  30.638  1.00  0.00     0.074 A 
ATOM     39  C   UNL A   1      41.360  31.798  30.532  1.00  0.00     0.031 C 
ATOM     40  C   UNL A   1      40.456  25.482  27.905  1.00  0.00     0.029 A 
ATOM     41  C   UNL A   1      41.781  25.764  28.446  1.00  0.00     0.049 A 
ATOM     42  H   UNL A   1      42.426  27.519  29.365  1.00  0.00     0.167 HD
ATOM     43  C   UNL A   1      43.684  31.285  31.201  1.00  0.00     0.031 A 
ATOM     44  C   UNL A   1      42.824  24.909  28.435  1.00  0.00     0.031 A 
ATOM     45  C   UNL A   1      44.824  30.412  31.314  1.00  0.00     0.049 A 
ATOM     46  C   UNL A   1      44.128  25.336  29.055  1.00  0.00     0.074 A 
ATOM     47  C   UNL A   1      46.047  30.667  31.908  1.00  0.00     0.029 A 
ATOM     48  N   UNL A   1      44.881  29.117  30.820  1.00  0.00    -0.354 N 
ATOM     49  N   UNL A   1      44.439  26.479  29.621  1.00  0.00    -0.248 NA
ATOM     50  C   UNL A   1      45.216  24.348  29.055  1.00  0.00     0.031 C 
ATOM     51  C   UNL A   1      46.865  29.548  31.721  1.00  0.00     0.029 A 
ATOM     52  C   UNL A   1      46.126  28.568  31.079  1.00  0.00     0.049 A 
ATOM     53  H   UNL A   1      44.145  28.656  30.355  1.00  0.00     0.167 HD
ATOM     54  C   UNL A   1      45.744  26.331  30.080  1.00  0.00     0.074 A 
ATOM     55  C   UNL A   1      46.158  24.986  29.736  1.00  0.00     0.031 C 
ATOM     56  C   UNL A   1      46.526  27.226  30.737  1.00  0.00     0.031 A 
BRANCH  43  57
ATOM     57  C   UNL A   1      43.804  32.692  31.732  1.00  0.00    -0.014 A 
ATOM     58  C   UNL A   1      43.468  33.002  33.063  1.00  0.00     0.010 A 
ATOM     59  C   UNL A   1      44.297  33.714  30.901  1.00  0.00     0.010 A 
ATOM     60  C   UNL A   1      43.578  34.312  33.538  1.00  0.00     0.020 A 
ATOM     61  C   UNL A   1      44.442  35.020  31.380  1.00  0.00     0.020 A 
ATOM     62  C   UNL A   1      44.064  35.313  32.692  1.00  0.00     0.054 A 
BRANCH  62  63
ATOM     63  S   UNL A   1      44.218  36.999  33.341  1.00  0.00     0.124 S 
ATOM     64  O   UNL A   1      43.002  37.126  34.141  1.00  0.00    -0.237 OA
ATOM     65  O   UNL A   1      45.464  36.936  34.100  1.00  0.00    -0.237 OA
ATOM     66  O   UNL A   1      44.262  37.831  32.142  1.00  0.00    -0.744 OA
ENDBRANCH  62  63
ENDBRANCH  43  57
BRANCH  44  67
ATOM     67  C   UNL A   1      42.671  23.554  27.836  1.00  0.00    -0.014 A 
ATOM     68  C   UNL A   1      43.036  23.314  26.498  1.00  0.00     0.010 A 
ATOM     69  C   UNL A   1      42.158  22.492  28.603  1.00  0.00     0.010 A 
ATOM     70  C   UNL A   1      42.869  22.046  25.934  1.00  0.00     0.020 A 
ATOM     71  C   UNL A   1      42.021  21.214  28.052  1.00  0.00     0.020 A 
ATOM     72  C   UNL A   1      42.366  21.003  26.715  1.00  0.00     0.054 A 
BRANCH  72  73
ATOM     73  S   UNL A   1      42.202  19.355  25.975  1.00  0.00     0.124 S 
ATOM     74  O   UNL A   1      40.763  19.263  25.752  1.00  0.00    -0.237 OA
ATOM     75  O   UNL A   1      43.024  19.468  24.772  1.00  0.00    -0.237 OA
ATOM     76  O   UNL A   1      42.735  18.463  27.003  1.00  0.00    -0.744 OA
ENDBRANCH  72  73
ENDBRANCH  44  67
BRANCH  56  77
ATOM     77  C   UNL A   1      47.887  26.761  31.188  1.00  0.00    -0.014 A 
ATOM     78  C   UNL A   1      48.105  26.238  32.474  1.00  0.00     0.010 A 
ATOM     79  C   UNL A   1      48.963  26.816  30.280  1.00  0.00     0.010 A 
ATOM     80  C   UNL A   1      49.384  25.824  32.860  1.00  0.00     0.020 A 
ATOM     81  C   UNL A   1      50.234  26.371  30.651  1.00  0.00     0.020 A 
ATOM     82  C   UNL A   1      50.440  25.895  31.947  1.00  0.00     0.054 A 
BRANCH  82  83
ATOM     83  S   UNL A   1      52.085  25.332  32.464  1.00  0.00     0.124 S 
ATOM     84  O   UNL A   1      52.162  25.836  33.833  1.00  0.00    -0.237 OA
ATOM     85  O   UNL A   1      51.981  23.880  32.333  1.00  0.00    -0.237 OA
ATOM     86  O   UNL A   1      52.988  25.974  31.512  1.00  0.00    -0.744 OA
ENDBRANCH  82  83
ENDBRANCH  56  77
ENDBRANCH  30  31
ENDBRANCH  22  25
ENDBRANCH   1  21
TORSDOF 14
ENDMDL
MODEL 3
REMARK VINA RESULT:     -10.2      4.181      7.074
REMARK SMILES C[C@@H](C(=O)NCCCNC(=O)c1ccc(-c2c3nc(c(-c4ccc(S(=O)(=O)[O-])cc4)c4ccc([nH]4)c(-c4ccc(S(=O)(=O)[O-])cc4)c4nc(c(-c5ccc(S(=O)(=O)[O-])cc5)c5ccc2[nH]5)C=C4)C=C3)cc1)N1C(=O)c2nccnc2C1=O
REMARK SMILES IDX 8 1 7 2 6 3 5 4 3 5 4 6 2 8 1 9 72 10 73 11 81 12 74 13
REMARK SMILES IDX 75 14 80 15 82 16 76 17 79 18 77 19 78 20 9 21 10 22 11 24
REMARK SMILES IDX 12 25 13 26 71 27 14 28 70 29 15 30 16 31 17 32 64 33 18 34
REMARK SMILES IDX 69 35 63 36 65 37 19 38 68 39 62 40 61 41 20 43 50 44 31 45
REMARK SMILES IDX 49 46 32 47 35 48 48 49 66 50 33 51 34 52 47 54 67 55 36 56
REMARK SMILES IDX 21 57 22 58 30 59 23 60 29 61 24 62 25 63 26 64 27 65 28 66
REMARK SMILES IDX 51 67 52 68 60 69 53 70 59 71 54 72 55 73 56 74 57 75 58 76
REMARK SMILES IDX 37 77 38 78 46 79 39 80 45 81 40 82 41 83 42 84 43 85 44 86
REMARK H PARENT 5 7 9 23 65 42 35 53
REMARK Flexibility Score: inf
ROOT
ATOM      1  C   UNL A   1      35.565  30.356  28.043  1.00  0.00     0.118 C 
ENDROOT
BRANCH   1   2
ATOM      2  C   UNL A   1      34.703  29.242  27.461  1.00  0.00     0.042 C 
BRANCH   2   3
ATOM      3  C   UNL A   1      33.657  29.721  26.459  1.00  0.00     0.117 C 
BRANCH   3   4
ATOM      4  N   UNL A   1      33.891  29.196  25.126  1.00  0.00    -0.354 N 
ATOM      5  C   UNL A   1      33.019  28.602  24.257  1.00  0.00     0.243 C 
ATOM      6  O   UNL A   1      33.439  28.318  23.132  1.00  0.00    -0.273 OA
ATOM      7  H   UNL A   1      34.816  29.281  24.799  1.00  0.00     0.163 HD
BRANCH   5   8
ATOM      8  C   UNL A   1      31.565  28.330  24.690  1.00  0.00     0.180 C 
ATOM      9  C   UNL A   1      31.188  26.855  24.626  1.00  0.00     0.042 C 
BRANCH   8  10
ATOM     10  N   UNL A   1      30.681  29.173  23.885  1.00  0.00    -0.259 N 
ATOM     11  C   UNL A   1      30.193  28.860  22.638  1.00  0.00     0.282 C 
ATOM     12  C   UNL A   1      30.327  30.445  24.256  1.00  0.00     0.282 C 
ATOM     13  O   UNL A   1      30.330  27.834  22.001  1.00  0.00    -0.267 OA
ATOM     14  C   UNL A   1      29.406  30.014  22.205  1.00  0.00     0.160 A 
ATOM     15  C   UNL A   1      29.485  30.970  23.183  1.00  0.00     0.160 A 
ATOM     16  O   UNL A   1      30.624  31.035  25.280  1.00  0.00    -0.267 OA
ATOM     17  N   UNL A   1      28.638  30.119  21.102  1.00  0.00    -0.247 NA
ATOM     18  N   UNL A   1      28.806  32.136  23.162  1.00  0.00    -0.247 NA
ATOM     19  C   UNL A   1      27.953  31.292  21.050  1.00  0.00     0.132 A 
ATOM     20  C   UNL A   1      28.035  32.270  22.051  1.00  0.00     0.132 A 
ENDBRANCH   8  10
ENDBRANCH   5   8
ENDBRANCH   3   4
ENDBRANCH   2   3
ENDBRANCH   1   2
BRANCH   1  21
ATOM     21  N   UNL A   1      35.553  30.374  29.498  1.00  0.00    -0.352 N 
ATOM     22  C   UNL A   1      36.511  29.978  30.398  1.00  0.00     0.251 C 
ATOM     23  H   UNL A   1      34.726  30.726  29.900  1.00  0.00     0.163 HD
ATOM     24  O   UNL A   1      36.216  29.914  31.590  1.00  0.00    -0.269 OA
BRANCH  22  25
ATOM     25  C   UNL A   1      37.877  29.615  29.954  1.00  0.00     0.039 A 
ATOM     26  C   UNL A   1      38.189  29.715  28.595  1.00  0.00     0.014 A 
ATOM     27  C   UNL A   1      38.835  29.131  30.849  1.00  0.00     0.014 A 
ATOM     28  C   UNL A   1      39.467  29.369  28.144  1.00  0.00     0.010 A 
ATOM     29  C   UNL A   1      40.133  28.872  30.413  1.00  0.00     0.010 A 
ATOM     30  C   UNL A   1      40.459  28.965  29.052  1.00  0.00    -0.014 A 
BRANCH  30  31
ATOM     31  C   UNL A   1      41.822  28.593  28.591  1.00  0.00     0.031 A 
ATOM     32  C   UNL A   1      42.902  29.642  28.497  1.00  0.00     0.074 A 
ATOM     33  C   UNL A   1      42.086  27.324  28.216  1.00  0.00     0.049 A 
ATOM     34  N   UNL A   1      44.139  29.521  28.087  1.00  0.00    -0.248 NA
ATOM     35  C   UNL A   1      42.537  31.012  28.895  1.00  0.00     0.031 C 
ATOM     36  C   UNL A   1      41.123  26.221  28.227  1.00  0.00     0.029 A 
ATOM     37  N   UNL A   1      43.244  26.748  27.754  1.00  0.00    -0.354 N 
ATOM     38  C   UNL A   1      44.690  30.796  28.159  1.00  0.00     0.074 A 
ATOM     39  C   UNL A   1      43.638  31.686  28.597  1.00  0.00     0.031 C 
ATOM     40  C   UNL A   1      41.737  25.098  27.821  1.00  0.00     0.029 A 
ATOM     41  C   UNL A   1      43.122  25.406  27.481  1.00  0.00     0.049 A 
ATOM     42  H   UNL A   1      44.082  27.250  27.630  1.00  0.00     0.167 HD
ATOM     43  C   UNL A   1      45.961  31.190  27.909  1.00  0.00     0.031 A 
ATOM     44  C   UNL A   1      44.022  24.522  27.004  1.00  0.00     0.031 A 
ATOM     45  C   UNL A   1      47.010  30.302  27.481  1.00  0.00     0.049 A 
ATOM     46  C   UNL A   1      45.426  24.986  26.721  1.00  0.00     0.074 A 
ATOM     47  C   UNL A   1      48.341  30.595  27.246  1.00  0.00     0.029 A 
ATOM     48  N   UNL A   1      46.847  28.949  27.223  1.00  0.00    -0.354 N 
ATOM     49  N   UNL A   1      45.942  26.185  26.852  1.00  0.00    -0.248 NA
ATOM     50  C   UNL A   1      46.376  23.970  26.245  1.00  0.00     0.031 C 
ATOM     51  C   UNL A   1      48.970  29.433  26.787  1.00  0.00     0.029 A 
ATOM     52  C   UNL A   1      48.049  28.398  26.811  1.00  0.00     0.049 A 
ATOM     53  H   UNL A   1      46.001  28.454  27.319  1.00  0.00     0.167 HD
ATOM     54  C   UNL A   1      47.286  26.058  26.515  1.00  0.00     0.074 A 
ATOM     55  C   UNL A   1      47.504  24.664  26.186  1.00  0.00     0.031 C 
ATOM     56  C   UNL A   1      48.255  27.008  26.491  1.00  0.00     0.031 A 
BRANCH  43  57
ATOM     57  C   UNL A   1      46.286  32.653  28.083  1.00  0.00    -0.014 A 
ATOM     58  C   UNL A   1      46.291  33.536  26.988  1.00  0.00     0.010 A 
ATOM     59  C   UNL A   1      46.556  33.161  29.367  1.00  0.00     0.010 A 
ATOM     60  C   UNL A   1      46.602  34.888  27.165  1.00  0.00     0.020 A 
ATOM     61  C   UNL A   1      46.835  34.519  29.555  1.00  0.00     0.020 A 
ATOM     62  C   UNL A   1      46.873  35.370  28.449  1.00  0.00     0.054 A 
BRANCH  62  63
ATOM     63  S   UNL A   1      47.251  37.132  28.652  1.00  0.00     0.124 S 
ATOM     64  O   UNL A   1      48.693  37.105  28.887  1.00  0.00    -0.237 OA
ATOM     65  O   UNL A   1      46.834  37.697  27.371  1.00  0.00    -0.237 OA
ATOM     66  O   UNL A   1      46.442  37.531  29.800  1.00  0.00    -0.744 OA
ENDBRANCH  62  63
ENDBRANCH  43  57
BRANCH  44  67
ATOM     67  C   UNL A   1      43.628  23.102  26.786  1.00  0.00    -0.014 A 
ATOM     68  C   UNL A   1      43.010  22.362  27.810  1.00  0.00     0.010 A 
ATOM     69  C   UNL A   1      43.868  22.481  25.546  1.00  0.00     0.010 A 
ATOM     70  C   UNL A   1      42.661  21.024  27.608  1.00  0.00     0.020 A 
ATOM     71  C   UNL A   1      43.491  21.152  25.329  1.00  0.00     0.020 A 
ATOM     72  C   UNL A   1      42.902  20.428  26.367  1.00  0.00     0.054 A 
BRANCH  72  73
ATOM     73  S   UNL A   1      42.399  18.703  26.112  1.00  0.00     0.124 S 
ATOM     74  O   UNL A   1      40.992  18.846  25.752  1.00  0.00    -0.237 OA
ATOM     75  O   UNL A   1      43.289  18.272  25.037  1.00  0.00    -0.237 OA
ATOM     76  O   UNL A   1      42.653  18.077  27.409  1.00  0.00    -0.744 OA
ENDBRANCH  72  73
ENDBRANCH  44  67
BRANCH  56  77
ATOM     77  C   UNL A   1      49.657  26.564  26.159  1.00  0.00    -0.014 A 
ATOM     78  C   UNL A   1      50.216  26.758  24.884  1.00  0.00     0.010 A 
ATOM     79  C   UNL A   1      50.445  25.975  27.168  1.00  0.00     0.010 A 
ATOM     80  C   UNL A   1      51.518  26.327  24.611  1.00  0.00     0.020 A 
ATOM     81  C   UNL A   1      51.757  25.575  26.908  1.00  0.00     0.020 A 
ATOM     82  C   UNL A   1      52.279  25.736  25.624  1.00  0.00     0.054 A 
BRANCH  82  83
ATOM     83  S   UNL A   1      53.972  25.204  25.250  1.00  0.00     0.124 S 
ATOM     84  O   UNL A   1      54.224  25.867  23.973  1.00  0.00    -0.237 OA
ATOM     85  O   UNL A   1      54.728  25.723  26.388  1.00  0.00    -0.237 OA
ATOM     86  O   UNL A   1      53.874  23.748  25.187  1.00  0.00    -0.744 OA
ENDBRANCH  82  83
ENDBRANCH  56  77
ENDBRANCH  30  31
ENDBRANCH  22  25
ENDBRANCH   1  21
TORSDOF 14
ENDMDL
