MODEL 1
REMARK VINA RESULT:      -8.6      0.000      0.000
REMARK SMILES C=C[C@@H]1[C@@H](O)C[C@H]2[C@]3(CC[C@]4(C)[C@@H]([C@H](C)CCC=C(C)C)CC[C@]24C)C[C@]13CCC(=O)NCCCNC(=O)c1ccc(-c2c3nc(c(-c4ccc(S(=O)(=O)[O-])cc4)c4ccc([nH]4)c(-c4ccc(S(=O)(=O)[O-])cc4)c4nc(c(-c5ccc(S(=O)(=O)[O-])cc5)c5ccc2[nH]5)C=C4)C=C3)cc1
REMARK SMILES IDX 30 1 31 2 32 3 29 5 28 6 27 7 3 8 4 9 6 10 8 11 26 12 7 13
REMARK SMILES IDX 9 14 24 15 10 16 11 17 23 18 25 19 13 20 12 21 22 22 2 23
REMARK SMILES IDX 1 24 5 25 14 27 15 28 16 29 17 30 18 31 19 32 20 33 21 34
REMARK SMILES IDX 33 35 34 36 35 37 36 38 37 39 38 41 39 42 40 43 98 44 41 45
REMARK SMILES IDX 97 46 42 47 43 48 44 49 91 50 45 51 96 52 90 53 92 54 46 55
REMARK SMILES IDX 95 56 89 57 88 58 47 60 77 61 58 62 76 63 59 64 62 65 75 66
REMARK SMILES IDX 93 67 60 68 61 69 74 71 94 72 63 73 48 74 49 75 57 76 50 77
REMARK SMILES IDX 56 78 51 79 52 80 53 81 54 82 55 83 78 84 79 85 87 86 80 87
REMARK SMILES IDX 86 88 81 89 82 90 83 91 84 92 85 93 64 94 65 95 73 96 66 97
REMARK SMILES IDX 72 98 67 99 68 100 69 101 70 102 71 103
REMARK H PARENT 32 4 5 26 36 40 92 59 62 70
REMARK Flexibility Score: inf
ROOT
ATOM      1  C   UNL A   1      40.976  34.622  30.419  1.00  0.00     0.220 C 
ATOM      2  O   UNL A   1      41.322  34.920  31.575  1.00  0.00    -0.275 OA
ATOM      3  N   UNL A   1      39.736  33.917  30.338  1.00  0.00    -0.356 N 
ATOM      4  H   UNL A   1      39.392  33.962  31.259  1.00  0.00     0.163 HD
ENDROOT
BRANCH   1   5
ATOM      5  C   UNL A   1      41.960  35.084  29.340  1.00  0.00     0.100 C 
BRANCH   5   6
ATOM      6  C   UNL A   1      41.486  36.065  28.278  1.00  0.00     0.018 C 
BRANCH   6   7
ATOM      7  C   UNL A   1      42.464  37.165  27.956  1.00  0.00    -0.014 C 
ATOM      8  C   UNL A   1      42.519  38.308  29.012  1.00  0.00     0.047 C 
ATOM      9  C   UNL A   1      43.750  38.215  29.947  1.00  0.00     0.122 C 
ATOM     10  C   UNL A   1      45.122  38.134  29.208  1.00  0.00     0.037 C 
ATOM     11  C   UNL A   1      43.694  36.634  27.185  1.00  0.00    -0.019 C 
ATOM     12  C   UNL A   1      42.759  37.638  26.560  1.00  0.00     0.016 C 
ATOM     13  C   UNL A   1      45.272  36.831  28.364  1.00  0.00     0.005 C 
ATOM     14  C   UNL A   1      43.587  35.037  26.043  1.00  0.00     0.008 C 
ATOM     15  C   UNL A   1      46.863  35.645  27.996  1.00  0.00    -0.023 C 
ATOM     16  C   UNL A   1      44.969  33.709  26.192  1.00  0.00     0.008 C 
ATOM     17  C   UNL A   1      46.521  33.874  27.297  1.00  0.00    -0.024 C 
ATOM     18  C   UNL A   1      47.499  35.402  29.383  1.00  0.00     0.008 C 
ATOM     19  C   UNL A   1      48.112  35.902  27.040  1.00  0.00     0.012 C 
ATOM     20  C   UNL A   1      46.768  33.130  28.733  1.00  0.00    -0.002 C 
ATOM     21  C   UNL A   1      47.555  33.172  26.354  1.00  0.00     0.012 C 
ATOM     22  C   UNL A   1      47.909  33.940  29.420  1.00  0.00     0.005 C 
BRANCH   8  23
ATOM     23  C   UNL A   1      42.392  39.723  28.461  1.00  0.00    -0.028 C 
ATOM     24  C   UNL A   1      41.416  40.589  28.760  1.00  0.00     0.004 C 
ENDBRANCH   8  23
BRANCH   9  25
ATOM     25  O   UNL A   1      43.598  37.120  30.858  1.00  0.00    -0.392 OA
ATOM     26  H   UNL A   1      42.974  36.476  30.489  1.00  0.00     0.210 HD
ENDBRANCH   9  25
BRANCH  20  27
ATOM     27  C   UNL A   1      46.972  31.618  28.958  1.00  0.00    -0.010 C 
ATOM     28  C   UNL A   1      48.358  31.015  28.730  1.00  0.00     0.008 C 
BRANCH  27  29
ATOM     29  C   UNL A   1      45.838  30.814  28.296  1.00  0.00     0.008 C 
BRANCH  29  30
ATOM     30  C   UNL A   1      46.336  29.541  27.586  1.00  0.00     0.027 C 
BRANCH  30  31
ATOM     31  C   UNL A   1      45.243  28.746  26.911  1.00  0.00    -0.028 C 
ATOM     32  C   UNL A   1      45.332  27.514  26.371  1.00  0.00    -0.080 C 
ATOM     33  C   UNL A   1      44.147  26.885  25.686  1.00  0.00     0.039 C 
ATOM     34  C   UNL A   1      46.589  26.698  26.365  1.00  0.00     0.039 C 
ENDBRANCH  30  31
ENDBRANCH  29  30
ENDBRANCH  27  29
ENDBRANCH  20  27
ENDBRANCH   6   7
ENDBRANCH   5   6
ENDBRANCH   1   5
BRANCH   3  35
ATOM     35  C   UNL A   1      38.317  32.888  29.378  1.00  0.00     0.117 C 
BRANCH  35  36
ATOM     36  C   UNL A   1      36.503  33.176  29.265  1.00  0.00     0.042 C 
BRANCH  36  37
ATOM     37  C   UNL A   1      35.187  32.385  29.785  1.00  0.00     0.118 C 
BRANCH  37  38
ATOM     38  N   UNL A   1      34.674  31.255  29.007  1.00  0.00    -0.352 N 
ATOM     39  C   UNL A   1      35.246  30.462  28.068  1.00  0.00     0.251 C 
ATOM     40  H   UNL A   1      33.736  31.027  29.204  1.00  0.00     0.163 HD
ATOM     41  O   UNL A   1      34.644  30.085  27.069  1.00  0.00    -0.269 OA
BRANCH  39  42
ATOM     42  C   UNL A   1      36.510  29.830  28.461  1.00  0.00     0.039 A 
ATOM     43  C   UNL A   1      37.524  29.829  27.513  1.00  0.00     0.014 A 
ATOM     44  C   UNL A   1      36.689  29.290  29.747  1.00  0.00     0.014 A 
ATOM     45  C   UNL A   1      38.771  29.374  27.885  1.00  0.00     0.010 A 
ATOM     46  C   UNL A   1      37.948  28.881  30.135  1.00  0.00     0.010 A 
ATOM     47  C   UNL A   1      38.987  28.942  29.203  1.00  0.00    -0.014 A 
BRANCH  47  48
ATOM     48  C   UNL A   1      40.342  28.574  29.613  1.00  0.00     0.031 A 
ATOM     49  C   UNL A   1      40.902  27.271  29.157  1.00  0.00     0.074 A 
ATOM     50  C   UNL A   1      41.009  29.453  30.381  1.00  0.00     0.049 A 
ATOM     51  N   UNL A   1      42.109  26.808  29.307  1.00  0.00    -0.248 NA
ATOM     52  C   UNL A   1      39.981  26.356  28.458  1.00  0.00     0.031 C 
ATOM     53  C   UNL A   1      40.453  30.709  30.902  1.00  0.00     0.029 A 
ATOM     54  N   UNL A   1      42.295  29.447  30.831  1.00  0.00    -0.354 N 
ATOM     55  C   UNL A   1      42.095  25.548  28.726  1.00  0.00     0.074 A 
ATOM     56  C   UNL A   1      40.748  25.291  28.276  1.00  0.00     0.031 C 
ATOM     57  C   UNL A   1      41.416  31.379  31.553  1.00  0.00     0.029 A 
ATOM     58  C   UNL A   1      42.641  30.594  31.507  1.00  0.00     0.049 A 
ATOM     59  H   UNL A   1      42.916  28.697  30.687  1.00  0.00     0.167 HD
ATOM     60  C   UNL A   1      43.138  24.704  28.565  1.00  0.00     0.031 A 
ATOM     61  C   UNL A   1      43.834  30.966  31.998  1.00  0.00     0.031 A 
ATOM     62  C   UNL A   1      44.460  25.024  29.028  1.00  0.00     0.049 A 
ATOM     63  C   UNL A   1      44.990  30.038  31.752  1.00  0.00     0.074 A 
ATOM     64  C   UNL A   1      45.623  24.290  28.912  1.00  0.00     0.029 A 
ATOM     65  N   UNL A   1      44.785  26.202  29.695  1.00  0.00    -0.354 N 
ATOM     66  N   UNL A   1      44.987  28.872  31.143  1.00  0.00    -0.248 NA
ATOM     67  C   UNL A   1      46.305  30.474  32.227  1.00  0.00     0.031 C 
ATOM     68  C   UNL A   1      46.646  25.011  29.538  1.00  0.00     0.029 A 
ATOM     69  C   UNL A   1      46.131  26.215  30.001  1.00  0.00     0.049 A 
ATOM     70  H   UNL A   1      44.149  26.919  29.916  1.00  0.00     0.167 HD
ATOM     71  C   UNL A   1      46.304  28.440  31.144  1.00  0.00     0.074 A 
ATOM     72  C   UNL A   1      47.075  29.482  31.800  1.00  0.00     0.031 C 
ATOM     73  C   UNL A   1      46.836  27.290  30.658  1.00  0.00     0.031 A 
BRANCH  60  74
ATOM     74  C   UNL A   1      42.866  23.391  27.882  1.00  0.00    -0.014 A 
ATOM     75  C   UNL A   1      42.291  22.313  28.584  1.00  0.00     0.010 A 
ATOM     76  C   UNL A   1      43.209  23.218  26.531  1.00  0.00     0.010 A 
ATOM     77  C   UNL A   1      42.112  21.074  27.960  1.00  0.00     0.020 A 
ATOM     78  C   UNL A   1      43.006  21.988  25.896  1.00  0.00     0.020 A 
ATOM     79  C   UNL A   1      42.477  20.918  26.621  1.00  0.00     0.054 A 
BRANCH  79  80
ATOM     80  S   UNL A   1      42.228  19.303  25.833  1.00  0.00     0.124 S 
ATOM     81  O   UNL A   1      40.787  19.302  25.597  1.00  0.00    -0.237 OA
ATOM     82  O   UNL A   1      43.059  19.398  24.635  1.00  0.00    -0.237 OA
ATOM     83  O   UNL A   1      42.696  18.352  26.838  1.00  0.00    -0.744 OA
ENDBRANCH  79  80
ENDBRANCH  60  74
BRANCH  61  84
ATOM     84  C   UNL A   1      43.978  32.272  32.692  1.00  0.00    -0.014 A 
ATOM     85  C   UNL A   1      43.729  32.390  34.071  1.00  0.00     0.010 A 
ATOM     86  C   UNL A   1      44.439  33.400  31.987  1.00  0.00     0.010 A 
ATOM     87  C   UNL A   1      43.921  33.612  34.727  1.00  0.00     0.020 A 
ATOM     88  C   UNL A   1      44.655  34.616  32.643  1.00  0.00     0.020 A 
ATOM     89  C   UNL A   1      44.385  34.717  34.008  1.00  0.00     0.054 A 
BRANCH  89  90
ATOM     90  S   UNL A   1      44.682  36.277  34.888  1.00  0.00     0.124 S 
ATOM     91  O   UNL A   1      45.963  36.020  35.536  1.00  0.00    -0.237 OA
ATOM     92  O   UNL A   1      44.706  37.254  33.801  1.00  0.00    -0.237 OA
ATOM     93  O   UNL A   1      43.535  36.387  35.786  1.00  0.00    -0.744 OA
ENDBRANCH  89  90
ENDBRANCH  61  84
BRANCH  73  94
ATOM     94  C   UNL A   1      48.318  27.125  30.807  1.00  0.00    -0.014 A 
ATOM     95  C   UNL A   1      49.199  27.680  29.864  1.00  0.00     0.010 A 
ATOM     96  C   UNL A   1      48.827  26.477  31.945  1.00  0.00     0.010 A 
ATOM     97  C   UNL A   1      50.576  27.568  30.048  1.00  0.00     0.020 A 
ATOM     98  C   UNL A   1      50.204  26.387  32.145  1.00  0.00     0.020 A 
ATOM     99  C   UNL A   1      51.069  26.924  31.188  1.00  0.00     0.054 A 
BRANCH  99 100
ATOM    100  S   UNL A   1      52.861  26.848  31.436  1.00  0.00     0.124 S 
ATOM    101  O   UNL A   1      53.019  27.550  32.707  1.00  0.00    -0.237 OA
ATOM    102  O   UNL A   1      53.119  25.411  31.474  1.00  0.00    -0.237 OA
ATOM    103  O   UNL A   1      53.401  27.541  30.268  1.00  0.00    -0.744 OA
ENDBRANCH  99 100
ENDBRANCH  73  94
ENDBRANCH  47  48
ENDBRANCH  39  42
ENDBRANCH  37  38
ENDBRANCH  36  37
ENDBRANCH  35  36
ENDBRANCH   3  35
TORSDOF 21
ENDMDL
MODEL 2
REMARK VINA RESULT:      -8.6      7.133     12.473
REMARK SMILES C=C[C@@H]1[C@@H](O)C[C@H]2[C@]3(CC[C@]4(C)[C@@H]([C@H](C)CCC=C(C)C)CC[C@]24C)C[C@]13CCC(=O)NCCCNC(=O)c1ccc(-c2c3nc(c(-c4ccc(S(=O)(=O)[O-])cc4)c4ccc([nH]4)c(-c4ccc(S(=O)(=O)[O-])cc4)c4nc(c(-c5ccc(S(=O)(=O)[O-])cc5)c5ccc2[nH]5)C=C4)C=C3)cc1
REMARK SMILES IDX 30 1 31 2 32 3 29 5 28 6 27 7 3 8 4 9 6 10 8 11 26 12 7 13
REMARK SMILES IDX 9 14 24 15 10 16 11 17 23 18 25 19 13 20 12 21 22 22 2 23
REMARK SMILES IDX 1 24 5 25 14 27 15 28 16 29 17 30 18 31 19 32 20 33 21 34
REMARK SMILES IDX 33 35 34 36 35 37 36 38 37 39 38 41 39 42 40 43 98 44 41 45
REMARK SMILES IDX 97 46 42 47 43 48 44 49 91 50 45 51 96 52 90 53 92 54 46 55
REMARK SMILES IDX 95 56 89 57 88 58 47 60 77 61 58 62 76 63 59 64 62 65 75 66
REMARK SMILES IDX 93 67 60 68 61 69 74 71 94 72 63 73 48 74 49 75 57 76 50 77
REMARK SMILES IDX 56 78 51 79 52 80 53 81 54 82 55 83 78 84 79 85 87 86 80 87
REMARK SMILES IDX 86 88 81 89 82 90 83 91 84 92 85 93 64 94 65 95 73 96 66 97
REMARK SMILES IDX 72 98 67 99 68 100 69 101 70 102 71 103
REMARK H PARENT 32 4 5 26 36 40 92 59 62 70
REMARK Flexibility Score: inf
ROOT
ATOM      1  C   UNL A   1      43.028  42.603  23.867  1.00  0.00     0.220 C 
ATOM      2  O   UNL A   1      42.307  42.315  22.896  1.00  0.00    -0.275 OA
ATOM      3  N   UNL A   1      43.102  41.587  24.869  1.00  0.00    -0.356 N 
ATOM      4  H   UNL A   1      42.639  40.826  24.449  1.00  0.00     0.163 HD
ENDROOT
BRANCH   1   5
ATOM      5  C   UNL A   1      43.679  43.986  23.767  1.00  0.00     0.100 C 
BRANCH   5   6
ATOM      6  C   UNL A   1      44.151  44.485  22.409  1.00  0.00     0.018 C 
BRANCH   6   7
ATOM      7  C   UNL A   1      45.622  44.298  22.146  1.00  0.00    -0.014 C 
ATOM      8  C   UNL A   1      46.025  42.851  21.737  1.00  0.00     0.047 C 
ATOM      9  C   UNL A   1      46.277  42.695  20.216  1.00  0.00     0.122 C 
ATOM     10  C   UNL A   1      47.312  43.701  19.624  1.00  0.00     0.037 C 
ATOM     11  C   UNL A   1      46.271  45.577  21.568  1.00  0.00    -0.019 C 
ATOM     12  C   UNL A   1      46.704  45.019  22.900  1.00  0.00     0.016 C 
ATOM     13  C   UNL A   1      46.826  45.181  19.709  1.00  0.00     0.005 C 
ATOM     14  C   UNL A   1      45.553  47.366  21.957  1.00  0.00     0.008 C 
ATOM     15  C   UNL A   1      47.051  46.743  18.452  1.00  0.00    -0.023 C 
ATOM     16  C   UNL A   1      45.345  48.606  20.503  1.00  0.00     0.008 C 
ATOM     17  C   UNL A   1      45.892  48.272  18.702  1.00  0.00    -0.024 C 
ATOM     18  C   UNL A   1      46.669  46.185  17.063  1.00  0.00     0.008 C 
ATOM     19  C   UNL A   1      48.345  47.630  18.168  1.00  0.00     0.012 C 
ATOM     20  C   UNL A   1      44.913  47.884  17.450  1.00  0.00    -0.002 C 
ATOM     21  C   UNL A   1      46.379  49.714  18.335  1.00  0.00     0.012 C 
ATOM     22  C   UNL A   1      45.854  47.266  16.373  1.00  0.00     0.005 C 
BRANCH   8  23
ATOM     23  C   UNL A   1      47.182  42.241  22.519  1.00  0.00    -0.028 C 
ATOM     24  C   UNL A   1      47.183  41.026  23.084  1.00  0.00     0.004 C 
ENDBRANCH   8  23
BRANCH   9  25
ATOM     25  O   UNL A   1      45.038  42.759  19.501  1.00  0.00    -0.392 OA
ATOM     26  H   UNL A   1      44.869  41.906  19.069  1.00  0.00     0.210 HD
ENDBRANCH   9  25
BRANCH  20  27
ATOM     27  C   UNL A   1      43.867  48.803  16.787  1.00  0.00    -0.010 C 
ATOM     28  C   UNL A   1      44.263  50.232  16.418  1.00  0.00     0.008 C 
BRANCH  27  29
ATOM     29  C   UNL A   1      42.520  48.713  17.527  1.00  0.00     0.008 C 
BRANCH  29  30
ATOM     30  C   UNL A   1      41.503  47.795  16.823  1.00  0.00     0.027 C 
BRANCH  30  31
ATOM     31  C   UNL A   1      42.101  46.518  16.281  1.00  0.00    -0.028 C 
ATOM     32  C   UNL A   1      42.477  45.425  16.973  1.00  0.00    -0.080 C 
ATOM     33  C   UNL A   1      43.109  44.249  16.274  1.00  0.00     0.039 C 
ATOM     34  C   UNL A   1      42.347  45.296  18.461  1.00  0.00     0.039 C 
ENDBRANCH  30  31
ENDBRANCH  29  30
ENDBRANCH  27  29
ENDBRANCH  20  27
ENDBRANCH   6   7
ENDBRANCH   5   6
ENDBRANCH   1   5
BRANCH   3  35
ATOM     35  C   UNL A   1      43.630  40.864  26.655  1.00  0.00     0.117 C 
BRANCH  35  36
ATOM     36  C   UNL A   1      44.158  39.173  27.150  1.00  0.00     0.042 C 
BRANCH  36  37
ATOM     37  C   UNL A   1      45.488  38.545  27.832  1.00  0.00     0.118 C 
BRANCH  37  38
ATOM     38  N   UNL A   1      46.588  38.091  26.977  1.00  0.00    -0.352 N 
ATOM     39  C   UNL A   1      47.493  37.092  27.113  1.00  0.00     0.251 C 
ATOM     40  H   UNL A   1      46.688  38.610  26.146  1.00  0.00     0.163 HD
ATOM     41  O   UNL A   1      48.669  37.219  26.788  1.00  0.00    -0.269 OA
BRANCH  39  42
ATOM     42  C   UNL A   1      46.931  35.764  27.378  1.00  0.00     0.039 A 
ATOM     43  C   UNL A   1      46.235  35.166  26.337  1.00  0.00     0.014 A 
ATOM     44  C   UNL A   1      47.125  35.121  28.614  1.00  0.00     0.014 A 
ATOM     45  C   UNL A   1      45.810  33.863  26.492  1.00  0.00     0.010 A 
ATOM     46  C   UNL A   1      46.745  33.802  28.752  1.00  0.00     0.010 A 
ATOM     47  C   UNL A   1      46.103  33.175  27.681  1.00  0.00    -0.014 A 
BRANCH  47  48
ATOM     48  C   UNL A   1      45.750  31.760  27.783  1.00  0.00     0.031 A 
ATOM     49  C   UNL A   1      44.398  31.390  28.287  1.00  0.00     0.074 A 
ATOM     50  C   UNL A   1      46.680  30.868  27.402  1.00  0.00     0.049 A 
ATOM     51  N   UNL A   1      43.846  30.213  28.347  1.00  0.00    -0.248 NA
ATOM     52  C   UNL A   1      43.560  32.483  28.815  1.00  0.00     0.031 C 
ATOM     53  C   UNL A   1      48.044  31.205  26.970  1.00  0.00     0.029 A 
ATOM     54  N   UNL A   1      46.620  29.511  27.285  1.00  0.00    -0.354 N 
ATOM     55  C   UNL A   1      42.599  30.420  28.920  1.00  0.00     0.074 A 
ATOM     56  C   UNL A   1      42.498  31.822  29.248  1.00  0.00     0.031 C 
ATOM     57  C   UNL A   1      48.671  30.084  26.580  1.00  0.00     0.029 A 
ATOM     58  C   UNL A   1      47.761  28.960  26.751  1.00  0.00     0.049 A 
ATOM     59  H   UNL A   1      45.839  28.979  27.556  1.00  0.00     0.167 HD
ATOM     60  C   UNL A   1      41.623  29.507  29.120  1.00  0.00     0.031 A 
ATOM     61  C   UNL A   1      48.013  27.685  26.411  1.00  0.00     0.031 A 
ATOM     62  C   UNL A   1      41.783  28.125  28.761  1.00  0.00     0.049 A 
ATOM     63  C   UNL A   1      46.890  26.701  26.585  1.00  0.00     0.074 A 
ATOM     64  C   UNL A   1      40.879  27.088  28.870  1.00  0.00     0.029 A 
ATOM     65  N   UNL A   1      42.945  27.597  28.205  1.00  0.00    -0.354 N 
ATOM     66  N   UNL A   1      45.686  26.913  27.069  1.00  0.00    -0.248 NA
ATOM     67  C   UNL A   1      47.140  25.325  26.151  1.00  0.00     0.031 C 
ATOM     68  C   UNL A   1      41.507  25.925  28.409  1.00  0.00     0.029 A 
ATOM     69  C   UNL A   1      42.784  26.247  27.967  1.00  0.00     0.049 A 
ATOM     70  H   UNL A   1      43.761  28.110  28.010  1.00  0.00     0.167 HD
ATOM     71  C   UNL A   1      45.023  25.699  26.982  1.00  0.00     0.074 A 
ATOM     72  C   UNL A   1      45.960  24.764  26.381  1.00  0.00     0.031 C 
ATOM     73  C   UNL A   1      43.762  25.374  27.364  1.00  0.00     0.031 A 
BRANCH  60  74
ATOM     74  C   UNL A   1      40.344  29.988  29.749  1.00  0.00    -0.014 A 
ATOM     75  C   UNL A   1      39.178  30.167  28.978  1.00  0.00     0.010 A 
ATOM     76  C   UNL A   1      40.305  30.290  31.120  1.00  0.00     0.010 A 
ATOM     77  C   UNL A   1      38.016  30.686  29.557  1.00  0.00     0.020 A 
ATOM     78  C   UNL A   1      39.136  30.782  31.710  1.00  0.00     0.020 A 
ATOM     79  C   UNL A   1      38.005  30.996  30.919  1.00  0.00     0.054 A 
BRANCH  79  80
ATOM     80  S   UNL A   1      36.482  31.661  31.648  1.00  0.00     0.124 S 
ATOM     81  O   UNL A   1      36.998  32.728  32.502  1.00  0.00    -0.237 OA
ATOM     82  O   UNL A   1      35.732  32.105  30.475  1.00  0.00    -0.237 OA
ATOM     83  O   UNL A   1      35.909  30.519  32.354  1.00  0.00    -0.744 OA
ENDBRANCH  79  80
ENDBRANCH  60  74
BRANCH  61  84
ATOM     84  C   UNL A   1      49.331  27.315  25.833  1.00  0.00    -0.014 A 
ATOM     85  C   UNL A   1      49.555  27.377  24.446  1.00  0.00     0.010 A 
ATOM     86  C   UNL A   1      50.401  26.965  26.678  1.00  0.00     0.010 A 
ATOM     87  C   UNL A   1      50.816  27.080  23.915  1.00  0.00     0.020 A 
ATOM     88  C   UNL A   1      51.668  26.691  26.154  1.00  0.00     0.020 A 
ATOM     89  C   UNL A   1      51.865  26.741  24.774  1.00  0.00     0.054 A 
BRANCH  89  90
ATOM     90  S   UNL A   1      53.507  26.416  24.071  1.00  0.00     0.124 S 
ATOM     91  O   UNL A   1      53.996  25.340  24.926  1.00  0.00    -0.237 OA
ATOM     92  O   UNL A   1      53.193  26.040  22.694  1.00  0.00    -0.237 OA
ATOM     93  O   UNL A   1      54.199  27.695  24.214  1.00  0.00    -0.744 OA
ENDBRANCH  89  90
ENDBRANCH  61  84
BRANCH  73  94
ATOM     94  C   UNL A   1      43.335  23.958  27.120  1.00  0.00    -0.014 A 
ATOM     95  C   UNL A   1      43.401  23.003  28.148  1.00  0.00     0.010 A 
ATOM     96  C   UNL A   1      42.790  23.608  25.873  1.00  0.00     0.010 A 
ATOM     97  C   UNL A   1      42.945  21.705  27.923  1.00  0.00     0.020 A 
ATOM     98  C   UNL A   1      42.309  22.318  25.654  1.00  0.00     0.020 A 
ATOM     99  C   UNL A   1      42.401  21.372  26.678  1.00  0.00     0.054 A 
BRANCH  99 100
ATOM    100  S   UNL A   1      41.757  19.698  26.431  1.00  0.00     0.124 S 
ATOM    101  O   UNL A   1      42.144  19.040  27.676  1.00  0.00    -0.237 OA
ATOM    102  O   UNL A   1      40.324  19.927  26.260  1.00  0.00    -0.237 OA
ATOM    103  O   UNL A   1      42.454  19.232  25.235  1.00  0.00    -0.744 OA
ENDBRANCH  99 100
ENDBRANCH  73  94
ENDBRANCH  47  48
ENDBRANCH  39  42
ENDBRANCH  37  38
ENDBRANCH  36  37
ENDBRANCH  35  36
ENDBRANCH   3  35
TORSDOF 21
ENDMDL
MODEL 3
REMARK VINA RESULT:      -8.0      4.529      9.727
REMARK SMILES C=C[C@@H]1[C@@H](O)C[C@H]2[C@]3(CC[C@]4(C)[C@@H]([C@H](C)CCC=C(C)C)CC[C@]24C)C[C@]13CCC(=O)NCCCNC(=O)c1ccc(-c2c3nc(c(-c4ccc(S(=O)(=O)[O-])cc4)c4ccc([nH]4)c(-c4ccc(S(=O)(=O)[O-])cc4)c4nc(c(-c5ccc(S(=O)(=O)[O-])cc5)c5ccc2[nH]5)C=C4)C=C3)cc1
REMARK SMILES IDX 30 1 31 2 32 3 29 5 28 6 27 7 3 8 4 9 6 10 8 11 26 12 7 13
REMARK SMILES IDX 9 14 24 15 10 16 11 17 23 18 25 19 13 20 12 21 22 22 2 23
REMARK SMILES IDX 1 24 5 25 14 27 15 28 16 29 17 30 18 31 19 32 20 33 21 34
REMARK SMILES IDX 33 35 34 36 35 37 36 38 37 39 38 41 39 42 40 43 98 44 41 45
REMARK SMILES IDX 97 46 42 47 43 48 44 49 91 50 45 51 96 52 90 53 92 54 46 55
REMARK SMILES IDX 95 56 89 57 88 58 47 60 77 61 58 62 76 63 59 64 62 65 75 66
REMARK SMILES IDX 93 67 60 68 61 69 74 71 94 72 63 73 48 74 49 75 57 76 50 77
REMARK SMILES IDX 56 78 51 79 52 80 53 81 54 82 55 83 78 84 79 85 87 86 80 87
REMARK SMILES IDX 86 88 81 89 82 90 83 91 84 92 85 93 64 94 65 95 73 96 66 97
REMARK SMILES IDX 72 98 67 99 68 100 69 101 70 102 71 103
REMARK H PARENT 32 4 5 26 36 40 92 59 62 70
REMARK Flexibility Score: inf
ROOT
ATOM      1  C   UNL A   1      38.187  31.824  36.659  1.00  0.00     0.220 C 
ATOM      2  O   UNL A   1      37.136  31.995  36.019  1.00  0.00    -0.275 OA
ATOM      3  N   UNL A   1      38.063  32.040  38.066  1.00  0.00    -0.356 N 
ATOM      4  H   UNL A   1      37.093  32.151  38.190  1.00  0.00     0.163 HD
ENDROOT
BRANCH   1   5
ATOM      5  C   UNL A   1      39.382  31.414  35.792  1.00  0.00     0.100 C 
BRANCH   5   6
ATOM      6  C   UNL A   1      39.410  31.828  34.328  1.00  0.00     0.018 C 
BRANCH   6   7
ATOM      7  C   UNL A   1      40.036  30.820  33.400  1.00  0.00    -0.014 C 
ATOM      8  C   UNL A   1      40.001  29.354  33.924  1.00  0.00     0.047 C 
ATOM      9  C   UNL A   1      38.901  28.494  33.254  1.00  0.00     0.122 C 
ATOM     10  C   UNL A   1      38.948  28.479  31.695  1.00  0.00     0.037 C 
ATOM     11  C   UNL A   1      39.862  31.217  31.916  1.00  0.00    -0.019 C 
ATOM     12  C   UNL A   1      41.232  31.109  32.537  1.00  0.00     0.016 C 
ATOM     13  C   UNL A   1      38.668  29.882  31.074  1.00  0.00     0.005 C 
ATOM     14  C   UNL A   1      39.685  33.096  31.364  1.00  0.00     0.008 C 
ATOM     15  C   UNL A   1      37.681  30.439  29.404  1.00  0.00    -0.023 C 
ATOM     16  C   UNL A   1      38.307  33.555  30.104  1.00  0.00     0.008 C 
ATOM     17  C   UNL A   1      37.152  32.294  29.248  1.00  0.00    -0.024 C 
ATOM     18  C   UNL A   1      36.350  29.656  29.457  1.00  0.00     0.008 C 
ATOM     19  C   UNL A   1      38.134  30.325  27.880  1.00  0.00     0.012 C 
ATOM     20  C   UNL A   1      35.588  32.003  29.628  1.00  0.00    -0.002 C 
ATOM     21  C   UNL A   1      37.052  32.982  27.846  1.00  0.00     0.012 C 
ATOM     22  C   UNL A   1      35.266  30.615  28.996  1.00  0.00     0.005 C 
BRANCH   8  23
ATOM     23  C   UNL A   1      41.331  28.610  33.894  1.00  0.00    -0.028 C 
ATOM     24  C   UNL A   1      41.477  27.279  33.874  1.00  0.00     0.004 C 
ENDBRANCH   8  23
BRANCH   9  25
ATOM     25  O   UNL A   1      37.607  28.894  33.721  1.00  0.00    -0.392 OA
ATOM     26  H   UNL A   1      37.281  28.247  34.366  1.00  0.00     0.210 HD
ENDBRANCH   9  25
BRANCH  20  27
ATOM     27  C   UNL A   1      34.403  32.970  29.433  1.00  0.00    -0.010 C 
ATOM     28  C   UNL A   1      33.702  33.019  28.076  1.00  0.00     0.008 C 
BRANCH  27  29
ATOM     29  C   UNL A   1      34.741  34.362  29.998  1.00  0.00     0.008 C 
BRANCH  29  30
ATOM     30  C   UNL A   1      34.341  34.527  31.476  1.00  0.00     0.027 C 
BRANCH  30  31
ATOM     31  C   UNL A   1      35.491  34.886  32.387  1.00  0.00    -0.028 C 
ATOM     32  C   UNL A   1      36.307  34.047  33.056  1.00  0.00    -0.080 C 
ATOM     33  C   UNL A   1      37.380  34.580  33.970  1.00  0.00     0.039 C 
ATOM     34  C   UNL A   1      36.200  32.554  32.990  1.00  0.00     0.039 C 
ENDBRANCH  30  31
ENDBRANCH  29  30
ENDBRANCH  27  29
ENDBRANCH  20  27
ENDBRANCH   6   7
ENDBRANCH   5   6
ENDBRANCH   1   5
BRANCH   3  35
ATOM     35  C   UNL A   1      38.780  32.241  39.920  1.00  0.00     0.117 C 
BRANCH  35  36
ATOM     36  C   UNL A   1      39.991  33.443  40.608  1.00  0.00     0.042 C 
BRANCH  36  37
ATOM     37  C   UNL A   1      39.917  34.990  41.089  1.00  0.00     0.118 C 
BRANCH  37  38
ATOM     38  N   UNL A   1      39.630  36.035  40.105  1.00  0.00    -0.352 N 
ATOM     39  C   UNL A   1      40.399  36.637  39.165  1.00  0.00     0.251 C 
ATOM     40  H   UNL A   1      38.701  36.363  40.130  1.00  0.00     0.163 HD
ATOM     41  O   UNL A   1      40.327  37.837  38.924  1.00  0.00    -0.269 OA
BRANCH  39  42
ATOM     42  C   UNL A   1      41.094  35.731  38.244  1.00  0.00     0.039 A 
ATOM     43  C   UNL A   1      40.303  35.049  37.330  1.00  0.00     0.014 A 
ATOM     44  C   UNL A   1      42.493  35.596  38.269  1.00  0.00     0.014 A 
ATOM     45  C   UNL A   1      40.924  34.296  36.356  1.00  0.00     0.010 A 
ATOM     46  C   UNL A   1      43.117  34.883  37.266  1.00  0.00     0.010 A 
ATOM     47  C   UNL A   1      42.327  34.250  36.304  1.00  0.00    -0.014 A 
BRANCH  47  48
ATOM     48  C   UNL A   1      42.970  33.545  35.196  1.00  0.00     0.031 A 
ATOM     49  C   UNL A   1      43.473  32.160  35.421  1.00  0.00     0.074 A 
ATOM     50  C   UNL A   1      43.060  34.197  34.025  1.00  0.00     0.049 A 
ATOM     51  N   UNL A   1      43.964  31.323  34.554  1.00  0.00    -0.248 NA
ATOM     52  C   UNL A   1      43.441  31.655  36.806  1.00  0.00     0.031 C 
ATOM     53  C   UNL A   1      42.637  35.586  33.799  1.00  0.00     0.029 A 
ATOM     54  N   UNL A   1      43.503  33.782  32.804  1.00  0.00    -0.354 N 
ATOM     55  C   UNL A   1      44.304  30.193  35.285  1.00  0.00     0.074 A 
ATOM     56  C   UNL A   1      44.022  30.472  36.673  1.00  0.00     0.031 C 
ATOM     57  C   UNL A   1      42.789  35.886  32.500  1.00  0.00     0.029 A 
ATOM     58  C   UNL A   1      43.331  34.721  31.815  1.00  0.00     0.049 A 
ATOM     59  H   UNL A   1      43.905  32.898  32.647  1.00  0.00     0.167 HD
ATOM     60  C   UNL A   1      44.781  29.020  34.813  1.00  0.00     0.031 A 
ATOM     61  C   UNL A   1      43.562  34.620  30.495  1.00  0.00     0.031 A 
ATOM     62  C   UNL A   1      45.031  28.803  33.415  1.00  0.00     0.049 A 
ATOM     63  C   UNL A   1      44.035  33.286  29.988  1.00  0.00     0.074 A 
ATOM     64  C   UNL A   1      45.483  27.664  32.780  1.00  0.00     0.029 A 
ATOM     65  N   UNL A   1      44.832  29.767  32.431  1.00  0.00    -0.354 N 
ATOM     66  N   UNL A   1      44.293  32.196  30.676  1.00  0.00    -0.248 NA
ATOM     67  C   UNL A   1      44.221  33.154  28.542  1.00  0.00     0.031 C 
ATOM     68  C   UNL A   1      45.588  27.951  31.414  1.00  0.00     0.029 A 
ATOM     69  C   UNL A   1      45.155  29.252  31.192  1.00  0.00     0.049 A 
ATOM     70  H   UNL A   1      44.509  30.682  32.595  1.00  0.00     0.167 HD
ATOM     71  C   UNL A   1      44.658  31.237  29.743  1.00  0.00     0.074 A 
ATOM     72  C   UNL A   1      44.566  31.877  28.442  1.00  0.00     0.031 C 
ATOM     73  C   UNL A   1      45.039  29.949  29.933  1.00  0.00     0.031 A 
BRANCH  60  74
ATOM     74  C   UNL A   1      45.057  27.932  35.815  1.00  0.00    -0.014 A 
ATOM     75  C   UNL A   1      44.062  26.998  36.164  1.00  0.00     0.010 A 
ATOM     76  C   UNL A   1      46.314  27.852  36.437  1.00  0.00     0.010 A 
ATOM     77  C   UNL A   1      44.304  26.037  37.151  1.00  0.00     0.020 A 
ATOM     78  C   UNL A   1      46.569  26.875  37.405  1.00  0.00     0.020 A 
ATOM     79  C   UNL A   1      45.555  25.987  37.770  1.00  0.00     0.054 A 
BRANCH  79  80
ATOM     80  S   UNL A   1      45.846  24.726  39.043  1.00  0.00     0.124 S 
ATOM     81  O   UNL A   1      47.293  24.812  39.226  1.00  0.00    -0.237 OA
ATOM     82  O   UNL A   1      45.044  25.210  40.163  1.00  0.00    -0.237 OA
ATOM     83  O   UNL A   1      45.368  23.493  38.424  1.00  0.00    -0.744 OA
ENDBRANCH  79  80
ENDBRANCH  60  74
BRANCH  61  84
ATOM     84  C   UNL A   1      43.291  35.776  29.602  1.00  0.00    -0.014 A 
ATOM     85  C   UNL A   1      42.089  35.863  28.877  1.00  0.00     0.010 A 
ATOM     86  C   UNL A   1      44.208  36.842  29.526  1.00  0.00     0.010 A 
ATOM     87  C   UNL A   1      41.818  36.982  28.081  1.00  0.00     0.020 A 
ATOM     88  C   UNL A   1      43.930  37.972  28.751  1.00  0.00     0.020 A 
ATOM     89  C   UNL A   1      42.740  38.030  28.025  1.00  0.00     0.054 A 
BRANCH  89  90
ATOM     90  S   UNL A   1      42.344  39.498  27.033  1.00  0.00     0.124 S 
ATOM     91  O   UNL A   1      41.217  39.030  26.234  1.00  0.00    -0.237 OA
ATOM     92  O   UNL A   1      42.026  40.494  28.054  1.00  0.00    -0.237 OA
ATOM     93  O   UNL A   1      43.577  39.753  26.291  1.00  0.00    -0.744 OA
ENDBRANCH  89  90
ENDBRANCH  61  84
BRANCH  73  94
ATOM     94  C   UNL A   1      45.362  29.160  28.701  1.00  0.00    -0.014 A 
ATOM     95  C   UNL A   1      46.671  29.131  28.191  1.00  0.00     0.010 A 
ATOM     96  C   UNL A   1      44.359  28.380  28.100  1.00  0.00     0.010 A 
ATOM     97  C   UNL A   1      46.967  28.345  27.078  1.00  0.00     0.020 A 
ATOM     98  C   UNL A   1      44.659  27.573  27.004  1.00  0.00     0.020 A 
ATOM     99  C   UNL A   1      45.959  27.571  26.493  1.00  0.00     0.054 A 
BRANCH  99 100
ATOM    100  S   UNL A   1      46.385  26.510  25.088  1.00  0.00     0.124 S 
ATOM    101  O   UNL A   1      47.562  25.805  25.589  1.00  0.00    -0.237 OA
ATOM    102  O   UNL A   1      45.183  25.695  24.927  1.00  0.00    -0.237 OA
ATOM    103  O   UNL A   1      46.638  27.457  24.005  1.00  0.00    -0.744 OA
ENDBRANCH  99 100
ENDBRANCH  73  94
ENDBRANCH  47  48
ENDBRANCH  39  42
ENDBRANCH  37  38
ENDBRANCH  36  37
ENDBRANCH  35  36
ENDBRANCH   3  35
TORSDOF 21
ENDMDL
