MODEL 1
REMARK VINA RESULT:     -10.3      0.000      0.000
REMARK SMILES Cc1cc(NC[C@H](C)[NH+](C)C)cc(C(=O)NCCCNC(=O)c2ccc(-c3c4nc(c(-c5ccc(S(=O)(=O)[O-])cc5)c5ccc([nH]5)c(-c5ccc(S(=O)(=O)[O-])cc5)c5nc(c(-c6ccc(S(=O)(=O)[O-])cc6)c6ccc3[nH]6)C=C5)C=C4)cc2)c1N
REMARK SMILES IDX 17 1 16 2 14 3 15 4 13 6 1 7 2 8 3 9 83 10 4 11 12 12 84 13
REMARK SMILES IDX 5 16 6 18 7 19 8 20 9 21 10 22 11 23 18 25 19 26 20 27 21 28
REMARK SMILES IDX 22 30 23 31 24 32 82 33 25 34 81 35 26 36 27 37 28 38 75 39
REMARK SMILES IDX 29 40 80 41 74 42 76 43 30 44 79 45 73 46 72 47 31 49 61 50
REMARK SMILES IDX 42 51 60 52 43 53 46 54 59 55 77 56 44 57 45 58 58 60 78 61
REMARK SMILES IDX 47 62 32 63 33 64 41 65 34 66 40 67 35 68 36 69 37 70 38 71
REMARK SMILES IDX 39 72 62 73 63 74 71 75 64 76 70 77 65 78 66 79 67 80 68 81
REMARK SMILES IDX 69 82 48 83 49 84 57 85 50 86 56 87 51 88 52 89 53 90 54 91
REMARK SMILES IDX 55 92
REMARK H PARENT 16 5 84 14 84 15 5 17 9 24 20 29 76 48 46 59
REMARK Flexibility Score: inf
ROOT
ATOM      1  C   UNL A   1      37.760  20.347  24.489  1.00  0.00     0.118 C 
ENDROOT
BRANCH   1   2
ATOM      2  N   UNL A   1      37.539  21.601  25.195  1.00  0.00    -0.352 N 
ATOM      3  C   UNL A   1      36.420  22.361  25.448  1.00  0.00     0.253 C 
ATOM      4  O   UNL A   1      36.596  23.380  26.124  1.00  0.00    -0.269 OA
ATOM      5  H   UNL A   1      38.363  21.987  25.568  1.00  0.00     0.163 HD
BRANCH   3   6
ATOM      6  C   UNL A   1      35.036  22.000  24.992  1.00  0.00     0.065 A 
ATOM      7  C   UNL A   1      32.204  23.375  22.815  1.00  0.00     0.046 C 
ATOM      8  C   UNL A   1      33.003  22.512  23.754  1.00  0.00    -0.025 A 
ATOM      9  C   UNL A   1      32.412  21.342  24.270  1.00  0.00     0.031 A 
ATOM     10  C   UNL A   1      34.325  22.855  24.118  1.00  0.00     0.047 A 
ATOM     11  C   UNL A   1      33.113  20.480  25.111  1.00  0.00     0.035 A 
ATOM     12  C   UNL A   1      34.446  20.792  25.374  1.00  0.00     0.041 A 
BRANCH  10  13
ATOM     13  N   UNL A   1      34.848  24.097  23.732  1.00  0.00    -0.398 N 
ATOM     14  H   UNL A   1      35.108  24.251  22.795  1.00  0.00     0.156 HD
ATOM     15  H   UNL A   1      34.956  24.814  24.398  1.00  0.00     0.156 HD
ENDBRANCH  10  13
BRANCH  11  16
ATOM     16  N   UNL A   1      32.495  19.365  25.657  1.00  0.00    -0.379 N 
ATOM     17  H   UNL A   1      32.123  19.419  26.567  1.00  0.00     0.160 HD
BRANCH  16  18
ATOM     18  C   UNL A   1      32.385  18.109  24.912  1.00  0.00     0.177 C 
BRANCH  18  19
ATOM     19  C   UNL A   1      33.750  17.409  24.662  1.00  0.00     0.199 C 
ATOM     20  C   UNL A   1      33.818  16.982  23.182  1.00  0.00     0.077 C 
BRANCH  19  21
ATOM     21  N   UNL A   1      34.105  16.271  25.542  1.00  0.00    -0.336 N 
ATOM     22  C   UNL A   1      33.176  15.148  25.423  1.00  0.00     0.332 C 
ATOM     23  C   UNL A   1      35.480  15.787  25.399  1.00  0.00     0.332 C 
ATOM     24  H   UNL A   1      34.027  16.669  26.477  1.00  0.00     0.347 HD
ENDBRANCH  19  21
ENDBRANCH  18  19
ENDBRANCH  16  18
ENDBRANCH  11  16
ENDBRANCH   3   6
ENDBRANCH   1   2
BRANCH   1  25
ATOM     25  C   UNL A   1      38.530  19.350  25.359  1.00  0.00     0.042 C 
BRANCH  25  26
ATOM     26  C   UNL A   1      39.665  19.994  26.151  1.00  0.00     0.118 C 
BRANCH  26  27
ATOM     27  N   UNL A   1      40.856  19.156  26.160  1.00  0.00    -0.352 N 
ATOM     28  C   UNL A   1      42.182  19.511  26.136  1.00  0.00     0.251 C 
ATOM     29  H   UNL A   1      40.683  18.188  26.188  1.00  0.00     0.163 HD
ATOM     30  O   UNL A   1      43.028  18.652  25.905  1.00  0.00    -0.269 OA
BRANCH  28  31
ATOM     31  C   UNL A   1      42.592  20.913  26.377  1.00  0.00     0.039 A 
ATOM     32  C   UNL A   1      42.729  21.357  27.694  1.00  0.00     0.014 A 
ATOM     33  C   UNL A   1      42.797  21.798  25.316  1.00  0.00     0.014 A 
ATOM     34  C   UNL A   1      43.122  22.674  27.947  1.00  0.00     0.010 A 
ATOM     35  C   UNL A   1      43.255  23.089  25.566  1.00  0.00     0.010 A 
ATOM     36  C   UNL A   1      43.417  23.543  26.883  1.00  0.00    -0.014 A 
BRANCH  36  37
ATOM     37  C   UNL A   1      43.900  24.927  27.125  1.00  0.00     0.031 A 
ATOM     38  C   UNL A   1      45.354  25.264  26.936  1.00  0.00     0.074 A 
ATOM     39  C   UNL A   1      43.042  25.858  27.586  1.00  0.00     0.049 A 
ATOM     40  N   UNL A   1      45.977  26.389  27.182  1.00  0.00    -0.248 NA
ATOM     41  C   UNL A   1      46.227  24.193  26.428  1.00  0.00     0.031 C 
ATOM     42  C   UNL A   1      41.616  25.644  27.844  1.00  0.00     0.029 A 
ATOM     43  N   UNL A   1      43.246  27.170  27.934  1.00  0.00    -0.354 N 
ATOM     44  C   UNL A   1      47.314  26.154  26.882  1.00  0.00     0.074 A 
ATOM     45  C   UNL A   1      47.419  24.769  26.476  1.00  0.00     0.031 C 
ATOM     46  C   UNL A   1      41.072  26.787  28.291  1.00  0.00     0.029 A 
ATOM     47  C   UNL A   1      42.115  27.803  28.395  1.00  0.00     0.049 A 
ATOM     48  H   UNL A   1      44.121  27.618  27.860  1.00  0.00     0.167 HD
ATOM     49  C   UNL A   1      48.358  27.017  26.926  1.00  0.00     0.031 A 
ATOM     50  C   UNL A   1      41.937  29.054  28.861  1.00  0.00     0.031 A 
ATOM     51  C   UNL A   1      48.245  28.397  27.318  1.00  0.00     0.049 A 
ATOM     52  C   UNL A   1      43.111  29.992  28.906  1.00  0.00     0.074 A 
ATOM     53  C   UNL A   1      49.230  29.368  27.340  1.00  0.00     0.029 A 
ATOM     54  N   UNL A   1      47.077  29.002  27.760  1.00  0.00    -0.354 N 
ATOM     55  N   UNL A   1      44.356  29.769  28.559  1.00  0.00    -0.248 NA
ATOM     56  C   UNL A   1      42.855  31.353  29.396  1.00  0.00     0.031 C 
ATOM     57  C   UNL A   1      48.671  30.546  27.844  1.00  0.00     0.029 A 
ATOM     58  C   UNL A   1      47.322  30.327  28.078  1.00  0.00     0.049 A 
ATOM     59  H   UNL A   1      46.203  28.556  27.835  1.00  0.00     0.167 HD
ATOM     60  C   UNL A   1      45.027  30.969  28.763  1.00  0.00     0.074 A 
ATOM     61  C   UNL A   1      44.047  31.918  29.251  1.00  0.00     0.031 C 
ATOM     62  C   UNL A   1      46.336  31.259  28.561  1.00  0.00     0.031 A 
BRANCH  49  63
ATOM     63  C   UNL A   1      49.718  26.492  26.546  1.00  0.00    -0.014 A 
ATOM     64  C   UNL A   1      50.573  25.922  27.507  1.00  0.00     0.010 A 
ATOM     65  C   UNL A   1      50.130  26.527  25.200  1.00  0.00     0.010 A 
ATOM     66  C   UNL A   1      51.829  25.434  27.138  1.00  0.00     0.020 A 
ATOM     67  C   UNL A   1      51.375  26.013  24.823  1.00  0.00     0.020 A 
ATOM     68  C   UNL A   1      52.223  25.485  25.797  1.00  0.00     0.054 A 
BRANCH  68  69
ATOM     69  S   UNL A   1      53.849  24.822  25.344  1.00  0.00     0.124 S 
ATOM     70  O   UNL A   1      54.208  25.658  24.202  1.00  0.00    -0.237 OA
ATOM     71  O   UNL A   1      54.635  25.045  26.556  1.00  0.00    -0.237 OA
ATOM     72  O   UNL A   1      53.579  23.421  25.031  1.00  0.00    -0.744 OA
ENDBRANCH  68  69
ENDBRANCH  49  63
BRANCH  50  73
ATOM     73  C   UNL A   1      40.588  29.489  29.316  1.00  0.00    -0.014 A 
ATOM     74  C   UNL A   1      39.668  30.032  28.403  1.00  0.00     0.010 A 
ATOM     75  C   UNL A   1      40.210  29.342  30.663  1.00  0.00     0.010 A 
ATOM     76  C   UNL A   1      38.399  30.434  28.831  1.00  0.00     0.020 A 
ATOM     77  C   UNL A   1      38.932  29.716  31.089  1.00  0.00     0.020 A 
ATOM     78  C   UNL A   1      38.038  30.271  30.171  1.00  0.00     0.054 A 
BRANCH  78  79
ATOM     79  S   UNL A   1      36.365  30.746  30.692  1.00  0.00     0.124 S 
ATOM     80  O   UNL A   1      35.615  30.627  29.447  1.00  0.00    -0.237 OA
ATOM     81  O   UNL A   1      36.060  29.748  31.714  1.00  0.00    -0.237 OA
ATOM     82  O   UNL A   1      36.538  32.107  31.194  1.00  0.00    -0.744 OA
ENDBRANCH  78  79
ENDBRANCH  50  73
BRANCH  62  83
ATOM     83  C   UNL A   1      46.785  32.670  28.834  1.00  0.00    -0.014 A 
ATOM     84  C   UNL A   1      47.350  33.031  30.070  1.00  0.00     0.010 A 
ATOM     85  C   UNL A   1      46.701  33.632  27.811  1.00  0.00     0.010 A 
ATOM     86  C   UNL A   1      47.801  34.336  30.285  1.00  0.00     0.020 A 
ATOM     87  C   UNL A   1      47.177  34.930  28.012  1.00  0.00     0.020 A 
ATOM     88  C   UNL A   1      47.713  35.277  29.254  1.00  0.00     0.054 A 
BRANCH  88  89
ATOM     89  S   UNL A   1      48.358  36.948  29.540  1.00  0.00     0.124 S 
ATOM     90  O   UNL A   1      49.565  36.952  28.719  1.00  0.00    -0.237 OA
ATOM     91  O   UNL A   1      47.270  37.798  29.063  1.00  0.00    -0.237 OA
ATOM     92  O   UNL A   1      48.586  36.990  30.983  1.00  0.00    -0.744 OA
ENDBRANCH  88  89
ENDBRANCH  62  83
ENDBRANCH  36  37
ENDBRANCH  28  31
ENDBRANCH  26  27
ENDBRANCH  25  26
ENDBRANCH   1  25
TORSDOF 18
ENDMDL
MODEL 2
REMARK VINA RESULT:     -10.2      1.194      8.842
REMARK SMILES Cc1cc(NC[C@H](C)[NH+](C)C)cc(C(=O)NCCCNC(=O)c2ccc(-c3c4nc(c(-c5ccc(S(=O)(=O)[O-])cc5)c5ccc([nH]5)c(-c5ccc(S(=O)(=O)[O-])cc5)c5nc(c(-c6ccc(S(=O)(=O)[O-])cc6)c6ccc3[nH]6)C=C5)C=C4)cc2)c1N
REMARK SMILES IDX 17 1 16 2 14 3 15 4 13 6 1 7 2 8 3 9 83 10 4 11 12 12 84 13
REMARK SMILES IDX 5 16 6 18 7 19 8 20 9 21 10 22 11 23 18 25 19 26 20 27 21 28
REMARK SMILES IDX 22 30 23 31 24 32 82 33 25 34 81 35 26 36 27 37 28 38 75 39
REMARK SMILES IDX 29 40 80 41 74 42 76 43 30 44 79 45 73 46 72 47 31 49 61 50
REMARK SMILES IDX 42 51 60 52 43 53 46 54 59 55 77 56 44 57 45 58 58 60 78 61
REMARK SMILES IDX 47 62 32 63 33 64 41 65 34 66 40 67 35 68 36 69 37 70 38 71
REMARK SMILES IDX 39 72 62 73 63 74 71 75 64 76 70 77 65 78 66 79 67 80 68 81
REMARK SMILES IDX 69 82 48 83 49 84 57 85 50 86 56 87 51 88 52 89 53 90 54 91
REMARK SMILES IDX 55 92
REMARK H PARENT 16 5 84 14 84 15 5 17 9 24 20 29 76 48 46 59
REMARK Flexibility Score: inf
ROOT
ATOM      1  C   UNL A   1      37.008  21.577  24.910  1.00  0.00     0.118 C 
ENDROOT
BRANCH   1   2
ATOM      2  N   UNL A   1      36.102  21.573  26.050  1.00  0.00    -0.352 N 
ATOM      3  C   UNL A   1      34.738  21.437  26.176  1.00  0.00     0.253 C 
ATOM      4  O   UNL A   1      34.295  21.450  27.329  1.00  0.00    -0.269 OA
ATOM      5  H   UNL A   1      36.562  21.694  26.911  1.00  0.00     0.163 HD
BRANCH   3   6
ATOM      6  C   UNL A   1      33.802  21.240  25.020  1.00  0.00     0.065 A 
ATOM      7  C   UNL A   1      32.260  18.426  22.933  1.00  0.00     0.046 C 
ATOM      8  C   UNL A   1      32.644  19.787  23.444  1.00  0.00    -0.025 A 
ATOM      9  C   UNL A   1      32.149  20.928  22.780  1.00  0.00     0.031 A 
ATOM     10  C   UNL A   1      33.484  19.935  24.571  1.00  0.00     0.047 A 
ATOM     11  C   UNL A   1      32.436  22.215  23.230  1.00  0.00     0.035 A 
ATOM     12  C   UNL A   1      33.184  22.329  24.401  1.00  0.00     0.041 A 
BRANCH  10  13
ATOM     13  N   UNL A   1      34.102  18.806  25.127  1.00  0.00    -0.398 N 
ATOM     14  H   UNL A   1      33.569  18.000  25.321  1.00  0.00     0.156 HD
ATOM     15  H   UNL A   1      35.066  18.819  25.323  1.00  0.00     0.156 HD
ENDBRANCH  10  13
BRANCH  11  16
ATOM     16  N   UNL A   1      31.990  23.326  22.529  1.00  0.00    -0.379 N 
ATOM     17  H   UNL A   1      31.036  23.395  22.295  1.00  0.00     0.160 HD
BRANCH  16  18
ATOM     18  C   UNL A   1      32.906  24.397  22.129  1.00  0.00     0.177 C 
BRANCH  18  19
ATOM     19  C   UNL A   1      32.560  25.779  22.751  1.00  0.00     0.199 C 
ATOM     20  C   UNL A   1      33.239  25.879  24.131  1.00  0.00     0.077 C 
BRANCH  19  21
ATOM     21  N   UNL A   1      31.126  26.140  22.857  1.00  0.00    -0.336 N 
ATOM     22  C   UNL A   1      30.592  25.960  24.206  1.00  0.00     0.332 C 
ATOM     23  C   UNL A   1      30.792  27.481  22.372  1.00  0.00     0.332 C 
ATOM     24  H   UNL A   1      30.674  25.477  22.229  1.00  0.00     0.347 HD
ENDBRANCH  19  21
ENDBRANCH  18  19
ENDBRANCH  16  18
ENDBRANCH  11  16
ENDBRANCH   3   6
ENDBRANCH   1   2
BRANCH   1  25
ATOM     25  C   UNL A   1      38.031  20.443  25.011  1.00  0.00     0.042 C 
BRANCH  25  26
ATOM     26  C   UNL A   1      39.103  20.693  26.069  1.00  0.00     0.118 C 
BRANCH  26  27
ATOM     27  N   UNL A   1      40.117  19.648  26.062  1.00  0.00    -0.352 N 
ATOM     28  C   UNL A   1      41.486  19.750  26.099  1.00  0.00     0.251 C 
ATOM     29  H   UNL A   1      39.767  18.729  26.027  1.00  0.00     0.163 HD
ATOM     30  O   UNL A   1      42.167  18.762  25.842  1.00  0.00    -0.269 OA
BRANCH  28  31
ATOM     31  C   UNL A   1      42.138  21.035  26.435  1.00  0.00     0.039 A 
ATOM     32  C   UNL A   1      42.488  21.904  25.398  1.00  0.00     0.014 A 
ATOM     33  C   UNL A   1      42.447  21.364  27.757  1.00  0.00     0.014 A 
ATOM     34  C   UNL A   1      43.099  23.126  25.690  1.00  0.00     0.010 A 
ATOM     35  C   UNL A   1      42.993  22.611  28.053  1.00  0.00     0.010 A 
ATOM     36  C   UNL A   1      43.330  23.503  27.024  1.00  0.00    -0.014 A 
BRANCH  36  37
ATOM     37  C   UNL A   1      43.917  24.824  27.364  1.00  0.00     0.031 A 
ATOM     38  C   UNL A   1      43.034  25.943  27.847  1.00  0.00     0.074 A 
ATOM     39  C   UNL A   1      45.234  25.036  27.168  1.00  0.00     0.049 A 
ATOM     40  N   UNL A   1      43.349  27.186  28.108  1.00  0.00    -0.248 NA
ATOM     41  C   UNL A   1      41.608  25.632  28.038  1.00  0.00     0.031 C 
ATOM     42  C   UNL A   1      46.188  24.041  26.670  1.00  0.00     0.029 A 
ATOM     43  N   UNL A   1      45.997  26.162  27.349  1.00  0.00    -0.354 N 
ATOM     44  C   UNL A   1      42.160  27.809  28.470  1.00  0.00     0.074 A 
ATOM     45  C   UNL A   1      41.112  26.818  28.356  1.00  0.00     0.031 C 
ATOM     46  C   UNL A   1      47.408  24.596  26.603  1.00  0.00     0.029 A 
ATOM     47  C   UNL A   1      47.319  25.995  27.009  1.00  0.00     0.049 A 
ATOM     48  H   UNL A   1      45.632  27.011  27.691  1.00  0.00     0.167 HD
ATOM     49  C   UNL A   1      41.961  29.086  28.876  1.00  0.00     0.031 A 
ATOM     50  C   UNL A   1      48.343  26.870  27.010  1.00  0.00     0.031 A 
ATOM     51  C   UNL A   1      43.010  30.064  29.001  1.00  0.00     0.049 A 
ATOM     52  C   UNL A   1      48.097  28.284  27.459  1.00  0.00     0.074 A 
ATOM     53  C   UNL A   1      42.922  31.367  29.459  1.00  0.00     0.029 A 
ATOM     54  N   UNL A   1      44.338  29.848  28.663  1.00  0.00    -0.354 N 
ATOM     55  N   UNL A   1      46.976  28.837  27.858  1.00  0.00    -0.248 NA
ATOM     56  C   UNL A   1      49.254  29.189  27.469  1.00  0.00     0.031 C 
ATOM     57  C   UNL A   1      44.185  31.954  29.350  1.00  0.00     0.029 A 
ATOM     58  C   UNL A   1      45.075  31.000  28.882  1.00  0.00     0.049 A 
ATOM     59  H   UNL A   1      44.704  29.000  28.321  1.00  0.00     0.167 HD
ATOM     60  C   UNL A   1      47.299  30.147  28.190  1.00  0.00     0.074 A 
ATOM     61  C   UNL A   1      48.722  30.300  27.960  1.00  0.00     0.031 C 
ATOM     62  C   UNL A   1      46.490  31.135  28.649  1.00  0.00     0.031 A 
BRANCH  49  63
ATOM     63  C   UNL A   1      40.552  29.504  29.210  1.00  0.00    -0.014 A 
ATOM     64  C   UNL A   1      40.155  29.729  30.540  1.00  0.00     0.010 A 
ATOM     65  C   UNL A   1      39.624  29.720  28.174  1.00  0.00     0.010 A 
ATOM     66  C   UNL A   1      38.846  30.121  30.833  1.00  0.00     0.020 A 
ATOM     67  C   UNL A   1      38.322  30.141  28.461  1.00  0.00     0.020 A 
ATOM     68  C   UNL A   1      37.937  30.323  29.790  1.00  0.00     0.054 A 
BRANCH  68  69
ATOM     69  S   UNL A   1      36.252  30.856  30.198  1.00  0.00     0.124 S 
ATOM     70  O   UNL A   1      35.951  30.035  31.368  1.00  0.00    -0.237 OA
ATOM     71  O   UNL A   1      36.422  32.283  30.461  1.00  0.00    -0.237 OA
ATOM     72  O   UNL A   1      35.485  30.535  28.997  1.00  0.00    -0.744 OA
ENDBRANCH  68  69
ENDBRANCH  49  63
BRANCH  50  73
ATOM     73  C   UNL A   1      49.696  26.426  26.576  1.00  0.00    -0.014 A 
ATOM     74  C   UNL A   1      50.587  25.848  27.497  1.00  0.00     0.010 A 
ATOM     75  C   UNL A   1      50.092  26.561  25.233  1.00  0.00     0.010 A 
ATOM     76  C   UNL A   1      51.855  25.426  27.086  1.00  0.00     0.020 A 
ATOM     77  C   UNL A   1      51.348  26.113  24.812  1.00  0.00     0.020 A 
ATOM     78  C   UNL A   1      52.226  25.558  25.746  1.00  0.00     0.054 A 
BRANCH  78  79
ATOM     79  S   UNL A   1      53.854  24.950  25.223  1.00  0.00     0.124 S 
ATOM     80  O   UNL A   1      53.610  23.520  25.071  1.00  0.00    -0.237 OA
ATOM     81  O   UNL A   1      54.083  25.689  23.984  1.00  0.00    -0.237 OA
ATOM     82  O   UNL A   1      54.730  25.323  26.332  1.00  0.00    -0.744 OA
ENDBRANCH  78  79
ENDBRANCH  50  73
BRANCH  62  83
ATOM     83  C   UNL A   1      47.125  32.462  28.966  1.00  0.00    -0.014 A 
ATOM     84  C   UNL A   1      47.187  33.490  28.009  1.00  0.00     0.010 A 
ATOM     85  C   UNL A   1      47.606  32.705  30.266  1.00  0.00     0.010 A 
ATOM     86  C   UNL A   1      47.741  34.730  28.341  1.00  0.00     0.020 A 
ATOM     87  C   UNL A   1      48.135  33.951  30.609  1.00  0.00     0.020 A 
ATOM     88  C   UNL A   1      48.209  34.954  29.639  1.00  0.00     0.054 A 
BRANCH  88  89
ATOM     89  S   UNL A   1      48.871  36.589  30.059  1.00  0.00     0.124 S 
ATOM     90  O   UNL A   1      47.965  37.477  29.338  1.00  0.00    -0.237 OA
ATOM     91  O   UNL A   1      48.753  36.618  31.515  1.00  0.00    -0.237 OA
ATOM     92  O   UNL A   1      50.241  36.550  29.552  1.00  0.00    -0.744 OA
ENDBRANCH  88  89
ENDBRANCH  62  83
ENDBRANCH  36  37
ENDBRANCH  28  31
ENDBRANCH  26  27
ENDBRANCH  25  26
ENDBRANCH   1  25
TORSDOF 18
ENDMDL
MODEL 3
REMARK VINA RESULT:     -10.2      6.396      8.877
REMARK SMILES Cc1cc(NC[C@H](C)[NH+](C)C)cc(C(=O)NCCCNC(=O)c2ccc(-c3c4nc(c(-c5ccc(S(=O)(=O)[O-])cc5)c5ccc([nH]5)c(-c5ccc(S(=O)(=O)[O-])cc5)c5nc(c(-c6ccc(S(=O)(=O)[O-])cc6)c6ccc3[nH]6)C=C5)C=C4)cc2)c1N
REMARK SMILES IDX 17 1 16 2 14 3 15 4 13 6 1 7 2 8 3 9 83 10 4 11 12 12 84 13
REMARK SMILES IDX 5 16 6 18 7 19 8 20 9 21 10 22 11 23 18 25 19 26 20 27 21 28
REMARK SMILES IDX 22 30 23 31 24 32 82 33 25 34 81 35 26 36 27 37 28 38 75 39
REMARK SMILES IDX 29 40 80 41 74 42 76 43 30 44 79 45 73 46 72 47 31 49 61 50
REMARK SMILES IDX 42 51 60 52 43 53 46 54 59 55 77 56 44 57 45 58 58 60 78 61
REMARK SMILES IDX 47 62 32 63 33 64 41 65 34 66 40 67 35 68 36 69 37 70 38 71
REMARK SMILES IDX 39 72 62 73 63 74 71 75 64 76 70 77 65 78 66 79 67 80 68 81
REMARK SMILES IDX 69 82 48 83 49 84 57 85 50 86 56 87 51 88 52 89 53 90 54 91
REMARK SMILES IDX 55 92
REMARK H PARENT 16 5 84 14 84 15 5 17 9 24 20 29 76 48 46 59
REMARK Flexibility Score: inf
ROOT
ATOM      1  C   UNL A   1      36.091  23.658  25.601  1.00  0.00     0.118 C 
ENDROOT
BRANCH   1   2
ATOM      2  N   UNL A   1      35.266  23.085  26.654  1.00  0.00    -0.352 N 
ATOM      3  C   UNL A   1      34.094  22.363  26.653  1.00  0.00     0.253 C 
ATOM      4  O   UNL A   1      33.678  22.001  27.758  1.00  0.00    -0.269 OA
ATOM      5  H   UNL A   1      35.620  23.250  27.557  1.00  0.00     0.163 HD
BRANCH   3   6
ATOM      6  C   UNL A   1      33.347  21.975  25.411  1.00  0.00     0.065 A 
ATOM      7  C   UNL A   1      32.501  18.869  23.339  1.00  0.00     0.046 C 
ATOM      8  C   UNL A   1      32.617  20.295  23.806  1.00  0.00    -0.025 A 
ATOM      9  C   UNL A   1      32.046  21.316  23.020  1.00  0.00     0.031 A 
ATOM     10  C   UNL A   1      33.281  20.619  25.011  1.00  0.00     0.047 A 
ATOM     11  C   UNL A   1      32.084  22.651  23.419  1.00  0.00     0.035 A 
ATOM     12  C   UNL A   1      32.657  22.929  24.659  1.00  0.00     0.041 A 
BRANCH  10  13
ATOM     13  N   UNL A   1      33.983  19.623  25.703  1.00  0.00    -0.398 N 
ATOM     14  H   UNL A   1      33.832  19.495  26.668  1.00  0.00     0.156 HD
ATOM     15  H   UNL A   1      34.627  19.052  25.225  1.00  0.00     0.156 HD
ENDBRANCH  10  13
BRANCH  11  16
ATOM     16  N   UNL A   1      31.570  23.648  22.604  1.00  0.00    -0.379 N 
ATOM     17  H   UNL A   1      31.493  23.486  21.636  1.00  0.00     0.160 HD
BRANCH  16  18
ATOM     18  C   UNL A   1      31.140  24.938  23.151  1.00  0.00     0.177 C 
BRANCH  18  19
ATOM     19  C   UNL A   1      31.712  26.163  22.383  1.00  0.00     0.199 C 
ATOM     20  C   UNL A   1      32.746  25.659  21.357  1.00  0.00     0.077 C 
BRANCH  19  21
ATOM     21  N   UNL A   1      32.284  27.267  23.189  1.00  0.00    -0.336 N 
ATOM     22  C   UNL A   1      32.770  26.825  24.496  1.00  0.00     0.332 C 
ATOM     23  C   UNL A   1      33.327  28.044  22.516  1.00  0.00     0.332 C 
ATOM     24  H   UNL A   1      31.490  27.891  23.323  1.00  0.00     0.347 HD
ENDBRANCH  19  21
ENDBRANCH  18  19
ENDBRANCH  16  18
ENDBRANCH  11  16
ENDBRANCH   3   6
ENDBRANCH   1   2
BRANCH   1  25
ATOM     25  C   UNL A   1      37.557  23.243  25.757  1.00  0.00     0.042 C 
BRANCH  25  26
ATOM     26  C   UNL A   1      38.419  24.317  26.414  1.00  0.00     0.118 C 
BRANCH  26  27
ATOM     27  N   UNL A   1      39.836  24.100  26.158  1.00  0.00    -0.352 N 
ATOM     28  C   UNL A   1      40.926  24.830  26.562  1.00  0.00     0.251 C 
ATOM     29  H   UNL A   1      40.043  23.307  25.613  1.00  0.00     0.163 HD
ATOM     30  O   UNL A   1      42.016  24.616  26.041  1.00  0.00    -0.269 OA
BRANCH  28  31
ATOM     31  C   UNL A   1      40.792  25.869  27.607  1.00  0.00     0.039 A 
ATOM     32  C   UNL A   1      39.803  25.720  28.582  1.00  0.00     0.014 A 
ATOM     33  C   UNL A   1      41.604  27.006  27.603  1.00  0.00     0.014 A 
ATOM     34  C   UNL A   1      39.661  26.685  29.583  1.00  0.00     0.010 A 
ATOM     35  C   UNL A   1      41.509  27.932  28.639  1.00  0.00     0.010 A 
ATOM     36  C   UNL A   1      40.534  27.785  29.637  1.00  0.00    -0.014 A 
BRANCH  36  37
ATOM     37  C   UNL A   1      40.447  28.789  30.728  1.00  0.00     0.031 A 
ATOM     38  C   UNL A   1      41.312  28.653  31.951  1.00  0.00     0.074 A 
ATOM     39  C   UNL A   1      39.537  29.780  30.647  1.00  0.00     0.049 A 
ATOM     40  N   UNL A   1      41.315  29.377  33.042  1.00  0.00    -0.248 NA
ATOM     41  C   UNL A   1      42.282  27.546  31.963  1.00  0.00     0.031 C 
ATOM     42  C   UNL A   1      38.616  29.997  29.529  1.00  0.00     0.029 A 
ATOM     43  N   UNL A   1      39.226  30.784  31.530  1.00  0.00    -0.354 N 
ATOM     44  C   UNL A   1      42.268  28.800  33.876  1.00  0.00     0.074 A 
ATOM     45  C   UNL A   1      42.791  27.644  33.182  1.00  0.00     0.031 C 
ATOM     46  C   UNL A   1      37.858  31.074  29.785  1.00  0.00     0.029 A 
ATOM     47  C   UNL A   1      38.205  31.600  31.101  1.00  0.00     0.049 A 
ATOM     48  H   UNL A   1      39.690  30.909  32.390  1.00  0.00     0.167 HD
ATOM     49  C   UNL A   1      42.680  29.206  35.101  1.00  0.00     0.031 A 
ATOM     50  C   UNL A   1      37.604  32.645  31.704  1.00  0.00     0.031 A 
ATOM     51  C   UNL A   1      42.164  30.366  35.780  1.00  0.00     0.049 A 
ATOM     52  C   UNL A   1      38.074  33.073  33.066  1.00  0.00     0.074 A 
ATOM     53  C   UNL A   1      42.556  30.894  36.997  1.00  0.00     0.029 A 
ATOM     54  N   UNL A   1      41.143  31.175  35.303  1.00  0.00    -0.354 N 
ATOM     55  N   UNL A   1      39.019  32.552  33.812  1.00  0.00    -0.248 NA
ATOM     56  C   UNL A   1      37.405  34.236  33.665  1.00  0.00     0.031 C 
ATOM     57  C   UNL A   1      41.738  31.992  37.280  1.00  0.00     0.029 A 
ATOM     58  C   UNL A   1      40.876  32.184  36.211  1.00  0.00     0.049 A 
ATOM     59  H   UNL A   1      40.678  31.050  34.444  1.00  0.00     0.167 HD
ATOM     60  C   UNL A   1      39.076  33.339  34.956  1.00  0.00     0.074 A 
ATOM     61  C   UNL A   1      38.080  34.380  34.798  1.00  0.00     0.031 C 
ATOM     62  C   UNL A   1      39.882  33.214  36.038  1.00  0.00     0.031 A 
BRANCH  49  63
ATOM     63  C   UNL A   1      43.737  28.385  35.792  1.00  0.00    -0.014 A 
ATOM     64  C   UNL A   1      43.391  27.319  36.643  1.00  0.00     0.010 A 
ATOM     65  C   UNL A   1      45.098  28.653  35.552  1.00  0.00     0.010 A 
ATOM     66  C   UNL A   1      44.383  26.564  37.273  1.00  0.00     0.020 A 
ATOM     67  C   UNL A   1      46.094  27.880  36.158  1.00  0.00     0.020 A 
ATOM     68  C   UNL A   1      45.730  26.851  37.027  1.00  0.00     0.054 A 
BRANCH  68  69
ATOM     69  S   UNL A   1      46.996  25.838  37.839  1.00  0.00     0.124 S 
ATOM     70  O   UNL A   1      48.133  25.994  36.936  1.00  0.00    -0.237 OA
ATOM     71  O   UNL A   1      47.136  26.484  39.142  1.00  0.00    -0.237 OA
ATOM     72  O   UNL A   1      46.404  24.502  37.871  1.00  0.00    -0.744 OA
ENDBRANCH  68  69
ENDBRANCH  49  63
BRANCH  50  73
ATOM     73  C   UNL A   1      36.496  33.359  31.014  1.00  0.00    -0.014 A 
ATOM     74  C   UNL A   1      36.709  33.973  29.767  1.00  0.00     0.010 A 
ATOM     75  C   UNL A   1      35.214  33.411  31.591  1.00  0.00     0.010 A 
ATOM     76  C   UNL A   1      35.665  34.638  29.118  1.00  0.00     0.020 A 
ATOM     77  C   UNL A   1      34.160  34.050  30.931  1.00  0.00     0.020 A 
ATOM     78  C   UNL A   1      34.396  34.670  29.702  1.00  0.00     0.054 A 
BRANCH  78  79
ATOM     79  S   UNL A   1      33.042  35.489  28.814  1.00  0.00     0.124 S 
ATOM     80  O   UNL A   1      32.237  36.018  29.909  1.00  0.00    -0.237 OA
ATOM     81  O   UNL A   1      33.750  36.483  28.009  1.00  0.00    -0.237 OA
ATOM     82  O   UNL A   1      32.429  34.404  28.050  1.00  0.00    -0.744 OA
ENDBRANCH  78  79
ENDBRANCH  50  73
BRANCH  62  83
ATOM     83  C   UNL A   1      39.750  34.244  37.128  1.00  0.00    -0.014 A 
ATOM     84  C   UNL A   1      38.888  34.046  38.221  1.00  0.00     0.010 A 
ATOM     85  C   UNL A   1      40.554  35.399  37.088  1.00  0.00     0.010 A 
ATOM     86  C   UNL A   1      38.816  34.997  39.242  1.00  0.00     0.020 A 
ATOM     87  C   UNL A   1      40.504  36.338  38.121  1.00  0.00     0.020 A 
ATOM     88  C   UNL A   1      39.625  36.136  39.187  1.00  0.00     0.054 A 
BRANCH  88  89
ATOM     89  S   UNL A   1      39.553  37.325  40.555  1.00  0.00     0.124 S 
ATOM     90  O   UNL A   1      40.870  37.950  40.483  1.00  0.00    -0.237 OA
ATOM     91  O   UNL A   1      38.429  38.180  40.177  1.00  0.00    -0.237 OA
ATOM     92  O   UNL A   1      39.323  36.489  41.730  1.00  0.00    -0.744 OA
ENDBRANCH  88  89
ENDBRANCH  62  83
ENDBRANCH  36  37
ENDBRANCH  28  31
ENDBRANCH  26  27
ENDBRANCH  25  26
ENDBRANCH   1  25
TORSDOF 18
ENDMDL
