MODEL 1
REMARK VINA RESULT:     -12.2      0.000      0.000
REMARK SMILES CCCc1nc2cc(C(=O)NCCCNC(=O)c3ccc(-c4c5nc(c(-c6ccc(S(=O)(=O)[O-])cc6)c6ccc([nH]6)c(-c6ccc(S(=O)(=O)[O-])cc6)c6nc(c(-c7ccc(S(=O)(=O)[O-])cc7)c7ccc4[nH]7)C=C6)C=C5)cc3)ccc2n1[C@H](CO)C(C)C
REMARK SMILES IDX 13 1 12 2 11 3 9 4 10 5 8 7 4 8 5 9 81 10 6 11 80 12 7 13
REMARK SMILES IDX 79 14 78 15 3 16 2 17 1 18 82 19 85 20 86 21 87 22 83 23
REMARK SMILES IDX 84 24 14 26 15 27 16 28 17 30 18 31 19 32 77 33 20 34 76 35
REMARK SMILES IDX 21 36 22 37 23 38 70 39 24 40 75 41 69 42 71 43 25 44 74 45
REMARK SMILES IDX 68 46 67 47 26 49 56 50 37 51 55 52 38 53 41 54 54 55 72 56
REMARK SMILES IDX 39 57 40 58 53 60 73 61 42 62 27 63 28 64 36 65 29 66 35 67
REMARK SMILES IDX 30 68 31 69 32 70 33 71 34 72 57 73 58 74 66 75 59 76 65 77
REMARK SMILES IDX 60 78 61 79 62 80 63 81 64 82 43 83 44 84 52 85 45 86 51 87
REMARK SMILES IDX 46 88 47 89 48 90 49 91 50 92
REMARK H PARENT 11 6 84 25 15 29 71 48 41 59
REMARK Flexibility Score: inf
ROOT
ATOM      1  C   UNL A   1      36.334  21.215  24.937  1.00  0.00     0.042 C 
ENDROOT
BRANCH   1   2
ATOM      2  C   UNL A   1      35.364  21.268  26.126  1.00  0.00     0.118 C 
BRANCH   2   3
ATOM      3  N   UNL A   1      34.073  20.678  25.813  1.00  0.00    -0.352 N 
ATOM      4  C   UNL A   1      32.942  21.148  25.193  1.00  0.00     0.251 C 
ATOM      5  O   UNL A   1      32.053  20.318  24.982  1.00  0.00    -0.269 OA
ATOM      6  H   UNL A   1      33.991  19.743  26.110  1.00  0.00     0.163 HD
BRANCH   4   7
ATOM      7  C   UNL A   1      32.733  22.558  24.741  1.00  0.00     0.042 A 
ATOM      8  C   UNL A   1      31.817  26.956  25.438  1.00  0.00     0.110 A 
ATOM      9  N   UNL A   1      31.912  25.891  26.216  1.00  0.00    -0.233 NA
ATOM     10  N   UNL A   1      31.873  26.584  24.099  1.00  0.00    -0.322 N 
ATOM     11  C   UNL A   1      32.185  24.835  25.406  1.00  0.00     0.090 A 
ATOM     12  C   UNL A   1      32.268  25.243  24.085  1.00  0.00     0.069 A 
ATOM     13  C   UNL A   1      32.398  23.489  25.742  1.00  0.00     0.044 A 
ATOM     14  C   UNL A   1      32.642  24.353  23.070  1.00  0.00     0.029 A 
ATOM     15  C   UNL A   1      32.894  23.018  23.431  1.00  0.00     0.016 A 
BRANCH   8  16
ATOM     16  C   UNL A   1      31.777  28.326  26.041  1.00  0.00     0.075 C 
BRANCH  16  17
ATOM     17  C   UNL A   1      33.150  28.998  26.119  1.00  0.00     0.005 C 
ATOM     18  C   UNL A   1      33.256  30.021  27.245  1.00  0.00     0.004 C 
ENDBRANCH  16  17
ENDBRANCH   8  16
BRANCH  10  19
ATOM     19  C   UNL A   1      31.560  27.321  22.857  1.00  0.00     0.117 C 
BRANCH  19  20
ATOM     20  C   UNL A   1      30.071  27.813  22.783  1.00  0.00     0.008 C 
ATOM     21  C   UNL A   1      29.143  26.941  23.648  1.00  0.00     0.009 C 
ATOM     22  C   UNL A   1      29.877  29.266  23.239  1.00  0.00     0.009 C 
ENDBRANCH  19  20
BRANCH  19  23
ATOM     23  C   UNL A   1      32.586  28.412  22.466  1.00  0.00     0.181 C 
BRANCH  23  24
ATOM     24  O   UNL A   1      33.699  27.947  21.700  1.00  0.00    -0.394 OA
ATOM     25  H   UNL A   1      34.517  28.338  22.047  1.00  0.00     0.210 HD
ENDBRANCH  23  24
ENDBRANCH  19  23
ENDBRANCH  10  19
ENDBRANCH   4   7
ENDBRANCH   2   3
ENDBRANCH   1   2
BRANCH   1  26
ATOM     26  C   UNL A   1      37.549  22.135  25.080  1.00  0.00     0.118 C 
BRANCH  26  27
ATOM     27  N   UNL A   1      38.694  21.497  25.705  1.00  0.00    -0.352 N 
ATOM     28  C   UNL A   1      39.703  21.866  26.551  1.00  0.00     0.251 C 
ATOM     29  H   UNL A   1      38.762  20.548  25.453  1.00  0.00     0.163 HD
ATOM     30  O   UNL A   1      40.465  20.949  26.876  1.00  0.00    -0.269 OA
BRANCH  28  31
ATOM     31  C   UNL A   1      39.975  23.234  27.082  1.00  0.00     0.039 A 
ATOM     32  C   UNL A   1      41.040  23.609  27.895  1.00  0.00     0.014 A 
ATOM     33  C   UNL A   1      39.040  24.231  26.717  1.00  0.00     0.014 A 
ATOM     34  C   UNL A   1      41.144  24.931  28.351  1.00  0.00     0.010 A 
ATOM     35  C   UNL A   1      39.142  25.550  27.169  1.00  0.00     0.010 A 
ATOM     36  C   UNL A   1      40.190  25.905  28.004  1.00  0.00    -0.014 A 
BRANCH  36  37
ATOM     37  C   UNL A   1      40.426  27.298  28.409  1.00  0.00     0.031 A 
ATOM     38  C   UNL A   1      41.657  27.900  27.838  1.00  0.00     0.074 A 
ATOM     39  C   UNL A   1      39.649  28.084  29.187  1.00  0.00     0.049 A 
ATOM     40  N   UNL A   1      42.785  28.055  28.449  1.00  0.00    -0.248 NA
ATOM     41  C   UNL A   1      41.689  28.253  26.414  1.00  0.00     0.031 C 
ATOM     42  C   UNL A   1      38.297  27.824  29.686  1.00  0.00     0.029 A 
ATOM     43  N   UNL A   1      39.917  29.341  29.670  1.00  0.00    -0.354 N 
ATOM     44  C   UNL A   1      43.615  28.723  27.559  1.00  0.00     0.074 A 
ATOM     45  C   UNL A   1      42.949  28.679  26.280  1.00  0.00     0.031 C 
ATOM     46  C   UNL A   1      37.790  28.957  30.234  1.00  0.00     0.029 A 
ATOM     47  C   UNL A   1      38.835  29.967  30.275  1.00  0.00     0.049 A 
ATOM     48  H   UNL A   1      40.803  29.762  29.595  1.00  0.00     0.167 HD
ATOM     49  C   UNL A   1      44.676  29.451  28.003  1.00  0.00     0.031 A 
ATOM     50  C   UNL A   1      38.805  31.208  30.823  1.00  0.00     0.031 A 
ATOM     51  C   UNL A   1      44.947  29.200  29.396  1.00  0.00     0.049 A 
ATOM     52  C   UNL A   1      40.174  31.529  31.277  1.00  0.00     0.074 A 
ATOM     53  C   UNL A   1      45.389  28.135  30.147  1.00  0.00     0.029 A 
ATOM     54  N   UNL A   1      44.380  30.101  30.262  1.00  0.00    -0.354 N 
ATOM     55  N   UNL A   1      40.763  30.915  32.264  1.00  0.00    -0.248 NA
ATOM     56  C   UNL A   1      41.032  32.379  30.465  1.00  0.00     0.031 C 
ATOM     57  C   UNL A   1      44.787  28.293  31.430  1.00  0.00     0.029 A 
ATOM     58  C   UNL A   1      44.034  29.470  31.428  1.00  0.00     0.049 A 
ATOM     59  H   UNL A   1      44.243  31.057  30.074  1.00  0.00     0.167 HD
ATOM     60  C   UNL A   1      42.104  30.944  31.932  1.00  0.00     0.074 A 
ATOM     61  C   UNL A   1      42.222  32.000  30.936  1.00  0.00     0.031 C 
ATOM     62  C   UNL A   1      42.928  29.910  32.263  1.00  0.00     0.031 A 
BRANCH  49  63
ATOM     63  C   UNL A   1      45.208  30.691  27.322  1.00  0.00    -0.014 A 
ATOM     64  C   UNL A   1      44.417  31.822  27.050  1.00  0.00     0.010 A 
ATOM     65  C   UNL A   1      46.607  30.845  27.188  1.00  0.00     0.010 A 
ATOM     66  C   UNL A   1      44.976  33.039  26.650  1.00  0.00     0.020 A 
ATOM     67  C   UNL A   1      47.182  32.071  26.828  1.00  0.00     0.020 A 
ATOM     68  C   UNL A   1      46.358  33.159  26.552  1.00  0.00     0.054 A 
BRANCH  68  69
ATOM     69  S   UNL A   1      47.046  34.775  26.119  1.00  0.00     0.124 S 
ATOM     70  O   UNL A   1      45.841  35.536  25.798  1.00  0.00    -0.237 OA
ATOM     71  O   UNL A   1      47.729  35.164  27.350  1.00  0.00    -0.237 OA
ATOM     72  O   UNL A   1      47.921  34.484  24.986  1.00  0.00    -0.744 OA
ENDBRANCH  68  69
ENDBRANCH  49  63
BRANCH  50  73
ATOM     73  C   UNL A   1      37.776  32.271  30.669  1.00  0.00    -0.014 A 
ATOM     74  C   UNL A   1      36.520  32.127  31.286  1.00  0.00     0.010 A 
ATOM     75  C   UNL A   1      37.900  33.229  29.638  1.00  0.00     0.010 A 
ATOM     76  C   UNL A   1      35.399  32.816  30.806  1.00  0.00     0.020 A 
ATOM     77  C   UNL A   1      36.779  33.917  29.148  1.00  0.00     0.020 A 
ATOM     78  C   UNL A   1      35.526  33.668  29.708  1.00  0.00     0.054 A 
BRANCH  78  79
ATOM     79  S   UNL A   1      34.017  34.351  28.959  1.00  0.00     0.124 S 
ATOM     80  O   UNL A   1      33.192  34.619  30.138  1.00  0.00    -0.237 OA
ATOM     81  O   UNL A   1      34.521  35.542  28.271  1.00  0.00    -0.237 OA
ATOM     82  O   UNL A   1      33.543  33.288  28.090  1.00  0.00    -0.744 OA
ENDBRANCH  78  79
ENDBRANCH  50  73
BRANCH  62  83
ATOM     83  C   UNL A   1      42.546  29.021  33.425  1.00  0.00    -0.014 A 
ATOM     84  C   UNL A   1      43.176  29.278  34.657  1.00  0.00     0.010 A 
ATOM     85  C   UNL A   1      41.701  27.900  33.327  1.00  0.00     0.010 A 
ATOM     86  C   UNL A   1      43.004  28.424  35.748  1.00  0.00     0.020 A 
ATOM     87  C   UNL A   1      41.498  27.055  34.431  1.00  0.00     0.020 A 
ATOM     88  C   UNL A   1      42.176  27.309  35.626  1.00  0.00     0.054 A 
BRANCH  88  89
ATOM     89  S   UNL A   1      42.022  26.197  37.048  1.00  0.00     0.124 S 
ATOM     90  O   UNL A   1      43.045  26.714  37.957  1.00  0.00    -0.237 OA
ATOM     91  O   UNL A   1      40.641  26.410  37.480  1.00  0.00    -0.237 OA
ATOM     92  O   UNL A   1      42.300  24.873  36.498  1.00  0.00    -0.744 OA
ENDBRANCH  88  89
ENDBRANCH  62  83
ENDBRANCH  36  37
ENDBRANCH  28  31
ENDBRANCH  26  27
ENDBRANCH   1  26
TORSDOF 19
ENDMDL
MODEL 2
REMARK VINA RESULT:     -11.9      1.824      2.491
REMARK SMILES CCCc1nc2cc(C(=O)NCCCNC(=O)c3ccc(-c4c5nc(c(-c6ccc(S(=O)(=O)[O-])cc6)c6ccc([nH]6)c(-c6ccc(S(=O)(=O)[O-])cc6)c6nc(c(-c7ccc(S(=O)(=O)[O-])cc7)c7ccc4[nH]7)C=C6)C=C5)cc3)ccc2n1[C@H](CO)C(C)C
REMARK SMILES IDX 13 1 12 2 11 3 9 4 10 5 8 7 4 8 5 9 81 10 6 11 80 12 7 13
REMARK SMILES IDX 79 14 78 15 3 16 2 17 1 18 82 19 85 20 86 21 87 22 83 23
REMARK SMILES IDX 84 24 14 26 15 27 16 28 17 30 18 31 19 32 77 33 20 34 76 35
REMARK SMILES IDX 21 36 22 37 23 38 70 39 24 40 75 41 69 42 71 43 25 44 74 45
REMARK SMILES IDX 68 46 67 47 26 49 56 50 37 51 55 52 38 53 41 54 54 55 72 56
REMARK SMILES IDX 39 57 40 58 53 60 73 61 42 62 27 63 28 64 36 65 29 66 35 67
REMARK SMILES IDX 30 68 31 69 32 70 33 71 34 72 57 73 58 74 66 75 59 76 65 77
REMARK SMILES IDX 60 78 61 79 62 80 63 81 64 82 43 83 44 84 52 85 45 86 51 87
REMARK SMILES IDX 46 88 47 89 48 90 49 91 50 92
REMARK H PARENT 11 6 84 25 15 29 71 48 41 59
REMARK Flexibility Score: inf
ROOT
ATOM      1  C   UNL A   1      39.836  22.594  26.936  1.00  0.00     0.042 C 
ENDROOT
BRANCH   1   2
ATOM      2  C   UNL A   1      38.642  22.875  26.014  1.00  0.00     0.118 C 
BRANCH   2   3
ATOM      3  N   UNL A   1      37.830  21.690  25.782  1.00  0.00    -0.352 N 
ATOM      4  C   UNL A   1      36.594  21.484  25.222  1.00  0.00     0.251 C 
ATOM      5  O   UNL A   1      36.256  20.306  25.071  1.00  0.00    -0.269 OA
ATOM      6  H   UNL A   1      38.258  20.860  26.093  1.00  0.00     0.163 HD
BRANCH   4   7
ATOM      7  C   UNL A   1      35.665  22.564  24.768  1.00  0.00     0.042 A 
ATOM      8  C   UNL A   1      33.112  26.269  25.419  1.00  0.00     0.110 A 
ATOM      9  N   UNL A   1      33.877  25.519  26.193  1.00  0.00    -0.233 NA
ATOM     10  N   UNL A   1      32.964  25.679  24.168  1.00  0.00    -0.322 N 
ATOM     11  C   UNL A   1      34.363  24.516  25.415  1.00  0.00     0.090 A 
ATOM     12  C   UNL A   1      33.895  24.638  24.117  1.00  0.00     0.069 A 
ATOM     13  C   UNL A   1      35.234  23.470  25.755  1.00  0.00     0.044 A 
ATOM     14  C   UNL A   1      34.338  23.781  23.101  1.00  0.00     0.029 A 
ATOM     15  C   UNL A   1      35.245  22.765  23.451  1.00  0.00     0.016 A 
BRANCH   8  16
ATOM     16  C   UNL A   1      32.630  27.602  25.902  1.00  0.00     0.075 C 
BRANCH  16  17
ATOM     17  C   UNL A   1      33.696  28.697  25.832  1.00  0.00     0.005 C 
ATOM     18  C   UNL A   1      34.391  28.945  27.167  1.00  0.00     0.004 C 
ENDBRANCH  16  17
ENDBRANCH   8  16
BRANCH  10  19
ATOM     19  C   UNL A   1      32.034  25.952  23.052  1.00  0.00     0.117 C 
BRANCH  19  20
ATOM     20  C   UNL A   1      30.605  25.340  23.270  1.00  0.00     0.008 C 
ATOM     21  C   UNL A   1      30.669  23.822  23.516  1.00  0.00     0.009 C 
ATOM     22  C   UNL A   1      29.842  25.955  24.453  1.00  0.00     0.009 C 
ENDBRANCH  19  20
BRANCH  19  23
ATOM     23  C   UNL A   1      32.004  27.422  22.569  1.00  0.00     0.181 C 
BRANCH  23  24
ATOM     24  O   UNL A   1      30.969  27.728  21.631  1.00  0.00    -0.394 OA
ATOM     25  H   UNL A   1      30.251  27.082  21.720  1.00  0.00     0.210 HD
ENDBRANCH  23  24
ENDBRANCH  19  23
ENDBRANCH  10  19
ENDBRANCH   4   7
ENDBRANCH   2   3
ENDBRANCH   1   2
BRANCH   1  26
ATOM     26  C   UNL A   1      40.675  21.383  26.522  1.00  0.00     0.118 C 
BRANCH  26  27
ATOM     27  N   UNL A   1      42.021  21.724  26.096  1.00  0.00    -0.352 N 
ATOM     28  C   UNL A   1      42.815  22.837  26.096  1.00  0.00     0.251 C 
ATOM     29  H   UNL A   1      42.485  20.949  25.703  1.00  0.00     0.163 HD
ATOM     30  O   UNL A   1      43.958  22.656  25.661  1.00  0.00    -0.269 OA
BRANCH  28  31
ATOM     31  C   UNL A   1      42.434  24.212  26.535  1.00  0.00     0.039 A 
ATOM     32  C   UNL A   1      41.897  25.216  25.735  1.00  0.00     0.014 A 
ATOM     33  C   UNL A   1      42.659  24.505  27.900  1.00  0.00     0.014 A 
ATOM     34  C   UNL A   1      41.624  26.479  26.281  1.00  0.00     0.010 A 
ATOM     35  C   UNL A   1      42.386  25.762  28.447  1.00  0.00     0.010 A 
ATOM     36  C   UNL A   1      41.881  26.765  27.634  1.00  0.00    -0.014 A 
BRANCH  36  37
ATOM     37  C   UNL A   1      41.454  28.065  28.172  1.00  0.00     0.031 A 
ATOM     38  C   UNL A   1      42.421  29.168  27.942  1.00  0.00     0.074 A 
ATOM     39  C   UNL A   1      40.295  28.369  28.797  1.00  0.00     0.049 A 
ATOM     40  N   UNL A   1      43.254  29.645  28.806  1.00  0.00    -0.248 NA
ATOM     41  C   UNL A   1      42.574  29.717  26.589  1.00  0.00     0.031 C 
ATOM     42  C   UNL A   1      39.096  27.544  28.951  1.00  0.00     0.029 A 
ATOM     43  N   UNL A   1      39.938  29.545  29.409  1.00  0.00    -0.354 N 
ATOM     44  C   UNL A   1      43.894  30.704  28.177  1.00  0.00     0.074 A 
ATOM     45  C   UNL A   1      43.554  30.605  26.779  1.00  0.00     0.031 C 
ATOM     46  C   UNL A   1      38.083  28.302  29.439  1.00  0.00     0.029 A 
ATOM     47  C   UNL A   1      38.603  29.615  29.786  1.00  0.00     0.049 A 
ATOM     48  H   UNL A   1      40.576  30.277  29.569  1.00  0.00     0.167 HD
ATOM     49  C   UNL A   1      44.468  31.704  28.901  1.00  0.00     0.031 A 
ATOM     50  C   UNL A   1      37.973  30.653  30.390  1.00  0.00     0.031 A 
ATOM     51  C   UNL A   1      44.551  31.368  30.299  1.00  0.00     0.049 A 
ATOM     52  C   UNL A   1      38.985  31.397  31.169  1.00  0.00     0.074 A 
ATOM     53  C   UNL A   1      45.237  30.449  31.063  1.00  0.00     0.029 A 
ATOM     54  N   UNL A   1      43.518  31.844  31.067  1.00  0.00    -0.354 N 
ATOM     55  N   UNL A   1      39.576  30.911  32.224  1.00  0.00    -0.248 NA
ATOM     56  C   UNL A   1      39.563  32.621  30.635  1.00  0.00     0.031 C 
ATOM     57  C   UNL A   1      44.394  30.172  32.179  1.00  0.00     0.029 A 
ATOM     58  C   UNL A   1      43.245  30.960  32.078  1.00  0.00     0.049 A 
ATOM     59  H   UNL A   1      43.045  32.693  30.914  1.00  0.00     0.167 HD
ATOM     60  C   UNL A   1      40.827  31.497  32.215  1.00  0.00     0.074 A 
ATOM     61  C   UNL A   1      40.693  32.656  31.343  1.00  0.00     0.031 C 
ATOM     62  C   UNL A   1      41.920  30.816  32.660  1.00  0.00     0.031 A 
BRANCH  49  63
ATOM     63  C   UNL A   1      44.572  33.141  28.443  1.00  0.00    -0.014 A 
ATOM     64  C   UNL A   1      43.456  33.982  28.280  1.00  0.00     0.010 A 
ATOM     65  C   UNL A   1      45.843  33.759  28.430  1.00  0.00     0.010 A 
ATOM     66  C   UNL A   1      43.588  35.361  28.099  1.00  0.00     0.020 A 
ATOM     67  C   UNL A   1      45.986  35.146  28.291  1.00  0.00     0.020 A 
ATOM     68  C   UNL A   1      44.853  35.937  28.116  1.00  0.00     0.054 A 
BRANCH  68  69
ATOM     69  S   UNL A   1      44.975  37.737  27.968  1.00  0.00     0.124 S 
ATOM     70  O   UNL A   1      45.878  38.066  29.068  1.00  0.00    -0.237 OA
ATOM     71  O   UNL A   1      45.526  37.902  26.627  1.00  0.00    -0.237 OA
ATOM     72  O   UNL A   1      43.596  38.189  28.136  1.00  0.00    -0.744 OA
ENDBRANCH  68  69
ENDBRANCH  49  63
BRANCH  50  73
ATOM     73  C   UNL A   1      36.651  31.257  30.072  1.00  0.00    -0.014 A 
ATOM     74  C   UNL A   1      36.336  31.593  28.743  1.00  0.00     0.010 A 
ATOM     75  C   UNL A   1      35.870  31.825  31.101  1.00  0.00     0.010 A 
ATOM     76  C   UNL A   1      35.364  32.559  28.456  1.00  0.00     0.020 A 
ATOM     77  C   UNL A   1      34.898  32.800  30.820  1.00  0.00     0.020 A 
ATOM     78  C   UNL A   1      34.687  33.193  29.499  1.00  0.00     0.054 A 
BRANCH  78  79
ATOM     79  S   UNL A   1      33.617  34.609  29.107  1.00  0.00     0.124 S 
ATOM     80  O   UNL A   1      33.081  34.954  30.425  1.00  0.00    -0.237 OA
ATOM     81  O   UNL A   1      34.568  35.576  28.551  1.00  0.00    -0.237 OA
ATOM     82  O   UNL A   1      32.656  34.072  28.160  1.00  0.00    -0.744 OA
ENDBRANCH  78  79
ENDBRANCH  50  73
BRANCH  62  83
ATOM     83  C   UNL A   1      41.719  29.684  33.642  1.00  0.00    -0.014 A 
ATOM     84  C   UNL A   1      41.827  30.000  35.009  1.00  0.00     0.010 A 
ATOM     85  C   UNL A   1      41.549  28.334  33.280  1.00  0.00     0.010 A 
ATOM     86  C   UNL A   1      41.806  29.003  35.986  1.00  0.00     0.020 A 
ATOM     87  C   UNL A   1      41.494  27.329  34.260  1.00  0.00     0.020 A 
ATOM     88  C   UNL A   1      41.652  27.670  35.605  1.00  0.00     0.054 A 
BRANCH  88  89
ATOM     89  S   UNL A   1      41.684  26.402  36.899  1.00  0.00     0.124 S 
ATOM     90  O   UNL A   1      40.448  26.675  37.632  1.00  0.00    -0.237 OA
ATOM     91  O   UNL A   1      41.691  25.157  36.133  1.00  0.00    -0.237 OA
ATOM     92  O   UNL A   1      42.913  26.678  37.639  1.00  0.00    -0.744 OA
ENDBRANCH  88  89
ENDBRANCH  62  83
ENDBRANCH  36  37
ENDBRANCH  28  31
ENDBRANCH  26  27
ENDBRANCH   1  26
TORSDOF 19
ENDMDL
MODEL 3
REMARK VINA RESULT:     -11.8      2.750      9.394
REMARK SMILES CCCc1nc2cc(C(=O)NCCCNC(=O)c3ccc(-c4c5nc(c(-c6ccc(S(=O)(=O)[O-])cc6)c6ccc([nH]6)c(-c6ccc(S(=O)(=O)[O-])cc6)c6nc(c(-c7ccc(S(=O)(=O)[O-])cc7)c7ccc4[nH]7)C=C6)C=C5)cc3)ccc2n1[C@H](CO)C(C)C
REMARK SMILES IDX 13 1 12 2 11 3 9 4 10 5 8 7 4 8 5 9 81 10 6 11 80 12 7 13
REMARK SMILES IDX 79 14 78 15 3 16 2 17 1 18 82 19 85 20 86 21 87 22 83 23
REMARK SMILES IDX 84 24 14 26 15 27 16 28 17 30 18 31 19 32 77 33 20 34 76 35
REMARK SMILES IDX 21 36 22 37 23 38 70 39 24 40 75 41 69 42 71 43 25 44 74 45
REMARK SMILES IDX 68 46 67 47 26 49 56 50 37 51 55 52 38 53 41 54 54 55 72 56
REMARK SMILES IDX 39 57 40 58 53 60 73 61 42 62 27 63 28 64 36 65 29 66 35 67
REMARK SMILES IDX 30 68 31 69 32 70 33 71 34 72 57 73 58 74 66 75 59 76 65 77
REMARK SMILES IDX 60 78 61 79 62 80 63 81 64 82 43 83 44 84 52 85 45 86 51 87
REMARK SMILES IDX 46 88 47 89 48 90 49 91 50 92
REMARK H PARENT 11 6 84 25 15 29 71 48 41 59
REMARK Flexibility Score: inf
ROOT
ATOM      1  C   UNL A   1      32.828  30.831  26.202  1.00  0.00     0.042 C 
ENDROOT
BRANCH   1   2
ATOM      2  C   UNL A   1      31.377  30.358  26.042  1.00  0.00     0.118 C 
BRANCH   2   3
ATOM      3  N   UNL A   1      30.973  30.273  24.648  1.00  0.00    -0.352 N 
ATOM      4  C   UNL A   1      30.805  29.229  23.772  1.00  0.00     0.251 C 
ATOM      5  O   UNL A   1      30.322  29.515  22.674  1.00  0.00    -0.269 OA
ATOM      6  H   UNL A   1      30.778  31.151  24.246  1.00  0.00     0.163 HD
BRANCH   4   7
ATOM      7  C   UNL A   1      31.135  27.800  24.065  1.00  0.00     0.042 A 
ATOM      8  C   UNL A   1      33.999  24.410  25.051  1.00  0.00     0.110 A 
ATOM      9  N   UNL A   1      34.133  25.707  24.836  1.00  0.00    -0.233 NA
ATOM     10  N   UNL A   1      32.701  24.002  24.759  1.00  0.00    -0.322 N 
ATOM     11  C   UNL A   1      32.894  26.190  24.553  1.00  0.00     0.090 A 
ATOM     12  C   UNL A   1      31.955  25.172  24.593  1.00  0.00     0.069 A 
ATOM     13  C   UNL A   1      32.496  27.505  24.271  1.00  0.00     0.044 A 
ATOM     14  C   UNL A   1      30.588  25.437  24.437  1.00  0.00     0.029 A 
ATOM     15  C   UNL A   1      30.203  26.768  24.199  1.00  0.00     0.016 A 
BRANCH   8  16
ATOM     16  C   UNL A   1      35.130  23.624  25.637  1.00  0.00     0.075 C 
BRANCH  16  17
ATOM     17  C   UNL A   1      36.399  23.651  24.782  1.00  0.00     0.005 C 
ATOM     18  C   UNL A   1      36.785  22.280  24.235  1.00  0.00     0.004 C 
ENDBRANCH  16  17
ENDBRANCH   8  16
BRANCH  10  19
ATOM     19  C   UNL A   1      32.105  22.662  24.580  1.00  0.00     0.117 C 
BRANCH  19  20
ATOM     20  C   UNL A   1      32.846  21.790  23.504  1.00  0.00     0.008 C 
ATOM     21  C   UNL A   1      32.371  20.326  23.535  1.00  0.00     0.009 C 
ATOM     22  C   UNL A   1      32.660  22.294  22.066  1.00  0.00     0.009 C 
ENDBRANCH  19  20
BRANCH  19  23
ATOM     23  C   UNL A   1      31.808  21.895  25.891  1.00  0.00     0.181 C 
BRANCH  23  24
ATOM     24  O   UNL A   1      30.435  21.886  26.287  1.00  0.00    -0.394 OA
ATOM     25  H   UNL A   1      29.871  21.838  25.499  1.00  0.00     0.210 HD
ENDBRANCH  23  24
ENDBRANCH  19  23
ENDBRANCH  10  19
ENDBRANCH   4   7
ENDBRANCH   2   3
ENDBRANCH   1   2
BRANCH   1  26
ATOM     26  C   UNL A   1      33.270  31.015  27.656  1.00  0.00     0.118 C 
BRANCH  26  27
ATOM     27  N   UNL A   1      34.019  32.237  27.888  1.00  0.00    -0.352 N 
ATOM     28  C   UNL A   1      35.326  32.580  28.099  1.00  0.00     0.251 C 
ATOM     29  H   UNL A   1      33.433  33.027  27.894  1.00  0.00     0.163 HD
ATOM     30  O   UNL A   1      35.530  33.795  28.206  1.00  0.00    -0.269 OA
BRANCH  28  31
ATOM     31  C   UNL A   1      36.488  31.653  28.235  1.00  0.00     0.039 A 
ATOM     32  C   UNL A   1      36.596  30.377  27.689  1.00  0.00     0.014 A 
ATOM     33  C   UNL A   1      37.570  32.134  29.008  1.00  0.00     0.014 A 
ATOM     34  C   UNL A   1      37.738  29.602  27.936  1.00  0.00     0.010 A 
ATOM     35  C   UNL A   1      38.711  31.364  29.254  1.00  0.00     0.010 A 
ATOM     36  C   UNL A   1      38.795  30.083  28.731  1.00  0.00    -0.014 A 
BRANCH  36  37
ATOM     37  C   UNL A   1      40.015  29.272  28.845  1.00  0.00     0.031 A 
ATOM     38  C   UNL A   1      40.350  28.864  30.233  1.00  0.00     0.074 A 
ATOM     39  C   UNL A   1      40.821  28.832  27.853  1.00  0.00     0.049 A 
ATOM     40  N   UNL A   1      41.239  29.410  30.995  1.00  0.00    -0.248 NA
ATOM     41  C   UNL A   1      39.539  27.834  30.893  1.00  0.00     0.031 C 
ATOM     42  C   UNL A   1      40.605  28.894  26.406  1.00  0.00     0.029 A 
ATOM     43  N   UNL A   1      42.024  28.180  27.955  1.00  0.00    -0.354 N 
ATOM     44  C   UNL A   1      41.258  28.657  32.162  1.00  0.00     0.074 A 
ATOM     45  C   UNL A   1      40.094  27.807  32.109  1.00  0.00     0.031 C 
ATOM     46  C   UNL A   1      41.539  28.140  25.775  1.00  0.00     0.029 A 
ATOM     47  C   UNL A   1      42.512  27.681  26.754  1.00  0.00     0.049 A 
ATOM     48  H   UNL A   1      42.502  28.076  28.809  1.00  0.00     0.167 HD
ATOM     49  C   UNL A   1      42.355  28.641  32.967  1.00  0.00     0.031 A 
ATOM     50  C   UNL A   1      43.661  26.986  26.559  1.00  0.00     0.031 A 
ATOM     51  C   UNL A   1      43.299  29.666  32.599  1.00  0.00     0.049 A 
ATOM     52  C   UNL A   1      44.612  27.390  27.614  1.00  0.00     0.074 A 
ATOM     53  C   UNL A   1      43.331  31.042  32.616  1.00  0.00     0.029 A 
ATOM     54  N   UNL A   1      44.305  29.247  31.764  1.00  0.00    -0.354 N 
ATOM     55  N   UNL A   1      45.137  28.580  27.688  1.00  0.00    -0.248 NA
ATOM     56  C   UNL A   1      44.807  26.545  28.784  1.00  0.00     0.031 C 
ATOM     57  C   UNL A   1      44.175  31.421  31.530  1.00  0.00     0.029 A 
ATOM     58  C   UNL A   1      44.660  30.263  30.917  1.00  0.00     0.049 A 
ATOM     59  H   UNL A   1      44.711  28.350  31.774  1.00  0.00     0.167 HD
ATOM     60  C   UNL A   1      45.329  28.785  29.040  1.00  0.00     0.074 A 
ATOM     61  C   UNL A   1      45.288  27.455  29.633  1.00  0.00     0.031 C 
ATOM     62  C   UNL A   1      45.193  30.028  29.585  1.00  0.00     0.031 A 
BRANCH  49  63
ATOM     63  C   UNL A   1      42.783  27.460  33.807  1.00  0.00    -0.014 A 
ATOM     64  C   UNL A   1      43.508  26.369  33.292  1.00  0.00     0.010 A 
ATOM     65  C   UNL A   1      42.697  27.561  35.214  1.00  0.00     0.010 A 
ATOM     66  C   UNL A   1      44.103  25.417  34.123  1.00  0.00     0.020 A 
ATOM     67  C   UNL A   1      43.325  26.635  36.058  1.00  0.00     0.020 A 
ATOM     68  C   UNL A   1      44.017  25.563  35.504  1.00  0.00     0.054 A 
BRANCH  68  69
ATOM     69  S   UNL A   1      44.878  24.358  36.544  1.00  0.00     0.124 S 
ATOM     70  O   UNL A   1      44.328  24.658  37.864  1.00  0.00    -0.237 OA
ATOM     71  O   UNL A   1      44.461  23.086  35.960  1.00  0.00    -0.237 OA
ATOM     72  O   UNL A   1      46.288  24.694  36.364  1.00  0.00    -0.744 OA
ENDBRANCH  68  69
ENDBRANCH  49  63
BRANCH  50  73
ATOM     73  C   UNL A   1      43.880  25.754  25.755  1.00  0.00    -0.014 A 
ATOM     74  C   UNL A   1      42.836  24.825  25.595  1.00  0.00     0.010 A 
ATOM     75  C   UNL A   1      45.195  25.327  25.465  1.00  0.00     0.010 A 
ATOM     76  C   UNL A   1      43.104  23.486  25.283  1.00  0.00     0.020 A 
ATOM     77  C   UNL A   1      45.471  23.984  25.158  1.00  0.00     0.020 A 
ATOM     78  C   UNL A   1      44.424  23.064  25.117  1.00  0.00     0.054 A 
BRANCH  78  79
ATOM     79  S   UNL A   1      44.753  21.283  24.959  1.00  0.00     0.124 S 
ATOM     80  O   UNL A   1      46.107  21.179  25.507  1.00  0.00    -0.237 OA
ATOM     81  O   UNL A   1      43.700  20.695  25.791  1.00  0.00    -0.237 OA
ATOM     82  O   UNL A   1      44.633  21.028  23.535  1.00  0.00    -0.744 OA
ENDBRANCH  78  79
ENDBRANCH  50  73
BRANCH  62  83
ATOM     83  C   UNL A   1      45.376  31.234  28.692  1.00  0.00    -0.014 A 
ATOM     84  C   UNL A   1      44.223  31.744  28.067  1.00  0.00     0.010 A 
ATOM     85  C   UNL A   1      46.621  31.801  28.361  1.00  0.00     0.010 A 
ATOM     86  C   UNL A   1      44.307  32.758  27.111  1.00  0.00     0.020 A 
ATOM     87  C   UNL A   1      46.710  32.844  27.425  1.00  0.00     0.020 A 
ATOM     88  C   UNL A   1      45.553  33.295  26.786  1.00  0.00     0.054 A 
BRANCH  88  89
ATOM     89  S   UNL A   1      45.625  34.572  25.502  1.00  0.00     0.124 S 
ATOM     90  O   UNL A   1      44.734  34.031  24.476  1.00  0.00    -0.237 OA
ATOM     91  O   UNL A   1      45.128  35.759  26.196  1.00  0.00    -0.237 OA
ATOM     92  O   UNL A   1      47.036  34.622  25.127  1.00  0.00    -0.744 OA
ENDBRANCH  88  89
ENDBRANCH  62  83
ENDBRANCH  36  37
ENDBRANCH  28  31
ENDBRANCH  26  27
ENDBRANCH   1  26
TORSDOF 19
ENDMDL
