MODEL 1
REMARK VINA RESULT:     -11.2      0.000      0.000
REMARK SMILES Cc1ccc(CNC(=O)c2csc(/C=C/C(=O)NCCCNC(=O)c3ccc(-c4c5nc(c(-c6ccc(S(=O)(=O)[O-])cc6)c6ccc([nH]6)c(-c6ccc(S(=O)(=O)[O-])cc6)c6nc(c(-c7ccc(S(=O)(=O)[O-])cc7)c7ccc4[nH]7)C=C6)C=C5)cc3)c2)s1
REMARK SMILES IDX 19 1 18 2 16 3 17 4 15 6 14 7 13 8 10 9 11 10 85 11 12 12
REMARK SMILES IDX 8 13 7 14 9 16 6 17 5 18 1 19 2 20 3 21 86 22 4 23 20 24
REMARK SMILES IDX 21 25 22 26 23 27 24 29 25 30 26 31 84 32 27 33 83 34 28 35
REMARK SMILES IDX 29 36 30 37 77 38 31 39 82 40 76 41 78 42 32 43 81 44 75 45
REMARK SMILES IDX 74 46 33 48 63 49 44 50 62 51 45 52 48 53 61 54 79 55 46 56
REMARK SMILES IDX 47 57 60 59 80 60 49 61 34 62 35 63 43 64 36 65 42 66 37 67
REMARK SMILES IDX 38 68 39 69 40 70 41 71 64 72 65 73 73 74 66 75 72 76 67 77
REMARK SMILES IDX 68 78 69 79 70 80 71 81 50 82 51 83 59 84 52 85 58 86 53 87
REMARK SMILES IDX 54 88 55 89 56 90 57 91
REMARK H PARENT 18 5 7 15 22 28 78 47 48 58
REMARK Flexibility Score: inf
ROOT
ATOM      1  C   UNL A   1      32.012  30.594  25.774  1.00  0.00     0.118 C 
ENDROOT
BRANCH   1   2
ATOM      2  N   UNL A   1      31.026  30.341  24.736  1.00  0.00    -0.352 N 
ATOM      3  C   UNL A   1      30.703  29.186  24.091  1.00  0.00     0.244 C 
ATOM      4  O   UNL A   1      29.719  29.146  23.360  1.00  0.00    -0.270 OA
ATOM      5  H   UNL A   1      30.508  31.130  24.456  1.00  0.00     0.163 HD
BRANCH   3   6
ATOM      6  C   UNL A   1      31.480  27.956  24.340  1.00  0.00     0.072 C 
ATOM      7  C   UNL A   1      31.282  27.185  25.419  1.00  0.00     0.024 C 
BRANCH   7   8
ATOM      8  C   UNL A   1      32.033  25.996  25.651  1.00  0.00     0.028 A 
ATOM      9  C   UNL A   1      32.636  23.851  26.443  1.00  0.00     0.051 A 
ATOM     10  C   UNL A   1      33.743  24.203  25.695  1.00  0.00     0.079 A 
ATOM     11  C   UNL A   1      31.692  24.933  26.471  1.00  0.00     0.033 A 
ATOM     12  S   UNL A   1      33.582  25.728  24.951  1.00  0.00    -0.144 S 
BRANCH   9  13
ATOM     13  C   UNL A   1      32.550  22.568  27.131  1.00  0.00     0.252 C 
ATOM     14  N   UNL A   1      32.292  21.436  26.402  1.00  0.00    -0.347 N 
ATOM     15  H   UNL A   1      32.029  20.645  26.926  1.00  0.00     0.164 HD
ATOM     16  O   UNL A   1      32.731  22.469  28.341  1.00  0.00    -0.269 OA
BRANCH  14  17
ATOM     17  C   UNL A   1      32.352  21.244  24.969  1.00  0.00     0.163 C 
BRANCH  17  18
ATOM     18  C   UNL A   1      33.185  20.036  24.671  1.00  0.00     0.024 A 
ATOM     19  C   UNL A   1      34.007  16.406  23.425  1.00  0.00     0.056 C 
ATOM     20  C   UNL A   1      33.949  17.789  23.975  1.00  0.00     0.002 A 
ATOM     21  C   UNL A   1      34.964  18.536  24.534  1.00  0.00     0.015 A 
ATOM     22  S   UNL A   1      32.472  18.650  23.954  1.00  0.00    -0.144 S 
ATOM     23  C   UNL A   1      34.525  19.832  24.933  1.00  0.00     0.017 A 
ENDBRANCH  17  18
ENDBRANCH  14  17
ENDBRANCH   9  13
ENDBRANCH   7   8
ENDBRANCH   3   6
ENDBRANCH   1   2
BRANCH   1  24
ATOM     24  C   UNL A   1      31.676  31.833  26.601  1.00  0.00     0.042 C 
BRANCH  24  25
ATOM     25  C   UNL A   1      32.870  32.427  27.350  1.00  0.00     0.118 C 
BRANCH  25  26
ATOM     26  N   UNL A   1      32.657  33.820  27.710  1.00  0.00    -0.352 N 
ATOM     27  C   UNL A   1      33.258  34.584  28.681  1.00  0.00     0.251 C 
ATOM     28  H   UNL A   1      31.977  34.289  27.175  1.00  0.00     0.163 HD
ATOM     29  O   UNL A   1      32.790  35.690  28.943  1.00  0.00    -0.269 OA
BRANCH  27  30
ATOM     30  C   UNL A   1      34.443  34.092  29.423  1.00  0.00     0.039 A 
ATOM     31  C   UNL A   1      34.240  33.333  30.582  1.00  0.00     0.014 A 
ATOM     32  C   UNL A   1      35.744  34.420  29.029  1.00  0.00     0.014 A 
ATOM     33  C   UNL A   1      35.334  32.862  31.313  1.00  0.00     0.010 A 
ATOM     34  C   UNL A   1      36.837  33.910  29.733  1.00  0.00     0.010 A 
ATOM     35  C   UNL A   1      36.642  33.129  30.882  1.00  0.00    -0.014 A 
BRANCH  35  36
ATOM     36  C   UNL A   1      37.818  32.599  31.621  1.00  0.00     0.031 A 
ATOM     37  C   UNL A   1      38.614  31.453  31.062  1.00  0.00     0.074 A 
ATOM     38  C   UNL A   1      38.134  33.110  32.826  1.00  0.00     0.049 A 
ATOM     39  N   UNL A   1      39.618  30.806  31.600  1.00  0.00    -0.248 NA
ATOM     40  C   UNL A   1      38.223  30.959  29.733  1.00  0.00     0.031 C 
ATOM     41  C   UNL A   1      37.427  34.204  33.496  1.00  0.00     0.029 A 
ATOM     42  N   UNL A   1      39.129  32.766  33.708  1.00  0.00    -0.354 N 
ATOM     43  C   UNL A   1      39.960  29.813  30.691  1.00  0.00     0.074 A 
ATOM     44  C   UNL A   1      39.045  29.931  29.575  1.00  0.00     0.031 C 
ATOM     45  C   UNL A   1      38.018  34.449  34.678  1.00  0.00     0.029 A 
ATOM     46  C   UNL A   1      39.124  33.512  34.862  1.00  0.00     0.049 A 
ATOM     47  H   UNL A   1      39.783  32.053  33.530  1.00  0.00     0.167 HD
ATOM     48  C   UNL A   1      40.949  28.891  30.771  1.00  0.00     0.031 A 
ATOM     49  C   UNL A   1      39.914  33.449  35.950  1.00  0.00     0.031 A 
ATOM     50  C   UNL A   1      41.874  28.781  31.867  1.00  0.00     0.049 A 
ATOM     51  C   UNL A   1      41.018  32.433  36.008  1.00  0.00     0.074 A 
ATOM     52  C   UNL A   1      42.936  27.905  32.015  1.00  0.00     0.029 A 
ATOM     53  N   UNL A   1      41.853  29.578  33.002  1.00  0.00    -0.354 N 
ATOM     54  N   UNL A   1      41.345  31.524  35.123  1.00  0.00    -0.248 NA
ATOM     55  C   UNL A   1      41.865  32.442  37.210  1.00  0.00     0.031 C 
ATOM     56  C   UNL A   1      43.544  28.157  33.250  1.00  0.00     0.029 A 
ATOM     57  C   UNL A   1      42.877  29.209  33.857  1.00  0.00     0.049 A 
ATOM     58  H   UNL A   1      41.206  30.299  33.173  1.00  0.00     0.167 HD
ATOM     59  C   UNL A   1      42.446  30.861  35.652  1.00  0.00     0.074 A 
ATOM     60  C   UNL A   1      42.735  31.481  36.930  1.00  0.00     0.031 C 
ATOM     61  C   UNL A   1      43.153  29.833  35.125  1.00  0.00     0.031 A 
BRANCH  48  62
ATOM     62  C   UNL A   1      41.069  27.914  29.636  1.00  0.00    -0.014 A 
ATOM     63  C   UNL A   1      40.122  26.889  29.462  1.00  0.00     0.010 A 
ATOM     64  C   UNL A   1      42.133  28.030  28.724  1.00  0.00     0.010 A 
ATOM     65  C   UNL A   1      40.261  25.969  28.421  1.00  0.00     0.020 A 
ATOM     66  C   UNL A   1      42.265  27.121  27.669  1.00  0.00     0.020 A 
ATOM     67  C   UNL A   1      41.339  26.084  27.538  1.00  0.00     0.054 A 
BRANCH  67  68
ATOM     68  S   UNL A   1      41.506  24.879  26.192  1.00  0.00     0.124 S 
ATOM     69  O   UNL A   1      42.875  24.405  26.383  1.00  0.00    -0.237 OA
ATOM     70  O   UNL A   1      40.458  23.906  26.493  1.00  0.00    -0.237 OA
ATOM     71  O   UNL A   1      41.284  25.676  24.988  1.00  0.00    -0.744 OA
ENDBRANCH  67  68
ENDBRANCH  48  62
BRANCH  49  72
ATOM     72  C   UNL A   1      39.692  34.395  37.074  1.00  0.00    -0.014 A 
ATOM     73  C   UNL A   1      38.961  33.990  38.203  1.00  0.00     0.010 A 
ATOM     74  C   UNL A   1      40.239  35.690  37.033  1.00  0.00     0.010 A 
ATOM     75  C   UNL A   1      38.776  34.867  39.275  1.00  0.00     0.020 A 
ATOM     76  C   UNL A   1      40.069  36.564  38.110  1.00  0.00     0.020 A 
ATOM     77  C   UNL A   1      39.332  36.148  39.222  1.00  0.00     0.054 A 
BRANCH  77  78
ATOM     78  S   UNL A   1      39.153  37.249  40.653  1.00  0.00     0.124 S 
ATOM     79  O   UNL A   1      38.506  36.375  41.628  1.00  0.00    -0.237 OA
ATOM     80  O   UNL A   1      40.535  37.616  40.953  1.00  0.00    -0.237 OA
ATOM     81  O   UNL A   1      38.328  38.339  40.138  1.00  0.00    -0.744 OA
ENDBRANCH  77  78
ENDBRANCH  49  72
BRANCH  61  82
ATOM     82  C   UNL A   1      44.323  29.327  35.919  1.00  0.00    -0.014 A 
ATOM     83  C   UNL A   1      45.547  30.018  35.919  1.00  0.00     0.010 A 
ATOM     84  C   UNL A   1      44.182  28.173  36.711  1.00  0.00     0.010 A 
ATOM     85  C   UNL A   1      46.621  29.548  36.681  1.00  0.00     0.020 A 
ATOM     86  C   UNL A   1      45.248  27.710  37.485  1.00  0.00     0.020 A 
ATOM     87  C   UNL A   1      46.466  28.394  37.454  1.00  0.00     0.054 A 
BRANCH  87  88
ATOM     88  S   UNL A   1      47.856  27.821  38.472  1.00  0.00     0.124 S 
ATOM     89  O   UNL A   1      48.784  28.944  38.377  1.00  0.00    -0.237 OA
ATOM     90  O   UNL A   1      47.242  27.622  39.782  1.00  0.00    -0.237 OA
ATOM     91  O   UNL A   1      48.287  26.595  37.802  1.00  0.00    -0.744 OA
ENDBRANCH  87  88
ENDBRANCH  61  82
ENDBRANCH  35  36
ENDBRANCH  27  30
ENDBRANCH  25  26
ENDBRANCH  24  25
ENDBRANCH   1  24
TORSDOF 17
ENDMDL
MODEL 2
REMARK VINA RESULT:     -11.2      2.310      9.138
REMARK SMILES Cc1ccc(CNC(=O)c2csc(/C=C/C(=O)NCCCNC(=O)c3ccc(-c4c5nc(c(-c6ccc(S(=O)(=O)[O-])cc6)c6ccc([nH]6)c(-c6ccc(S(=O)(=O)[O-])cc6)c6nc(c(-c7ccc(S(=O)(=O)[O-])cc7)c7ccc4[nH]7)C=C6)C=C5)cc3)c2)s1
REMARK SMILES IDX 19 1 18 2 16 3 17 4 15 6 14 7 13 8 10 9 11 10 85 11 12 12
REMARK SMILES IDX 8 13 7 14 9 16 6 17 5 18 1 19 2 20 3 21 86 22 4 23 20 24
REMARK SMILES IDX 21 25 22 26 23 27 24 29 25 30 26 31 84 32 27 33 83 34 28 35
REMARK SMILES IDX 29 36 30 37 77 38 31 39 82 40 76 41 78 42 32 43 81 44 75 45
REMARK SMILES IDX 74 46 33 48 63 49 44 50 62 51 45 52 48 53 61 54 79 55 46 56
REMARK SMILES IDX 47 57 60 59 80 60 49 61 34 62 35 63 43 64 36 65 42 66 37 67
REMARK SMILES IDX 38 68 39 69 40 70 41 71 64 72 65 73 73 74 66 75 72 76 67 77
REMARK SMILES IDX 68 78 69 79 70 80 71 81 50 82 51 83 59 84 52 85 58 86 53 87
REMARK SMILES IDX 54 88 55 89 56 90 57 91
REMARK H PARENT 18 5 7 15 22 28 78 47 48 58
REMARK Flexibility Score: inf
ROOT
ATOM      1  C   UNL A   1      37.823  22.773  26.071  1.00  0.00     0.118 C 
ENDROOT
BRANCH   1   2
ATOM      2  N   UNL A   1      36.814  21.729  26.116  1.00  0.00    -0.352 N 
ATOM      3  C   UNL A   1      35.673  21.576  25.389  1.00  0.00     0.244 C 
ATOM      4  O   UNL A   1      35.035  20.530  25.460  1.00  0.00    -0.270 OA
ATOM      5  H   UNL A   1      36.982  21.019  26.777  1.00  0.00     0.163 HD
BRANCH   3   6
ATOM      6  C   UNL A   1      35.250  22.627  24.443  1.00  0.00     0.072 C 
ATOM      7  C   UNL A   1      34.035  23.192  24.488  1.00  0.00     0.024 C 
BRANCH   7   8
ATOM      8  C   UNL A   1      33.636  24.210  23.574  1.00  0.00     0.028 A 
ATOM      9  C   UNL A   1      33.427  26.322  22.531  1.00  0.00     0.051 A 
ATOM     10  C   UNL A   1      32.647  25.521  21.718  1.00  0.00     0.079 A 
ATOM     11  C   UNL A   1      33.925  25.562  23.644  1.00  0.00     0.033 A 
ATOM     12  S   UNL A   1      32.633  23.889  22.213  1.00  0.00    -0.144 S 
BRANCH   9  13
ATOM     13  C   UNL A   1      33.608  27.743  22.262  1.00  0.00     0.252 C 
ATOM     14  N   UNL A   1      32.782  28.648  22.877  1.00  0.00    -0.347 N 
ATOM     15  H   UNL A   1      32.797  29.558  22.503  1.00  0.00     0.164 HD
ATOM     16  O   UNL A   1      34.499  28.155  21.525  1.00  0.00    -0.269 OA
BRANCH  14  17
ATOM     17  C   UNL A   1      31.889  28.449  23.998  1.00  0.00     0.163 C 
BRANCH  17  18
ATOM     18  C   UNL A   1      32.409  29.209  25.179  1.00  0.00     0.024 A 
ATOM     19  C   UNL A   1      34.922  30.257  28.006  1.00  0.00     0.056 C 
ATOM     20  C   UNL A   1      33.804  30.033  27.047  1.00  0.00     0.002 A 
ATOM     21  C   UNL A   1      32.575  30.658  26.997  1.00  0.00     0.015 A 
ATOM     22  S   UNL A   1      33.969  28.870  25.806  1.00  0.00    -0.144 S 
ATOM     23  C   UNL A   1      31.772  30.185  25.919  1.00  0.00     0.017 A 
ENDBRANCH  17  18
ENDBRANCH  14  17
ENDBRANCH   9  13
ENDBRANCH   7   8
ENDBRANCH   3   6
ENDBRANCH   1   2
BRANCH   1  24
ATOM     24  C   UNL A   1      39.240  22.213  26.175  1.00  0.00     0.042 C 
BRANCH  24  25
ATOM     25  C   UNL A   1      40.217  23.118  26.927  1.00  0.00     0.118 C 
BRANCH  25  26
ATOM     26  N   UNL A   1      41.279  23.617  26.068  1.00  0.00    -0.352 N 
ATOM     27  C   UNL A   1      41.914  24.835  26.064  1.00  0.00     0.251 C 
ATOM     28  H   UNL A   1      41.593  22.984  25.382  1.00  0.00     0.163 HD
ATOM     29  O   UNL A   1      42.655  25.118  25.125  1.00  0.00    -0.269 OA
BRANCH  27  30
ATOM     30  C   UNL A   1      41.710  25.813  27.160  1.00  0.00     0.039 A 
ATOM     31  C   UNL A   1      40.750  25.529  28.138  1.00  0.00     0.014 A 
ATOM     32  C   UNL A   1      42.403  27.026  27.200  1.00  0.00     0.014 A 
ATOM     33  C   UNL A   1      40.523  26.433  29.181  1.00  0.00     0.010 A 
ATOM     34  C   UNL A   1      42.209  27.907  28.266  1.00  0.00     0.010 A 
ATOM     35  C   UNL A   1      41.266  27.620  29.265  1.00  0.00    -0.014 A 
BRANCH  35  36
ATOM     36  C   UNL A   1      41.070  28.571  30.389  1.00  0.00     0.031 A 
ATOM     37  C   UNL A   1      41.928  28.481  31.620  1.00  0.00     0.074 A 
ATOM     38  C   UNL A   1      40.080  29.481  30.328  1.00  0.00     0.049 A 
ATOM     39  N   UNL A   1      41.850  29.168  32.732  1.00  0.00    -0.248 NA
ATOM     40  C   UNL A   1      43.002  27.475  31.608  1.00  0.00     0.031 C 
ATOM     41  C   UNL A   1      39.157  29.658  29.204  1.00  0.00     0.029 A 
ATOM     42  N   UNL A   1      39.676  30.424  31.241  1.00  0.00    -0.354 N 
ATOM     43  C   UNL A   1      42.844  28.663  33.561  1.00  0.00     0.074 A 
ATOM     44  C   UNL A   1      43.499  27.597  32.832  1.00  0.00     0.031 C 
ATOM     45  C   UNL A   1      38.304  30.655  29.490  1.00  0.00     0.029 A 
ATOM     46  C   UNL A   1      38.599  31.168  30.825  1.00  0.00     0.049 A 
ATOM     47  H   UNL A   1      40.117  30.553  32.111  1.00  0.00     0.167 HD
ATOM     48  C   UNL A   1      43.186  29.052  34.813  1.00  0.00     0.031 A 
ATOM     49  C   UNL A   1      37.918  32.149  31.448  1.00  0.00     0.031 A 
ATOM     50  C   UNL A   1      42.553  30.123  35.535  1.00  0.00     0.049 A 
ATOM     51  C   UNL A   1      38.329  32.579  32.826  1.00  0.00     0.074 A 
ATOM     52  C   UNL A   1      42.862  30.616  36.792  1.00  0.00     0.029 A 
ATOM     53  N   UNL A   1      41.486  30.871  35.064  1.00  0.00    -0.354 N 
ATOM     54  N   UNL A   1      39.293  32.109  33.580  1.00  0.00    -0.248 NA
ATOM     55  C   UNL A   1      37.565  33.679  33.434  1.00  0.00     0.031 C 
ATOM     56  C   UNL A   1      41.966  31.649  37.090  1.00  0.00     0.029 A 
ATOM     57  C   UNL A   1      41.119  31.817  36.006  1.00  0.00     0.049 A 
ATOM     58  H   UNL A   1      41.054  30.748  34.189  1.00  0.00     0.167 HD
ATOM     59  C   UNL A   1      39.262  32.866  34.745  1.00  0.00     0.074 A 
ATOM     60  C   UNL A   1      38.191  33.830  34.593  1.00  0.00     0.031 C 
ATOM     61  C   UNL A   1      40.052  32.769  35.842  1.00  0.00     0.031 A 
BRANCH  48  62
ATOM     62  C   UNL A   1      44.299  28.297  35.485  1.00  0.00    -0.014 A 
ATOM     63  C   UNL A   1      44.030  27.158  36.264  1.00  0.00     0.010 A 
ATOM     64  C   UNL A   1      45.629  28.723  35.325  1.00  0.00     0.010 A 
ATOM     65  C   UNL A   1      45.068  26.483  36.909  1.00  0.00     0.020 A 
ATOM     66  C   UNL A   1      46.673  28.038  35.954  1.00  0.00     0.020 A 
ATOM     67  C   UNL A   1      46.383  26.935  36.759  1.00  0.00     0.054 A 
BRANCH  67  68
ATOM     68  S   UNL A   1      47.720  26.047  37.604  1.00  0.00     0.124 S 
ATOM     69  O   UNL A   1      48.721  27.100  37.768  1.00  0.00    -0.237 OA
ATOM     70  O   UNL A   1      47.082  25.592  38.837  1.00  0.00    -0.237 OA
ATOM     71  O   UNL A   1      48.077  24.987  36.664  1.00  0.00    -0.744 OA
ENDBRANCH  67  68
ENDBRANCH  48  62
BRANCH  49  72
ATOM     72  C   UNL A   1      36.777  32.802  30.757  1.00  0.00    -0.014 A 
ATOM     73  C   UNL A   1      35.457  32.476  31.110  1.00  0.00     0.010 A 
ATOM     74  C   UNL A   1      37.007  33.776  29.769  1.00  0.00     0.010 A 
ATOM     75  C   UNL A   1      34.381  33.110  30.483  1.00  0.00     0.020 A 
ATOM     76  C   UNL A   1      35.933  34.424  29.152  1.00  0.00     0.020 A 
ATOM     77  C   UNL A   1      34.626  34.081  29.508  1.00  0.00     0.054 A 
BRANCH  77  78
ATOM     78  S   UNL A   1      33.223  34.954  28.760  1.00  0.00     0.124 S 
ATOM     79  O   UNL A   1      32.644  33.921  27.907  1.00  0.00    -0.237 OA
ATOM     80  O   UNL A   1      32.424  35.336  29.923  1.00  0.00    -0.237 OA
ATOM     81  O   UNL A   1      33.856  36.070  28.059  1.00  0.00    -0.744 OA
ENDBRANCH  77  78
ENDBRANCH  49  72
BRANCH  61  82
ATOM     82  C   UNL A   1      39.802  33.747  36.955  1.00  0.00    -0.014 A 
ATOM     83  C   UNL A   1      39.106  33.359  38.113  1.00  0.00     0.010 A 
ATOM     84  C   UNL A   1      40.310  35.055  36.860  1.00  0.00     0.010 A 
ATOM     85  C   UNL A   1      38.901  34.273  39.149  1.00  0.00     0.020 A 
ATOM     86  C   UNL A   1      40.119  35.967  37.901  1.00  0.00     0.020 A 
ATOM     87  C   UNL A   1      39.404  35.573  39.034  1.00  0.00     0.054 A 
BRANCH  87  88
ATOM     88  S   UNL A   1      39.166  36.735  40.408  1.00  0.00     0.124 S 
ATOM     89  O   UNL A   1      40.542  37.001  40.821  1.00  0.00    -0.237 OA
ATOM     90  O   UNL A   1      38.474  37.855  39.773  1.00  0.00    -0.237 OA
ATOM     91  O   UNL A   1      38.363  35.977  41.364  1.00  0.00    -0.744 OA
ENDBRANCH  87  88
ENDBRANCH  61  82
ENDBRANCH  35  36
ENDBRANCH  27  30
ENDBRANCH  25  26
ENDBRANCH  24  25
ENDBRANCH   1  24
TORSDOF 17
ENDMDL
MODEL 3
REMARK VINA RESULT:     -11.1      6.034     10.807
REMARK SMILES Cc1ccc(CNC(=O)c2csc(/C=C/C(=O)NCCCNC(=O)c3ccc(-c4c5nc(c(-c6ccc(S(=O)(=O)[O-])cc6)c6ccc([nH]6)c(-c6ccc(S(=O)(=O)[O-])cc6)c6nc(c(-c7ccc(S(=O)(=O)[O-])cc7)c7ccc4[nH]7)C=C6)C=C5)cc3)c2)s1
REMARK SMILES IDX 19 1 18 2 16 3 17 4 15 6 14 7 13 8 10 9 11 10 85 11 12 12
REMARK SMILES IDX 8 13 7 14 9 16 6 17 5 18 1 19 2 20 3 21 86 22 4 23 20 24
REMARK SMILES IDX 21 25 22 26 23 27 24 29 25 30 26 31 84 32 27 33 83 34 28 35
REMARK SMILES IDX 29 36 30 37 77 38 31 39 82 40 76 41 78 42 32 43 81 44 75 45
REMARK SMILES IDX 74 46 33 48 63 49 44 50 62 51 45 52 48 53 61 54 79 55 46 56
REMARK SMILES IDX 47 57 60 59 80 60 49 61 34 62 35 63 43 64 36 65 42 66 37 67
REMARK SMILES IDX 38 68 39 69 40 70 41 71 64 72 65 73 73 74 66 75 72 76 67 77
REMARK SMILES IDX 68 78 69 79 70 80 71 81 50 82 51 83 59 84 52 85 58 86 53 87
REMARK SMILES IDX 54 88 55 89 56 90 57 91
REMARK H PARENT 18 5 7 15 22 28 78 47 48 58
REMARK Flexibility Score: inf
ROOT
ATOM      1  C   UNL A   1      33.508  30.068  26.557  1.00  0.00     0.118 C 
ENDROOT
BRANCH   1   2
ATOM      2  N   UNL A   1      32.368  29.471  27.234  1.00  0.00    -0.352 N 
ATOM      3  C   UNL A   1      31.917  28.187  27.233  1.00  0.00     0.244 C 
ATOM      4  O   UNL A   1      31.029  27.847  28.008  1.00  0.00    -0.270 OA
ATOM      5  H   UNL A   1      31.838  30.096  27.781  1.00  0.00     0.163 HD
BRANCH   3   6
ATOM      6  C   UNL A   1      32.557  27.177  26.367  1.00  0.00     0.072 C 
ATOM      7  C   UNL A   1      31.858  26.396  25.531  1.00  0.00     0.024 C 
BRANCH   7   8
ATOM      8  C   UNL A   1      32.484  25.427  24.694  1.00  0.00     0.028 A 
ATOM      9  C   UNL A   1      33.825  23.609  23.995  1.00  0.00     0.051 A 
ATOM     10  C   UNL A   1      33.250  24.016  22.807  1.00  0.00     0.079 A 
ATOM     11  C   UNL A   1      33.433  24.487  25.062  1.00  0.00     0.033 A 
ATOM     12  S   UNL A   1      32.176  25.325  23.005  1.00  0.00    -0.144 S 
BRANCH   9  13
ATOM     13  C   UNL A   1      34.745  22.479  24.057  1.00  0.00     0.252 C 
ATOM     14  N   UNL A   1      34.274  21.257  24.460  1.00  0.00    -0.347 N 
ATOM     15  H   UNL A   1      34.962  20.593  24.693  1.00  0.00     0.164 HD
ATOM     16  O   UNL A   1      35.923  22.585  23.728  1.00  0.00    -0.269 OA
BRANCH  14  17
ATOM     17  C   UNL A   1      32.905  20.808  24.593  1.00  0.00     0.163 C 
BRANCH  17  18
ATOM     18  C   UNL A   1      32.853  19.325  24.389  1.00  0.00     0.024 A 
ATOM     19  C   UNL A   1      32.762  15.524  25.364  1.00  0.00     0.056 C 
ATOM     20  C   UNL A   1      32.807  16.878  24.744  1.00  0.00     0.002 A 
ATOM     21  C   UNL A   1      32.831  17.212  23.406  1.00  0.00     0.015 A 
ATOM     22  S   UNL A   1      32.833  18.268  25.740  1.00  0.00    -0.144 S 
ATOM     23  C   UNL A   1      32.855  18.622  23.201  1.00  0.00     0.017 A 
ENDBRANCH  17  18
ENDBRANCH  14  17
ENDBRANCH   9  13
ENDBRANCH   7   8
ENDBRANCH   3   6
ENDBRANCH   1   2
BRANCH   1  24
ATOM     24  C   UNL A   1      34.396  30.862  27.512  1.00  0.00     0.042 C 
BRANCH  24  25
ATOM     25  C   UNL A   1      35.331  30.000  28.361  1.00  0.00     0.118 C 
BRANCH  25  26
ATOM     26  N   UNL A   1      35.430  30.478  29.731  1.00  0.00    -0.352 N 
ATOM     27  C   UNL A   1      36.494  30.457  30.600  1.00  0.00     0.251 C 
ATOM     28  H   UNL A   1      34.607  30.881  30.092  1.00  0.00     0.163 HD
ATOM     29  O   UNL A   1      36.304  30.742  31.780  1.00  0.00    -0.269 OA
BRANCH  27  30
ATOM     30  C   UNL A   1      37.853  30.084  30.143  1.00  0.00     0.039 A 
ATOM     31  C   UNL A   1      38.788  29.665  31.097  1.00  0.00     0.014 A 
ATOM     32  C   UNL A   1      38.236  30.201  28.803  1.00  0.00     0.014 A 
ATOM     33  C   UNL A   1      40.084  29.316  30.704  1.00  0.00     0.010 A 
ATOM     34  C   UNL A   1      39.515  29.807  28.405  1.00  0.00     0.010 A 
ATOM     35  C   UNL A   1      40.451  29.364  29.351  1.00  0.00    -0.014 A 
BRANCH  35  36
ATOM     36  C   UNL A   1      41.809  28.954  28.909  1.00  0.00     0.031 A 
ATOM     37  C   UNL A   1      42.927  29.958  28.855  1.00  0.00     0.074 A 
ATOM     38  C   UNL A   1      42.024  27.690  28.498  1.00  0.00     0.049 A 
ATOM     39  N   UNL A   1      44.152  29.805  28.420  1.00  0.00    -0.248 NA
ATOM     40  C   UNL A   1      42.624  31.315  29.337  1.00  0.00     0.031 C 
ATOM     41  C   UNL A   1      41.020  26.623  28.473  1.00  0.00     0.029 A 
ATOM     42  N   UNL A   1      43.159  27.091  28.010  1.00  0.00    -0.354 N 
ATOM     43  C   UNL A   1      44.758  31.049  28.549  1.00  0.00     0.074 A 
ATOM     44  C   UNL A   1      43.760  31.950  29.086  1.00  0.00     0.031 C 
ATOM     45  C   UNL A   1      41.588  25.499  28.006  1.00  0.00     0.029 A 
ATOM     46  C   UNL A   1      42.983  25.771  27.672  1.00  0.00     0.049 A 
ATOM     47  H   UNL A   1      44.017  27.563  27.913  1.00  0.00     0.167 HD
ATOM     48  C   UNL A   1      46.031  31.409  28.256  1.00  0.00     0.031 A 
ATOM     49  C   UNL A   1      43.843  24.878  27.145  1.00  0.00     0.031 A 
ATOM     50  C   UNL A   1      47.034  30.515  27.742  1.00  0.00     0.049 A 
ATOM     51  C   UNL A   1      45.255  25.294  26.849  1.00  0.00     0.074 A 
ATOM     52  C   UNL A   1      48.362  30.781  27.455  1.00  0.00     0.029 A 
ATOM     53  N   UNL A   1      46.821  29.178  27.442  1.00  0.00    -0.354 N 
ATOM     54  N   UNL A   1      45.817  26.467  27.009  1.00  0.00    -0.248 NA
ATOM     55  C   UNL A   1      46.151  24.261  26.308  1.00  0.00     0.031 C 
ATOM     56  C   UNL A   1      48.947  29.610  26.961  1.00  0.00     0.029 A 
ATOM     57  C   UNL A   1      47.990  28.608  26.968  1.00  0.00     0.049 A 
ATOM     58  H   UNL A   1      45.965  28.704  27.552  1.00  0.00     0.167 HD
ATOM     59  C   UNL A   1      47.137  26.311  26.603  1.00  0.00     0.074 A 
ATOM     60  C   UNL A   1      47.293  24.927  26.200  1.00  0.00     0.031 C 
ATOM     61  C   UNL A   1      48.130  27.232  26.570  1.00  0.00     0.031 A 
BRANCH  48  62
ATOM     62  C   UNL A   1      46.404  32.848  28.476  1.00  0.00    -0.014 A 
ATOM     63  C   UNL A   1      46.241  33.801  27.455  1.00  0.00     0.010 A 
ATOM     64  C   UNL A   1      46.911  33.256  29.723  1.00  0.00     0.010 A 
ATOM     65  C   UNL A   1      46.619  35.129  27.662  1.00  0.00     0.020 A 
ATOM     66  C   UNL A   1      47.274  34.588  29.940  1.00  0.00     0.020 A 
ATOM     67  C   UNL A   1      47.145  35.512  28.900  1.00  0.00     0.054 A 
BRANCH  67  68
ATOM     68  S   UNL A   1      47.633  37.241  29.151  1.00  0.00     0.124 S 
ATOM     69  O   UNL A   1      46.341  37.886  29.375  1.00  0.00    -0.237 OA
ATOM     70  O   UNL A   1      48.507  37.168  30.320  1.00  0.00    -0.237 OA
ATOM     71  O   UNL A   1      48.300  37.595  27.901  1.00  0.00    -0.744 OA
ENDBRANCH  67  68
ENDBRANCH  48  62
BRANCH  49  72
ATOM     72  C   UNL A   1      43.388  23.490  26.878  1.00  0.00    -0.014 A 
ATOM     73  C   UNL A   1      43.380  22.990  25.566  1.00  0.00     0.010 A 
ATOM     74  C   UNL A   1      42.994  22.654  27.939  1.00  0.00     0.010 A 
ATOM     75  C   UNL A   1      42.980  21.675  25.314  1.00  0.00     0.020 A 
ATOM     76  C   UNL A   1      42.609  21.333  27.692  1.00  0.00     0.020 A 
ATOM     77  C   UNL A   1      42.599  20.854  26.379  1.00  0.00     0.054 A 
BRANCH  77  78
ATOM     78  S   UNL A   1      42.160  19.125  26.049  1.00  0.00     0.124 S 
ATOM     79  O   UNL A   1      40.726  19.221  25.793  1.00  0.00    -0.237 OA
ATOM     80  O   UNL A   1      42.989  18.799  24.890  1.00  0.00    -0.237 OA
ATOM     81  O   UNL A   1      42.536  18.441  27.284  1.00  0.00    -0.744 OA
ENDBRANCH  77  78
ENDBRANCH  49  72
BRANCH  61  82
ATOM     82  C   UNL A   1      49.480  26.767  26.103  1.00  0.00    -0.014 A 
ATOM     83  C   UNL A   1      49.903  26.994  24.781  1.00  0.00     0.010 A 
ATOM     84  C   UNL A   1      50.353  26.138  27.008  1.00  0.00     0.010 A 
ATOM     85  C   UNL A   1      51.170  26.576  24.366  1.00  0.00     0.020 A 
ATOM     86  C   UNL A   1      51.627  25.734  26.601  1.00  0.00     0.020 A 
ATOM     87  C   UNL A   1      52.022  25.943  25.277  1.00  0.00     0.054 A 
BRANCH  87  88
ATOM     88  S   UNL A   1      53.681  25.446  24.735  1.00  0.00     0.124 S 
ATOM     89  O   UNL A   1      53.712  25.943  23.362  1.00  0.00    -0.237 OA
ATOM     90  O   UNL A   1      54.555  26.143  25.675  1.00  0.00    -0.237 OA
ATOM     91  O   UNL A   1      53.664  23.991  24.872  1.00  0.00    -0.744 OA
ENDBRANCH  87  88
ENDBRANCH  61  82
ENDBRANCH  35  36
ENDBRANCH  27  30
ENDBRANCH  25  26
ENDBRANCH  24  25
ENDBRANCH   1  24
TORSDOF 17
ENDMDL
