MODEL 1
REMARK VINA RESULT:     -12.8      0.000      0.000
REMARK SMILES CC(=O)Nc1cccc(-c2cc(F)ccc2C(=O)NCCCNC(=O)c2ccc(-c3c4nc(c(-c5ccc(S(=O)(=O)[O-])cc5)c5ccc([nH]5)c(-c5ccc(S(=O)(=O)[O-])cc5)c5nc(c(-c6ccc(S(=O)(=O)[O-])cc6)c6ccc3[nH]6)C=C5)C=C4)cc2)c1
REMARK SMILES IDX 21 1 20 2 19 3 17 4 18 5 16 7 10 8 11 9 12 10 15 11 13 12
REMARK SMILES IDX 14 13 9 14 5 15 6 16 86 17 7 18 8 19 4 20 1 21 2 22 3 23
REMARK SMILES IDX 22 25 23 26 24 27 25 29 26 30 27 31 85 32 28 33 84 34 29 35
REMARK SMILES IDX 30 36 31 37 78 38 32 39 83 40 77 41 79 42 33 43 82 44 76 45
REMARK SMILES IDX 75 46 34 48 64 49 45 50 63 51 46 52 49 53 62 54 80 55 47 56
REMARK SMILES IDX 48 57 61 59 81 60 50 61 35 62 36 63 44 64 37 65 43 66 38 67
REMARK SMILES IDX 39 68 40 69 41 70 42 71 65 72 66 73 74 74 67 75 73 76 68 77
REMARK SMILES IDX 69 78 70 79 71 80 72 81 51 82 52 83 60 84 53 85 59 86 54 87
REMARK SMILES IDX 55 88 56 89 57 90 58 91
REMARK H PARENT 19 6 4 24 23 28 79 47 49 58
REMARK Flexibility Score: inf
ROOT
ATOM      1  C   UNL A   1      39.197  21.781  26.041  1.00  0.00     0.042 C 
ENDROOT
BRANCH   1   2
ATOM      2  C   UNL A   1      37.740  21.932  25.689  1.00  0.00     0.118 C 
BRANCH   2   3
ATOM      3  N   UNL A   1      37.347  22.039  24.320  1.00  0.00    -0.352 N 
ATOM      4  C   UNL A   1      36.262  22.711  23.804  1.00  0.00     0.251 C 
ATOM      5  O   UNL A   1      36.321  22.942  22.590  1.00  0.00    -0.269 OA
ATOM      6  H   UNL A   1      37.920  21.577  23.667  1.00  0.00     0.163 HD
BRANCH   4   7
ATOM      7  C   UNL A   1      34.980  23.093  24.533  1.00  0.00     0.047 A 
ATOM      8  C   UNL A   1      33.793  22.363  24.857  1.00  0.00    -0.003 A 
ATOM      9  C   UNL A   1      32.779  23.030  25.596  1.00  0.00     0.048 A 
ATOM     10  C   UNL A   1      32.908  24.348  26.009  1.00  0.00     0.123 A 
ATOM     11  C   UNL A   1      35.060  24.443  24.982  1.00  0.00     0.017 A 
ATOM     12  F   UNL A   1      31.922  24.924  26.707  1.00  0.00    -0.207 F 
ATOM     13  C   UNL A   1      34.044  25.065  25.709  1.00  0.00     0.040 A 
BRANCH   8  14
ATOM     14  C   UNL A   1      33.459  20.966  24.494  1.00  0.00    -0.015 A 
ATOM     15  C   UNL A   1      34.050  18.596  24.417  1.00  0.00     0.041 A 
ATOM     16  C   UNL A   1      33.080  18.393  23.426  1.00  0.00     0.026 A 
ATOM     17  C   UNL A   1      34.190  19.872  24.989  1.00  0.00     0.034 A 
ATOM     18  C   UNL A   1      32.262  19.441  23.006  1.00  0.00     0.003 A 
ATOM     19  C   UNL A   1      32.452  20.717  23.534  1.00  0.00     0.009 A 
BRANCH  15  20
ATOM     20  N   UNL A   1      34.984  17.556  24.601  1.00  0.00    -0.326 N 
ATOM     21  C   UNL A   1      33.535  15.659  25.298  1.00  0.00     0.114 C 
ATOM     22  C   UNL A   1      34.873  16.330  25.189  1.00  0.00     0.221 C 
ATOM     23  O   UNL A   1      35.883  15.759  25.607  1.00  0.00    -0.275 OA
ATOM     24  H   UNL A   1      35.879  17.749  24.239  1.00  0.00     0.169 HD
ENDBRANCH  15  20
ENDBRANCH   8  14
ENDBRANCH   4   7
ENDBRANCH   2   3
ENDBRANCH   1   2
BRANCH   1  25
ATOM     25  C   UNL A   1      39.827  22.970  26.748  1.00  0.00     0.118 C 
BRANCH  25  26
ATOM     26  N   UNL A   1      41.092  23.427  26.161  1.00  0.00    -0.352 N 
ATOM     27  C   UNL A   1      41.775  24.624  26.198  1.00  0.00     0.251 C 
ATOM     28  H   UNL A   1      41.548  22.734  25.631  1.00  0.00     0.163 HD
ATOM     29  O   UNL A   1      42.666  24.812  25.374  1.00  0.00    -0.269 OA
BRANCH  27  30
ATOM     30  C   UNL A   1      41.420  25.705  27.151  1.00  0.00     0.039 A 
ATOM     31  C   UNL A   1      40.507  25.444  28.180  1.00  0.00     0.014 A 
ATOM     32  C   UNL A   1      41.970  26.977  27.051  1.00  0.00     0.014 A 
ATOM     33  C   UNL A   1      40.261  26.409  29.163  1.00  0.00     0.010 A 
ATOM     34  C   UNL A   1      41.865  27.865  28.110  1.00  0.00     0.010 A 
ATOM     35  C   UNL A   1      40.998  27.601  29.178  1.00  0.00    -0.014 A 
BRANCH  35  36
ATOM     36  C   UNL A   1      40.885  28.609  30.264  1.00  0.00     0.031 A 
ATOM     37  C   UNL A   1      41.771  28.493  31.482  1.00  0.00     0.074 A 
ATOM     38  C   UNL A   1      39.913  29.544  30.215  1.00  0.00     0.049 A 
ATOM     39  N   UNL A   1      41.710  29.147  32.612  1.00  0.00    -0.248 NA
ATOM     40  C   UNL A   1      42.836  27.472  31.443  1.00  0.00     0.031 C 
ATOM     41  C   UNL A   1      38.956  29.724  29.119  1.00  0.00     0.029 A 
ATOM     42  N   UNL A   1      39.554  30.510  31.121  1.00  0.00    -0.354 N 
ATOM     43  C   UNL A   1      42.686  28.584  33.428  1.00  0.00     0.074 A 
ATOM     44  C   UNL A   1      43.289  27.500  32.687  1.00  0.00     0.031 C 
ATOM     45  C   UNL A   1      38.148  30.759  29.400  1.00  0.00     0.029 A 
ATOM     46  C   UNL A   1      38.485  31.278  30.720  1.00  0.00     0.049 A 
ATOM     47  H   UNL A   1      40.020  30.643  31.979  1.00  0.00     0.167 HD
ATOM     48  C   UNL A   1      43.066  28.953  34.673  1.00  0.00     0.031 A 
ATOM     49  C   UNL A   1      37.838  32.276  31.352  1.00  0.00     0.031 A 
ATOM     50  C   UNL A   1      42.502  30.070  35.378  1.00  0.00     0.049 A 
ATOM     51  C   UNL A   1      38.297  32.682  32.727  1.00  0.00     0.074 A 
ATOM     52  C   UNL A   1      42.877  30.589  36.605  1.00  0.00     0.029 A 
ATOM     53  N   UNL A   1      41.452  30.848  34.915  1.00  0.00    -0.354 N 
ATOM     54  N   UNL A   1      39.272  32.181  33.450  1.00  0.00    -0.248 NA
ATOM     55  C   UNL A   1      37.578  33.791  33.367  1.00  0.00     0.031 C 
ATOM     56  C   UNL A   1      42.016  31.646  36.910  1.00  0.00     0.029 A 
ATOM     57  C   UNL A   1      41.150  31.829  35.843  1.00  0.00     0.049 A 
ATOM     58  H   UNL A   1      40.992  30.723  34.055  1.00  0.00     0.167 HD
ATOM     59  C   UNL A   1      39.306  32.942  34.613  1.00  0.00     0.074 A 
ATOM     60  C   UNL A   1      38.266  33.943  34.490  1.00  0.00     0.031 C 
ATOM     61  C   UNL A   1      40.123  32.826  35.689  1.00  0.00     0.031 A 
BRANCH  48  62
ATOM     62  C   UNL A   1      44.151  28.157  35.351  1.00  0.00    -0.014 A 
ATOM     63  C   UNL A   1      45.505  28.521  35.236  1.00  0.00     0.010 A 
ATOM     64  C   UNL A   1      43.802  27.074  36.180  1.00  0.00     0.010 A 
ATOM     65  C   UNL A   1      46.491  27.802  35.918  1.00  0.00     0.020 A 
ATOM     66  C   UNL A   1      44.782  26.373  36.888  1.00  0.00     0.020 A 
ATOM     67  C   UNL A   1      46.123  26.738  36.745  1.00  0.00     0.054 A 
BRANCH  67  68
ATOM     68  S   UNL A   1      47.419  25.872  37.671  1.00  0.00     0.124 S 
ATOM     69  O   UNL A   1      47.623  26.765  38.810  1.00  0.00    -0.237 OA
ATOM     70  O   UNL A   1      46.786  24.592  37.983  1.00  0.00    -0.237 OA
ATOM     71  O   UNL A   1      48.532  25.800  36.728  1.00  0.00    -0.744 OA
ENDBRANCH  67  68
ENDBRANCH  48  62
BRANCH  49  72
ATOM     72  C   UNL A   1      36.694  32.973  30.697  1.00  0.00    -0.014 A 
ATOM     73  C   UNL A   1      36.916  33.854  29.624  1.00  0.00     0.010 A 
ATOM     74  C   UNL A   1      35.378  32.778  31.156  1.00  0.00     0.010 A 
ATOM     75  C   UNL A   1      35.853  34.561  29.052  1.00  0.00     0.020 A 
ATOM     76  C   UNL A   1      34.308  33.457  30.564  1.00  0.00     0.020 A 
ATOM     77  C   UNL A   1      34.555  34.359  29.528  1.00  0.00     0.054 A 
BRANCH  77  78
ATOM     78  S   UNL A   1      33.191  35.280  28.764  1.00  0.00     0.124 S 
ATOM     79  O   UNL A   1      32.526  34.242  27.985  1.00  0.00    -0.237 OA
ATOM     80  O   UNL A   1      32.454  35.772  29.926  1.00  0.00    -0.237 OA
ATOM     81  O   UNL A   1      33.871  36.312  27.985  1.00  0.00    -0.744 OA
ENDBRANCH  77  78
ENDBRANCH  49  72
BRANCH  61  82
ATOM     82  C   UNL A   1      39.967  33.836  36.792  1.00  0.00    -0.014 A 
ATOM     83  C   UNL A   1      40.651  35.063  36.766  1.00  0.00     0.010 A 
ATOM     84  C   UNL A   1      39.066  33.572  37.842  1.00  0.00     0.010 A 
ATOM     85  C   UNL A   1      40.464  35.995  37.788  1.00  0.00     0.020 A 
ATOM     86  C   UNL A   1      38.851  34.516  38.847  1.00  0.00     0.020 A 
ATOM     87  C   UNL A   1      39.562  35.716  38.822  1.00  0.00     0.054 A 
BRANCH  87  88
ATOM     88  S   UNL A   1      39.303  36.964  40.110  1.00  0.00     0.124 S 
ATOM     89  O   UNL A   1      38.545  36.216  41.109  1.00  0.00    -0.237 OA
ATOM     90  O   UNL A   1      40.668  37.319  40.491  1.00  0.00    -0.237 OA
ATOM     91  O   UNL A   1      38.559  38.020  39.425  1.00  0.00    -0.744 OA
ENDBRANCH  87  88
ENDBRANCH  61  82
ENDBRANCH  35  36
ENDBRANCH  27  30
ENDBRANCH  25  26
ENDBRANCH   1  25
TORSDOF 15
ENDMDL
MODEL 2
REMARK VINA RESULT:     -12.7      4.381      6.327
REMARK SMILES CC(=O)Nc1cccc(-c2cc(F)ccc2C(=O)NCCCNC(=O)c2ccc(-c3c4nc(c(-c5ccc(S(=O)(=O)[O-])cc5)c5ccc([nH]5)c(-c5ccc(S(=O)(=O)[O-])cc5)c5nc(c(-c6ccc(S(=O)(=O)[O-])cc6)c6ccc3[nH]6)C=C5)C=C4)cc2)c1
REMARK SMILES IDX 21 1 20 2 19 3 17 4 18 5 16 7 10 8 11 9 12 10 15 11 13 12
REMARK SMILES IDX 14 13 9 14 5 15 6 16 86 17 7 18 8 19 4 20 1 21 2 22 3 23
REMARK SMILES IDX 22 25 23 26 24 27 25 29 26 30 27 31 85 32 28 33 84 34 29 35
REMARK SMILES IDX 30 36 31 37 78 38 32 39 83 40 77 41 79 42 33 43 82 44 76 45
REMARK SMILES IDX 75 46 34 48 64 49 45 50 63 51 46 52 49 53 62 54 80 55 47 56
REMARK SMILES IDX 48 57 61 59 81 60 50 61 35 62 36 63 44 64 37 65 43 66 38 67
REMARK SMILES IDX 39 68 40 69 41 70 42 71 65 72 66 73 74 74 67 75 73 76 68 77
REMARK SMILES IDX 69 78 70 79 71 80 72 81 51 82 52 83 60 84 53 85 59 86 54 87
REMARK SMILES IDX 55 88 56 89 57 90 58 91
REMARK H PARENT 19 6 4 24 23 28 79 47 49 58
REMARK Flexibility Score: inf
ROOT
ATOM      1  C   UNL A   1      34.575  23.706  26.119  1.00  0.00     0.042 C 
ENDROOT
BRANCH   1   2
ATOM      2  C   UNL A   1      33.529  24.759  25.862  1.00  0.00     0.118 C 
BRANCH   2   3
ATOM      3  N   UNL A   1      33.378  25.308  24.552  1.00  0.00    -0.352 N 
ATOM      4  C   UNL A   1      33.435  26.632  24.181  1.00  0.00     0.251 C 
ATOM      5  O   UNL A   1      33.613  26.826  22.972  1.00  0.00    -0.269 OA
ATOM      6  H   UNL A   1      33.214  24.661  23.829  1.00  0.00     0.163 HD
BRANCH   4   7
ATOM      7  C   UNL A   1      33.196  27.850  25.063  1.00  0.00     0.047 A 
ATOM      8  C   UNL A   1      32.139  28.811  25.127  1.00  0.00    -0.003 A 
ATOM      9  C   UNL A   1      32.216  29.825  26.120  1.00  0.00     0.048 A 
ATOM     10  C   UNL A   1      33.270  29.904  27.019  1.00  0.00     0.123 A 
ATOM     11  C   UNL A   1      34.254  27.978  26.010  1.00  0.00     0.017 A 
ATOM     12  F   UNL A   1      33.288  30.877  27.937  1.00  0.00    -0.207 F 
ATOM     13  C   UNL A   1      34.295  28.986  26.975  1.00  0.00     0.040 A 
BRANCH   8  14
ATOM     14  C   UNL A   1      30.947  28.909  24.253  1.00  0.00    -0.015 A 
ATOM     15  C   UNL A   1      29.181  30.241  23.216  1.00  0.00     0.041 A 
ATOM     16  C   UNL A   1      28.442  29.073  22.988  1.00  0.00     0.026 A 
ATOM     17  C   UNL A   1      30.459  30.143  23.792  1.00  0.00     0.034 A 
ATOM     18  C   UNL A   1      28.960  27.825  23.329  1.00  0.00     0.003 A 
ATOM     19  C   UNL A   1      30.202  27.744  23.958  1.00  0.00     0.009 A 
BRANCH  15  20
ATOM     20  N   UNL A   1      28.487  31.460  23.068  1.00  0.00    -0.326 N 
ATOM     21  C   UNL A   1      28.181  31.601  20.604  1.00  0.00     0.114 C 
ATOM     22  C   UNL A   1      28.216  32.223  21.970  1.00  0.00     0.221 C 
ATOM     23  O   UNL A   1      27.969  33.423  22.106  1.00  0.00    -0.275 OA
ATOM     24  H   UNL A   1      28.134  31.827  23.910  1.00  0.00     0.169 HD
ENDBRANCH  15  20
ENDBRANCH   8  14
ENDBRANCH   4   7
ENDBRANCH   2   3
ENDBRANCH   1   2
BRANCH   1  25
ATOM     25  C   UNL A   1      36.010  24.126  25.844  1.00  0.00     0.118 C 
BRANCH  25  26
ATOM     26  N   UNL A   1      36.990  23.039  25.929  1.00  0.00    -0.352 N 
ATOM     27  C   UNL A   1      38.330  22.995  26.252  1.00  0.00     0.251 C 
ATOM     28  H   UNL A   1      36.613  22.156  25.711  1.00  0.00     0.163 HD
ATOM     29  O   UNL A   1      38.968  21.987  25.957  1.00  0.00    -0.269 OA
BRANCH  27  30
ATOM     30  C   UNL A   1      39.029  24.146  26.875  1.00  0.00     0.039 A 
ATOM     31  C   UNL A   1      39.831  24.976  26.082  1.00  0.00     0.014 A 
ATOM     32  C   UNL A   1      38.910  24.427  28.230  1.00  0.00     0.014 A 
ATOM     33  C   UNL A   1      40.391  26.140  26.624  1.00  0.00     0.010 A 
ATOM     34  C   UNL A   1      39.312  25.658  28.724  1.00  0.00     0.010 A 
ATOM     35  C   UNL A   1      40.070  26.529  27.932  1.00  0.00    -0.014 A 
BRANCH  35  36
ATOM     36  C   UNL A   1      40.519  27.816  28.526  1.00  0.00     0.031 A 
ATOM     37  C   UNL A   1      41.911  27.924  29.102  1.00  0.00     0.074 A 
ATOM     38  C   UNL A   1      39.645  28.836  28.659  1.00  0.00     0.049 A 
ATOM     39  N   UNL A   1      42.433  28.882  29.823  1.00  0.00    -0.248 NA
ATOM     40  C   UNL A   1      42.820  26.783  28.882  1.00  0.00     0.031 C 
ATOM     41  C   UNL A   1      38.254  28.835  28.193  1.00  0.00     0.029 A 
ATOM     42  N   UNL A   1      39.790  30.069  29.243  1.00  0.00    -0.354 N 
ATOM     43  C   UNL A   1      43.701  28.437  30.180  1.00  0.00     0.074 A 
ATOM     44  C   UNL A   1      43.853  27.103  29.646  1.00  0.00     0.031 C 
ATOM     45  C   UNL A   1      37.690  30.020  28.476  1.00  0.00     0.029 A 
ATOM     46  C   UNL A   1      38.654  30.843  29.197  1.00  0.00     0.049 A 
ATOM     47  H   UNL A   1      40.632  30.372  29.656  1.00  0.00     0.167 HD
ATOM     48  C   UNL A   1      44.666  29.090  30.869  1.00  0.00     0.031 A 
ATOM     49  C   UNL A   1      38.410  32.071  29.693  1.00  0.00     0.031 A 
ATOM     50  C   UNL A   1      44.529  30.439  31.343  1.00  0.00     0.049 A 
ATOM     51  C   UNL A   1      39.509  32.784  30.434  1.00  0.00     0.074 A 
ATOM     52  C   UNL A   1      45.477  31.228  31.970  1.00  0.00     0.029 A 
ATOM     53  N   UNL A   1      43.377  31.202  31.234  1.00  0.00    -0.354 N 
ATOM     54  N   UNL A   1      40.727  32.371  30.697  1.00  0.00    -0.248 NA
ATOM     55  C   UNL A   1      39.206  34.131  30.937  1.00  0.00     0.031 C 
ATOM     56  C   UNL A   1      44.880  32.450  32.291  1.00  0.00     0.029 A 
ATOM     57  C   UNL A   1      43.582  32.446  31.803  1.00  0.00     0.049 A 
ATOM     58  H   UNL A   1      42.539  30.903  30.814  1.00  0.00     0.167 HD
ATOM     59  C   UNL A   1      41.346  33.425  31.361  1.00  0.00     0.074 A 
ATOM     60  C   UNL A   1      40.374  34.496  31.446  1.00  0.00     0.031 C 
ATOM     61  C   UNL A   1      42.606  33.502  31.859  1.00  0.00     0.031 A 
BRANCH  48  62
ATOM     62  C   UNL A   1      45.960  28.367  31.139  1.00  0.00    -0.014 A 
ATOM     63  C   UNL A   1      47.032  28.424  30.231  1.00  0.00     0.010 A 
ATOM     64  C   UNL A   1      46.133  27.685  32.358  1.00  0.00     0.010 A 
ATOM     65  C   UNL A   1      48.244  27.793  30.526  1.00  0.00     0.020 A 
ATOM     66  C   UNL A   1      47.354  27.080  32.670  1.00  0.00     0.020 A 
ATOM     67  C   UNL A   1      48.399  27.132  31.746  1.00  0.00     0.054 A 
BRANCH  67  68
ATOM     68  S   UNL A   1      50.007  26.385  32.129  1.00  0.00     0.124 S 
ATOM     69  O   UNL A   1      49.646  24.985  32.338  1.00  0.00    -0.237 OA
ATOM     70  O   UNL A   1      50.781  26.660  30.921  1.00  0.00    -0.237 OA
ATOM     71  O   UNL A   1      50.447  27.100  33.325  1.00  0.00    -0.744 OA
ENDBRANCH  67  68
ENDBRANCH  48  62
BRANCH  49  72
ATOM     72  C   UNL A   1      37.079  32.716  29.504  1.00  0.00    -0.014 A 
ATOM     73  C   UNL A   1      36.781  33.399  28.311  1.00  0.00     0.010 A 
ATOM     74  C   UNL A   1      36.109  32.672  30.523  1.00  0.00     0.010 A 
ATOM     75  C   UNL A   1      35.560  34.063  28.157  1.00  0.00     0.020 A 
ATOM     76  C   UNL A   1      34.873  33.304  30.359  1.00  0.00     0.020 A 
ATOM     77  C   UNL A   1      34.614  34.013  29.185  1.00  0.00     0.054 A 
BRANCH  77  78
ATOM     78  S   UNL A   1      33.032  34.873  28.959  1.00  0.00     0.124 S 
ATOM     79  O   UNL A   1      32.492  34.873  30.314  1.00  0.00    -0.237 OA
ATOM     80  O   UNL A   1      33.452  36.173  28.442  1.00  0.00    -0.237 OA
ATOM     81  O   UNL A   1      32.321  34.030  28.000  1.00  0.00    -0.744 OA
ENDBRANCH  77  78
ENDBRANCH  49  72
BRANCH  61  82
ATOM     82  C   UNL A   1      43.026  34.802  32.486  1.00  0.00    -0.014 A 
ATOM     83  C   UNL A   1      43.645  35.814  31.733  1.00  0.00     0.010 A 
ATOM     84  C   UNL A   1      42.735  35.035  33.844  1.00  0.00     0.010 A 
ATOM     85  C   UNL A   1      43.997  37.024  32.334  1.00  0.00     0.020 A 
ATOM     86  C   UNL A   1      43.054  36.256  34.440  1.00  0.00     0.020 A 
ATOM     87  C   UNL A   1      43.697  37.238  33.685  1.00  0.00     0.054 A 
BRANCH  87  88
ATOM     88  S   UNL A   1      44.122  38.835  34.428  1.00  0.00     0.124 S 
ATOM     89  O   UNL A   1      45.431  39.104  33.842  1.00  0.00    -0.237 OA
ATOM     90  O   UNL A   1      43.037  39.700  33.970  1.00  0.00    -0.237 OA
ATOM     91  O   UNL A   1      44.127  38.559  35.864  1.00  0.00    -0.744 OA
ENDBRANCH  87  88
ENDBRANCH  61  82
ENDBRANCH  35  36
ENDBRANCH  27  30
ENDBRANCH  25  26
ENDBRANCH   1  25
TORSDOF 15
ENDMDL
MODEL 3
REMARK VINA RESULT:     -12.7      6.680     12.483
REMARK SMILES CC(=O)Nc1cccc(-c2cc(F)ccc2C(=O)NCCCNC(=O)c2ccc(-c3c4nc(c(-c5ccc(S(=O)(=O)[O-])cc5)c5ccc([nH]5)c(-c5ccc(S(=O)(=O)[O-])cc5)c5nc(c(-c6ccc(S(=O)(=O)[O-])cc6)c6ccc3[nH]6)C=C5)C=C4)cc2)c1
REMARK SMILES IDX 21 1 20 2 19 3 17 4 18 5 16 7 10 8 11 9 12 10 15 11 13 12
REMARK SMILES IDX 14 13 9 14 5 15 6 16 86 17 7 18 8 19 4 20 1 21 2 22 3 23
REMARK SMILES IDX 22 25 23 26 24 27 25 29 26 30 27 31 85 32 28 33 84 34 29 35
REMARK SMILES IDX 30 36 31 37 78 38 32 39 83 40 77 41 79 42 33 43 82 44 76 45
REMARK SMILES IDX 75 46 34 48 64 49 45 50 63 51 46 52 49 53 62 54 80 55 47 56
REMARK SMILES IDX 48 57 61 59 81 60 50 61 35 62 36 63 44 64 37 65 43 66 38 67
REMARK SMILES IDX 39 68 40 69 41 70 42 71 65 72 66 73 74 74 67 75 73 76 68 77
REMARK SMILES IDX 69 78 70 79 71 80 72 81 51 82 52 83 60 84 53 85 59 86 54 87
REMARK SMILES IDX 55 88 56 89 57 90 58 91
REMARK H PARENT 19 6 4 24 23 28 79 47 49 58
REMARK Flexibility Score: inf
ROOT
ATOM      1  C   UNL A   1      33.782  31.370  27.642  1.00  0.00     0.042 C 
ENDROOT
BRANCH   1   2
ATOM      2  C   UNL A   1      33.403  30.095  26.936  1.00  0.00     0.118 C 
BRANCH   2   3
ATOM      3  N   UNL A   1      32.209  29.404  27.307  1.00  0.00    -0.352 N 
ATOM      4  C   UNL A   1      31.792  28.159  26.893  1.00  0.00     0.251 C 
ATOM      5  O   UNL A   1      30.917  27.642  27.599  1.00  0.00    -0.269 OA
ATOM      6  H   UNL A   1      31.613  29.875  27.933  1.00  0.00     0.163 HD
BRANCH   4   7
ATOM      7  C   UNL A   1      32.206  27.419  25.628  1.00  0.00     0.047 A 
ATOM      8  C   UNL A   1      31.705  27.432  24.288  1.00  0.00    -0.003 A 
ATOM      9  C   UNL A   1      32.365  26.627  23.320  1.00  0.00     0.048 A 
ATOM     10  C   UNL A   1      33.468  25.845  23.634  1.00  0.00     0.123 A 
ATOM     11  C   UNL A   1      33.340  26.598  25.894  1.00  0.00     0.017 A 
ATOM     12  F   UNL A   1      34.053  25.110  22.681  1.00  0.00    -0.207 F 
ATOM     13  C   UNL A   1      33.965  25.823  24.917  1.00  0.00     0.040 A 
BRANCH   8  14
ATOM     14  C   UNL A   1      30.539  28.178  23.762  1.00  0.00    -0.015 A 
ATOM     15  C   UNL A   1      29.343  30.283  23.427  1.00  0.00     0.041 A 
ATOM     16  C   UNL A   1      28.161  29.567  23.196  1.00  0.00     0.026 A 
ATOM     17  C   UNL A   1      30.540  29.578  23.647  1.00  0.00     0.034 A 
ATOM     18  C   UNL A   1      28.163  28.173  23.187  1.00  0.00     0.003 A 
ATOM     19  C   UNL A   1      29.342  27.484  23.470  1.00  0.00     0.009 A 
BRANCH  15  20
ATOM     20  N   UNL A   1      29.203  31.666  23.659  1.00  0.00    -0.326 N 
ATOM     21  C   UNL A   1      28.192  32.461  21.531  1.00  0.00     0.114 C 
ATOM     22  C   UNL A   1      28.924  32.704  22.818  1.00  0.00     0.221 C 
ATOM     23  O   UNL A   1      29.249  33.850  23.134  1.00  0.00    -0.275 OA
ATOM     24  H   UNL A   1      29.329  31.932  24.598  1.00  0.00     0.169 HD
ENDBRANCH  15  20
ENDBRANCH   8  14
ENDBRANCH   4   7
ENDBRANCH   2   3
ENDBRANCH   1   2
BRANCH   1  25
ATOM     25  C   UNL A   1      35.216  31.443  28.139  1.00  0.00     0.118 C 
BRANCH  25  26
ATOM     26  N   UNL A   1      35.352  31.561  29.595  1.00  0.00    -0.352 N 
ATOM     27  C   UNL A   1      36.235  31.028  30.510  1.00  0.00     0.251 C 
ATOM     28  H   UNL A   1      34.671  32.143  30.004  1.00  0.00     0.163 HD
ATOM     29  O   UNL A   1      35.934  31.065  31.700  1.00  0.00    -0.269 OA
BRANCH  27  30
ATOM     30  C   UNL A   1      37.492  30.358  30.094  1.00  0.00     0.039 A 
ATOM     31  C   UNL A   1      37.834  30.316  28.737  1.00  0.00     0.014 A 
ATOM     32  C   UNL A   1      38.345  29.767  31.017  1.00  0.00     0.014 A 
ATOM     33  C   UNL A   1      39.076  29.806  28.340  1.00  0.00     0.010 A 
ATOM     34  C   UNL A   1      39.637  29.425  30.651  1.00  0.00     0.010 A 
ATOM     35  C   UNL A   1      40.020  29.426  29.304  1.00  0.00    -0.014 A 
BRANCH  35  36
ATOM     36  C   UNL A   1      41.402  29.003  28.960  1.00  0.00     0.031 A 
ATOM     37  C   UNL A   1      42.507  30.032  28.917  1.00  0.00     0.074 A 
ATOM     38  C   UNL A   1      41.638  27.733  28.569  1.00  0.00     0.049 A 
ATOM     39  N   UNL A   1      43.728  29.914  28.465  1.00  0.00    -0.248 NA
ATOM     40  C   UNL A   1      42.180  31.389  29.397  1.00  0.00     0.031 C 
ATOM     41  C   UNL A   1      40.643  26.657  28.513  1.00  0.00     0.029 A 
ATOM     42  N   UNL A   1      42.790  27.133  28.124  1.00  0.00    -0.354 N 
ATOM     43  C   UNL A   1      44.290  31.182  28.561  1.00  0.00     0.074 A 
ATOM     44  C   UNL A   1      43.265  32.069  29.060  1.00  0.00     0.031 C 
ATOM     45  C   UNL A   1      41.235  25.526  28.098  1.00  0.00     0.029 A 
ATOM     46  C   UNL A   1      42.634  25.805  27.797  1.00  0.00     0.049 A 
ATOM     47  H   UNL A   1      43.649  27.609  28.047  1.00  0.00     0.167 HD
ATOM     48  C   UNL A   1      45.557  31.570  28.284  1.00  0.00     0.031 A 
ATOM     49  C   UNL A   1      43.514  24.918  27.297  1.00  0.00     0.031 A 
ATOM     50  C   UNL A   1      46.587  30.670  27.847  1.00  0.00     0.049 A 
ATOM     51  C   UNL A   1      44.923  25.371  27.021  1.00  0.00     0.074 A 
ATOM     52  C   UNL A   1      47.927  30.939  27.628  1.00  0.00     0.029 A 
ATOM     53  N   UNL A   1      46.396  29.324  27.573  1.00  0.00    -0.354 N 
ATOM     54  N   UNL A   1      45.452  26.560  27.188  1.00  0.00    -0.248 NA
ATOM     55  C   UNL A   1      45.855  24.362  26.499  1.00  0.00     0.031 C 
ATOM     56  C   UNL A   1      48.535  29.769  27.166  1.00  0.00     0.029 A 
ATOM     57  C   UNL A   1      47.589  28.755  27.164  1.00  0.00     0.049 A 
ATOM     58  H   UNL A   1      45.541  28.845  27.659  1.00  0.00     0.167 HD
ATOM     59  C   UNL A   1      46.790  26.431  26.828  1.00  0.00     0.074 A 
ATOM     60  C   UNL A   1      46.990  25.047  26.449  1.00  0.00     0.031 C 
ATOM     61  C   UNL A   1      47.767  27.371  26.811  1.00  0.00     0.031 A 
BRANCH  48  62
ATOM     62  C   UNL A   1      45.909  33.025  28.459  1.00  0.00    -0.014 A 
ATOM     63  C   UNL A   1      45.884  33.918  27.372  1.00  0.00     0.010 A 
ATOM     64  C   UNL A   1      46.194  33.521  29.745  1.00  0.00     0.010 A 
ATOM     65  C   UNL A   1      46.160  35.275  27.565  1.00  0.00     0.020 A 
ATOM     66  C   UNL A   1      46.438  34.882  29.946  1.00  0.00     0.020 A 
ATOM     67  C   UNL A   1      46.428  35.749  28.851  1.00  0.00     0.054 A 
BRANCH  67  68
ATOM     68  S   UNL A   1      46.710  37.526  29.078  1.00  0.00     0.124 S 
ATOM     69  O   UNL A   1      47.508  37.857  27.900  1.00  0.00    -0.237 OA
ATOM     70  O   UNL A   1      45.353  38.065  29.088  1.00  0.00    -0.237 OA
ATOM     71  O   UNL A   1      47.419  37.606  30.353  1.00  0.00    -0.744 OA
ENDBRANCH  67  68
ENDBRANCH  48  62
BRANCH  49  72
ATOM     72  C   UNL A   1      43.104  23.509  27.031  1.00  0.00    -0.014 A 
ATOM     73  C   UNL A   1      42.942  22.601  28.092  1.00  0.00     0.010 A 
ATOM     74  C   UNL A   1      42.894  23.060  25.713  1.00  0.00     0.010 A 
ATOM     75  C   UNL A   1      42.624  21.262  27.841  1.00  0.00     0.020 A 
ATOM     76  C   UNL A   1      42.541  21.731  25.461  1.00  0.00     0.020 A 
ATOM     77  C   UNL A   1      42.428  20.835  26.525  1.00  0.00     0.054 A 
BRANCH  77  78
ATOM     78  S   UNL A   1      42.006  19.096  26.224  1.00  0.00     0.124 S 
ATOM     79  O   UNL A   1      40.597  19.187  25.855  1.00  0.00    -0.237 OA
ATOM     80  O   UNL A   1      42.922  18.732  25.147  1.00  0.00    -0.237 OA
ATOM     81  O   UNL A   1      42.278  18.453  27.508  1.00  0.00    -0.744 OA
ENDBRANCH  77  78
ENDBRANCH  49  72
BRANCH  61  82
ATOM     82  C   UNL A   1      49.151  26.926  26.425  1.00  0.00    -0.014 A 
ATOM     83  C   UNL A   1      50.005  26.303  27.350  1.00  0.00     0.010 A 
ATOM     84  C   UNL A   1      49.575  27.081  25.092  1.00  0.00     0.010 A 
ATOM     85  C   UNL A   1      51.274  25.872  26.956  1.00  0.00     0.020 A 
ATOM     86  C   UNL A   1      50.829  26.622  24.687  1.00  0.00     0.020 A 
ATOM     87  C   UNL A   1      51.677  26.033  25.626  1.00  0.00     0.054 A 
BRANCH  87  88
ATOM     88  S   UNL A   1      53.310  25.423  25.131  1.00  0.00     0.124 S 
ATOM     89  O   UNL A   1      53.218  24.005  25.466  1.00  0.00    -0.237 OA
ATOM     90  O   UNL A   1      53.348  25.732  23.703  1.00  0.00    -0.237 OA
ATOM     91  O   UNL A   1      54.235  26.199  25.955  1.00  0.00    -0.744 OA
ENDBRANCH  87  88
ENDBRANCH  61  82
ENDBRANCH  35  36
ENDBRANCH  27  30
ENDBRANCH  25  26
ENDBRANCH   1  25
TORSDOF 15
ENDMDL
