MODEL 1
REMARK VINA RESULT:     -10.6      0.000      0.000
REMARK SMILES CCCCCNC(=O)Oc1cccc(-c2ccc([C@@H](C)C(=O)NCCCNC(=O)c3ccc(-c4c5nc(c(-c6ccc(S(=O)(=O)[O-])cc6)c6ccc([nH]6)c(-c6ccc(S(=O)(=O)[O-])cc6)c6nc(c(-c7ccc(S(=O)(=O)[O-])cc7)c7ccc4[nH]7)C=C6)C=C5)cc3)cc2F)c1
REMARK SMILES IDX 19 1 20 2 18 3 15 4 16 5 91 6 17 7 90 8 92 9 14 10 10 11
REMARK SMILES IDX 11 12 93 13 12 14 13 15 9 16 7 17 6 18 8 20 5 21 4 22 3 23
REMARK SMILES IDX 2 24 1 25 21 26 22 27 23 28 24 30 25 31 26 32 27 33 28 34
REMARK SMILES IDX 29 36 30 37 31 38 89 39 32 40 88 41 33 42 34 43 35 44 82 45
REMARK SMILES IDX 36 46 87 47 81 48 83 49 37 50 86 51 80 52 79 53 38 55 68 56
REMARK SMILES IDX 49 57 67 58 50 59 53 60 66 61 84 62 51 63 52 64 65 66 85 67
REMARK SMILES IDX 54 68 39 69 40 70 48 71 41 72 47 73 42 74 43 75 44 76 45 77
REMARK SMILES IDX 46 78 69 79 70 80 78 81 71 82 77 83 72 84 73 85 74 86 75 87
REMARK SMILES IDX 76 88 55 89 56 90 64 91 57 92 63 93 58 94 59 95 60 96 61 97
REMARK SMILES IDX 62 98
REMARK H PARENT 6 19 23 29 27 35 83 54 53 65
REMARK Flexibility Score: inf
ROOT
ATOM      1  C   UNL A   1      39.726  22.889  26.414  1.00  0.00     0.105 C 
ATOM      2  C   UNL A   1      39.830  23.667  27.725  1.00  0.00     0.023 C 
ENDROOT
BRANCH   1   3
ATOM      3  C   UNL A   1      38.320  22.729  25.859  1.00  0.00    -0.033 A 
ATOM      4  C   UNL A   1      35.683  22.612  24.744  1.00  0.00     0.018 A 
ATOM      5  C   UNL A   1      36.728  21.809  24.263  1.00  0.00     0.012 A 
ATOM      6  C   UNL A   1      35.990  23.443  25.833  1.00  0.00     0.131 A 
ATOM      7  C   UNL A   1      38.006  21.837  24.833  1.00  0.00     0.005 A 
ATOM      8  C   UNL A   1      37.280  23.521  26.366  1.00  0.00     0.044 A 
ATOM      9  F   UNL A   1      35.041  24.198  26.409  1.00  0.00    -0.206 F 
BRANCH   4  10
ATOM     10  C   UNL A   1      34.348  22.576  24.103  1.00  0.00    -0.012 A 
ATOM     11  C   UNL A   1      32.522  23.674  22.928  1.00  0.00     0.133 A 
ATOM     12  C   UNL A   1      31.812  22.483  22.839  1.00  0.00     0.047 A 
ATOM     13  C   UNL A   1      33.770  23.731  23.552  1.00  0.00     0.056 A 
ATOM     14  C   UNL A   1      32.365  21.325  23.370  1.00  0.00     0.004 A 
ATOM     15  C   UNL A   1      33.612  21.375  24.002  1.00  0.00     0.009 A 
BRANCH  11  16
ATOM     16  O   UNL A   1      31.860  24.834  22.494  1.00  0.00    -0.410 OA
BRANCH  16  17
ATOM     17  C   UNL A   1      32.338  25.536  21.398  1.00  0.00     0.412 C 
ATOM     18  N   UNL A   1      31.849  26.812  21.338  1.00  0.00    -0.321 N 
ATOM     19  H   UNL A   1      32.116  27.355  20.561  1.00  0.00     0.167 HD
ATOM     20  O   UNL A   1      33.116  25.117  20.550  1.00  0.00    -0.224 OA
BRANCH  18  21
ATOM     21  C   UNL A   1      30.976  27.441  22.307  1.00  0.00     0.119 C 
BRANCH  21  22
ATOM     22  C   UNL A   1      31.710  28.504  23.125  1.00  0.00     0.021 C 
BRANCH  22  23
ATOM     23  C   UNL A   1      33.229  28.311  23.215  1.00  0.00     0.002 C 
BRANCH  23  24
ATOM     24  C   UNL A   1      33.778  28.069  24.623  1.00  0.00    -0.003 C 
ATOM     25  C   UNL A   1      33.241  26.804  25.274  1.00  0.00     0.004 C 
ENDBRANCH  23  24
ENDBRANCH  22  23
ENDBRANCH  21  22
ENDBRANCH  18  21
ENDBRANCH  16  17
ENDBRANCH  11  16
ENDBRANCH   4  10
ENDBRANCH   1   3
BRANCH   1  26
ATOM     26  C   UNL A   1      40.559  21.597  26.378  1.00  0.00     0.227 C 
ATOM     27  O   UNL A   1      40.032  20.521  26.687  1.00  0.00    -0.274 OA
ATOM     28  N   UNL A   1      41.864  21.536  26.001  1.00  0.00    -0.356 N 
ATOM     29  H   UNL A   1      42.235  20.624  25.996  1.00  0.00     0.163 HD
BRANCH  28  30
ATOM     30  C   UNL A   1      42.814  22.557  25.603  1.00  0.00     0.117 C 
BRANCH  30  31
ATOM     31  C   UNL A   1      43.807  22.899  26.714  1.00  0.00     0.042 C 
BRANCH  31  32
ATOM     32  C   UNL A   1      44.451  24.275  26.567  1.00  0.00     0.118 C 
BRANCH  32  33
ATOM     33  N   UNL A   1      43.772  25.098  25.573  1.00  0.00    -0.352 N 
ATOM     34  C   UNL A   1      42.883  26.136  25.725  1.00  0.00     0.251 C 
ATOM     35  H   UNL A   1      43.985  24.875  24.638  1.00  0.00     0.163 HD
ATOM     36  O   UNL A   1      42.260  26.535  24.743  1.00  0.00    -0.269 OA
BRANCH  34  37
ATOM     37  C   UNL A   1      42.657  26.764  27.046  1.00  0.00     0.039 A 
ATOM     38  C   UNL A   1      43.179  28.040  27.286  1.00  0.00     0.014 A 
ATOM     39  C   UNL A   1      41.969  26.097  28.062  1.00  0.00     0.014 A 
ATOM     40  C   UNL A   1      42.936  28.677  28.506  1.00  0.00     0.010 A 
ATOM     41  C   UNL A   1      41.668  26.759  29.252  1.00  0.00     0.010 A 
ATOM     42  C   UNL A   1      42.135  28.061  29.481  1.00  0.00    -0.014 A 
BRANCH  42  43
ATOM     43  C   UNL A   1      41.727  28.779  30.718  1.00  0.00     0.031 A 
ATOM     44  C   UNL A   1      40.524  29.684  30.718  1.00  0.00     0.074 A 
ATOM     45  C   UNL A   1      42.502  28.686  31.817  1.00  0.00     0.049 A 
ATOM     46  N   UNL A   1      40.086  30.470  31.668  1.00  0.00    -0.248 NA
ATOM     47  C   UNL A   1      39.716  29.726  29.487  1.00  0.00     0.031 C 
ATOM     48  C   UNL A   1      43.718  27.874  31.930  1.00  0.00     0.029 A 
ATOM     49  N   UNL A   1      42.401  29.296  33.043  1.00  0.00    -0.354 N 
ATOM     50  C   UNL A   1      38.973  31.118  31.145  1.00  0.00     0.074 A 
ATOM     51  C   UNL A   1      38.813  30.652  29.785  1.00  0.00     0.031 C 
ATOM     52  C   UNL A   1      44.241  28.031  33.156  1.00  0.00     0.029 A 
ATOM     53  C   UNL A   1      43.434  28.991  33.900  1.00  0.00     0.049 A 
ATOM     54  H   UNL A   1      41.658  29.896  33.287  1.00  0.00     0.167 HD
ATOM     55  C   UNL A   1      38.157  32.014  31.748  1.00  0.00     0.031 A 
ATOM     56  C   UNL A   1      43.722  29.455  35.132  1.00  0.00     0.031 A 
ATOM     57  C   UNL A   1      38.310  32.461  33.108  1.00  0.00     0.049 A 
ATOM     58  C   UNL A   1      42.811  30.474  35.762  1.00  0.00     0.074 A 
ATOM     59  C   UNL A   1      37.481  33.301  33.832  1.00  0.00     0.029 A 
ATOM     60  N   UNL A   1      39.362  32.121  33.943  1.00  0.00    -0.354 N 
ATOM     61  N   UNL A   1      41.706  30.996  35.287  1.00  0.00    -0.248 NA
ATOM     62  C   UNL A   1      43.186  30.966  37.096  1.00  0.00     0.031 C 
ATOM     63  C   UNL A   1      38.066  33.521  35.082  1.00  0.00     0.029 A 
ATOM     64  C   UNL A   1      39.227  32.770  35.159  1.00  0.00     0.049 A 
ATOM     65  H   UNL A   1      40.096  31.509  33.707  1.00  0.00     0.167 HD
ATOM     66  C   UNL A   1      41.246  31.865  36.270  1.00  0.00     0.074 A 
ATOM     67  C   UNL A   1      42.174  31.777  37.377  1.00  0.00     0.031 C 
ATOM     68  C   UNL A   1      40.156  32.670  36.255  1.00  0.00     0.031 A 
BRANCH  55  69
ATOM     69  C   UNL A   1      37.016  32.592  30.951  1.00  0.00    -0.014 A 
ATOM     70  C   UNL A   1      37.227  33.630  30.028  1.00  0.00     0.010 A 
ATOM     71  C   UNL A   1      35.739  32.008  31.047  1.00  0.00     0.010 A 
ATOM     72  C   UNL A   1      36.179  34.080  29.220  1.00  0.00     0.020 A 
ATOM     73  C   UNL A   1      34.695  32.439  30.224  1.00  0.00     0.020 A 
ATOM     74  C   UNL A   1      34.920  33.477  29.319  1.00  0.00     0.054 A 
BRANCH  74  75
ATOM     75  S   UNL A   1      33.602  34.031  28.202  1.00  0.00     0.124 S 
ATOM     76  O   UNL A   1      33.130  32.767  27.643  1.00  0.00    -0.237 OA
ATOM     77  O   UNL A   1      32.676  34.702  29.110  1.00  0.00    -0.237 OA
ATOM     78  O   UNL A   1      34.291  34.909  27.259  1.00  0.00    -0.744 OA
ENDBRANCH  74  75
ENDBRANCH  55  69
BRANCH  56  79
ATOM     79  C   UNL A   1      44.947  28.995  35.844  1.00  0.00    -0.014 A 
ATOM     80  C   UNL A   1      44.902  27.888  36.710  1.00  0.00     0.010 A 
ATOM     81  C   UNL A   1      46.160  29.689  35.683  1.00  0.00     0.010 A 
ATOM     82  C   UNL A   1      46.038  27.506  37.432  1.00  0.00     0.020 A 
ATOM     83  C   UNL A   1      47.304  29.290  36.378  1.00  0.00     0.020 A 
ATOM     84  C   UNL A   1      47.231  28.213  37.264  1.00  0.00     0.054 A 
BRANCH  84  85
ATOM     85  S   UNL A   1      48.701  27.700  38.193  1.00  0.00     0.124 S 
ATOM     86  O   UNL A   1      49.127  26.515  37.454  1.00  0.00    -0.237 OA
ATOM     87  O   UNL A   1      49.572  28.867  38.079  1.00  0.00    -0.237 OA
ATOM     88  O   UNL A   1      48.181  27.450  39.536  1.00  0.00    -0.744 OA
ENDBRANCH  84  85
ENDBRANCH  56  79
BRANCH  68  89
ATOM     89  C   UNL A   1      39.891  33.505  37.478  1.00  0.00    -0.014 A 
ATOM     90  C   UNL A   1      40.333  34.837  37.554  1.00  0.00     0.010 A 
ATOM     91  C   UNL A   1      39.134  32.971  38.537  1.00  0.00     0.010 A 
ATOM     92  C   UNL A   1      40.042  35.614  38.678  1.00  0.00     0.020 A 
ATOM     93  C   UNL A   1      38.814  33.754  39.648  1.00  0.00     0.020 A 
ATOM     94  C   UNL A   1      39.281  35.069  39.716  1.00  0.00     0.054 A 
BRANCH  94  95
ATOM     95  S   UNL A   1      38.865  36.119  41.136  1.00  0.00     0.124 S 
ATOM     96  O   UNL A   1      37.743  35.398  41.729  1.00  0.00    -0.237 OA
ATOM     97  O   UNL A   1      40.101  36.109  41.914  1.00  0.00    -0.237 OA
ATOM     98  O   UNL A   1      38.528  37.405  40.530  1.00  0.00    -0.744 OA
ENDBRANCH  94  95
ENDBRANCH  68  89
ENDBRANCH  42  43
ENDBRANCH  34  37
ENDBRANCH  32  33
ENDBRANCH  31  32
ENDBRANCH  30  31
ENDBRANCH  28  30
ENDBRANCH   1  26
TORSDOF 21
ENDMDL
MODEL 2
REMARK VINA RESULT:     -10.4      5.585     11.772
REMARK SMILES CCCCCNC(=O)Oc1cccc(-c2ccc([C@@H](C)C(=O)NCCCNC(=O)c3ccc(-c4c5nc(c(-c6ccc(S(=O)(=O)[O-])cc6)c6ccc([nH]6)c(-c6ccc(S(=O)(=O)[O-])cc6)c6nc(c(-c7ccc(S(=O)(=O)[O-])cc7)c7ccc4[nH]7)C=C6)C=C5)cc3)cc2F)c1
REMARK SMILES IDX 19 1 20 2 18 3 15 4 16 5 91 6 17 7 90 8 92 9 14 10 10 11
REMARK SMILES IDX 11 12 93 13 12 14 13 15 9 16 7 17 6 18 8 20 5 21 4 22 3 23
REMARK SMILES IDX 2 24 1 25 21 26 22 27 23 28 24 30 25 31 26 32 27 33 28 34
REMARK SMILES IDX 29 36 30 37 31 38 89 39 32 40 88 41 33 42 34 43 35 44 82 45
REMARK SMILES IDX 36 46 87 47 81 48 83 49 37 50 86 51 80 52 79 53 38 55 68 56
REMARK SMILES IDX 49 57 67 58 50 59 53 60 66 61 84 62 51 63 52 64 65 66 85 67
REMARK SMILES IDX 54 68 39 69 40 70 48 71 41 72 47 73 42 74 43 75 44 76 45 77
REMARK SMILES IDX 46 78 69 79 70 80 78 81 71 82 77 83 72 84 73 85 74 86 75 87
REMARK SMILES IDX 76 88 55 89 56 90 64 91 57 92 63 93 58 94 59 95 60 96 61 97
REMARK SMILES IDX 62 98
REMARK H PARENT 6 19 23 29 27 35 83 54 53 65
REMARK Flexibility Score: inf
ROOT
ATOM      1  C   UNL A   1      35.014  32.162  28.431  1.00  0.00     0.105 C 
ATOM      2  C   UNL A   1      36.397  32.502  27.877  1.00  0.00     0.023 C 
ENDROOT
BRANCH   1   3
ATOM      3  C   UNL A   1      34.260  31.076  27.682  1.00  0.00    -0.033 A 
ATOM      4  C   UNL A   1      32.845  28.920  26.431  1.00  0.00     0.018 A 
ATOM      5  C   UNL A   1      32.239  30.162  26.675  1.00  0.00     0.012 A 
ATOM      6  C   UNL A   1      34.198  28.809  26.790  1.00  0.00     0.131 A 
ATOM      7  C   UNL A   1      32.941  31.228  27.251  1.00  0.00     0.005 A 
ATOM      8  C   UNL A   1      34.886  29.850  27.422  1.00  0.00     0.044 A 
ATOM      9  F   UNL A   1      34.886  27.685  26.534  1.00  0.00    -0.206 F 
BRANCH   4  10
ATOM     10  C   UNL A   1      32.069  27.804  25.843  1.00  0.00    -0.012 A 
ATOM     11  C   UNL A   1      31.650  26.218  24.046  1.00  0.00     0.133 A 
ATOM     12  C   UNL A   1      30.602  25.637  24.751  1.00  0.00     0.047 A 
ATOM     13  C   UNL A   1      32.375  27.288  24.574  1.00  0.00     0.056 A 
ATOM     14  C   UNL A   1      30.283  26.125  26.012  1.00  0.00     0.004 A 
ATOM     15  C   UNL A   1      31.002  27.201  26.545  1.00  0.00     0.009 A 
BRANCH  11  16
ATOM     16  O   UNL A   1      31.843  25.775  22.728  1.00  0.00    -0.410 OA
BRANCH  16  17
ATOM     17  C   UNL A   1      33.122  25.511  22.264  1.00  0.00     0.412 C 
ATOM     18  N   UNL A   1      33.483  24.203  22.432  1.00  0.00    -0.321 N 
ATOM     19  H   UNL A   1      34.397  23.954  22.161  1.00  0.00     0.167 HD
ATOM     20  O   UNL A   1      33.887  26.316  21.747  1.00  0.00    -0.224 OA
BRANCH  18  21
ATOM     21  C   UNL A   1      32.650  23.147  22.972  1.00  0.00     0.119 C 
BRANCH  21  22
ATOM     22  C   UNL A   1      33.006  22.833  24.425  1.00  0.00     0.021 C 
BRANCH  22  23
ATOM     23  C   UNL A   1      34.488  23.014  24.779  1.00  0.00     0.002 C 
BRANCH  23  24
ATOM     24  C   UNL A   1      34.793  23.165  26.271  1.00  0.00    -0.003 C 
ATOM     25  C   UNL A   1      34.239  22.033  27.122  1.00  0.00     0.004 C 
ENDBRANCH  23  24
ENDBRANCH  22  23
ENDBRANCH  21  22
ENDBRANCH  18  21
ENDBRANCH  16  17
ENDBRANCH  11  16
ENDBRANCH   4  10
ENDBRANCH   1   3
BRANCH   1  26
ATOM     26  C   UNL A   1      34.154  33.387  28.783  1.00  0.00     0.227 C 
ATOM     27  O   UNL A   1      33.540  33.981  27.887  1.00  0.00    -0.274 OA
ATOM     28  N   UNL A   1      33.991  33.874  30.042  1.00  0.00    -0.356 N 
ATOM     29  H   UNL A   1      33.376  34.640  30.096  1.00  0.00     0.163 HD
BRANCH  28  30
ATOM     30  C   UNL A   1      34.551  33.480  31.321  1.00  0.00     0.117 C 
BRANCH  30  31
ATOM     31  C   UNL A   1      35.969  34.010  31.530  1.00  0.00     0.042 C 
BRANCH  31  32
ATOM     32  C   UNL A   1      37.053  32.943  31.409  1.00  0.00     0.118 C 
BRANCH  32  33
ATOM     33  N   UNL A   1      36.551  31.609  31.719  1.00  0.00    -0.352 N 
ATOM     34  C   UNL A   1      37.011  30.369  31.345  1.00  0.00     0.251 C 
ATOM     35  H   UNL A   1      35.750  31.594  32.291  1.00  0.00     0.163 HD
ATOM     36  O   UNL A   1      36.297  29.387  31.533  1.00  0.00    -0.269 OA
BRANCH  34  37
ATOM     37  C   UNL A   1      38.338  30.204  30.709  1.00  0.00     0.039 A 
ATOM     38  C   UNL A   1      39.456  29.995  31.524  1.00  0.00     0.014 A 
ATOM     39  C   UNL A   1      38.499  30.290  29.325  1.00  0.00     0.014 A 
ATOM     40  C   UNL A   1      40.712  29.785  30.948  1.00  0.00     0.010 A 
ATOM     41  C   UNL A   1      39.738  30.012  28.747  1.00  0.00     0.010 A 
ATOM     42  C   UNL A   1      40.855  29.742  29.552  1.00  0.00    -0.014 A 
BRANCH  42  43
ATOM     43  C   UNL A   1      42.142  29.360  28.913  1.00  0.00     0.031 A 
ATOM     44  C   UNL A   1      42.355  27.965  28.389  1.00  0.00     0.074 A 
ATOM     45  C   UNL A   1      43.154  30.251  28.894  1.00  0.00     0.049 A 
ATOM     46  N   UNL A   1      43.444  27.426  27.904  1.00  0.00    -0.248 NA
ATOM     47  C   UNL A   1      41.202  27.050  28.429  1.00  0.00     0.031 C 
ATOM     48  C   UNL A   1      43.086  31.622  29.408  1.00  0.00     0.029 A 
ATOM     49  N   UNL A   1      44.447  30.133  28.447  1.00  0.00    -0.354 N 
ATOM     50  C   UNL A   1      43.118  26.108  27.606  1.00  0.00     0.074 A 
ATOM     51  C   UNL A   1      41.736  25.919  27.986  1.00  0.00     0.031 C 
ATOM     52  C   UNL A   1      44.278  32.217  29.241  1.00  0.00     0.029 A 
ATOM     53  C   UNL A   1      45.210  31.260  28.656  1.00  0.00     0.049 A 
ATOM     54  H   UNL A   1      44.796  29.319  28.015  1.00  0.00     0.167 HD
ATOM     55  C   UNL A   1      43.900  25.148  27.061  1.00  0.00     0.031 A 
ATOM     56  C   UNL A   1      46.520  31.489  28.436  1.00  0.00     0.031 A 
ATOM     57  C   UNL A   1      45.270  25.347  26.667  1.00  0.00     0.049 A 
ATOM     58  C   UNL A   1      47.369  30.390  27.857  1.00  0.00     0.074 A 
ATOM     59  C   UNL A   1      46.116  24.457  26.026  1.00  0.00     0.029 A 
ATOM     60  N   UNL A   1      46.001  26.503  26.887  1.00  0.00    -0.354 N 
ATOM     61  N   UNL A   1      47.013  29.183  27.489  1.00  0.00    -0.248 NA
ATOM     62  C   UNL A   1      48.796  30.685  27.662  1.00  0.00     0.031 C 
ATOM     63  C   UNL A   1      47.376  25.051  25.918  1.00  0.00     0.029 A 
ATOM     64  C   UNL A   1      47.300  26.334  26.436  1.00  0.00     0.049 A 
ATOM     65  H   UNL A   1      45.650  27.323  27.303  1.00  0.00     0.167 HD
ATOM     66  C   UNL A   1      48.170  28.581  27.004  1.00  0.00     0.074 A 
ATOM     67  C   UNL A   1      49.227  29.565  27.098  1.00  0.00     0.031 C 
ATOM     68  C   UNL A   1      48.342  27.323  26.531  1.00  0.00     0.031 A 
BRANCH  55  69
ATOM     69  C   UNL A   1      43.311  23.777  26.853  1.00  0.00    -0.014 A 
ATOM     70  C   UNL A   1      43.353  23.150  25.596  1.00  0.00     0.010 A 
ATOM     71  C   UNL A   1      42.811  23.063  27.959  1.00  0.00     0.010 A 
ATOM     72  C   UNL A   1      42.899  21.836  25.447  1.00  0.00     0.020 A 
ATOM     73  C   UNL A   1      42.379  21.742  27.818  1.00  0.00     0.020 A 
ATOM     74  C   UNL A   1      42.420  21.138  26.561  1.00  0.00     0.054 A 
BRANCH  74  75
ATOM     75  S   UNL A   1      41.912  19.409  26.349  1.00  0.00     0.124 S 
ATOM     76  O   UNL A   1      42.574  19.051  25.098  1.00  0.00    -0.237 OA
ATOM     77  O   UNL A   1      42.448  18.770  27.548  1.00  0.00    -0.237 OA
ATOM     78  O   UNL A   1      40.454  19.481  26.283  1.00  0.00    -0.744 OA
ENDBRANCH  74  75
ENDBRANCH  55  69
BRANCH  56  79
ATOM     79  C   UNL A   1      47.126  32.800  28.799  1.00  0.00    -0.014 A 
ATOM     80  C   UNL A   1      47.541  33.061  30.117  1.00  0.00     0.010 A 
ATOM     81  C   UNL A   1      47.260  33.810  27.828  1.00  0.00     0.010 A 
ATOM     82  C   UNL A   1      48.042  34.318  30.468  1.00  0.00     0.020 A 
ATOM     83  C   UNL A   1      47.790  35.057  28.168  1.00  0.00     0.020 A 
ATOM     84  C   UNL A   1      48.159  35.310  29.491  1.00  0.00     0.054 A 
BRANCH  84  85
ATOM     85  S   UNL A   1      48.825  36.933  29.953  1.00  0.00     0.124 S 
ATOM     86  O   UNL A   1      48.812  37.639  28.676  1.00  0.00    -0.237 OA
ATOM     87  O   UNL A   1      47.861  37.398  30.947  1.00  0.00    -0.237 OA
ATOM     88  O   UNL A   1      50.149  36.615  30.483  1.00  0.00    -0.744 OA
ENDBRANCH  84  85
ENDBRANCH  56  79
BRANCH  68  89
ATOM     89  C   UNL A   1      49.718  26.941  26.056  1.00  0.00    -0.014 A 
ATOM     90  C   UNL A   1      50.030  26.920  24.685  1.00  0.00     0.010 A 
ATOM     91  C   UNL A   1      50.728  26.665  26.995  1.00  0.00     0.010 A 
ATOM     92  C   UNL A   1      51.324  26.606  24.261  1.00  0.00     0.020 A 
ATOM     93  C   UNL A   1      52.030  26.382  26.576  1.00  0.00     0.020 A 
ATOM     94  C   UNL A   1      52.317  26.343  25.209  1.00  0.00     0.054 A 
BRANCH  94  95
ATOM     95  S   UNL A   1      54.002  25.999  24.633  1.00  0.00     0.124 S 
ATOM     96  O   UNL A   1      53.960  26.493  23.259  1.00  0.00    -0.237 OA
ATOM     97  O   UNL A   1      54.821  26.779  25.556  1.00  0.00    -0.237 OA
ATOM     98  O   UNL A   1      54.126  24.550  24.770  1.00  0.00    -0.744 OA
ENDBRANCH  94  95
ENDBRANCH  68  89
ENDBRANCH  42  43
ENDBRANCH  34  37
ENDBRANCH  32  33
ENDBRANCH  31  32
ENDBRANCH  30  31
ENDBRANCH  28  30
ENDBRANCH   1  26
TORSDOF 21
ENDMDL
MODEL 3
REMARK VINA RESULT:     -10.1      5.385     10.391
REMARK SMILES CCCCCNC(=O)Oc1cccc(-c2ccc([C@@H](C)C(=O)NCCCNC(=O)c3ccc(-c4c5nc(c(-c6ccc(S(=O)(=O)[O-])cc6)c6ccc([nH]6)c(-c6ccc(S(=O)(=O)[O-])cc6)c6nc(c(-c7ccc(S(=O)(=O)[O-])cc7)c7ccc4[nH]7)C=C6)C=C5)cc3)cc2F)c1
REMARK SMILES IDX 19 1 20 2 18 3 15 4 16 5 91 6 17 7 90 8 92 9 14 10 10 11
REMARK SMILES IDX 11 12 93 13 12 14 13 15 9 16 7 17 6 18 8 20 5 21 4 22 3 23
REMARK SMILES IDX 2 24 1 25 21 26 22 27 23 28 24 30 25 31 26 32 27 33 28 34
REMARK SMILES IDX 29 36 30 37 31 38 89 39 32 40 88 41 33 42 34 43 35 44 82 45
REMARK SMILES IDX 36 46 87 47 81 48 83 49 37 50 86 51 80 52 79 53 38 55 68 56
REMARK SMILES IDX 49 57 67 58 50 59 53 60 66 61 84 62 51 63 52 64 65 66 85 67
REMARK SMILES IDX 54 68 39 69 40 70 48 71 41 72 47 73 42 74 43 75 44 76 45 77
REMARK SMILES IDX 46 78 69 79 70 80 78 81 71 82 77 83 72 84 73 85 74 86 75 87
REMARK SMILES IDX 76 88 55 89 56 90 64 91 57 92 63 93 58 94 59 95 60 96 61 97
REMARK SMILES IDX 62 98
REMARK H PARENT 6 19 23 29 27 35 83 54 53 65
REMARK Flexibility Score: inf
ROOT
ATOM      1  C   UNL A   1      36.089  22.842  25.117  1.00  0.00     0.105 C 
ATOM      2  C   UNL A   1      37.253  23.552  25.807  1.00  0.00     0.023 C 
ENDROOT
BRANCH   1   3
ATOM      3  C   UNL A   1      34.868  23.704  24.845  1.00  0.00    -0.033 A 
ATOM      4  C   UNL A   1      32.453  25.172  24.364  1.00  0.00     0.018 A 
ATOM      5  C   UNL A   1      33.285  25.450  25.460  1.00  0.00     0.012 A 
ATOM      6  C   UNL A   1      32.894  24.165  23.491  1.00  0.00     0.131 A 
ATOM      7  C   UNL A   1      34.484  24.760  25.674  1.00  0.00     0.005 A 
ATOM      8  C   UNL A   1      34.059  23.431  23.733  1.00  0.00     0.044 A 
ATOM      9  F   UNL A   1      32.204  23.873  22.377  1.00  0.00    -0.206 F 
BRANCH   4  10
ATOM     10  C   UNL A   1      31.178  25.904  24.180  1.00  0.00    -0.012 A 
ATOM     11  C   UNL A   1      29.945  27.895  23.524  1.00  0.00     0.133 A 
ATOM     12  C   UNL A   1      28.729  27.276  23.788  1.00  0.00     0.047 A 
ATOM     13  C   UNL A   1      31.156  27.229  23.718  1.00  0.00     0.056 A 
ATOM     14  C   UNL A   1      28.723  25.962  24.239  1.00  0.00     0.004 A 
ATOM     15  C   UNL A   1      29.934  25.290  24.441  1.00  0.00     0.009 A 
BRANCH  11  16
ATOM     16  O   UNL A   1      29.896  29.260  23.198  1.00  0.00    -0.410 OA
BRANCH  16  17
ATOM     17  C   UNL A   1      30.638  29.745  22.132  1.00  0.00     0.412 C 
ATOM     18  N   UNL A   1      29.855  30.302  21.158  1.00  0.00    -0.321 N 
ATOM     19  H   UNL A   1      30.315  30.631  20.351  1.00  0.00     0.167 HD
ATOM     20  O   UNL A   1      31.858  29.714  22.022  1.00  0.00    -0.224 OA
BRANCH  18  21
ATOM     21  C   UNL A   1      28.416  30.454  21.199  1.00  0.00     0.119 C 
BRANCH  21  22
ATOM     22  C   UNL A   1      27.962  31.741  20.510  1.00  0.00     0.021 C 
BRANCH  22  23
ATOM     23  C   UNL A   1      28.011  32.995  21.393  1.00  0.00     0.002 C 
BRANCH  23  24
ATOM     24  C   UNL A   1      28.378  32.752  22.859  1.00  0.00    -0.003 C 
ATOM     25  C   UNL A   1      29.379  33.757  23.408  1.00  0.00     0.004 C 
ENDBRANCH  23  24
ENDBRANCH  22  23
ENDBRANCH  21  22
ENDBRANCH  18  21
ENDBRANCH  16  17
ENDBRANCH  11  16
ENDBRANCH   4  10
ENDBRANCH   1   3
BRANCH   1  26
ATOM     26  C   UNL A   1      35.757  21.459  25.700  1.00  0.00     0.227 C 
ATOM     27  O   UNL A   1      34.797  21.335  26.472  1.00  0.00    -0.274 OA
ATOM     28  N   UNL A   1      36.440  20.320  25.412  1.00  0.00    -0.356 N 
ATOM     29  H   UNL A   1      36.071  19.514  25.839  1.00  0.00     0.163 HD
BRANCH  28  30
ATOM     30  C   UNL A   1      37.610  20.064  24.593  1.00  0.00     0.117 C 
BRANCH  30  31
ATOM     31  C   UNL A   1      38.623  19.153  25.285  1.00  0.00     0.042 C 
BRANCH  31  32
ATOM     32  C   UNL A   1      39.679  19.901  26.094  1.00  0.00     0.118 C 
BRANCH  32  33
ATOM     33  N   UNL A   1      40.947  19.183  26.143  1.00  0.00    -0.352 N 
ATOM     34  C   UNL A   1      42.241  19.649  26.150  1.00  0.00     0.251 C 
ATOM     35  H   UNL A   1      40.865  18.203  26.176  1.00  0.00     0.163 HD
ATOM     36  O   UNL A   1      43.160  18.856  25.961  1.00  0.00    -0.269 OA
BRANCH  34  37
ATOM     37  C   UNL A   1      42.537  21.084  26.363  1.00  0.00     0.039 A 
ATOM     38  C   UNL A   1      42.729  21.546  27.670  1.00  0.00     0.014 A 
ATOM     39  C   UNL A   1      42.592  21.984  25.297  1.00  0.00     0.014 A 
ATOM     40  C   UNL A   1      43.061  22.885  27.897  1.00  0.00     0.010 A 
ATOM     41  C   UNL A   1      42.990  23.302  25.517  1.00  0.00     0.010 A 
ATOM     42  C   UNL A   1      43.244  23.764  26.817  1.00  0.00    -0.014 A 
BRANCH  42  43
ATOM     43  C   UNL A   1      43.754  25.146  27.017  1.00  0.00     0.031 A 
ATOM     44  C   UNL A   1      45.192  25.483  26.728  1.00  0.00     0.074 A 
ATOM     45  C   UNL A   1      42.937  26.075  27.553  1.00  0.00     0.049 A 
ATOM     46  N   UNL A   1      45.834  26.601  26.947  1.00  0.00    -0.248 NA
ATOM     47  C   UNL A   1      46.023  24.423  26.132  1.00  0.00     0.031 C 
ATOM     48  C   UNL A   1      41.532  25.861  27.916  1.00  0.00     0.029 A 
ATOM     49  N   UNL A   1      43.171  27.380  27.910  1.00  0.00    -0.354 N 
ATOM     50  C   UNL A   1      47.145  26.374  26.542  1.00  0.00     0.074 A 
ATOM     51  C   UNL A   1      47.214  25.004  26.085  1.00  0.00     0.031 C 
ATOM     52  C   UNL A   1      41.032  26.994  28.434  1.00  0.00     0.029 A 
ATOM     53  C   UNL A   1      42.087  27.998  28.491  1.00  0.00     0.049 A 
ATOM     54  H   UNL A   1      44.035  27.832  27.763  1.00  0.00     0.167 HD
ATOM     55  C   UNL A   1      48.191  27.234  26.547  1.00  0.00     0.031 A 
ATOM     56  C   UNL A   1      41.962  29.224  29.039  1.00  0.00     0.031 A 
ATOM     57  C   UNL A   1      48.111  28.602  26.986  1.00  0.00     0.049 A 
ATOM     58  C   UNL A   1      43.152  30.144  29.055  1.00  0.00     0.074 A 
ATOM     59  C   UNL A   1      49.098  29.573  26.945  1.00  0.00     0.029 A 
ATOM     60  N   UNL A   1      46.995  29.191  27.557  1.00  0.00    -0.354 N 
ATOM     61  N   UNL A   1      44.355  29.942  28.574  1.00  0.00    -0.248 NA
ATOM     62  C   UNL A   1      42.969  31.458  29.689  1.00  0.00     0.031 C 
ATOM     63  C   UNL A   1      48.599  30.729  27.552  1.00  0.00     0.029 A 
ATOM     64  C   UNL A   1      47.282  30.498  27.915  1.00  0.00     0.049 A 
ATOM     65  H   UNL A   1      46.127  28.746  27.689  1.00  0.00     0.167 HD
ATOM     66  C   UNL A   1      45.065  31.110  28.832  1.00  0.00     0.074 A 
ATOM     67  C   UNL A   1      44.151  32.022  29.485  1.00  0.00     0.031 C 
ATOM     68  C   UNL A   1      46.361  31.398  28.560  1.00  0.00     0.031 A 
BRANCH  55  69
ATOM     69  C   UNL A   1      49.529  26.734  26.070  1.00  0.00    -0.014 A 
ATOM     70  C   UNL A   1      49.981  26.999  24.765  1.00  0.00     0.010 A 
ATOM     71  C   UNL A   1      50.392  26.090  26.977  1.00  0.00     0.010 A 
ATOM     72  C   UNL A   1      51.269  26.622  24.374  1.00  0.00     0.020 A 
ATOM     73  C   UNL A   1      51.689  25.733  26.596  1.00  0.00     0.020 A 
ATOM     74  C   UNL A   1      52.118  25.997  25.295  1.00  0.00     0.054 A 
BRANCH  74  75
ATOM     75  S   UNL A   1      53.809  25.591  24.780  1.00  0.00     0.124 S 
ATOM     76  O   UNL A   1      53.822  26.054  23.395  1.00  0.00    -0.237 OA
ATOM     77  O   UNL A   1      54.621  26.370  25.710  1.00  0.00    -0.237 OA
ATOM     78  O   UNL A   1      53.887  24.142  24.951  1.00  0.00    -0.744 OA
ENDBRANCH  74  75
ENDBRANCH  55  69
BRANCH  56  79
ATOM     79  C   UNL A   1      40.674  29.645  29.656  1.00  0.00    -0.014 A 
ATOM     80  C   UNL A   1      39.714  30.350  28.907  1.00  0.00     0.010 A 
ATOM     81  C   UNL A   1      40.416  29.372  31.012  1.00  0.00     0.010 A 
ATOM     82  C   UNL A   1      38.538  30.807  29.512  1.00  0.00     0.020 A 
ATOM     83  C   UNL A   1      39.229  29.798  31.610  1.00  0.00     0.020 A 
ATOM     84  C   UNL A   1      38.306  30.531  30.862  1.00  0.00     0.054 A 
BRANCH  84  85
ATOM     85  S   UNL A   1      36.771  31.116  31.631  1.00  0.00     0.124 S 
ATOM     86  O   UNL A   1      37.241  32.251  32.419  1.00  0.00    -0.237 OA
ATOM     87  O   UNL A   1      35.942  31.444  30.475  1.00  0.00    -0.237 OA
ATOM     88  O   UNL A   1      36.320  29.959  32.403  1.00  0.00    -0.744 OA
ENDBRANCH  84  85
ENDBRANCH  56  79
BRANCH  68  89
ATOM     89  C   UNL A   1      46.866  32.762  28.945  1.00  0.00    -0.014 A 
ATOM     90  C   UNL A   1      46.737  33.855  28.070  1.00  0.00     0.010 A 
ATOM     91  C   UNL A   1      47.416  32.967  30.224  1.00  0.00     0.010 A 
ATOM     92  C   UNL A   1      47.171  35.125  28.459  1.00  0.00     0.020 A 
ATOM     93  C   UNL A   1      47.821  34.240  30.628  1.00  0.00     0.020 A 
ATOM     94  C   UNL A   1      47.706  35.311  29.737  1.00  0.00     0.054 A 
BRANCH  94  95
ATOM     95  S   UNL A   1      48.205  36.981  30.238  1.00  0.00     0.124 S 
ATOM     96  O   UNL A   1      48.836  37.487  29.023  1.00  0.00    -0.237 OA
ATOM     97  O   UNL A   1      46.931  37.603  30.590  1.00  0.00    -0.237 OA
ATOM     98  O   UNL A   1      49.111  36.751  31.360  1.00  0.00    -0.744 OA
ENDBRANCH  94  95
ENDBRANCH  68  89
ENDBRANCH  42  43
ENDBRANCH  34  37
ENDBRANCH  32  33
ENDBRANCH  31  32
ENDBRANCH  30  31
ENDBRANCH  28  30
ENDBRANCH   1  26
TORSDOF 21
ENDMDL
