MODEL 1
REMARK VINA RESULT:     -10.7      0.000      0.000
REMARK SMILES [NH3+][C@]1(C(=O)NCCCNC(=O)c2ccc(-c3c4nc(c(-c5ccc(S(=O)(=O)[O-])cc5)c5ccc([nH]5)c(-c5ccc(S(=O)(=O)[O-])cc5)c5nc(c(-c6ccc(S(=O)(=O)[O-])cc6)c6ccc3[nH]6)C=C5)C=C4)cc2)CCC[C@@H]1CCOc1ccc(CO)cc1
REMARK SMILES IDX 3 1 4 2 5 3 2 5 72 6 75 7 73 8 74 9 1 10 76 14 77 15 78 16
REMARK SMILES IDX 79 17 80 18 86 19 81 20 85 21 82 22 83 23 84 24 6 26 7 27
REMARK SMILES IDX 8 28 9 29 10 30 11 32 12 33 13 34 71 35 14 36 70 37 15 38
REMARK SMILES IDX 16 39 17 40 64 41 18 42 69 43 63 44 65 45 19 46 68 47 62 48
REMARK SMILES IDX 61 49 20 51 50 52 31 53 49 54 32 55 35 56 48 57 66 58 33 59
REMARK SMILES IDX 34 60 47 62 67 63 36 64 21 65 22 66 30 67 23 68 29 69 24 70
REMARK SMILES IDX 25 71 26 72 27 73 28 74 51 75 52 76 60 77 53 78 59 79 54 80
REMARK SMILES IDX 55 81 56 82 57 83 58 84 37 85 38 86 46 87 39 88 45 89 40 90
REMARK SMILES IDX 41 91 42 92 43 93 44 94
REMARK H PARENT 5 4 1 11 1 12 1 13 84 25 9 31 65 50 35 61
REMARK Flexibility Score: inf
ROOT
ATOM      1  C   UNL A   1      30.254  25.844  25.881  1.00  0.00     0.281 C 
ATOM      2  O   UNL A   1      29.266  25.325  26.431  1.00  0.00    -0.268 OA
ATOM      3  N   UNL A   1      31.343  25.960  26.671  1.00  0.00    -0.351 N 
ATOM      4  H   UNL A   1      31.253  25.454  27.511  1.00  0.00     0.163 HD
ENDROOT
BRANCH   1   5
ATOM      5  C   UNL A   1      30.121  26.288  24.390  1.00  0.00     0.176 C 
ATOM      6  C   UNL A   1      30.461  27.728  23.999  1.00  0.00     0.079 C 
ATOM      7  C   UNL A   1      31.156  25.536  23.498  1.00  0.00     0.064 C 
ATOM      8  C   UNL A   1      30.598  27.708  22.481  1.00  0.00     0.008 C 
ATOM      9  C   UNL A   1      31.171  26.327  22.165  1.00  0.00     0.011 C 
BRANCH   5  10
ATOM     10  N   UNL A   1      28.719  26.009  23.984  1.00  0.00    -0.345 N 
ATOM     11  H   UNL A   1      28.280  26.874  23.667  1.00  0.00     0.345 HD
ATOM     12  H   UNL A   1      28.202  25.638  24.781  1.00  0.00     0.345 HD
ATOM     13  H   UNL A   1      28.713  25.327  23.227  1.00  0.00     0.345 HD
ENDBRANCH   5  10
BRANCH   7  14
ATOM     14  C   UNL A   1      30.962  24.018  23.286  1.00  0.00     0.052 C 
BRANCH  14  15
ATOM     15  C   UNL A   1      32.225  23.171  23.529  1.00  0.00     0.230 C 
BRANCH  15  16
ATOM     16  O   UNL A   1      33.436  23.850  23.195  1.00  0.00    -0.494 OA
BRANCH  16  17
ATOM     17  C   UNL A   1      34.603  23.544  23.830  1.00  0.00     0.119 A 
ATOM     18  C   UNL A   1      34.642  23.886  25.184  1.00  0.00     0.047 A 
ATOM     19  C   UNL A   1      35.722  22.948  23.260  1.00  0.00     0.047 A 
ATOM     20  C   UNL A   1      35.811  23.723  25.931  1.00  0.00     0.010 A 
ATOM     21  C   UNL A   1      36.909  22.828  23.989  1.00  0.00     0.010 A 
ATOM     22  C   UNL A   1      36.979  23.251  25.321  1.00  0.00    -0.022 A 
BRANCH  22  23
ATOM     23  C   UNL A   1      38.282  23.159  26.069  1.00  0.00     0.191 C 
BRANCH  23  24
ATOM     24  O   UNL A   1      39.125  22.134  25.560  1.00  0.00    -0.392 OA
ATOM     25  H   UNL A   1      39.916  22.059  26.116  1.00  0.00     0.211 HD
ENDBRANCH  23  24
ENDBRANCH  22  23
ENDBRANCH  16  17
ENDBRANCH  15  16
ENDBRANCH  14  15
ENDBRANCH   7  14
ENDBRANCH   1   5
BRANCH   3  26
ATOM     26  C   UNL A   1      32.614  26.656  26.577  1.00  0.00     0.118 C 
BRANCH  26  27
ATOM     27  C   UNL A   1      32.527  28.080  27.112  1.00  0.00     0.042 C 
BRANCH  27  28
ATOM     28  C   UNL A   1      33.757  28.930  26.823  1.00  0.00     0.118 C 
BRANCH  28  29
ATOM     29  N   UNL A   1      33.713  30.233  27.477  1.00  0.00    -0.352 N 
ATOM     30  C   UNL A   1      34.613  30.831  28.329  1.00  0.00     0.251 C 
ATOM     31  H   UNL A   1      32.912  30.769  27.277  1.00  0.00     0.163 HD
ATOM     32  O   UNL A   1      34.300  31.843  28.940  1.00  0.00    -0.269 OA
BRANCH  30  33
ATOM     33  C   UNL A   1      35.953  30.234  28.521  1.00  0.00     0.039 A 
ATOM     34  C   UNL A   1      36.867  30.255  27.466  1.00  0.00     0.014 A 
ATOM     35  C   UNL A   1      36.308  29.657  29.743  1.00  0.00     0.014 A 
ATOM     36  C   UNL A   1      38.168  29.788  27.670  1.00  0.00     0.010 A 
ATOM     37  C   UNL A   1      37.626  29.279  29.973  1.00  0.00     0.010 A 
ATOM     38  C   UNL A   1      38.573  29.347  28.941  1.00  0.00    -0.014 A 
BRANCH  38  39
ATOM     39  C   UNL A   1      39.984  28.978  29.221  1.00  0.00     0.031 A 
ATOM     40  C   UNL A   1      40.926  29.988  29.818  1.00  0.00     0.074 A 
ATOM     41  C   UNL A   1      40.436  27.761  28.857  1.00  0.00     0.049 A 
ATOM     42  N   UNL A   1      42.208  29.875  30.058  1.00  0.00    -0.248 NA
ATOM     43  C   UNL A   1      40.364  31.304  30.162  1.00  0.00     0.031 C 
ATOM     44  C   UNL A   1      39.634  26.714  28.216  1.00  0.00     0.029 A 
ATOM     45  N   UNL A   1      41.684  27.200  28.963  1.00  0.00    -0.354 N 
ATOM     46  C   UNL A   1      42.608  31.109  30.558  1.00  0.00     0.074 A 
ATOM     47  C   UNL A   1      41.445  31.970  30.540  1.00  0.00     0.031 C 
ATOM     48  C   UNL A   1      40.400  25.630  28.017  1.00  0.00     0.029 A 
ATOM     49  C   UNL A   1      41.756  25.916  28.475  1.00  0.00     0.049 A 
ATOM     50  H   UNL A   1      42.454  27.672  29.352  1.00  0.00     0.167 HD
ATOM     51  C   UNL A   1      43.827  31.488  31.012  1.00  0.00     0.031 A 
ATOM     52  C   UNL A   1      42.797  25.065  28.396  1.00  0.00     0.031 A 
ATOM     53  C   UNL A   1      44.976  30.622  31.044  1.00  0.00     0.049 A 
ATOM     54  C   UNL A   1      44.138  25.502  28.916  1.00  0.00     0.074 A 
ATOM     55  C   UNL A   1      46.240  30.889  31.541  1.00  0.00     0.029 A 
ATOM     56  N   UNL A   1      45.001  29.322  30.563  1.00  0.00    -0.354 N 
ATOM     57  N   UNL A   1      44.479  26.653  29.447  1.00  0.00    -0.248 NA
ATOM     58  C   UNL A   1      45.232  24.525  28.835  1.00  0.00     0.031 C 
ATOM     59  C   UNL A   1      47.042  29.764  31.319  1.00  0.00     0.029 A 
ATOM     60  C   UNL A   1      46.263  28.778  30.733  1.00  0.00     0.049 A 
ATOM     61  H   UNL A   1      44.234  28.854  30.159  1.00  0.00     0.167 HD
ATOM     62  C   UNL A   1      45.822  26.527  29.787  1.00  0.00     0.074 A 
ATOM     63  C   UNL A   1      46.225  25.186  29.415  1.00  0.00     0.031 C 
ATOM     64  C   UNL A   1      46.646  27.441  30.356  1.00  0.00     0.031 A 
BRANCH  51  65
ATOM     65  C   UNL A   1      43.976  32.901  31.508  1.00  0.00    -0.014 A 
ATOM     66  C   UNL A   1      44.479  33.915  30.671  1.00  0.00     0.010 A 
ATOM     67  C   UNL A   1      43.582  33.230  32.818  1.00  0.00     0.010 A 
ATOM     68  C   UNL A   1      44.629  35.219  31.149  1.00  0.00     0.020 A 
ATOM     69  C   UNL A   1      43.704  34.541  33.291  1.00  0.00     0.020 A 
ATOM     70  C   UNL A   1      44.245  35.522  32.458  1.00  0.00     0.054 A 
BRANCH  70  71
ATOM     71  S   UNL A   1      44.435  37.228  33.046  1.00  0.00     0.124 S 
ATOM     72  O   UNL A   1      43.149  37.468  33.695  1.00  0.00    -0.237 OA
ATOM     73  O   UNL A   1      45.583  37.134  33.944  1.00  0.00    -0.237 OA
ATOM     74  O   UNL A   1      44.667  37.992  31.823  1.00  0.00    -0.744 OA
ENDBRANCH  70  71
ENDBRANCH  51  65
BRANCH  52  75
ATOM     75  C   UNL A   1      42.604  23.705  27.824  1.00  0.00    -0.014 A 
ATOM     76  C   UNL A   1      42.884  23.456  26.470  1.00  0.00     0.010 A 
ATOM     77  C   UNL A   1      42.156  22.645  28.635  1.00  0.00     0.010 A 
ATOM     78  C   UNL A   1      42.705  22.179  25.931  1.00  0.00     0.020 A 
ATOM     79  C   UNL A   1      42.001  21.360  28.106  1.00  0.00     0.020 A 
ATOM     80  C   UNL A   1      42.266  21.139  26.753  1.00  0.00     0.054 A 
BRANCH  80  81
ATOM     81  S   UNL A   1      42.093  19.476  26.044  1.00  0.00     0.124 S 
ATOM     82  O   UNL A   1      42.966  19.551  24.878  1.00  0.00    -0.237 OA
ATOM     83  O   UNL A   1      42.558  18.618  27.131  1.00  0.00    -0.237 OA
ATOM     84  O   UNL A   1      40.664  19.377  25.752  1.00  0.00    -0.744 OA
ENDBRANCH  80  81
ENDBRANCH  52  75
BRANCH  64  85
ATOM     85  C   UNL A   1      48.060  27.013  30.640  1.00  0.00    -0.014 A 
ATOM     86  C   UNL A   1      49.094  27.262  29.721  1.00  0.00     0.010 A 
ATOM     87  C   UNL A   1      48.365  26.401  31.869  1.00  0.00     0.010 A 
ATOM     88  C   UNL A   1      50.405  26.878  30.014  1.00  0.00     0.020 A 
ATOM     89  C   UNL A   1      49.678  26.040  32.178  1.00  0.00     0.020 A 
ATOM     90  C   UNL A   1      50.688  26.270  31.241  1.00  0.00     0.054 A 
BRANCH  90  91
ATOM     91  S   UNL A   1      52.406  25.823  31.618  1.00  0.00     0.124 S 
ATOM     92  O   UNL A   1      52.754  26.800  32.647  1.00  0.00    -0.237 OA
ATOM     93  O   UNL A   1      52.286  24.442  32.076  1.00  0.00    -0.237 OA
ATOM     94  O   UNL A   1      53.096  25.991  30.341  1.00  0.00    -0.744 OA
ENDBRANCH  90  91
ENDBRANCH  64  85
ENDBRANCH  38  39
ENDBRANCH  30  33
ENDBRANCH  28  29
ENDBRANCH  27  28
ENDBRANCH  26  27
ENDBRANCH   3  26
TORSDOF 20
ENDMDL
MODEL 2
REMARK VINA RESULT:     -10.5      2.911      8.988
REMARK SMILES [NH3+][C@]1(C(=O)NCCCNC(=O)c2ccc(-c3c4nc(c(-c5ccc(S(=O)(=O)[O-])cc5)c5ccc([nH]5)c(-c5ccc(S(=O)(=O)[O-])cc5)c5nc(c(-c6ccc(S(=O)(=O)[O-])cc6)c6ccc3[nH]6)C=C5)C=C4)cc2)CCC[C@@H]1CCOc1ccc(CO)cc1
REMARK SMILES IDX 3 1 4 2 5 3 2 5 72 6 75 7 73 8 74 9 1 10 76 14 77 15 78 16
REMARK SMILES IDX 79 17 80 18 86 19 81 20 85 21 82 22 83 23 84 24 6 26 7 27
REMARK SMILES IDX 8 28 9 29 10 30 11 32 12 33 13 34 71 35 14 36 70 37 15 38
REMARK SMILES IDX 16 39 17 40 64 41 18 42 69 43 63 44 65 45 19 46 68 47 62 48
REMARK SMILES IDX 61 49 20 51 50 52 31 53 49 54 32 55 35 56 48 57 66 58 33 59
REMARK SMILES IDX 34 60 47 62 67 63 36 64 21 65 22 66 30 67 23 68 29 69 24 70
REMARK SMILES IDX 25 71 26 72 27 73 28 74 51 75 52 76 60 77 53 78 59 79 54 80
REMARK SMILES IDX 55 81 56 82 57 83 58 84 37 85 38 86 46 87 39 88 45 89 40 90
REMARK SMILES IDX 41 91 42 92 43 93 44 94
REMARK H PARENT 5 4 1 11 1 12 1 13 84 25 9 31 65 50 35 61
REMARK Flexibility Score: inf
ROOT
ATOM      1  C   UNL A   1      31.951  24.053  26.750  1.00  0.00     0.281 C 
ATOM      2  O   UNL A   1      31.321  23.391  27.594  1.00  0.00    -0.268 OA
ATOM      3  N   UNL A   1      33.251  23.709  26.619  1.00  0.00    -0.351 N 
ATOM      4  H   UNL A   1      33.464  22.865  27.080  1.00  0.00     0.163 HD
ENDROOT
BRANCH   1   5
ATOM      5  C   UNL A   1      31.190  25.171  25.970  1.00  0.00     0.176 C 
ATOM      6  C   UNL A   1      31.649  26.625  26.097  1.00  0.00     0.079 C 
ATOM      7  C   UNL A   1      31.367  24.986  24.432  1.00  0.00     0.064 C 
ATOM      8  C   UNL A   1      30.969  27.361  24.948  1.00  0.00     0.008 C 
ATOM      9  C   UNL A   1      30.901  26.332  23.820  1.00  0.00     0.011 C 
BRANCH   5  10
ATOM     10  N   UNL A   1      29.766  25.090  26.388  1.00  0.00    -0.345 N 
ATOM     11  H   UNL A   1      29.716  24.957  27.398  1.00  0.00     0.345 HD
ATOM     12  H   UNL A   1      29.319  24.303  25.919  1.00  0.00     0.345 HD
ATOM     13  H   UNL A   1      29.288  25.954  26.135  1.00  0.00     0.345 HD
ENDBRANCH   5  10
BRANCH   7  14
ATOM     14  C   UNL A   1      30.693  23.766  23.767  1.00  0.00     0.052 C 
BRANCH  14  15
ATOM     15  C   UNL A   1      31.656  22.845  22.994  1.00  0.00     0.230 C 
BRANCH  15  16
ATOM     16  O   UNL A   1      32.856  22.552  23.710  1.00  0.00    -0.494 OA
BRANCH  16  17
ATOM     17  C   UNL A   1      33.240  21.262  23.925  1.00  0.00     0.119 A 
ATOM     18  C   UNL A   1      32.361  20.298  23.425  1.00  0.00     0.047 A 
ATOM     19  C   UNL A   1      34.388  20.840  24.586  1.00  0.00     0.047 A 
ATOM     20  C   UNL A   1      32.578  18.938  23.664  1.00  0.00     0.010 A 
ATOM     21  C   UNL A   1      34.584  19.485  24.871  1.00  0.00     0.010 A 
ATOM     22  C   UNL A   1      33.660  18.522  24.448  1.00  0.00    -0.022 A 
BRANCH  22  23
ATOM     23  C   UNL A   1      33.866  17.076  24.811  1.00  0.00     0.191 C 
BRANCH  23  24
ATOM     24  O   UNL A   1      33.423  16.783  26.130  1.00  0.00    -0.392 OA
ATOM     25  H   UNL A   1      34.050  16.177  26.555  1.00  0.00     0.211 HD
ENDBRANCH  23  24
ENDBRANCH  22  23
ENDBRANCH  16  17
ENDBRANCH  15  16
ENDBRANCH  14  15
ENDBRANCH   7  14
ENDBRANCH   1   5
BRANCH   3  26
ATOM     26  C   UNL A   1      34.407  24.289  25.961  1.00  0.00     0.118 C 
BRANCH  26  27
ATOM     27  C   UNL A   1      35.696  23.563  26.325  1.00  0.00     0.042 C 
BRANCH  27  28
ATOM     28  C   UNL A   1      36.793  23.673  25.274  1.00  0.00     0.118 C 
BRANCH  28  29
ATOM     29  N   UNL A   1      37.917  22.781  25.529  1.00  0.00    -0.352 N 
ATOM     30  C   UNL A   1      39.138  23.033  26.114  1.00  0.00     0.251 C 
ATOM     31  H   UNL A   1      37.781  21.851  25.237  1.00  0.00     0.163 HD
ATOM     32  O   UNL A   1      40.032  22.201  26.050  1.00  0.00    -0.269 OA
BRANCH  30  33
ATOM     33  C   UNL A   1      39.373  24.322  26.800  1.00  0.00     0.039 A 
ATOM     34  C   UNL A   1      38.904  24.497  28.103  1.00  0.00     0.014 A 
ATOM     35  C   UNL A   1      40.059  25.357  26.158  1.00  0.00     0.014 A 
ATOM     36  C   UNL A   1      39.211  25.671  28.796  1.00  0.00     0.010 A 
ATOM     37  C   UNL A   1      40.443  26.483  26.877  1.00  0.00     0.010 A 
ATOM     38  C   UNL A   1      40.029  26.649  28.207  1.00  0.00    -0.014 A 
BRANCH  38  39
ATOM     39  C   UNL A   1      40.487  27.839  28.969  1.00  0.00     0.031 A 
ATOM     40  C   UNL A   1      41.829  27.833  29.649  1.00  0.00     0.074 A 
ATOM     41  C   UNL A   1      39.656  28.890  29.118  1.00  0.00     0.049 A 
ATOM     42  N   UNL A   1      42.363  28.744  30.422  1.00  0.00    -0.248 NA
ATOM     43  C   UNL A   1      42.666  26.637  29.462  1.00  0.00     0.031 C 
ATOM     44  C   UNL A   1      38.306  28.992  28.555  1.00  0.00     0.029 A 
ATOM     45  N   UNL A   1      39.818  30.072  29.797  1.00  0.00    -0.354 N 
ATOM     46  C   UNL A   1      43.585  28.222  30.830  1.00  0.00     0.074 A 
ATOM     47  C   UNL A   1      43.691  26.896  30.261  1.00  0.00     0.031 C 
ATOM     48  C   UNL A   1      37.779  30.182  28.884  1.00  0.00     0.029 A 
ATOM     49  C   UNL A   1      38.731  30.910  29.716  1.00  0.00     0.049 A 
ATOM     50  H   UNL A   1      40.636  30.298  30.296  1.00  0.00     0.167 HD
ATOM     51  C   UNL A   1      44.544  28.801  31.594  1.00  0.00     0.031 A 
ATOM     52  C   UNL A   1      38.519  32.127  30.255  1.00  0.00     0.031 A 
ATOM     53  C   UNL A   1      44.441  30.126  32.143  1.00  0.00     0.049 A 
ATOM     54  C   UNL A   1      39.601  32.754  31.089  1.00  0.00     0.074 A 
ATOM     55  C   UNL A   1      45.382  30.828  32.878  1.00  0.00     0.029 A 
ATOM     56  N   UNL A   1      43.335  30.952  32.017  1.00  0.00    -0.354 N 
ATOM     57  N   UNL A   1      40.779  32.270  31.408  1.00  0.00    -0.248 NA
ATOM     58  C   UNL A   1      39.332  34.094  31.627  1.00  0.00     0.031 C 
ATOM     59  C   UNL A   1      44.825  32.061  33.233  1.00  0.00     0.029 A 
ATOM     60  C   UNL A   1      43.559  32.149  32.675  1.00  0.00     0.049 A 
ATOM     61  H   UNL A   1      42.510  30.721  31.531  1.00  0.00     0.167 HD
ATOM     62  C   UNL A   1      41.399  33.258  32.164  1.00  0.00     0.074 A 
ATOM     63  C   UNL A   1      40.474  34.370  32.241  1.00  0.00     0.031 C 
ATOM     64  C   UNL A   1      42.626  33.245  32.741  1.00  0.00     0.031 A 
BRANCH  51  65
ATOM     65  C   UNL A   1      45.786  27.997  31.877  1.00  0.00    -0.014 A 
ATOM     66  C   UNL A   1      45.865  27.159  33.005  1.00  0.00     0.010 A 
ATOM     67  C   UNL A   1      46.877  28.057  30.992  1.00  0.00     0.010 A 
ATOM     68  C   UNL A   1      47.030  26.432  33.266  1.00  0.00     0.020 A 
ATOM     69  C   UNL A   1      48.033  27.308  31.234  1.00  0.00     0.020 A 
ATOM     70  C   UNL A   1      48.108  26.516  32.381  1.00  0.00     0.054 A 
BRANCH  70  71
ATOM     71  S   UNL A   1      49.601  25.547  32.738  1.00  0.00     0.124 S 
ATOM     72  O   UNL A   1      50.452  26.537  33.392  1.00  0.00    -0.237 OA
ATOM     73  O   UNL A   1      49.096  24.485  33.603  1.00  0.00    -0.237 OA
ATOM     74  O   UNL A   1      50.053  25.111  31.419  1.00  0.00    -0.744 OA
ENDBRANCH  70  71
ENDBRANCH  51  65
BRANCH  52  75
ATOM     75  C   UNL A   1      37.238  32.840  30.000  1.00  0.00    -0.014 A 
ATOM     76  C   UNL A   1      37.076  33.619  28.842  1.00  0.00     0.010 A 
ATOM     77  C   UNL A   1      36.166  32.730  30.905  1.00  0.00     0.010 A 
ATOM     78  C   UNL A   1      35.873  34.288  28.600  1.00  0.00     0.020 A 
ATOM     79  C   UNL A   1      34.952  33.376  30.653  1.00  0.00     0.020 A 
ATOM     80  C   UNL A   1      34.818  34.161  29.507  1.00  0.00     0.054 A 
BRANCH  80  81
ATOM     81  S   UNL A   1      33.247  34.995  29.144  1.00  0.00     0.124 S 
ATOM     82  O   UNL A   1      32.663  34.118  28.134  1.00  0.00    -0.237 OA
ATOM     83  O   UNL A   1      32.581  34.997  30.444  1.00  0.00    -0.237 OA
ATOM     84  O   UNL A   1      33.663  36.312  28.665  1.00  0.00    -0.744 OA
ENDBRANCH  80  81
ENDBRANCH  52  75
BRANCH  64  85
ATOM     85  C   UNL A   1      43.052  34.482  33.484  1.00  0.00    -0.014 A 
ATOM     86  C   UNL A   1      42.928  34.572  34.881  1.00  0.00     0.010 A 
ATOM     87  C   UNL A   1      43.637  35.548  32.776  1.00  0.00     0.010 A 
ATOM     88  C   UNL A   1      43.352  35.720  35.554  1.00  0.00     0.020 A 
ATOM     89  C   UNL A   1      44.088  36.686  33.448  1.00  0.00     0.020 A 
ATOM     90  C   UNL A   1      43.930  36.770  34.833  1.00  0.00     0.054 A 
BRANCH  90  91
ATOM     91  S   UNL A   1      44.517  38.231  35.735  1.00  0.00     0.124 S 
ATOM     92  O   UNL A   1      45.958  37.999  35.782  1.00  0.00    -0.237 OA
ATOM     93  O   UNL A   1      44.084  39.332  34.880  1.00  0.00    -0.237 OA
ATOM     94  O   UNL A   1      43.829  38.142  37.021  1.00  0.00    -0.744 OA
ENDBRANCH  90  91
ENDBRANCH  64  85
ENDBRANCH  38  39
ENDBRANCH  30  33
ENDBRANCH  28  29
ENDBRANCH  27  28
ENDBRANCH  26  27
ENDBRANCH   3  26
TORSDOF 20
ENDMDL
MODEL 3
REMARK VINA RESULT:     -10.4      1.548      2.340
REMARK SMILES [NH3+][C@]1(C(=O)NCCCNC(=O)c2ccc(-c3c4nc(c(-c5ccc(S(=O)(=O)[O-])cc5)c5ccc([nH]5)c(-c5ccc(S(=O)(=O)[O-])cc5)c5nc(c(-c6ccc(S(=O)(=O)[O-])cc6)c6ccc3[nH]6)C=C5)C=C4)cc2)CCC[C@@H]1CCOc1ccc(CO)cc1
REMARK SMILES IDX 3 1 4 2 5 3 2 5 72 6 75 7 73 8 74 9 1 10 76 14 77 15 78 16
REMARK SMILES IDX 79 17 80 18 86 19 81 20 85 21 82 22 83 23 84 24 6 26 7 27
REMARK SMILES IDX 8 28 9 29 10 30 11 32 12 33 13 34 71 35 14 36 70 37 15 38
REMARK SMILES IDX 16 39 17 40 64 41 18 42 69 43 63 44 65 45 19 46 68 47 62 48
REMARK SMILES IDX 61 49 20 51 50 52 31 53 49 54 32 55 35 56 48 57 66 58 33 59
REMARK SMILES IDX 34 60 47 62 67 63 36 64 21 65 22 66 30 67 23 68 29 69 24 70
REMARK SMILES IDX 25 71 26 72 27 73 28 74 51 75 52 76 60 77 53 78 59 79 54 80
REMARK SMILES IDX 55 81 56 82 57 83 58 84 37 85 38 86 46 87 39 88 45 89 40 90
REMARK SMILES IDX 41 91 42 92 43 93 44 94
REMARK H PARENT 5 4 1 11 1 12 1 13 84 25 9 31 65 50 35 61
REMARK Flexibility Score: inf
ROOT
ATOM      1  C   UNL A   1      31.035  26.738  25.414  1.00  0.00     0.281 C 
ATOM      2  O   UNL A   1      30.231  26.322  26.265  1.00  0.00    -0.268 OA
ATOM      3  N   UNL A   1      31.283  28.065  25.474  1.00  0.00    -0.351 N 
ATOM      4  H   UNL A   1      30.930  28.475  26.297  1.00  0.00     0.163 HD
ENDROOT
BRANCH   1   5
ATOM      5  C   UNL A   1      31.641  25.713  24.404  1.00  0.00     0.176 C 
ATOM      6  C   UNL A   1      31.651  26.041  22.909  1.00  0.00     0.079 C 
ATOM      7  C   UNL A   1      33.175  25.556  24.635  1.00  0.00     0.064 C 
ATOM      8  C   UNL A   1      32.627  25.050  22.289  1.00  0.00     0.008 C 
ATOM      9  C   UNL A   1      33.690  24.831  23.365  1.00  0.00     0.011 C 
BRANCH   5  10
ATOM     10  N   UNL A   1      30.907  24.436  24.600  1.00  0.00    -0.345 N 
ATOM     11  H   UNL A   1      31.184  24.018  25.489  1.00  0.00     0.345 HD
ATOM     12  H   UNL A   1      31.131  23.795  23.840  1.00  0.00     0.345 HD
ATOM     13  H   UNL A   1      29.904  24.618  24.608  1.00  0.00     0.345 HD
ENDBRANCH   5  10
BRANCH   7  14
ATOM     14  C   UNL A   1      33.645  24.874  25.939  1.00  0.00     0.052 C 
BRANCH  14  15
ATOM     15  C   UNL A   1      34.053  23.397  25.778  1.00  0.00     0.230 C 
BRANCH  15  16
ATOM     16  O   UNL A   1      32.946  22.495  25.823  1.00  0.00    -0.494 OA
BRANCH  16  17
ATOM     17  C   UNL A   1      33.006  21.289  25.192  1.00  0.00     0.119 A 
ATOM     18  C   UNL A   1      32.620  21.310  23.849  1.00  0.00     0.047 A 
ATOM     19  C   UNL A   1      33.397  20.079  25.755  1.00  0.00     0.047 A 
ATOM     20  C   UNL A   1      32.535  20.127  23.109  1.00  0.00     0.010 A 
ATOM     21  C   UNL A   1      33.268  18.888  25.035  1.00  0.00     0.010 A 
ATOM     22  C   UNL A   1      32.797  18.894  23.717  1.00  0.00    -0.022 A 
BRANCH  22  23
ATOM     23  C   UNL A   1      32.616  17.593  22.980  1.00  0.00     0.191 C 
BRANCH  23  24
ATOM     24  O   UNL A   1      31.651  17.691  21.941  1.00  0.00    -0.392 OA
ATOM     25  H   UNL A   1      31.868  17.060  21.238  1.00  0.00     0.211 HD
ENDBRANCH  23  24
ENDBRANCH  22  23
ENDBRANCH  16  17
ENDBRANCH  15  16
ENDBRANCH  14  15
ENDBRANCH   7  14
ENDBRANCH   1   5
BRANCH   3  26
ATOM     26  C   UNL A   1      31.945  29.029  24.614  1.00  0.00     0.118 C 
BRANCH  26  27
ATOM     27  C   UNL A   1      33.448  29.074  24.856  1.00  0.00     0.042 C 
BRANCH  27  28
ATOM     28  C   UNL A   1      33.848  28.958  26.321  1.00  0.00     0.118 C 
BRANCH  28  29
ATOM     29  N   UNL A   1      33.754  30.224  27.038  1.00  0.00    -0.352 N 
ATOM     30  C   UNL A   1      34.592  30.777  27.980  1.00  0.00     0.251 C 
ATOM     31  H   UNL A   1      32.967  30.769  26.812  1.00  0.00     0.163 HD
ATOM     32  O   UNL A   1      34.234  31.755  28.620  1.00  0.00    -0.269 OA
BRANCH  30  33
ATOM     33  C   UNL A   1      35.918  30.170  28.231  1.00  0.00     0.039 A 
ATOM     34  C   UNL A   1      36.875  30.176  27.215  1.00  0.00     0.014 A 
ATOM     35  C   UNL A   1      36.218  29.601  29.472  1.00  0.00     0.014 A 
ATOM     36  C   UNL A   1      38.162  29.701  27.475  1.00  0.00     0.010 A 
ATOM     37  C   UNL A   1      37.522  29.215  29.758  1.00  0.00     0.010 A 
ATOM     38  C   UNL A   1      38.511  29.267  28.765  1.00  0.00    -0.014 A 
BRANCH  38  39
ATOM     39  C   UNL A   1      39.907  28.890  29.106  1.00  0.00     0.031 A 
ATOM     40  C   UNL A   1      40.828  29.892  29.746  1.00  0.00     0.074 A 
ATOM     41  C   UNL A   1      40.367  27.671  28.758  1.00  0.00     0.049 A 
ATOM     42  N   UNL A   1      42.097  29.772  30.041  1.00  0.00    -0.248 NA
ATOM     43  C   UNL A   1      40.258  31.211  30.068  1.00  0.00     0.031 C 
ATOM     44  C   UNL A   1      39.588  26.630  28.081  1.00  0.00     0.029 A 
ATOM     45  N   UNL A   1      41.606  27.102  28.918  1.00  0.00    -0.354 N 
ATOM     46  C   UNL A   1      42.481  31.003  30.561  1.00  0.00     0.074 A 
ATOM     47  C   UNL A   1      41.325  31.871  30.495  1.00  0.00     0.031 C 
ATOM     48  C   UNL A   1      40.357  25.542  27.913  1.00  0.00     0.029 A 
ATOM     49  C   UNL A   1      41.693  25.819  28.430  1.00  0.00     0.049 A 
ATOM     50  H   UNL A   1      42.362  27.569  29.341  1.00  0.00     0.167 HD
ATOM     51  C   UNL A   1      43.682  31.373  31.069  1.00  0.00     0.031 A 
ATOM     52  C   UNL A   1      42.731  24.962  28.395  1.00  0.00     0.031 A 
ATOM     53  C   UNL A   1      44.823  30.501  31.149  1.00  0.00     0.049 A 
ATOM     54  C   UNL A   1      44.051  25.391  28.973  1.00  0.00     0.074 A 
ATOM     55  C   UNL A   1      46.066  30.760  31.701  1.00  0.00     0.029 A 
ATOM     56  N   UNL A   1      44.863  29.202  30.666  1.00  0.00    -0.354 N 
ATOM     57  N   UNL A   1      44.375  26.539  29.522  1.00  0.00    -0.248 NA
ATOM     58  C   UNL A   1      45.142  24.407  28.938  1.00  0.00     0.031 C 
ATOM     59  C   UNL A   1      46.870  29.631  31.511  1.00  0.00     0.029 A 
ATOM     60  C   UNL A   1      46.112  28.651  30.890  1.00  0.00     0.049 A 
ATOM     61  H   UNL A   1      44.111  28.739  30.228  1.00  0.00     0.167 HD
ATOM     62  C   UNL A   1      45.700  26.405  29.919  1.00  0.00     0.074 A 
ATOM     63  C   UNL A   1      46.112  25.062  29.562  1.00  0.00     0.031 C 
ATOM     64  C   UNL A   1      46.504  27.313  30.527  1.00  0.00     0.031 A 
BRANCH  51  65
ATOM     65  C   UNL A   1      43.817  32.785  31.575  1.00  0.00    -0.014 A 
ATOM     66  C   UNL A   1      43.512  33.109  32.910  1.00  0.00     0.010 A 
ATOM     67  C   UNL A   1      44.283  33.797  30.716  1.00  0.00     0.010 A 
ATOM     68  C   UNL A   1      43.624  34.426  33.363  1.00  0.00     0.020 A 
ATOM     69  C   UNL A   1      44.425  35.111  31.174  1.00  0.00     0.020 A 
ATOM     70  C   UNL A   1      44.076  35.419  32.490  1.00  0.00     0.054 A 
BRANCH  70  71
ATOM     71  S   UNL A   1      44.228  37.117  33.111  1.00  0.00     0.124 S 
ATOM     72  O   UNL A   1      45.523  37.075  33.786  1.00  0.00    -0.237 OA
ATOM     73  O   UNL A   1      44.184  37.913  31.888  1.00  0.00    -0.237 OA
ATOM     74  O   UNL A   1      43.073  37.269  33.992  1.00  0.00    -0.744 OA
ENDBRANCH  70  71
ENDBRANCH  51  65
BRANCH  52  75
ATOM     75  C   UNL A   1      42.556  23.605  27.812  1.00  0.00    -0.014 A 
ATOM     76  C   UNL A   1      43.032  23.318  26.521  1.00  0.00     0.010 A 
ATOM     77  C   UNL A   1      41.927  22.585  28.550  1.00  0.00     0.010 A 
ATOM     78  C   UNL A   1      42.870  22.042  25.972  1.00  0.00     0.020 A 
ATOM     79  C   UNL A   1      41.787  21.301  28.014  1.00  0.00     0.020 A 
ATOM     80  C   UNL A   1      42.249  21.042  26.723  1.00  0.00     0.054 A 
BRANCH  80  81
ATOM     81  S   UNL A   1      42.099  19.379  26.010  1.00  0.00     0.124 S 
ATOM     82  O   UNL A   1      42.615  18.539  27.087  1.00  0.00    -0.237 OA
ATOM     83  O   UNL A   1      40.665  19.272  25.755  1.00  0.00    -0.237 OA
ATOM     84  O   UNL A   1      42.933  19.445  24.812  1.00  0.00    -0.744 OA
ENDBRANCH  80  81
ENDBRANCH  52  75
BRANCH  64  85
ATOM     85  C   UNL A   1      47.902  26.876  30.870  1.00  0.00    -0.014 A 
ATOM     86  C   UNL A   1      48.981  27.146  30.012  1.00  0.00     0.010 A 
ATOM     87  C   UNL A   1      48.145  26.233  32.098  1.00  0.00     0.010 A 
ATOM     88  C   UNL A   1      50.276  26.754  30.361  1.00  0.00     0.020 A 
ATOM     89  C   UNL A   1      49.441  25.863  32.464  1.00  0.00     0.020 A 
ATOM     90  C   UNL A   1      50.497  26.115  31.585  1.00  0.00     0.054 A 
BRANCH  90  91
ATOM     91  S   UNL A   1      52.193  25.657  32.038  1.00  0.00     0.124 S 
ATOM     92  O   UNL A   1      52.480  26.591  33.123  1.00  0.00    -0.237 OA
ATOM     93  O   UNL A   1      52.055  24.258  32.432  1.00  0.00    -0.237 OA
ATOM     94  O   UNL A   1      52.951  25.878  30.808  1.00  0.00    -0.744 OA
ENDBRANCH  90  91
ENDBRANCH  64  85
ENDBRANCH  38  39
ENDBRANCH  30  33
ENDBRANCH  28  29
ENDBRANCH  27  28
ENDBRANCH  26  27
ENDBRANCH   3  26
TORSDOF 20
ENDMDL
