MODEL 1
REMARK VINA RESULT:     -11.5      0.000      0.000
REMARK SMILES O=C(CCCc1nc(-c2ccc(Cl)c(Cl)c2)c(-c2ccccc2)o1)NCCCNC(=O)c1ccc(-c2c3nc(c(-c4ccc(S(=O)(=O)[O-])cc4)c4ccc([nH]4)c(-c4ccc(S(=O)(=O)[O-])cc4)c4nc(c(-c5ccc(S(=O)(=O)[O-])cc5)c5ccc2[nH]5)C=C4)C=C3)cc1
REMARK SMILES IDX 26 1 25 2 1 3 2 4 3 6 4 7 5 8 6 9 7 10 24 11 8 12 17 13 9 14
REMARK SMILES IDX 10 15 16 16 11 17 14 18 12 19 15 20 13 21 18 22 19 23 23 24
REMARK SMILES IDX 20 25 22 26 21 27 27 28 28 29 29 30 30 31 31 33 32 34 33 35
REMARK SMILES IDX 91 36 34 37 90 38 35 39 36 40 37 41 84 42 38 43 89 44 83 45
REMARK SMILES IDX 85 46 39 47 88 48 82 49 81 50 40 52 70 53 51 54 69 55 52 56
REMARK SMILES IDX 55 57 68 58 86 59 53 60 54 61 67 63 87 64 56 65 41 66 42 67
REMARK SMILES IDX 50 68 43 69 49 70 44 71 45 72 46 73 47 74 48 75 71 76 72 77
REMARK SMILES IDX 80 78 73 79 79 80 74 81 75 82 76 83 77 84 78 85 57 86 58 87
REMARK SMILES IDX 66 88 59 89 65 90 60 91 61 92 62 93 63 94 64 95
REMARK H PARENT 25 5 29 32 85 51 55 62
REMARK Flexibility Score: inf
ROOT
ATOM      1  C   UNL A   1      32.433  29.968  26.450  1.00  0.00     0.117 C 
ENDROOT
BRANCH   1   2
ATOM      2  N   UNL A   1      31.746  29.528  25.253  1.00  0.00    -0.356 N 
ATOM      3  O   UNL A   1      31.972  27.281  25.683  1.00  0.00    -0.275 OA
ATOM      4  C   UNL A   1      31.525  28.195  24.997  1.00  0.00     0.220 C 
ATOM      5  H   UNL A   1      31.430  30.200  24.606  1.00  0.00     0.163 HD
BRANCH   4   6
ATOM      6  C   UNL A   1      30.619  27.936  23.814  1.00  0.00     0.100 C 
BRANCH   6   7
ATOM      7  C   UNL A   1      31.244  26.961  22.807  1.00  0.00     0.020 C 
BRANCH   7   8
ATOM      8  C   UNL A   1      30.594  25.575  22.678  1.00  0.00     0.098 C 
BRANCH   8   9
ATOM      9  C   UNL A   1      31.446  24.481  23.216  1.00  0.00     0.195 A 
ATOM     10  N   UNL A   1      31.115  23.216  23.407  1.00  0.00    -0.213 NA
ATOM     11  O   UNL A   1      32.735  24.796  23.556  1.00  0.00    -0.440 OA
ATOM     12  C   UNL A   1      32.285  22.645  23.841  1.00  0.00     0.117 A 
ATOM     13  C   UNL A   1      33.276  23.600  23.947  1.00  0.00     0.162 A 
BRANCH  12  14
ATOM     14  C   UNL A   1      32.449  21.232  24.086  1.00  0.00     0.006 A 
ATOM     15  C   UNL A   1      32.686  20.784  25.389  1.00  0.00     0.012 A 
ATOM     16  C   UNL A   1      32.325  20.306  23.044  1.00  0.00     0.032 A 
ATOM     17  C   UNL A   1      32.767  19.415  25.655  1.00  0.00     0.023 A 
ATOM     18  C   UNL A   1      32.422  18.935  23.307  1.00  0.00     0.060 A 
ATOM     19  C   UNL A   1      32.632  18.488  24.616  1.00  0.00     0.059 A 
ATOM     20  Cl  UNL A   1      32.268  17.855  21.970  1.00  0.00    -0.083 Cl
ATOM     21  Cl  UNL A   1      32.724  16.812  25.023  1.00  0.00    -0.083 Cl
ENDBRANCH  12  14
BRANCH  13  22
ATOM     22  C   UNL A   1      34.681  23.587  24.302  1.00  0.00     0.020 A 
ATOM     23  C   UNL A   1      35.108  24.095  25.534  1.00  0.00     0.012 A 
ATOM     24  C   UNL A   1      35.617  22.988  23.447  1.00  0.00     0.012 A 
ATOM     25  C   UNL A   1      36.448  23.982  25.914  1.00  0.00     0.001 A 
ATOM     26  C   UNL A   1      36.958  22.886  23.825  1.00  0.00     0.001 A 
ATOM     27  C   UNL A   1      37.370  23.377  25.062  1.00  0.00     0.000 A 
ENDBRANCH  13  22
ENDBRANCH   8   9
ENDBRANCH   7   8
ENDBRANCH   6   7
ENDBRANCH   4   6
ENDBRANCH   1   2
BRANCH   1  28
ATOM     28  C   UNL A   1      32.065  31.386  26.864  1.00  0.00     0.042 C 
BRANCH  28  29
ATOM     29  C   UNL A   1      33.242  32.257  27.292  1.00  0.00     0.118 C 
BRANCH  29  30
ATOM     30  N   UNL A   1      32.853  33.599  27.702  1.00  0.00    -0.352 N 
ATOM     31  C   UNL A   1      33.372  34.407  28.685  1.00  0.00     0.251 C 
ATOM     32  H   UNL A   1      32.101  33.987  27.198  1.00  0.00     0.163 HD
ATOM     33  O   UNL A   1      32.814  35.473  28.943  1.00  0.00    -0.269 OA
BRANCH  31  34
ATOM     34  C   UNL A   1      34.569  33.998  29.459  1.00  0.00     0.039 A 
ATOM     35  C   UNL A   1      34.383  33.278  30.642  1.00  0.00     0.014 A 
ATOM     36  C   UNL A   1      35.864  34.325  29.046  1.00  0.00     0.014 A 
ATOM     37  C   UNL A   1      35.490  32.829  31.368  1.00  0.00     0.010 A 
ATOM     38  C   UNL A   1      36.967  33.806  29.726  1.00  0.00     0.010 A 
ATOM     39  C   UNL A   1      36.795  33.050  30.894  1.00  0.00    -0.014 A 
BRANCH  39  40
ATOM     40  C   UNL A   1      37.967  32.464  31.600  1.00  0.00     0.031 A 
ATOM     41  C   UNL A   1      38.427  33.009  32.928  1.00  0.00     0.074 A 
ATOM     42  C   UNL A   1      38.645  31.450  31.024  1.00  0.00     0.049 A 
ATOM     43  N   UNL A   1      39.409  32.598  33.691  1.00  0.00    -0.248 NA
ATOM     44  C   UNL A   1      37.704  34.175  33.460  1.00  0.00     0.031 C 
ATOM     45  C   UNL A   1      38.339  30.862  29.717  1.00  0.00     0.029 A 
ATOM     46  N   UNL A   1      39.728  30.728  31.464  1.00  0.00    -0.354 N 
ATOM     47  C   UNL A   1      39.427  33.457  34.784  1.00  0.00     0.074 A 
ATOM     48  C   UNL A   1      38.392  34.442  34.561  1.00  0.00     0.031 C 
ATOM     49  C   UNL A   1      39.183  29.846  29.481  1.00  0.00     0.029 A 
ATOM     50  C   UNL A   1      40.117  29.734  30.597  1.00  0.00     0.049 A 
ATOM     51  H   UNL A   1      40.181  30.905  32.319  1.00  0.00     0.167 HD
ATOM     52  C   UNL A   1      40.219  33.419  35.885  1.00  0.00     0.031 A 
ATOM     53  C   UNL A   1      41.113  28.830  30.684  1.00  0.00     0.031 A 
ATOM     54  C   UNL A   1      41.254  32.441  36.103  1.00  0.00     0.049 A 
ATOM     55  C   UNL A   1      41.982  28.811  31.911  1.00  0.00     0.074 A 
ATOM     56  C   UNL A   1      42.076  32.290  37.209  1.00  0.00     0.029 A 
ATOM     57  N   UNL A   1      41.621  31.454  35.199  1.00  0.00    -0.354 N 
ATOM     58  N   UNL A   1      41.932  29.586  32.970  1.00  0.00    -0.248 NA
ATOM     59  C   UNL A   1      43.029  27.783  31.964  1.00  0.00     0.031 C 
ATOM     60  C   UNL A   1      42.975  31.251  36.949  1.00  0.00     0.029 A 
ATOM     61  C   UNL A   1      42.670  30.707  35.712  1.00  0.00     0.049 A 
ATOM     62  H   UNL A   1      41.196  31.306  34.324  1.00  0.00     0.167 HD
ATOM     63  C   UNL A   1      42.922  29.118  33.827  1.00  0.00     0.074 A 
ATOM     64  C   UNL A   1      43.539  27.982  33.171  1.00  0.00     0.031 C 
ATOM     65  C   UNL A   1      43.287  29.586  35.047  1.00  0.00     0.031 A 
BRANCH  52  66
ATOM     66  C   UNL A   1      40.000  34.475  36.940  1.00  0.00    -0.014 A 
ATOM     67  C   UNL A   1      40.656  35.719  36.871  1.00  0.00     0.010 A 
ATOM     68  C   UNL A   1      39.092  34.242  37.989  1.00  0.00     0.010 A 
ATOM     69  C   UNL A   1      40.438  36.691  37.852  1.00  0.00     0.020 A 
ATOM     70  C   UNL A   1      38.848  35.223  38.955  1.00  0.00     0.020 A 
ATOM     71  C   UNL A   1      39.537  36.435  38.889  1.00  0.00     0.054 A 
BRANCH  71  72
ATOM     72  S   UNL A   1      39.259  37.725  40.135  1.00  0.00     0.124 S 
ATOM     73  O   UNL A   1      38.974  36.933  41.330  1.00  0.00    -0.237 OA
ATOM     74  O   UNL A   1      40.532  38.439  40.146  1.00  0.00    -0.237 OA
ATOM     75  O   UNL A   1      38.126  38.481  39.608  1.00  0.00    -0.744 OA
ENDBRANCH  71  72
ENDBRANCH  52  66
BRANCH  53  76
ATOM     76  C   UNL A   1      41.327  27.851  29.582  1.00  0.00    -0.014 A 
ATOM     77  C   UNL A   1      40.468  26.748  29.426  1.00  0.00     0.010 A 
ATOM     78  C   UNL A   1      42.388  28.021  28.675  1.00  0.00     0.010 A 
ATOM     79  C   UNL A   1      40.680  25.823  28.398  1.00  0.00     0.020 A 
ATOM     80  C   UNL A   1      42.584  27.119  27.626  1.00  0.00     0.020 A 
ATOM     81  C   UNL A   1      41.735  26.018  27.501  1.00  0.00     0.054 A 
BRANCH  81  82
ATOM     82  S   UNL A   1      41.960  24.835  26.145  1.00  0.00     0.124 S 
ATOM     83  O   UNL A   1      43.178  24.140  26.546  1.00  0.00    -0.237 OA
ATOM     84  O   UNL A   1      40.731  24.047  26.207  1.00  0.00    -0.237 OA
ATOM     85  O   UNL A   1      42.084  25.687  24.964  1.00  0.00    -0.744 OA
ENDBRANCH  81  82
ENDBRANCH  53  76
BRANCH  65  86
ATOM     86  C   UNL A   1      44.381  28.842  35.771  1.00  0.00    -0.014 A 
ATOM     87  C   UNL A   1      45.735  29.193  35.618  1.00  0.00     0.010 A 
ATOM     88  C   UNL A   1      44.045  27.777  36.627  1.00  0.00     0.010 A 
ATOM     89  C   UNL A   1      46.733  28.455  36.261  1.00  0.00     0.020 A 
ATOM     90  C   UNL A   1      45.038  27.060  37.299  1.00  0.00     0.020 A 
ATOM     91  C   UNL A   1      46.378  27.388  37.091  1.00  0.00     0.054 A 
BRANCH  91  92
ATOM     92  S   UNL A   1      47.691  26.445  37.914  1.00  0.00     0.124 S 
ATOM     93  O   UNL A   1      47.414  25.084  37.464  1.00  0.00    -0.237 OA
ATOM     94  O   UNL A   1      48.908  27.050  37.374  1.00  0.00    -0.237 OA
ATOM     95  O   UNL A   1      47.458  26.692  39.335  1.00  0.00    -0.744 OA
ENDBRANCH  91  92
ENDBRANCH  65  86
ENDBRANCH  39  40
ENDBRANCH  31  34
ENDBRANCH  29  30
ENDBRANCH  28  29
ENDBRANCH   1  28
TORSDOF 18
ENDMDL
MODEL 2
REMARK VINA RESULT:     -11.0      1.743      8.383
REMARK SMILES O=C(CCCc1nc(-c2ccc(Cl)c(Cl)c2)c(-c2ccccc2)o1)NCCCNC(=O)c1ccc(-c2c3nc(c(-c4ccc(S(=O)(=O)[O-])cc4)c4ccc([nH]4)c(-c4ccc(S(=O)(=O)[O-])cc4)c4nc(c(-c5ccc(S(=O)(=O)[O-])cc5)c5ccc2[nH]5)C=C4)C=C3)cc1
REMARK SMILES IDX 26 1 25 2 1 3 2 4 3 6 4 7 5 8 6 9 7 10 24 11 8 12 17 13 9 14
REMARK SMILES IDX 10 15 16 16 11 17 14 18 12 19 15 20 13 21 18 22 19 23 23 24
REMARK SMILES IDX 20 25 22 26 21 27 27 28 28 29 29 30 30 31 31 33 32 34 33 35
REMARK SMILES IDX 91 36 34 37 90 38 35 39 36 40 37 41 84 42 38 43 89 44 83 45
REMARK SMILES IDX 85 46 39 47 88 48 82 49 81 50 40 52 70 53 51 54 69 55 52 56
REMARK SMILES IDX 55 57 68 58 86 59 53 60 54 61 67 63 87 64 56 65 41 66 42 67
REMARK SMILES IDX 50 68 43 69 49 70 44 71 45 72 46 73 47 74 48 75 71 76 72 77
REMARK SMILES IDX 80 78 73 79 79 80 74 81 75 82 76 83 77 84 78 85 57 86 58 87
REMARK SMILES IDX 66 88 59 89 65 90 60 91 61 92 62 93 63 94 64 95
REMARK H PARENT 25 5 29 32 85 51 55 62
REMARK Flexibility Score: inf
ROOT
ATOM      1  C   UNL A   1      32.127  29.325  26.882  1.00  0.00     0.117 C 
ENDROOT
BRANCH   1   2
ATOM      2  N   UNL A   1      31.587  28.526  25.800  1.00  0.00    -0.356 N 
ATOM      3  O   UNL A   1      32.499  26.542  26.517  1.00  0.00    -0.275 OA
ATOM      4  C   UNL A   1      31.782  27.167  25.742  1.00  0.00     0.220 C 
ATOM      5  H   UNL A   1      31.069  28.968  25.089  1.00  0.00     0.163 HD
BRANCH   4   6
ATOM      6  C   UNL A   1      30.979  26.474  24.663  1.00  0.00     0.100 C 
BRANCH   6   7
ATOM      7  C   UNL A   1      31.761  26.346  23.349  1.00  0.00     0.020 C 
BRANCH   7   8
ATOM      8  C   UNL A   1      31.651  25.012  22.595  1.00  0.00     0.098 C 
BRANCH   8   9
ATOM      9  C   UNL A   1      32.568  23.968  23.123  1.00  0.00     0.195 A 
ATOM     10  N   UNL A   1      33.832  24.107  23.481  1.00  0.00    -0.213 NA
ATOM     11  O   UNL A   1      32.064  22.704  23.271  1.00  0.00    -0.440 OA
ATOM     12  C   UNL A   1      34.164  22.864  23.958  1.00  0.00     0.117 A 
ATOM     13  C   UNL A   1      33.099  21.997  23.824  1.00  0.00     0.162 A 
BRANCH  12  14
ATOM     14  C   UNL A   1      35.434  22.547  24.567  1.00  0.00     0.006 A 
ATOM     15  C   UNL A   1      35.950  21.252  24.447  1.00  0.00     0.012 A 
ATOM     16  C   UNL A   1      36.176  23.531  25.230  1.00  0.00     0.032 A 
ATOM     17  C   UNL A   1      37.213  20.951  24.961  1.00  0.00     0.023 A 
ATOM     18  C   UNL A   1      37.434  23.227  25.759  1.00  0.00     0.060 A 
ATOM     19  C   UNL A   1      37.959  21.937  25.614  1.00  0.00     0.059 A 
ATOM     20  Cl  UNL A   1      38.284  24.489  26.571  1.00  0.00    -0.083 Cl
ATOM     21  Cl  UNL A   1      39.521  21.497  26.206  1.00  0.00    -0.083 Cl
ENDBRANCH  12  14
BRANCH  13  22
ATOM     22  C   UNL A   1      32.849  20.614  24.179  1.00  0.00     0.020 A 
ATOM     23  C   UNL A   1      32.594  19.660  23.187  1.00  0.00     0.012 A 
ATOM     24  C   UNL A   1      32.943  20.202  25.516  1.00  0.00     0.012 A 
ATOM     25  C   UNL A   1      32.460  18.312  23.527  1.00  0.00     0.001 A 
ATOM     26  C   UNL A   1      32.799  18.855  25.854  1.00  0.00     0.001 A 
ATOM     27  C   UNL A   1      32.564  17.910  24.858  1.00  0.00     0.000 A 
ENDBRANCH  13  22
ENDBRANCH   8   9
ENDBRANCH   7   8
ENDBRANCH   6   7
ENDBRANCH   4   6
ENDBRANCH   1   2
BRANCH   1  28
ATOM     28  C   UNL A   1      32.285  30.795  26.519  1.00  0.00     0.042 C 
BRANCH  28  29
ATOM     29  C   UNL A   1      33.270  31.570  27.388  1.00  0.00     0.118 C 
BRANCH  29  30
ATOM     30  N   UNL A   1      32.882  32.954  27.614  1.00  0.00    -0.352 N 
ATOM     31  C   UNL A   1      33.406  33.889  28.475  1.00  0.00     0.251 C 
ATOM     32  H   UNL A   1      32.128  33.271  27.066  1.00  0.00     0.163 HD
ATOM     33  O   UNL A   1      32.848  34.980  28.588  1.00  0.00    -0.269 OA
BRANCH  31  34
ATOM     34  C   UNL A   1      34.608  33.589  29.290  1.00  0.00     0.039 A 
ATOM     35  C   UNL A   1      34.479  32.707  30.367  1.00  0.00     0.014 A 
ATOM     36  C   UNL A   1      35.849  34.174  29.020  1.00  0.00     0.014 A 
ATOM     37  C   UNL A   1      35.602  32.360  31.123  1.00  0.00     0.010 A 
ATOM     38  C   UNL A   1      36.983  33.763  29.723  1.00  0.00     0.010 A 
ATOM     39  C   UNL A   1      36.875  32.850  30.782  1.00  0.00    -0.014 A 
BRANCH  39  40
ATOM     40  C   UNL A   1      38.087  32.381  31.508  1.00  0.00     0.031 A 
ATOM     41  C   UNL A   1      38.997  31.339  30.910  1.00  0.00     0.074 A 
ATOM     42  C   UNL A   1      38.354  32.875  32.735  1.00  0.00     0.049 A 
ATOM     43  N   UNL A   1      40.107  30.840  31.394  1.00  0.00    -0.248 NA
ATOM     44  C   UNL A   1      38.602  30.771  29.611  1.00  0.00     0.031 C 
ATOM     45  C   UNL A   1      37.527  33.849  33.453  1.00  0.00     0.029 A 
ATOM     46  N   UNL A   1      39.398  32.633  33.594  1.00  0.00    -0.354 N 
ATOM     47  C   UNL A   1      40.537  29.897  30.467  1.00  0.00     0.074 A 
ATOM     48  C   UNL A   1      39.542  29.857  29.418  1.00  0.00     0.031 C 
ATOM     49  C   UNL A   1      38.116  34.152  34.620  1.00  0.00     0.029 A 
ATOM     50  C   UNL A   1      39.338  33.366  34.756  1.00  0.00     0.049 A 
ATOM     51  H   UNL A   1      40.120  31.995  33.397  1.00  0.00     0.167 HD
ATOM     52  C   UNL A   1      41.667  29.147  30.475  1.00  0.00     0.031 A 
ATOM     53  C   UNL A   1      40.170  33.408  35.816  1.00  0.00     0.031 A 
ATOM     54  C   UNL A   1      42.654  29.184  31.524  1.00  0.00     0.049 A 
ATOM     55  C   UNL A   1      41.413  32.562  35.805  1.00  0.00     0.074 A 
ATOM     56  C   UNL A   1      43.856  28.498  31.598  1.00  0.00     0.029 A 
ATOM     57  N   UNL A   1      42.554  29.936  32.685  1.00  0.00    -0.354 N 
ATOM     58  N   UNL A   1      41.840  31.733  34.881  1.00  0.00    -0.248 NA
ATOM     59  C   UNL A   1      42.298  32.673  36.972  1.00  0.00     0.031 C 
ATOM     60  C   UNL A   1      44.453  28.791  32.829  1.00  0.00     0.029 A 
ATOM     61  C   UNL A   1      43.660  29.713  33.492  1.00  0.00     0.049 A 
ATOM     62  H   UNL A   1      41.809  30.540  32.903  1.00  0.00     0.167 HD
ATOM     63  C   UNL A   1      43.058  31.246  35.343  1.00  0.00     0.074 A 
ATOM     64  C   UNL A   1      43.308  31.890  36.617  1.00  0.00     0.031 C 
ATOM     65  C   UNL A   1      43.894  30.348  34.765  1.00  0.00     0.031 A 
BRANCH  52  66
ATOM     66  C   UNL A   1      41.894  28.212  29.313  1.00  0.00    -0.014 A 
ATOM     67  C   UNL A   1      42.685  28.596  28.214  1.00  0.00     0.010 A 
ATOM     68  C   UNL A   1      41.349  26.915  29.339  1.00  0.00     0.010 A 
ATOM     69  C   UNL A   1      42.893  27.716  27.147  1.00  0.00     0.020 A 
ATOM     70  C   UNL A   1      41.580  26.022  28.289  1.00  0.00     0.020 A 
ATOM     71  C   UNL A   1      42.337  26.435  27.191  1.00  0.00     0.054 A 
BRANCH  71  72
ATOM     72  S   UNL A   1      42.643  25.308  25.802  1.00  0.00     0.124 S 
ATOM     73  O   UNL A   1      42.195  26.106  24.663  1.00  0.00    -0.237 OA
ATOM     74  O   UNL A   1      44.083  25.085  25.883  1.00  0.00    -0.237 OA
ATOM     75  O   UNL A   1      41.815  24.144  26.108  1.00  0.00    -0.744 OA
ENDBRANCH  71  72
ENDBRANCH  52  66
BRANCH  53  76
ATOM     76  C   UNL A   1      39.863  34.300  36.968  1.00  0.00    -0.014 A 
ATOM     77  C   UNL A   1      39.161  33.814  38.085  1.00  0.00     0.010 A 
ATOM     78  C   UNL A   1      40.281  35.643  36.957  1.00  0.00     0.010 A 
ATOM     79  C   UNL A   1      38.864  34.658  39.159  1.00  0.00     0.020 A 
ATOM     80  C   UNL A   1      40.015  36.483  38.043  1.00  0.00     0.020 A 
ATOM     81  C   UNL A   1      39.297  35.987  39.133  1.00  0.00     0.054 A 
BRANCH  81  82
ATOM     82  S   UNL A   1      38.945  37.052  40.559  1.00  0.00     0.124 S 
ATOM     83  O   UNL A   1      38.143  36.173  41.403  1.00  0.00    -0.237 OA
ATOM     84  O   UNL A   1      40.283  37.361  41.058  1.00  0.00    -0.237 OA
ATOM     85  O   UNL A   1      38.230  38.184  39.974  1.00  0.00    -0.744 OA
ENDBRANCH  81  82
ENDBRANCH  53  76
BRANCH  65  86
ATOM     86  C   UNL A   1      45.181  30.040  35.489  1.00  0.00    -0.014 A 
ATOM     87  C   UNL A   1      45.263  28.997  36.431  1.00  0.00     0.010 A 
ATOM     88  C   UNL A   1      46.330  30.802  35.214  1.00  0.00     0.010 A 
ATOM     89  C   UNL A   1      46.453  28.764  37.125  1.00  0.00     0.020 A 
ATOM     90  C   UNL A   1      47.532  30.550  35.880  1.00  0.00     0.020 A 
ATOM     91  C   UNL A   1      47.578  29.547  36.851  1.00  0.00     0.054 A 
BRANCH  91  92
ATOM     92  S   UNL A   1      49.112  29.227  37.765  1.00  0.00     0.124 S 
ATOM     93  O   UNL A   1      50.068  29.001  36.684  1.00  0.00    -0.237 OA
ATOM     94  O   UNL A   1      49.300  30.463  38.521  1.00  0.00    -0.237 OA
ATOM     95  O   UNL A   1      48.796  28.052  38.574  1.00  0.00    -0.744 OA
ENDBRANCH  91  92
ENDBRANCH  65  86
ENDBRANCH  39  40
ENDBRANCH  31  34
ENDBRANCH  29  30
ENDBRANCH  28  29
ENDBRANCH   1  28
TORSDOF 18
ENDMDL
MODEL 3
REMARK VINA RESULT:     -11.0      1.178      8.051
REMARK SMILES O=C(CCCc1nc(-c2ccc(Cl)c(Cl)c2)c(-c2ccccc2)o1)NCCCNC(=O)c1ccc(-c2c3nc(c(-c4ccc(S(=O)(=O)[O-])cc4)c4ccc([nH]4)c(-c4ccc(S(=O)(=O)[O-])cc4)c4nc(c(-c5ccc(S(=O)(=O)[O-])cc5)c5ccc2[nH]5)C=C4)C=C3)cc1
REMARK SMILES IDX 26 1 25 2 1 3 2 4 3 6 4 7 5 8 6 9 7 10 24 11 8 12 17 13 9 14
REMARK SMILES IDX 10 15 16 16 11 17 14 18 12 19 15 20 13 21 18 22 19 23 23 24
REMARK SMILES IDX 20 25 22 26 21 27 27 28 28 29 29 30 30 31 31 33 32 34 33 35
REMARK SMILES IDX 91 36 34 37 90 38 35 39 36 40 37 41 84 42 38 43 89 44 83 45
REMARK SMILES IDX 85 46 39 47 88 48 82 49 81 50 40 52 70 53 51 54 69 55 52 56
REMARK SMILES IDX 55 57 68 58 86 59 53 60 54 61 67 63 87 64 56 65 41 66 42 67
REMARK SMILES IDX 50 68 43 69 49 70 44 71 45 72 46 73 47 74 48 75 71 76 72 77
REMARK SMILES IDX 80 78 73 79 79 80 74 81 75 82 76 83 77 84 78 85 57 86 58 87
REMARK SMILES IDX 66 88 59 89 65 90 60 91 61 92 62 93 63 94 64 95
REMARK H PARENT 25 5 29 32 85 51 55 62
REMARK Flexibility Score: inf
ROOT
ATOM      1  C   UNL A   1      32.199  29.279  26.870  1.00  0.00     0.117 C 
ENDROOT
BRANCH   1   2
ATOM      2  N   UNL A   1      31.438  28.602  25.840  1.00  0.00    -0.356 N 
ATOM      3  O   UNL A   1      31.951  26.477  26.549  1.00  0.00    -0.275 OA
ATOM      4  C   UNL A   1      31.337  27.231  25.802  1.00  0.00     0.220 C 
ATOM      5  H   UNL A   1      30.984  29.136  25.149  1.00  0.00     0.163 HD
BRANCH   4   6
ATOM      6  C   UNL A   1      30.342  26.714  24.787  1.00  0.00     0.100 C 
BRANCH   6   7
ATOM      7  C   UNL A   1      30.850  26.865  23.347  1.00  0.00     0.020 C 
BRANCH   7   8
ATOM      8  C   UNL A   1      30.877  25.599  22.477  1.00  0.00     0.098 C 
BRANCH   8   9
ATOM      9  C   UNL A   1      31.670  24.496  23.080  1.00  0.00     0.195 A 
ATOM     10  N   UNL A   1      31.293  23.246  23.283  1.00  0.00    -0.213 NA
ATOM     11  O   UNL A   1      32.949  24.783  23.475  1.00  0.00    -0.440 OA
ATOM     12  C   UNL A   1      32.423  22.653  23.787  1.00  0.00     0.117 A 
ATOM     13  C   UNL A   1      33.436  23.581  23.920  1.00  0.00     0.162 A 
BRANCH  12  14
ATOM     14  C   UNL A   1      32.535  21.242  24.072  1.00  0.00     0.006 A 
ATOM     15  C   UNL A   1      32.743  20.821  25.390  1.00  0.00     0.012 A 
ATOM     16  C   UNL A   1      32.388  20.292  23.054  1.00  0.00     0.032 A 
ATOM     17  C   UNL A   1      32.772  19.458  25.693  1.00  0.00     0.023 A 
ATOM     18  C   UNL A   1      32.433  18.927  23.355  1.00  0.00     0.060 A 
ATOM     19  C   UNL A   1      32.614  18.509  24.678  1.00  0.00     0.059 A 
ATOM     20  Cl  UNL A   1      32.254  17.816  22.047  1.00  0.00    -0.083 Cl
ATOM     21  Cl  UNL A   1      32.642  16.843  25.131  1.00  0.00    -0.083 Cl
ENDBRANCH  12  14
BRANCH  13  22
ATOM     22  C   UNL A   1      34.821  23.538  24.343  1.00  0.00     0.020 A 
ATOM     23  C   UNL A   1      35.222  24.162  25.530  1.00  0.00     0.012 A 
ATOM     24  C   UNL A   1      35.758  22.798  23.609  1.00  0.00     0.012 A 
ATOM     25  C   UNL A   1      36.535  24.025  25.986  1.00  0.00     0.001 A 
ATOM     26  C   UNL A   1      37.073  22.672  24.061  1.00  0.00     0.001 A 
ATOM     27  C   UNL A   1      37.458  23.280  25.254  1.00  0.00     0.000 A 
ENDBRANCH  13  22
ENDBRANCH   8   9
ENDBRANCH   7   8
ENDBRANCH   6   7
ENDBRANCH   4   6
ENDBRANCH   1   2
BRANCH   1  28
ATOM     28  C   UNL A   1      32.676  30.662  26.450  1.00  0.00     0.042 C 
BRANCH  28  29
ATOM     29  C   UNL A   1      33.487  31.411  27.503  1.00  0.00     0.118 C 
BRANCH  29  30
ATOM     30  N   UNL A   1      33.041  32.780  27.716  1.00  0.00    -0.352 N 
ATOM     31  C   UNL A   1      33.538  33.751  28.551  1.00  0.00     0.251 C 
ATOM     32  H   UNL A   1      32.262  33.053  27.178  1.00  0.00     0.163 HD
ATOM     33  O   UNL A   1      32.933  34.818  28.659  1.00  0.00    -0.269 OA
BRANCH  31  34
ATOM     34  C   UNL A   1      34.768  33.520  29.347  1.00  0.00     0.039 A 
ATOM     35  C   UNL A   1      34.699  32.655  30.442  1.00  0.00     0.014 A 
ATOM     36  C   UNL A   1      35.977  34.151  29.039  1.00  0.00     0.014 A 
ATOM     37  C   UNL A   1      35.851  32.371  31.181  1.00  0.00     0.010 A 
ATOM     38  C   UNL A   1      37.142  33.804  29.726  1.00  0.00     0.010 A 
ATOM     39  C   UNL A   1      37.094  32.908  30.804  1.00  0.00    -0.014 A 
BRANCH  39  40
ATOM     40  C   UNL A   1      38.339  32.506  31.514  1.00  0.00     0.031 A 
ATOM     41  C   UNL A   1      39.281  31.491  30.918  1.00  0.00     0.074 A 
ATOM     42  C   UNL A   1      38.610  33.037  32.724  1.00  0.00     0.049 A 
ATOM     43  N   UNL A   1      40.421  31.050  31.387  1.00  0.00    -0.248 NA
ATOM     44  C   UNL A   1      38.884  30.879  29.639  1.00  0.00     0.031 C 
ATOM     45  C   UNL A   1      37.758  33.990  33.440  1.00  0.00     0.029 A 
ATOM     46  N   UNL A   1      39.681  32.857  33.566  1.00  0.00    -0.354 N 
ATOM     47  C   UNL A   1      40.872  30.107  30.470  1.00  0.00     0.074 A 
ATOM     48  C   UNL A   1      39.858  30.002  29.444  1.00  0.00     0.031 C 
ATOM     49  C   UNL A   1      38.357  34.342  34.588  1.00  0.00     0.029 A 
ATOM     50  C   UNL A   1      39.613  33.611  34.714  1.00  0.00     0.049 A 
ATOM     51  H   UNL A   1      40.426  32.246  33.366  1.00  0.00     0.167 HD
ATOM     52  C   UNL A   1      42.032  29.405  30.470  1.00  0.00     0.031 A 
ATOM     53  C   UNL A   1      40.465  33.710  35.754  1.00  0.00     0.031 A 
ATOM     54  C   UNL A   1      43.039  29.505  31.496  1.00  0.00     0.049 A 
ATOM     55  C   UNL A   1      41.742  32.917  35.734  1.00  0.00     0.074 A 
ATOM     56  C   UNL A   1      44.270  28.873  31.559  1.00  0.00     0.029 A 
ATOM     57  N   UNL A   1      42.931  30.277  32.644  1.00  0.00    -0.354 N 
ATOM     58  N   UNL A   1      42.185  32.088  34.818  1.00  0.00    -0.248 NA
ATOM     59  C   UNL A   1      42.645  33.090  36.879  1.00  0.00     0.031 C 
ATOM     60  C   UNL A   1      44.879  29.217  32.770  1.00  0.00     0.029 A 
ATOM     61  C   UNL A   1      44.061  30.118  33.431  1.00  0.00     0.049 A 
ATOM     62  H   UNL A   1      42.164  30.854  32.866  1.00  0.00     0.167 HD
ATOM     63  C   UNL A   1      43.432  31.663  35.264  1.00  0.00     0.074 A 
ATOM     64  C   UNL A   1      43.680  32.343  36.519  1.00  0.00     0.031 C 
ATOM     65  C   UNL A   1      44.294  30.789  34.686  1.00  0.00     0.031 A 
BRANCH  52  66
ATOM     66  C   UNL A   1      42.275  28.457  29.322  1.00  0.00    -0.014 A 
ATOM     67  C   UNL A   1      42.936  28.881  28.154  1.00  0.00     0.010 A 
ATOM     68  C   UNL A   1      41.881  27.111  29.429  1.00  0.00     0.010 A 
ATOM     69  C   UNL A   1      43.161  27.989  27.101  1.00  0.00     0.020 A 
ATOM     70  C   UNL A   1      42.131  26.207  28.391  1.00  0.00     0.020 A 
ATOM     71  C   UNL A   1      42.755  26.658  27.227  1.00  0.00     0.054 A 
BRANCH  71  72
ATOM     72  S   UNL A   1      43.080  25.519  25.853  1.00  0.00     0.124 S 
ATOM     73  O   UNL A   1      42.469  26.221  24.727  1.00  0.00    -0.237 OA
ATOM     74  O   UNL A   1      44.538  25.450  25.832  1.00  0.00    -0.237 OA
ATOM     75  O   UNL A   1      42.407  24.286  26.254  1.00  0.00    -0.744 OA
ENDBRANCH  71  72
ENDBRANCH  52  66
BRANCH  53  76
ATOM     76  C   UNL A   1      40.144  34.613  36.894  1.00  0.00    -0.014 A 
ATOM     77  C   UNL A   1      39.264  34.200  37.911  1.00  0.00     0.010 A 
ATOM     78  C   UNL A   1      40.726  35.891  36.975  1.00  0.00     0.010 A 
ATOM     79  C   UNL A   1      38.955  35.056  38.973  1.00  0.00     0.020 A 
ATOM     80  C   UNL A   1      40.446  36.737  38.052  1.00  0.00     0.020 A 
ATOM     81  C   UNL A   1      39.552  36.318  39.039  1.00  0.00     0.054 A 
BRANCH  81  82
ATOM     82  S   UNL A   1      39.177  37.392  40.452  1.00  0.00     0.124 S 
ATOM     83  O   UNL A   1      38.674  36.437  41.434  1.00  0.00    -0.237 OA
ATOM     84  O   UNL A   1      40.479  37.982  40.752  1.00  0.00    -0.237 OA
ATOM     85  O   UNL A   1      38.187  38.325  39.920  1.00  0.00    -0.744 OA
ENDBRANCH  81  82
ENDBRANCH  53  76
BRANCH  65  86
ATOM     86  C   UNL A   1      45.607  30.550  35.389  1.00  0.00    -0.014 A 
ATOM     87  C   UNL A   1      45.759  29.519  36.333  1.00  0.00     0.010 A 
ATOM     88  C   UNL A   1      46.711  31.369  35.090  1.00  0.00     0.010 A 
ATOM     89  C   UNL A   1      46.971  29.350  37.008  1.00  0.00     0.020 A 
ATOM     90  C   UNL A   1      47.936  31.182  35.736  1.00  0.00     0.020 A 
ATOM     91  C   UNL A   1      48.050  30.188  36.710  1.00  0.00     0.054 A 
BRANCH  91  92
ATOM     92  S   UNL A   1      49.613  29.951  37.598  1.00  0.00     0.124 S 
ATOM     93  O   UNL A   1      50.560  29.762  36.502  1.00  0.00    -0.237 OA
ATOM     94  O   UNL A   1      49.755  31.203  38.340  1.00  0.00    -0.237 OA
ATOM     95  O   UNL A   1      49.370  28.770  38.423  1.00  0.00    -0.744 OA
ENDBRANCH  91  92
ENDBRANCH  65  86
ENDBRANCH  39  40
ENDBRANCH  31  34
ENDBRANCH  29  30
ENDBRANCH  28  29
ENDBRANCH   1  28
TORSDOF 18
ENDMDL
