MODEL 1
REMARK VINA RESULT:     -11.0      0.000      0.000
REMARK SMILES C[C@H](Nc1nc(CC(=O)NCCCNC(=O)c2ccc(-c3c4nc(c(-c5ccc(S(=O)(=O)[O-])cc5)c5ccc([nH]5)c(-c5ccc(S(=O)(=O)[O-])cc5)c5nc(c(-c6ccc(S(=O)(=O)[O-])cc6)c6ccc3[nH]6)C=C5)C=C4)cc2)cs1)c1ccccc1
REMARK SMILES IDX 11 1 10 2 8 3 9 4 7 6 6 7 4 8 5 9 78 10 77 11 3 12 2 14 1 15
REMARK SMILES IDX 79 16 80 17 84 18 81 19 83 20 82 21 12 22 13 23 14 24 15 25
REMARK SMILES IDX 16 27 17 28 18 29 76 30 19 31 75 32 20 33 21 34 22 35 69 36
REMARK SMILES IDX 23 37 74 38 68 39 70 40 24 41 73 42 67 43 66 44 25 46 55 47
REMARK SMILES IDX 36 48 54 49 37 50 40 51 53 52 71 53 38 54 39 55 52 57 72 58
REMARK SMILES IDX 41 59 26 60 27 61 35 62 28 63 34 64 29 65 30 66 31 67 32 68
REMARK SMILES IDX 33 69 56 70 57 71 65 72 58 73 64 74 59 75 60 76 61 77 62 78
REMARK SMILES IDX 63 79 42 80 43 81 51 82 44 83 50 84 45 85 46 86 47 87 48 88
REMARK SMILES IDX 49 89
REMARK H PARENT 10 5 3 13 14 26 70 45 40 56
REMARK Flexibility Score: inf
ROOT
ATOM      1  C   UNL A   1      33.194  26.673  25.106  1.00  0.00     0.117 C 
ENDROOT
BRANCH   1   2
ATOM      2  N   UNL A   1      33.761  26.298  23.820  1.00  0.00    -0.356 N 
ATOM      3  C   UNL A   1      33.223  25.513  22.840  1.00  0.00     0.226 C 
ATOM      4  O   UNL A   1      33.907  25.272  21.842  1.00  0.00    -0.275 OA
ATOM      5  H   UNL A   1      34.655  26.662  23.628  1.00  0.00     0.163 HD
BRANCH   3   6
ATOM      6  C   UNL A   1      31.805  24.991  22.965  1.00  0.00     0.157 C 
BRANCH   6   7
ATOM      7  C   UNL A   1      31.650  24.028  24.090  1.00  0.00     0.063 A 
ATOM      8  C   UNL A   1      32.239  22.165  25.153  1.00  0.00     0.183 A 
ATOM      9  N   UNL A   1      32.546  22.975  24.171  1.00  0.00    -0.225 NA
ATOM     10  S   UNL A   1      30.862  22.653  26.071  1.00  0.00    -0.105 S 
ATOM     11  C   UNL A   1      30.694  24.042  25.085  1.00  0.00     0.093 A 
BRANCH   8  12
ATOM     12  N   UNL A   1      32.866  21.015  25.463  1.00  0.00    -0.355 N 
ATOM     13  H   UNL A   1      32.563  20.541  26.271  1.00  0.00     0.163 HD
BRANCH  12  14
ATOM     14  C   UNL A   1      33.952  20.409  24.707  1.00  0.00     0.108 C 
ATOM     15  C   UNL A   1      35.371  20.857  25.063  1.00  0.00     0.036 C 
BRANCH  14  16
ATOM     16  C   UNL A   1      33.761  18.899  24.753  1.00  0.00    -0.026 A 
ATOM     17  C   UNL A   1      34.735  18.009  24.277  1.00  0.00     0.006 A 
ATOM     18  C   UNL A   1      32.612  18.368  25.365  1.00  0.00     0.006 A 
ATOM     19  C   UNL A   1      34.550  16.629  24.378  1.00  0.00     0.000 A 
ATOM     20  C   UNL A   1      32.432  16.989  25.472  1.00  0.00     0.000 A 
ATOM     21  C   UNL A   1      33.398  16.119  24.974  1.00  0.00     0.000 A 
ENDBRANCH  14  16
ENDBRANCH  12  14
ENDBRANCH   8  12
ENDBRANCH   6   7
ENDBRANCH   3   6
ENDBRANCH   1   2
BRANCH   1  22
ATOM     22  C   UNL A   1      33.620  28.074  25.541  1.00  0.00     0.042 C 
BRANCH  22  23
ATOM     23  C   UNL A   1      33.567  28.311  27.049  1.00  0.00     0.118 C 
BRANCH  23  24
ATOM     24  N   UNL A   1      33.489  29.723  27.397  1.00  0.00    -0.352 N 
ATOM     25  C   UNL A   1      34.400  30.529  28.032  1.00  0.00     0.251 C 
ATOM     26  H   UNL A   1      32.652  30.170  27.135  1.00  0.00     0.163 HD
ATOM     27  O   UNL A   1      34.058  31.660  28.383  1.00  0.00    -0.269 OA
BRANCH  25  28
ATOM     28  C   UNL A   1      35.772  30.056  28.316  1.00  0.00     0.039 A 
ATOM     29  C   UNL A   1      36.726  30.099  27.293  1.00  0.00     0.014 A 
ATOM     30  C   UNL A   1      36.120  29.539  29.567  1.00  0.00     0.014 A 
ATOM     31  C   UNL A   1      38.037  29.685  27.543  1.00  0.00     0.010 A 
ATOM     32  C   UNL A   1      37.444  29.197  29.836  1.00  0.00     0.010 A 
ATOM     33  C   UNL A   1      38.417  29.262  28.827  1.00  0.00    -0.014 A 
BRANCH  33  34
ATOM     34  C   UNL A   1      39.824  28.892  29.134  1.00  0.00     0.031 A 
ATOM     35  C   UNL A   1      40.748  29.887  29.785  1.00  0.00     0.074 A 
ATOM     36  C   UNL A   1      40.292  27.684  28.764  1.00  0.00     0.049 A 
ATOM     37  N   UNL A   1      42.018  29.765  30.078  1.00  0.00    -0.248 NA
ATOM     38  C   UNL A   1      40.176  31.198  30.130  1.00  0.00     0.031 C 
ATOM     39  C   UNL A   1      39.509  26.638  28.101  1.00  0.00     0.029 A 
ATOM     40  N   UNL A   1      41.542  27.129  28.891  1.00  0.00    -0.354 N 
ATOM     41  C   UNL A   1      42.402  30.989  30.616  1.00  0.00     0.074 A 
ATOM     42  C   UNL A   1      41.242  31.851  30.569  1.00  0.00     0.031 C 
ATOM     43  C   UNL A   1      40.286  25.560  27.913  1.00  0.00     0.029 A 
ATOM     44  C   UNL A   1      41.631  25.850  28.395  1.00  0.00     0.049 A 
ATOM     45  H   UNL A   1      42.302  27.604  29.299  1.00  0.00     0.167 HD
ATOM     46  C   UNL A   1      43.607  31.357  31.115  1.00  0.00     0.031 A 
ATOM     47  C   UNL A   1      42.679  25.005  28.330  1.00  0.00     0.031 A 
ATOM     48  C   UNL A   1      44.757  30.493  31.167  1.00  0.00     0.049 A 
ATOM     49  C   UNL A   1      44.012  25.443  28.869  1.00  0.00     0.074 A 
ATOM     50  C   UNL A   1      46.002  30.750  31.716  1.00  0.00     0.029 A 
ATOM     51  N   UNL A   1      44.810  29.209  30.644  1.00  0.00    -0.354 N 
ATOM     52  N   UNL A   1      44.339  26.579  29.438  1.00  0.00    -0.248 NA
ATOM     53  C   UNL A   1      45.118  24.481  28.766  1.00  0.00     0.031 C 
ATOM     54  C   UNL A   1      46.826  29.646  31.467  1.00  0.00     0.029 A 
ATOM     55  C   UNL A   1      46.074  28.674  30.825  1.00  0.00     0.049 A 
ATOM     56  H   UNL A   1      44.058  28.746  30.208  1.00  0.00     0.167 HD
ATOM     57  C   UNL A   1      45.679  26.456  29.789  1.00  0.00     0.074 A 
ATOM     58  C   UNL A   1      46.099  25.132  29.377  1.00  0.00     0.031 C 
ATOM     59  C   UNL A   1      46.484  27.357  30.405  1.00  0.00     0.031 A 
BRANCH  46  60
ATOM     60  C   UNL A   1      43.748  32.772  31.618  1.00  0.00    -0.014 A 
ATOM     61  C   UNL A   1      43.418  33.117  32.943  1.00  0.00     0.010 A 
ATOM     62  C   UNL A   1      44.236  33.771  30.756  1.00  0.00     0.010 A 
ATOM     63  C   UNL A   1      43.515  34.442  33.375  1.00  0.00     0.020 A 
ATOM     64  C   UNL A   1      44.365  35.093  31.194  1.00  0.00     0.020 A 
ATOM     65  C   UNL A   1      43.980  35.424  32.494  1.00  0.00     0.054 A 
BRANCH  65  66
ATOM     66  S   UNL A   1      44.087  37.137  33.079  1.00  0.00     0.124 S 
ATOM     67  O   UNL A   1      43.003  37.189  34.056  1.00  0.00    -0.237 OA
ATOM     68  O   UNL A   1      45.437  37.203  33.634  1.00  0.00    -0.237 OA
ATOM     69  O   UNL A   1      43.875  37.931  31.871  1.00  0.00    -0.744 OA
ENDBRANCH  65  66
ENDBRANCH  46  60
BRANCH  47  70
ATOM     70  C   UNL A   1      42.495  23.642  27.760  1.00  0.00    -0.014 A 
ATOM     71  C   UNL A   1      42.796  23.393  26.410  1.00  0.00     0.010 A 
ATOM     72  C   UNL A   1      42.052  22.579  28.569  1.00  0.00     0.010 A 
ATOM     73  C   UNL A   1      42.653  22.110  25.876  1.00  0.00     0.020 A 
ATOM     74  C   UNL A   1      41.934  21.288  28.046  1.00  0.00     0.020 A 
ATOM     75  C   UNL A   1      42.231  21.063  26.700  1.00  0.00     0.054 A 
BRANCH  75  76
ATOM     76  S   UNL A   1      42.127  19.391  26.002  1.00  0.00     0.124 S 
ATOM     77  O   UNL A   1      42.704  18.579  27.068  1.00  0.00    -0.237 OA
ATOM     78  O   UNL A   1      40.691  19.230  25.788  1.00  0.00    -0.237 OA
ATOM     79  O   UNL A   1      42.924  19.480  24.780  1.00  0.00    -0.744 OA
ENDBRANCH  75  76
ENDBRANCH  47  70
BRANCH  59  80
ATOM     80  C   UNL A   1      47.898  26.933  30.708  1.00  0.00    -0.014 A 
ATOM     81  C   UNL A   1      48.942  27.154  29.792  1.00  0.00     0.010 A 
ATOM     82  C   UNL A   1      48.193  26.354  31.956  1.00  0.00     0.010 A 
ATOM     83  C   UNL A   1      50.250  26.777  30.109  1.00  0.00     0.020 A 
ATOM     84  C   UNL A   1      49.505  26.005  32.288  1.00  0.00     0.020 A 
ATOM     85  C   UNL A   1      50.524  26.207  31.356  1.00  0.00     0.054 A 
BRANCH  85  86
ATOM     86  S   UNL A   1      52.238  25.773  31.761  1.00  0.00     0.124 S 
ATOM     87  O   UNL A   1      52.930  26.068  30.510  1.00  0.00    -0.237 OA
ATOM     88  O   UNL A   1      52.540  26.669  32.875  1.00  0.00    -0.237 OA
ATOM     89  O   UNL A   1      52.163  24.356  32.113  1.00  0.00    -0.744 OA
ENDBRANCH  85  86
ENDBRANCH  59  80
ENDBRANCH  33  34
ENDBRANCH  25  28
ENDBRANCH  23  24
ENDBRANCH  22  23
ENDBRANCH   1  22
TORSDOF 17
ENDMDL
MODEL 2
REMARK VINA RESULT:     -10.8      2.738      9.630
REMARK SMILES C[C@H](Nc1nc(CC(=O)NCCCNC(=O)c2ccc(-c3c4nc(c(-c5ccc(S(=O)(=O)[O-])cc5)c5ccc([nH]5)c(-c5ccc(S(=O)(=O)[O-])cc5)c5nc(c(-c6ccc(S(=O)(=O)[O-])cc6)c6ccc3[nH]6)C=C5)C=C4)cc2)cs1)c1ccccc1
REMARK SMILES IDX 11 1 10 2 8 3 9 4 7 6 6 7 4 8 5 9 78 10 77 11 3 12 2 14 1 15
REMARK SMILES IDX 79 16 80 17 84 18 81 19 83 20 82 21 12 22 13 23 14 24 15 25
REMARK SMILES IDX 16 27 17 28 18 29 76 30 19 31 75 32 20 33 21 34 22 35 69 36
REMARK SMILES IDX 23 37 74 38 68 39 70 40 24 41 73 42 67 43 66 44 25 46 55 47
REMARK SMILES IDX 36 48 54 49 37 50 40 51 53 52 71 53 38 54 39 55 52 57 72 58
REMARK SMILES IDX 41 59 26 60 27 61 35 62 28 63 34 64 29 65 30 66 31 67 32 68
REMARK SMILES IDX 33 69 56 70 57 71 65 72 58 73 64 74 59 75 60 76 61 77 62 78
REMARK SMILES IDX 63 79 42 80 43 81 51 82 44 83 50 84 45 85 46 86 47 87 48 88
REMARK SMILES IDX 49 89
REMARK H PARENT 10 5 3 13 14 26 70 45 40 56
REMARK Flexibility Score: inf
ROOT
ATOM      1  C   UNL A   1      35.376  21.446  24.809  1.00  0.00     0.117 C 
ENDROOT
BRANCH   1   2
ATOM      2  N   UNL A   1      34.462  20.372  25.164  1.00  0.00    -0.356 N 
ATOM      3  C   UNL A   1      33.139  20.233  24.855  1.00  0.00     0.226 C 
ATOM      4  O   UNL A   1      32.530  19.262  25.312  1.00  0.00    -0.275 OA
ATOM      5  H   UNL A   1      34.850  19.644  25.701  1.00  0.00     0.163 HD
BRANCH   3   6
ATOM      6  C   UNL A   1      32.455  21.226  23.936  1.00  0.00     0.157 C 
BRANCH   6   7
ATOM      7  C   UNL A   1      31.741  22.296  24.685  1.00  0.00     0.063 A 
ATOM      8  C   UNL A   1      30.913  24.357  24.821  1.00  0.00     0.183 A 
ATOM      9  N   UNL A   1      31.464  23.479  24.020  1.00  0.00    -0.225 NA
ATOM     10  S   UNL A   1      30.660  23.787  26.430  1.00  0.00    -0.105 S 
ATOM     11  C   UNL A   1      31.319  22.267  25.999  1.00  0.00     0.093 A 
BRANCH   8  12
ATOM     12  N   UNL A   1      30.580  25.623  24.508  1.00  0.00    -0.355 N 
ATOM     13  H   UNL A   1      29.635  25.878  24.613  1.00  0.00     0.163 HD
BRANCH  12  14
ATOM     14  C   UNL A   1      31.496  26.648  24.030  1.00  0.00     0.108 C 
ATOM     15  C   UNL A   1      31.234  27.203  22.628  1.00  0.00     0.036 C 
BRANCH  14  16
ATOM     16  C   UNL A   1      31.587  27.723  25.104  1.00  0.00    -0.026 A 
ATOM     17  C   UNL A   1      31.855  27.414  26.446  1.00  0.00     0.006 A 
ATOM     18  C   UNL A   1      31.484  29.076  24.736  1.00  0.00     0.006 A 
ATOM     19  C   UNL A   1      31.981  28.427  27.399  1.00  0.00     0.000 A 
ATOM     20  C   UNL A   1      31.617  30.087  25.688  1.00  0.00     0.000 A 
ATOM     21  C   UNL A   1      31.860  29.763  27.020  1.00  0.00     0.000 A 
ENDBRANCH  14  16
ENDBRANCH  12  14
ENDBRANCH   8  12
ENDBRANCH   6   7
ENDBRANCH   3   6
ENDBRANCH   1   2
BRANCH   1  22
ATOM     22  C   UNL A   1      35.297  22.621  25.782  1.00  0.00     0.042 C 
BRANCH  22  23
ATOM     23  C   UNL A   1      36.598  23.405  25.933  1.00  0.00     0.118 C 
BRANCH  23  24
ATOM     24  N   UNL A   1      37.771  22.546  26.020  1.00  0.00    -0.352 N 
ATOM     25  C   UNL A   1      39.059  22.841  26.388  1.00  0.00     0.251 C 
ATOM     26  H   UNL A   1      37.615  21.604  25.776  1.00  0.00     0.163 HD
ATOM     27  O   UNL A   1      39.939  21.994  26.223  1.00  0.00    -0.269 OA
BRANCH  25  28
ATOM     28  C   UNL A   1      39.407  24.160  26.960  1.00  0.00     0.039 A 
ATOM     29  C   UNL A   1      39.062  24.432  28.288  1.00  0.00     0.014 A 
ATOM     30  C   UNL A   1      40.038  25.143  26.192  1.00  0.00     0.014 A 
ATOM     31  C   UNL A   1      39.404  25.659  28.861  1.00  0.00     0.010 A 
ATOM     32  C   UNL A   1      40.445  26.337  26.786  1.00  0.00     0.010 A 
ATOM     33  C   UNL A   1      40.130  26.611  28.125  1.00  0.00    -0.014 A 
BRANCH  33  34
ATOM     34  C   UNL A   1      40.573  27.890  28.740  1.00  0.00     0.031 A 
ATOM     35  C   UNL A   1      41.969  28.030  29.284  1.00  0.00     0.074 A 
ATOM     36  C   UNL A   1      39.696  28.905  28.872  1.00  0.00     0.049 A 
ATOM     37  N   UNL A   1      42.517  29.046  29.902  1.00  0.00    -0.248 NA
ATOM     38  C   UNL A   1      42.860  26.868  29.134  1.00  0.00     0.031 C 
ATOM     39  C   UNL A   1      38.305  28.889  28.413  1.00  0.00     0.029 A 
ATOM     40  N   UNL A   1      39.844  30.149  29.434  1.00  0.00    -0.354 N 
ATOM     41  C   UNL A   1      43.803  28.637  30.238  1.00  0.00     0.074 A 
ATOM     42  C   UNL A   1      43.939  27.268  29.792  1.00  0.00     0.031 C 
ATOM     43  C   UNL A   1      37.740  30.077  28.679  1.00  0.00     0.029 A 
ATOM     44  C   UNL A   1      38.708  30.922  29.370  1.00  0.00     0.049 A 
ATOM     45  H   UNL A   1      40.684  30.458  29.845  1.00  0.00     0.167 HD
ATOM     46  C   UNL A   1      44.786  29.342  30.851  1.00  0.00     0.031 A 
ATOM     47  C   UNL A   1      38.469  32.170  29.819  1.00  0.00     0.031 A 
ATOM     48  C   UNL A   1      44.649  30.707  31.286  1.00  0.00     0.049 A 
ATOM     49  C   UNL A   1      39.567  32.924  30.516  1.00  0.00     0.074 A 
ATOM     50  C   UNL A   1      45.607  31.529  31.853  1.00  0.00     0.029 A 
ATOM     51  N   UNL A   1      43.480  31.450  31.213  1.00  0.00    -0.354 N 
ATOM     52  N   UNL A   1      40.799  32.547  30.762  1.00  0.00    -0.248 NA
ATOM     53  C   UNL A   1      39.245  34.278  30.988  1.00  0.00     0.031 C 
ATOM     54  C   UNL A   1      45.000  32.746  32.182  1.00  0.00     0.029 A 
ATOM     55  C   UNL A   1      43.681  32.708  31.756  1.00  0.00     0.049 A 
ATOM     56  H   UNL A   1      42.630  31.129  30.831  1.00  0.00     0.167 HD
ATOM     57  C   UNL A   1      41.408  33.628  31.390  1.00  0.00     0.074 A 
ATOM     58  C   UNL A   1      40.412  34.676  31.477  1.00  0.00     0.031 C 
ATOM     59  C   UNL A   1      42.681  33.742  31.844  1.00  0.00     0.031 A 
BRANCH  46  60
ATOM     60  C   UNL A   1      46.090  28.631  31.113  1.00  0.00    -0.014 A 
ATOM     61  C   UNL A   1      47.136  28.643  30.170  1.00  0.00     0.010 A 
ATOM     62  C   UNL A   1      46.280  27.953  32.331  1.00  0.00     0.010 A 
ATOM     63  C   UNL A   1      48.319  27.942  30.415  1.00  0.00     0.020 A 
ATOM     64  C   UNL A   1      47.475  27.277  32.594  1.00  0.00     0.020 A 
ATOM     65  C   UNL A   1      48.478  27.255  31.623  1.00  0.00     0.054 A 
BRANCH  65  66
ATOM     66  S   UNL A   1      50.020  26.346  31.911  1.00  0.00     0.124 S 
ATOM     67  O   UNL A   1      49.524  25.054  32.377  1.00  0.00    -0.237 OA
ATOM     68  O   UNL A   1      50.641  26.340  30.589  1.00  0.00    -0.237 OA
ATOM     69  O   UNL A   1      50.713  27.147  32.917  1.00  0.00    -0.744 OA
ENDBRANCH  65  66
ENDBRANCH  46  60
BRANCH  47  70
ATOM     70  C   UNL A   1      37.138  32.795  29.590  1.00  0.00    -0.014 A 
ATOM     71  C   UNL A   1      36.132  32.698  30.568  1.00  0.00     0.010 A 
ATOM     72  C   UNL A   1      36.877  33.519  28.412  1.00  0.00     0.010 A 
ATOM     73  C   UNL A   1      34.891  33.309  30.372  1.00  0.00     0.020 A 
ATOM     74  C   UNL A   1      35.646  34.153  28.224  1.00  0.00     0.020 A 
ATOM     75  C   UNL A   1      34.657  34.039  29.204  1.00  0.00     0.054 A 
BRANCH  75  76
ATOM     76  S   UNL A   1      33.064  34.885  29.007  1.00  0.00     0.124 S 
ATOM     77  O   UNL A   1      32.534  34.858  30.365  1.00  0.00    -0.237 OA
ATOM     78  O   UNL A   1      33.466  36.198  28.509  1.00  0.00    -0.237 OA
ATOM     79  O   UNL A   1      32.352  34.052  28.039  1.00  0.00    -0.744 OA
ENDBRANCH  75  76
ENDBRANCH  47  70
BRANCH  59  80
ATOM     80  C   UNL A   1      43.088  35.061  32.447  1.00  0.00    -0.014 A 
ATOM     81  C   UNL A   1      43.609  36.100  31.655  1.00  0.00     0.010 A 
ATOM     82  C   UNL A   1      42.895  35.282  33.824  1.00  0.00     0.010 A 
ATOM     83  C   UNL A   1      43.953  37.325  32.234  1.00  0.00     0.020 A 
ATOM     84  C   UNL A   1      43.209  36.515  34.400  1.00  0.00     0.020 A 
ATOM     85  C   UNL A   1      43.749  37.526  33.602  1.00  0.00     0.054 A 
BRANCH  85  86
ATOM     86  S   UNL A   1      44.158  39.141  34.319  1.00  0.00     0.124 S 
ATOM     87  O   UNL A   1      45.488  39.389  33.772  1.00  0.00    -0.237 OA
ATOM     88  O   UNL A   1      43.094  39.999  33.802  1.00  0.00    -0.237 OA
ATOM     89  O   UNL A   1      44.111  38.903  35.761  1.00  0.00    -0.744 OA
ENDBRANCH  85  86
ENDBRANCH  59  80
ENDBRANCH  33  34
ENDBRANCH  25  28
ENDBRANCH  23  24
ENDBRANCH  22  23
ENDBRANCH   1  22
TORSDOF 17
ENDMDL
MODEL 3
REMARK VINA RESULT:     -10.6      4.277      7.081
REMARK SMILES C[C@H](Nc1nc(CC(=O)NCCCNC(=O)c2ccc(-c3c4nc(c(-c5ccc(S(=O)(=O)[O-])cc5)c5ccc([nH]5)c(-c5ccc(S(=O)(=O)[O-])cc5)c5nc(c(-c6ccc(S(=O)(=O)[O-])cc6)c6ccc3[nH]6)C=C5)C=C4)cc2)cs1)c1ccccc1
REMARK SMILES IDX 11 1 10 2 8 3 9 4 7 6 6 7 4 8 5 9 78 10 77 11 3 12 2 14 1 15
REMARK SMILES IDX 79 16 80 17 84 18 81 19 83 20 82 21 12 22 13 23 14 24 15 25
REMARK SMILES IDX 16 27 17 28 18 29 76 30 19 31 75 32 20 33 21 34 22 35 69 36
REMARK SMILES IDX 23 37 74 38 68 39 70 40 24 41 73 42 67 43 66 44 25 46 55 47
REMARK SMILES IDX 36 48 54 49 37 50 40 51 53 52 71 53 38 54 39 55 52 57 72 58
REMARK SMILES IDX 41 59 26 60 27 61 35 62 28 63 34 64 29 65 30 66 31 67 32 68
REMARK SMILES IDX 33 69 56 70 57 71 65 72 58 73 64 74 59 75 60 76 61 77 62 78
REMARK SMILES IDX 63 79 42 80 43 81 51 82 44 83 50 84 45 85 46 86 47 87 48 88
REMARK SMILES IDX 49 89
REMARK H PARENT 10 5 3 13 14 26 70 45 40 56
REMARK Flexibility Score: inf
ROOT
ATOM      1  C   UNL A   1      36.162  32.854  30.900  1.00  0.00     0.117 C 
ENDROOT
BRANCH   1   2
ATOM      2  N   UNL A   1      36.035  33.025  32.339  1.00  0.00    -0.356 N 
ATOM      3  C   UNL A   1      36.495  32.222  33.343  1.00  0.00     0.226 C 
ATOM      4  O   UNL A   1      36.223  32.527  34.508  1.00  0.00    -0.275 OA
ATOM      5  H   UNL A   1      35.552  33.832  32.629  1.00  0.00     0.163 HD
BRANCH   3   6
ATOM      6  C   UNL A   1      37.354  31.014  33.029  1.00  0.00     0.157 C 
BRANCH   6   7
ATOM      7  C   UNL A   1      38.599  30.972  33.846  1.00  0.00     0.063 A 
ATOM      8  C   UNL A   1      40.248  29.844  34.825  1.00  0.00     0.183 A 
ATOM      9  N   UNL A   1      39.220  29.746  34.018  1.00  0.00    -0.225 NA
ATOM     10  S   UNL A   1      40.550  31.444  35.397  1.00  0.00    -0.105 S 
ATOM     11  C   UNL A   1      39.223  32.024  34.484  1.00  0.00     0.093 A 
BRANCH   8  12
ATOM     12  N   UNL A   1      41.026  28.832  35.251  1.00  0.00    -0.355 N 
ATOM     13  H   UNL A   1      40.726  28.340  36.049  1.00  0.00     0.163 HD
BRANCH  12  14
ATOM     14  C   UNL A   1      42.272  28.400  34.634  1.00  0.00     0.108 C 
ATOM     15  C   UNL A   1      43.537  29.161  35.035  1.00  0.00     0.036 C 
BRANCH  14  16
ATOM     16  C   UNL A   1      42.381  26.894  34.821  1.00  0.00    -0.026 A 
ATOM     17  C   UNL A   1      41.403  26.154  35.504  1.00  0.00     0.006 A 
ATOM     18  C   UNL A   1      43.448  26.200  34.224  1.00  0.00     0.006 A 
ATOM     19  C   UNL A   1      41.508  24.766  35.616  1.00  0.00     0.000 A 
ATOM     20  C   UNL A   1      43.547  24.812  34.331  1.00  0.00     0.000 A 
ATOM     21  C   UNL A   1      42.580  24.096  35.032  1.00  0.00     0.000 A 
ENDBRANCH  14  16
ENDBRANCH  12  14
ENDBRANCH   8  12
ENDBRANCH   6   7
ENDBRANCH   3   6
ENDBRANCH   1   2
BRANCH   1  22
ATOM     22  C   UNL A   1      34.855  33.144  30.164  1.00  0.00     0.042 C 
BRANCH  22  23
ATOM     23  C   UNL A   1      34.946  33.029  28.645  1.00  0.00     0.118 C 
BRANCH  23  24
ATOM     24  N   UNL A   1      34.156  31.928  28.111  1.00  0.00    -0.352 N 
ATOM     25  C   UNL A   1      34.521  30.640  27.814  1.00  0.00     0.251 C 
ATOM     26  H   UNL A   1      33.210  32.142  27.937  1.00  0.00     0.163 HD
ATOM     27  O   UNL A   1      33.729  29.917  27.205  1.00  0.00    -0.269 OA
BRANCH  25  28
ATOM     28  C   UNL A   1      35.850  30.115  28.196  1.00  0.00     0.039 A 
ATOM     29  C   UNL A   1      36.885  30.152  27.256  1.00  0.00     0.014 A 
ATOM     30  C   UNL A   1      36.078  29.557  29.458  1.00  0.00     0.014 A 
ATOM     31  C   UNL A   1      38.158  29.689  27.600  1.00  0.00     0.010 A 
ATOM     32  C   UNL A   1      37.364  29.165  29.824  1.00  0.00     0.010 A 
ATOM     33  C   UNL A   1      38.418  29.223  28.899  1.00  0.00    -0.014 A 
BRANCH  33  34
ATOM     34  C   UNL A   1      39.783  28.801  29.311  1.00  0.00     0.031 A 
ATOM     35  C   UNL A   1      40.670  29.739  30.085  1.00  0.00     0.074 A 
ATOM     36  C   UNL A   1      40.253  27.597  28.927  1.00  0.00     0.049 A 
ATOM     37  N   UNL A   1      41.906  29.568  30.482  1.00  0.00    -0.248 NA
ATOM     38  C   UNL A   1      40.102  31.049  30.439  1.00  0.00     0.031 C 
ATOM     39  C   UNL A   1      39.505  26.604  28.150  1.00  0.00     0.029 A 
ATOM     40  N   UNL A   1      41.472  27.002  29.136  1.00  0.00    -0.354 N 
ATOM     41  C   UNL A   1      42.271  30.755  31.107  1.00  0.00     0.074 A 
ATOM     42  C   UNL A   1      41.141  31.652  30.999  1.00  0.00     0.031 C 
ATOM     43  C   UNL A   1      40.269  25.514  27.980  1.00  0.00     0.029 A 
ATOM     44  C   UNL A   1      41.574  25.744  28.590  1.00  0.00     0.049 A 
ATOM     45  H   UNL A   1      42.205  27.436  29.630  1.00  0.00     0.167 HD
ATOM     46  C   UNL A   1      43.436  31.067  31.725  1.00  0.00     0.031 A 
ATOM     47  C   UNL A   1      42.602  24.873  28.577  1.00  0.00     0.031 A 
ATOM     48  C   UNL A   1      44.556  30.169  31.837  1.00  0.00     0.049 A 
ATOM     49  C   UNL A   1      43.893  25.249  29.250  1.00  0.00     0.074 A 
ATOM     50  C   UNL A   1      45.753  30.366  32.503  1.00  0.00     0.029 A 
ATOM     51  N   UNL A   1      44.623  28.908  31.261  1.00  0.00    -0.354 N 
ATOM     52  N   UNL A   1      44.196  26.349  29.897  1.00  0.00    -0.248 NA
ATOM     53  C   UNL A   1      44.979  24.261  29.199  1.00  0.00     0.031 C 
ATOM     54  C   UNL A   1      46.568  29.251  32.276  1.00  0.00     0.029 A 
ATOM     55  C   UNL A   1      45.853  28.330  31.526  1.00  0.00     0.049 A 
ATOM     56  H   UNL A   1      43.901  28.487  30.740  1.00  0.00     0.167 HD
ATOM     57  C   UNL A   1      45.496  26.172  30.357  1.00  0.00     0.074 A 
ATOM     58  C   UNL A   1      45.919  24.857  29.922  1.00  0.00     0.031 C 
ATOM     59  C   UNL A   1      46.266  27.022  31.082  1.00  0.00     0.031 A 
BRANCH  46  60
ATOM     60  C   UNL A   1      43.567  32.453  32.304  1.00  0.00    -0.014 A 
ATOM     61  C   UNL A   1      43.445  32.687  33.687  1.00  0.00     0.010 A 
ATOM     62  C   UNL A   1      43.833  33.541  31.451  1.00  0.00     0.010 A 
ATOM     63  C   UNL A   1      43.526  33.985  34.197  1.00  0.00     0.020 A 
ATOM     64  C   UNL A   1      43.946  34.837  31.961  1.00  0.00     0.020 A 
ATOM     65  C   UNL A   1      43.768  35.054  33.329  1.00  0.00     0.054 A 
BRANCH  65  66
ATOM     66  S   UNL A   1      43.859  36.730  34.015  1.00  0.00     0.124 S 
ATOM     67  O   UNL A   1      45.276  36.839  34.352  1.00  0.00    -0.237 OA
ATOM     68  O   UNL A   1      43.414  37.559  32.898  1.00  0.00    -0.237 OA
ATOM     69  O   UNL A   1      42.949  36.689  35.157  1.00  0.00    -0.744 OA
ENDBRANCH  65  66
ENDBRANCH  46  60
BRANCH  47  70
ATOM     70  C   UNL A   1      42.436  23.543  27.931  1.00  0.00    -0.014 A 
ATOM     71  C   UNL A   1      42.945  23.314  26.640  1.00  0.00     0.010 A 
ATOM     72  C   UNL A   1      41.800  22.488  28.611  1.00  0.00     0.010 A 
ATOM     73  C   UNL A   1      42.819  22.059  26.040  1.00  0.00     0.020 A 
ATOM     74  C   UNL A   1      41.695  21.223  28.024  1.00  0.00     0.020 A 
ATOM     75  C   UNL A   1      42.201  21.019  26.739  1.00  0.00     0.054 A 
BRANCH  75  76
ATOM     76  S   UNL A   1      42.116  19.378  25.967  1.00  0.00     0.124 S 
ATOM     77  O   UNL A   1      40.691  19.244  25.691  1.00  0.00    -0.237 OA
ATOM     78  O   UNL A   1      42.977  19.537  24.798  1.00  0.00    -0.237 OA
ATOM     79  O   UNL A   1      42.642  18.487  27.000  1.00  0.00    -0.744 OA
ENDBRANCH  75  76
ENDBRANCH  47  70
BRANCH  59  80
ATOM     80  C   UNL A   1      47.637  26.545  31.487  1.00  0.00    -0.014 A 
ATOM     81  C   UNL A   1      47.856  25.907  32.720  1.00  0.00     0.010 A 
ATOM     82  C   UNL A   1      48.712  26.691  30.591  1.00  0.00     0.010 A 
ATOM     83  C   UNL A   1      49.132  25.448  33.060  1.00  0.00     0.020 A 
ATOM     84  C   UNL A   1      49.982  26.206  30.915  1.00  0.00     0.020 A 
ATOM     85  C   UNL A   1      50.187  25.599  32.155  1.00  0.00     0.054 A 
BRANCH  85  86
ATOM     86  S   UNL A   1      51.821  24.951  32.600  1.00  0.00     0.124 S 
ATOM     87  O   UNL A   1      51.899  25.273  34.022  1.00  0.00    -0.237 OA
ATOM     88  O   UNL A   1      51.700  23.530  32.282  1.00  0.00    -0.237 OA
ATOM     89  O   UNL A   1      52.737  25.698  31.741  1.00  0.00    -0.744 OA
ENDBRANCH  85  86
ENDBRANCH  59  80
ENDBRANCH  33  34
ENDBRANCH  25  28
ENDBRANCH  23  24
ENDBRANCH  22  23
ENDBRANCH   1  22
TORSDOF 17
ENDMDL
