MODEL 1
REMARK VINA RESULT:     -11.8      0.000      0.000
REMARK SMILES CCc1ccc(N2C(=O)/C(=C/c3cc(Cl)c(OCC(=O)NCCCNC(=O)c4ccc(-c5c6nc(c(-c7ccc(S(=O)(=O)[O-])cc7)c7ccc([nH]7)c(-c7ccc(S(=O)(=O)[O-])cc7)c7nc(c(-c8ccc(S(=O)(=O)[O-])cc8)c8ccc5[nH]8)C=C7)C=C6)cc4)c(Cl)c3)C(=O)NC2=S)cc1
REMARK SMILES IDX 22 1 21 2 19 3 20 4 18 6 17 7 16 8 12 9 13 10 90 11 14 12
REMARK SMILES IDX 88 13 15 14 89 15 11 16 7 17 8 18 94 19 9 20 10 21 93 22
REMARK SMILES IDX 95 23 91 24 92 26 6 27 3 28 4 29 97 30 5 31 96 32 2 33 1 34
REMARK SMILES IDX 23 35 24 36 25 37 26 38 27 40 28 41 29 42 87 43 30 44 86 45
REMARK SMILES IDX 31 46 32 47 33 48 80 49 34 50 85 51 79 52 81 53 35 54 84 55
REMARK SMILES IDX 78 56 77 57 36 59 66 60 47 61 65 62 48 63 51 64 64 65 82 66
REMARK SMILES IDX 49 67 50 68 63 70 83 71 52 72 37 73 38 74 46 75 39 76 45 77
REMARK SMILES IDX 40 78 41 79 42 80 43 81 44 82 67 83 68 84 76 85 69 86 75 87
REMARK SMILES IDX 70 88 71 89 72 90 73 91 74 92 53 93 54 94 62 95 55 96 61 97
REMARK SMILES IDX 56 98 57 99 58 100 59 101 60 102
REMARK H PARENT 21 5 93 25 25 39 81 58 51 69
REMARK Flexibility Score: inf
ROOT
ATOM      1  C   UNL A   1      39.774  21.304  26.116  1.00  0.00     0.117 C 
ENDROOT
BRANCH   1   2
ATOM      2  N   UNL A   1      38.896  22.457  26.055  1.00  0.00    -0.353 N 
ATOM      3  C   UNL A   1      37.558  22.512  25.794  1.00  0.00     0.257 C 
ATOM      4  O   UNL A   1      36.998  23.606  25.882  1.00  0.00    -0.271 OA
ATOM      5  H   UNL A   1      39.328  23.325  26.223  1.00  0.00     0.163 HD
BRANCH   3   6
ATOM      6  C   UNL A   1      36.780  21.227  25.470  1.00  0.00     0.329 C 
BRANCH   6   7
ATOM      7  O   UNL A   1      35.818  21.198  24.433  1.00  0.00    -0.481 OA
BRANCH   7   8
ATOM      8  C   UNL A   1      34.708  21.997  24.509  1.00  0.00     0.157 A 
ATOM      9  C   UNL A   1      32.534  23.811  24.424  1.00  0.00    -0.021 A 
ATOM     10  C   UNL A   1      33.636  23.998  23.591  1.00  0.00     0.032 A 
ATOM     11  C   UNL A   1      32.493  22.695  25.257  1.00  0.00     0.032 A 
ATOM     12  C   UNL A   1      34.702  23.095  23.627  1.00  0.00     0.085 A 
ATOM     13  C   UNL A   1      33.560  21.781  25.287  1.00  0.00     0.085 A 
ATOM     14  Cl  UNL A   1      36.004  23.365  22.514  1.00  0.00    -0.080 Cl
ATOM     15  Cl  UNL A   1      33.278  20.348  26.212  1.00  0.00    -0.080 Cl
BRANCH   9  16
ATOM     16  C   UNL A   1      31.433  24.773  24.368  1.00  0.00     0.028 C 
ATOM     17  N   UNL A   1      30.626  28.225  24.606  1.00  0.00    -0.253 N 
ATOM     18  C   UNL A   1      30.278  26.870  24.580  1.00  0.00     0.270 C 
ATOM     19  C   UNL A   1      31.570  28.730  25.506  1.00  0.00     0.187 C 
ATOM     20  O   UNL A   1      29.207  26.399  24.199  1.00  0.00    -0.268 OA
ATOM     21  C   UNL A   1      31.381  25.963  24.998  1.00  0.00     0.106 C 
ATOM     22  N   UNL A   1      32.349  27.805  26.156  1.00  0.00    -0.298 N 
ATOM     23  S   UNL A   1      31.824  30.331  25.942  1.00  0.00    -0.040 S 
ATOM     24  C   UNL A   1      32.403  26.459  25.936  1.00  0.00     0.263 C 
ATOM     25  H   UNL A   1      32.938  28.153  26.865  1.00  0.00     0.172 HD
ATOM     26  O   UNL A   1      33.247  25.760  26.484  1.00  0.00    -0.269 OA
BRANCH  17  27
ATOM     27  C   UNL A   1      30.010  29.072  23.622  1.00  0.00     0.052 A 
ATOM     28  C   UNL A   1      28.763  30.514  21.534  1.00  0.00    -0.048 A 
ATOM     29  C   UNL A   1      28.127  30.348  22.772  1.00  0.00     0.006 A 
ATOM     30  C   UNL A   1      30.040  29.974  21.360  1.00  0.00     0.006 A 
ATOM     31  C   UNL A   1      28.738  29.621  23.801  1.00  0.00     0.027 A 
ATOM     32  C   UNL A   1      30.654  29.257  22.388  1.00  0.00     0.027 A 
BRANCH  28  33
ATOM     33  C   UNL A   1      28.096  31.297  20.428  1.00  0.00     0.032 C 
ATOM     34  C   UNL A   1      27.802  32.748  20.794  1.00  0.00     0.009 C 
ENDBRANCH  28  33
ENDBRANCH  17  27
ENDBRANCH   9  16
ENDBRANCH   7   8
ENDBRANCH   6   7
ENDBRANCH   3   6
ENDBRANCH   1   2
BRANCH   1  35
ATOM     35  C   UNL A   1      41.198  21.671  26.515  1.00  0.00     0.042 C 
BRANCH  35  36
ATOM     36  C   UNL A   1      41.426  23.130  26.901  1.00  0.00     0.118 C 
BRANCH  36  37
ATOM     37  N   UNL A   1      42.034  23.924  25.847  1.00  0.00    -0.352 N 
ATOM     38  C   UNL A   1      42.270  25.276  25.768  1.00  0.00     0.251 C 
ATOM     39  H   UNL A   1      42.326  23.409  25.061  1.00  0.00     0.163 HD
ATOM     40  O   UNL A   1      42.710  25.735  24.715  1.00  0.00    -0.269 OA
BRANCH  38  41
ATOM     41  C   UNL A   1      41.978  26.186  26.902  1.00  0.00     0.039 A 
ATOM     42  C   UNL A   1      40.917  25.859  27.754  1.00  0.00     0.014 A 
ATOM     43  C   UNL A   1      42.691  27.369  27.117  1.00  0.00     0.014 A 
ATOM     44  C   UNL A   1      40.613  26.679  28.844  1.00  0.00     0.010 A 
ATOM     45  C   UNL A   1      42.432  28.150  28.246  1.00  0.00     0.010 A 
ATOM     46  C   UNL A   1      41.388  27.815  29.120  1.00  0.00    -0.014 A 
BRANCH  46  47
ATOM     47  C   UNL A   1      41.113  28.647  30.322  1.00  0.00     0.031 A 
ATOM     48  C   UNL A   1      41.944  28.500  31.570  1.00  0.00     0.074 A 
ATOM     49  C   UNL A   1      40.087  29.523  30.304  1.00  0.00     0.049 A 
ATOM     50  N   UNL A   1      41.851  29.150  32.703  1.00  0.00    -0.248 NA
ATOM     51  C   UNL A   1      42.998  27.474  31.552  1.00  0.00     0.031 C 
ATOM     52  C   UNL A   1      39.170  29.729  29.180  1.00  0.00     0.029 A 
ATOM     53  N   UNL A   1      39.646  30.405  31.258  1.00  0.00    -0.354 N 
ATOM     54  C   UNL A   1      42.822  28.604  33.535  1.00  0.00     0.074 A 
ATOM     55  C   UNL A   1      43.463  27.540  32.792  1.00  0.00     0.031 C 
ATOM     56  C   UNL A   1      38.299  30.702  29.496  1.00  0.00     0.029 A 
ATOM     57  C   UNL A   1      38.578  31.169  30.850  1.00  0.00     0.049 A 
ATOM     58  H   UNL A   1      40.056  30.484  32.150  1.00  0.00     0.167 HD
ATOM     59  C   UNL A   1      43.166  28.966  34.796  1.00  0.00     0.031 A 
ATOM     60  C   UNL A   1      37.901  32.145  31.488  1.00  0.00     0.031 A 
ATOM     61  C   UNL A   1      42.544  30.035  35.532  1.00  0.00     0.049 A 
ATOM     62  C   UNL A   1      38.325  32.555  32.871  1.00  0.00     0.074 A 
ATOM     63  C   UNL A   1      42.858  30.509  36.796  1.00  0.00     0.029 A 
ATOM     64  N   UNL A   1      41.484  30.801  35.073  1.00  0.00    -0.354 N 
ATOM     65  N   UNL A   1      39.285  32.065  33.616  1.00  0.00    -0.248 NA
ATOM     66  C   UNL A   1      37.583  33.663  33.488  1.00  0.00     0.031 C 
ATOM     67  C   UNL A   1      41.967  31.540  37.112  1.00  0.00     0.029 A 
ATOM     68  C   UNL A   1      41.126  31.738  36.029  1.00  0.00     0.049 A 
ATOM     69  H   UNL A   1      41.050  30.695  34.196  1.00  0.00     0.167 HD
ATOM     70  C   UNL A   1      39.280  32.823  34.782  1.00  0.00     0.074 A 
ATOM     71  C   UNL A   1      38.232  33.811  34.635  1.00  0.00     0.031 C 
ATOM     72  C   UNL A   1      40.077  32.712  35.874  1.00  0.00     0.031 A 
BRANCH  59  73
ATOM     73  C   UNL A   1      44.274  28.192  35.458  1.00  0.00    -0.014 A 
ATOM     74  C   UNL A   1      45.609  28.627  35.377  1.00  0.00     0.010 A 
ATOM     75  C   UNL A   1      43.976  27.031  36.195  1.00  0.00     0.010 A 
ATOM     76  C   UNL A   1      46.632  27.892  35.981  1.00  0.00     0.020 A 
ATOM     77  C   UNL A   1      44.994  26.306  36.824  1.00  0.00     0.020 A 
ATOM     78  C   UNL A   1      46.318  26.731  36.695  1.00  0.00     0.054 A 
BRANCH  78  79
ATOM     79  S   UNL A   1      47.663  25.799  37.480  1.00  0.00     0.124 S 
ATOM     80  O   UNL A   1      47.111  24.448  37.514  1.00  0.00    -0.237 OA
ATOM     81  O   UNL A   1      48.778  26.000  36.557  1.00  0.00    -0.237 OA
ATOM     82  O   UNL A   1      47.814  26.444  38.782  1.00  0.00    -0.744 OA
ENDBRANCH  78  79
ENDBRANCH  59  73
BRANCH  60  83
ATOM     83  C   UNL A   1      36.774  32.831  30.803  1.00  0.00    -0.014 A 
ATOM     84  C   UNL A   1      37.028  33.814  29.829  1.00  0.00     0.010 A 
ATOM     85  C   UNL A   1      35.444  32.494  31.107  1.00  0.00     0.010 A 
ATOM     86  C   UNL A   1      35.970  34.458  29.182  1.00  0.00     0.020 A 
ATOM     87  C   UNL A   1      34.385  33.119  30.445  1.00  0.00     0.020 A 
ATOM     88  C   UNL A   1      34.654  34.106  29.494  1.00  0.00     0.054 A 
BRANCH  88  89
ATOM     89  S   UNL A   1      33.293  34.910  28.601  1.00  0.00     0.124 S 
ATOM     90  O   UNL A   1      34.004  35.888  27.785  1.00  0.00    -0.237 OA
ATOM     91  O   UNL A   1      32.688  33.797  27.875  1.00  0.00    -0.237 OA
ATOM     92  O   UNL A   1      32.468  35.465  29.672  1.00  0.00    -0.744 OA
ENDBRANCH  88  89
ENDBRANCH  60  83
BRANCH  72  93
ATOM     93  C   UNL A   1      39.860  33.704  36.984  1.00  0.00    -0.014 A 
ATOM     94  C   UNL A   1      40.459  34.976  36.952  1.00  0.00     0.010 A 
ATOM     95  C   UNL A   1      39.028  33.364  38.066  1.00  0.00     0.010 A 
ATOM     96  C   UNL A   1      40.266  35.873  38.005  1.00  0.00     0.020 A 
ATOM     97  C   UNL A   1      38.813  34.267  39.109  1.00  0.00     0.020 A 
ATOM     98  C   UNL A   1      39.451  35.510  39.082  1.00  0.00     0.054 A 
BRANCH  98  99
ATOM     99  S   UNL A   1      39.200  36.695  40.432  1.00  0.00     0.124 S 
ATOM    100  O   UNL A   1      40.554  36.845  40.957  1.00  0.00    -0.237 OA
ATOM    101  O   UNL A   1      38.660  37.863  39.742  1.00  0.00    -0.237 OA
ATOM    102  O   UNL A   1      38.259  36.013  41.319  1.00  0.00    -0.744 OA
ENDBRANCH  98  99
ENDBRANCH  72  93
ENDBRANCH  46  47
ENDBRANCH  38  41
ENDBRANCH  36  37
ENDBRANCH  35  36
ENDBRANCH   1  35
TORSDOF 18
ENDMDL
MODEL 2
REMARK VINA RESULT:     -11.1      6.029     11.126
REMARK SMILES CCc1ccc(N2C(=O)/C(=C/c3cc(Cl)c(OCC(=O)NCCCNC(=O)c4ccc(-c5c6nc(c(-c7ccc(S(=O)(=O)[O-])cc7)c7ccc([nH]7)c(-c7ccc(S(=O)(=O)[O-])cc7)c7nc(c(-c8ccc(S(=O)(=O)[O-])cc8)c8ccc5[nH]8)C=C7)C=C6)cc4)c(Cl)c3)C(=O)NC2=S)cc1
REMARK SMILES IDX 22 1 21 2 19 3 20 4 18 6 17 7 16 8 12 9 13 10 90 11 14 12
REMARK SMILES IDX 88 13 15 14 89 15 11 16 7 17 8 18 94 19 9 20 10 21 93 22
REMARK SMILES IDX 95 23 91 24 92 26 6 27 3 28 4 29 97 30 5 31 96 32 2 33 1 34
REMARK SMILES IDX 23 35 24 36 25 37 26 38 27 40 28 41 29 42 87 43 30 44 86 45
REMARK SMILES IDX 31 46 32 47 33 48 80 49 34 50 85 51 79 52 81 53 35 54 84 55
REMARK SMILES IDX 78 56 77 57 36 59 66 60 47 61 65 62 48 63 51 64 64 65 82 66
REMARK SMILES IDX 49 67 50 68 63 70 83 71 52 72 37 73 38 74 46 75 39 76 45 77
REMARK SMILES IDX 40 78 41 79 42 80 43 81 44 82 67 83 68 84 76 85 69 86 75 87
REMARK SMILES IDX 70 88 71 89 72 90 73 91 74 92 53 93 54 94 62 95 55 96 61 97
REMARK SMILES IDX 56 98 57 99 58 100 59 101 60 102
REMARK H PARENT 21 5 93 25 25 39 81 58 51 69
REMARK Flexibility Score: inf
ROOT
ATOM      1  C   UNL A   1      34.416  33.067  31.643  1.00  0.00     0.117 C 
ENDROOT
BRANCH   1   2
ATOM      2  N   UNL A   1      35.708  32.413  31.566  1.00  0.00    -0.353 N 
ATOM      3  C   UNL A   1      36.644  32.462  30.574  1.00  0.00     0.257 C 
ATOM      4  O   UNL A   1      37.718  31.889  30.766  1.00  0.00    -0.271 OA
ATOM      5  H   UNL A   1      35.943  31.851  32.339  1.00  0.00     0.163 HD
BRANCH   3   6
ATOM      6  C   UNL A   1      36.374  33.269  29.295  1.00  0.00     0.329 C 
BRANCH   6   7
ATOM      7  O   UNL A   1      36.341  32.640  28.028  1.00  0.00    -0.481 OA
BRANCH   7   8
ATOM      8  C   UNL A   1      35.437  31.640  27.784  1.00  0.00     0.157 A 
ATOM      9  C   UNL A   1      33.809  29.372  27.311  1.00  0.00    -0.021 A 
ATOM     10  C   UNL A   1      35.188  29.226  27.456  1.00  0.00     0.032 A 
ATOM     11  C   UNL A   1      33.238  30.636  27.454  1.00  0.00     0.032 A 
ATOM     12  C   UNL A   1      35.987  30.346  27.701  1.00  0.00     0.085 A 
ATOM     13  C   UNL A   1      34.041  31.761  27.710  1.00  0.00     0.085 A 
ATOM     14  Cl  UNL A   1      37.683  30.070  27.932  1.00  0.00    -0.080 Cl
ATOM     15  Cl  UNL A   1      33.178  33.217  28.063  1.00  0.00    -0.080 Cl
BRANCH   9  16
ATOM     16  C   UNL A   1      32.995  28.184  27.052  1.00  0.00     0.028 C 
ATOM     17  N   UNL A   1      32.224  25.709  24.622  1.00  0.00    -0.253 N 
ATOM     18  C   UNL A   1      31.970  26.396  25.814  1.00  0.00     0.270 C 
ATOM     19  C   UNL A   1      32.382  26.375  23.402  1.00  0.00     0.187 C 
ATOM     20  O   UNL A   1      31.385  25.954  26.802  1.00  0.00    -0.268 OA
ATOM     21  C   UNL A   1      32.556  27.764  25.849  1.00  0.00     0.106 C 
ATOM     22  N   UNL A   1      32.570  27.734  23.468  1.00  0.00    -0.298 N 
ATOM     23  S   UNL A   1      32.303  25.725  21.856  1.00  0.00    -0.040 S 
ATOM     24  C   UNL A   1      32.750  28.497  24.586  1.00  0.00     0.263 C 
ATOM     25  H   UNL A   1      32.574  28.214  22.609  1.00  0.00     0.172 HD
ATOM     26  O   UNL A   1      33.052  29.680  24.503  1.00  0.00    -0.269 OA
BRANCH  17  27
ATOM     27  C   UNL A   1      32.375  24.283  24.715  1.00  0.00     0.052 A 
ATOM     28  C   UNL A   1      32.753  21.516  25.156  1.00  0.00    -0.048 A 
ATOM     29  C   UNL A   1      31.467  22.047  24.992  1.00  0.00     0.006 A 
ATOM     30  C   UNL A   1      33.850  22.379  25.071  1.00  0.00     0.006 A 
ATOM     31  C   UNL A   1      31.278  23.420  24.789  1.00  0.00     0.027 A 
ATOM     32  C   UNL A   1      33.663  23.746  24.859  1.00  0.00     0.027 A 
BRANCH  28  33
ATOM     33  C   UNL A   1      32.949  20.035  25.377  1.00  0.00     0.032 C 
ATOM     34  C   UNL A   1      34.249  19.493  24.794  1.00  0.00     0.009 C 
ENDBRANCH  28  33
ENDBRANCH  17  27
ENDBRANCH   9  16
ENDBRANCH   7   8
ENDBRANCH   6   7
ENDBRANCH   3   6
ENDBRANCH   1   2
BRANCH   1  35
ATOM     35  C   UNL A   1      34.042  33.460  33.067  1.00  0.00     0.042 C 
BRANCH  35  36
ATOM     36  C   UNL A   1      34.934  34.509  33.724  1.00  0.00     0.118 C 
BRANCH  36  37
ATOM     37  N   UNL A   1      35.308  34.183  35.090  1.00  0.00    -0.352 N 
ATOM     38  C   UNL A   1      36.511  33.773  35.614  1.00  0.00     0.251 C 
ATOM     39  H   UNL A   1      34.582  34.272  35.748  1.00  0.00     0.163 HD
ATOM     40  O   UNL A   1      36.556  33.454  36.801  1.00  0.00    -0.269 OA
BRANCH  38  41
ATOM     41  C   UNL A   1      37.734  33.678  34.781  1.00  0.00     0.039 A 
ATOM     42  C   UNL A   1      37.837  34.516  33.664  1.00  0.00     0.014 A 
ATOM     43  C   UNL A   1      38.752  32.759  35.045  1.00  0.00     0.014 A 
ATOM     44  C   UNL A   1      38.977  34.473  32.856  1.00  0.00     0.010 A 
ATOM     45  C   UNL A   1      39.921  32.765  34.279  1.00  0.00     0.010 A 
ATOM     46  C   UNL A   1      40.045  33.620  33.174  1.00  0.00    -0.014 A 
BRANCH  46  47
ATOM     47  C   UNL A   1      41.289  33.626  32.360  1.00  0.00     0.031 A 
ATOM     48  C   UNL A   1      41.556  32.542  31.349  1.00  0.00     0.074 A 
ATOM     49  C   UNL A   1      42.204  34.598  32.551  1.00  0.00     0.049 A 
ATOM     50  N   UNL A   1      42.581  32.397  30.547  1.00  0.00    -0.248 NA
ATOM     51  C   UNL A   1      40.555  31.469  31.241  1.00  0.00     0.031 C 
ATOM     52  C   UNL A   1      42.097  35.679  33.534  1.00  0.00     0.029 A 
ATOM     53  N   UNL A   1      43.403  34.836  31.926  1.00  0.00    -0.354 N 
ATOM     54  C   UNL A   1      42.357  31.214  29.851  1.00  0.00     0.074 A 
ATOM     55  C   UNL A   1      41.121  30.657  30.358  1.00  0.00     0.031 C 
ATOM     56  C   UNL A   1      43.167  36.484  33.421  1.00  0.00     0.029 A 
ATOM     57  C   UNL A   1      44.046  35.964  32.379  1.00  0.00     0.049 A 
ATOM     58  H   UNL A   1      43.768  34.254  31.221  1.00  0.00     0.167 HD
ATOM     59  C   UNL A   1      43.099  30.650  28.867  1.00  0.00     0.031 A 
ATOM     60  C   UNL A   1      45.209  36.526  31.994  1.00  0.00     0.031 A 
ATOM     61  C   UNL A   1      44.319  31.209  28.347  1.00  0.00     0.049 A 
ATOM     62  C   UNL A   1      45.995  35.903  30.875  1.00  0.00     0.074 A 
ATOM     63  C   UNL A   1      45.113  30.736  27.315  1.00  0.00     0.029 A 
ATOM     64  N   UNL A   1      44.921  32.367  28.815  1.00  0.00    -0.354 N 
ATOM     65  N   UNL A   1      45.733  34.816  30.191  1.00  0.00    -0.248 NA
ATOM     66  C   UNL A   1      47.224  36.597  30.464  1.00  0.00     0.031 C 
ATOM     67  C   UNL A   1      46.213  31.591  27.181  1.00  0.00     0.029 A 
ATOM     68  C   UNL A   1      46.081  32.620  28.100  1.00  0.00     0.049 A 
ATOM     69  H   UNL A   1      44.576  32.926  29.547  1.00  0.00     0.167 HD
ATOM     70  C   UNL A   1      46.752  34.709  29.250  1.00  0.00     0.074 A 
ATOM     71  C   UNL A   1      47.625  35.848  29.446  1.00  0.00     0.031 C 
ATOM     72  C   UNL A   1      46.944  33.754  28.307  1.00  0.00     0.031 A 
BRANCH  59  73
ATOM     73  C   UNL A   1      42.602  29.353  28.285  1.00  0.00    -0.014 A 
ATOM     74  C   UNL A   1      42.905  28.123  28.896  1.00  0.00     0.010 A 
ATOM     75  C   UNL A   1      41.797  29.364  27.131  1.00  0.00     0.010 A 
ATOM     76  C   UNL A   1      42.453  26.924  28.339  1.00  0.00     0.020 A 
ATOM     77  C   UNL A   1      41.320  28.169  26.585  1.00  0.00     0.020 A 
ATOM     78  C   UNL A   1      41.669  26.955  27.181  1.00  0.00     0.054 A 
BRANCH  78  79
ATOM     79  S   UNL A   1      41.084  25.386  26.482  1.00  0.00     0.124 S 
ATOM     80  O   UNL A   1      39.745  25.284  27.055  1.00  0.00    -0.237 OA
ATOM     81  O   UNL A   1      41.135  25.633  25.043  1.00  0.00    -0.237 OA
ATOM     82  O   UNL A   1      42.050  24.407  26.976  1.00  0.00    -0.744 OA
ENDBRANCH  78  79
ENDBRANCH  59  73
BRANCH  60  83
ATOM     83  C   UNL A   1      45.678  37.775  32.650  1.00  0.00    -0.014 A 
ATOM     84  C   UNL A   1      45.213  39.027  32.210  1.00  0.00     0.010 A 
ATOM     85  C   UNL A   1      46.577  37.718  33.729  1.00  0.00     0.010 A 
ATOM     86  C   UNL A   1      45.650  40.201  32.827  1.00  0.00     0.020 A 
ATOM     87  C   UNL A   1      46.999  38.889  34.364  1.00  0.00     0.020 A 
ATOM     88  C   UNL A   1      46.541  40.125  33.902  1.00  0.00     0.054 A 
BRANCH  88  89
ATOM     89  S   UNL A   1      47.053  41.657  34.730  1.00  0.00     0.124 S 
ATOM     90  O   UNL A   1      47.945  42.251  33.742  1.00  0.00    -0.237 OA
ATOM     91  O   UNL A   1      45.782  42.347  34.934  1.00  0.00    -0.237 OA
ATOM     92  O   UNL A   1      47.696  41.181  35.953  1.00  0.00    -0.744 OA
ENDBRANCH  88  89
ENDBRANCH  60  83
BRANCH  72  93
ATOM     93  C   UNL A   1      48.131  33.918  27.398  1.00  0.00    -0.014 A 
ATOM     94  C   UNL A   1      49.361  33.301  27.685  1.00  0.00     0.010 A 
ATOM     95  C   UNL A   1      48.005  34.686  26.225  1.00  0.00     0.010 A 
ATOM     96  C   UNL A   1      50.458  33.487  26.841  1.00  0.00     0.020 A 
ATOM     97  C   UNL A   1      49.093  34.855  25.366  1.00  0.00     0.020 A 
ATOM     98  C   UNL A   1      50.320  34.270  25.690  1.00  0.00     0.054 A 
BRANCH  98  99
ATOM     99  S   UNL A   1      51.752  34.488  24.598  1.00  0.00     0.124 S 
ATOM    100  O   UNL A   1      51.428  35.740  23.921  1.00  0.00    -0.237 OA
ATOM    101  O   UNL A   1      52.869  34.552  25.537  1.00  0.00    -0.237 OA
ATOM    102  O   UNL A   1      51.725  33.295  23.753  1.00  0.00    -0.744 OA
ENDBRANCH  98  99
ENDBRANCH  72  93
ENDBRANCH  46  47
ENDBRANCH  38  41
ENDBRANCH  36  37
ENDBRANCH  35  36
ENDBRANCH   1  35
TORSDOF 18
ENDMDL
MODEL 3
REMARK VINA RESULT:     -11.1      0.601      7.710
REMARK SMILES CCc1ccc(N2C(=O)/C(=C/c3cc(Cl)c(OCC(=O)NCCCNC(=O)c4ccc(-c5c6nc(c(-c7ccc(S(=O)(=O)[O-])cc7)c7ccc([nH]7)c(-c7ccc(S(=O)(=O)[O-])cc7)c7nc(c(-c8ccc(S(=O)(=O)[O-])cc8)c8ccc5[nH]8)C=C7)C=C6)cc4)c(Cl)c3)C(=O)NC2=S)cc1
REMARK SMILES IDX 22 1 21 2 19 3 20 4 18 6 17 7 16 8 12 9 13 10 90 11 14 12
REMARK SMILES IDX 88 13 15 14 89 15 11 16 7 17 8 18 94 19 9 20 10 21 93 22
REMARK SMILES IDX 95 23 91 24 92 26 6 27 3 28 4 29 97 30 5 31 96 32 2 33 1 34
REMARK SMILES IDX 23 35 24 36 25 37 26 38 27 40 28 41 29 42 87 43 30 44 86 45
REMARK SMILES IDX 31 46 32 47 33 48 80 49 34 50 85 51 79 52 81 53 35 54 84 55
REMARK SMILES IDX 78 56 77 57 36 59 66 60 47 61 65 62 48 63 51 64 64 65 82 66
REMARK SMILES IDX 49 67 50 68 63 70 83 71 52 72 37 73 38 74 46 75 39 76 45 77
REMARK SMILES IDX 40 78 41 79 42 80 43 81 44 82 67 83 68 84 76 85 69 86 75 87
REMARK SMILES IDX 70 88 71 89 72 90 73 91 74 92 53 93 54 94 62 95 55 96 61 97
REMARK SMILES IDX 56 98 57 99 58 100 59 101 60 102
REMARK H PARENT 21 5 93 25 25 39 81 58 51 69
REMARK Flexibility Score: inf
ROOT
ATOM      1  C   UNL A   1      39.792  21.153  26.313  1.00  0.00     0.117 C 
ENDROOT
BRANCH   1   2
ATOM      2  N   UNL A   1      38.972  22.341  26.174  1.00  0.00    -0.353 N 
ATOM      3  C   UNL A   1      37.636  22.444  25.919  1.00  0.00     0.257 C 
ATOM      4  O   UNL A   1      37.132  23.569  25.931  1.00  0.00    -0.271 OA
ATOM      5  H   UNL A   1      39.448  23.196  26.277  1.00  0.00     0.163 HD
BRANCH   3   6
ATOM      6  C   UNL A   1      36.792  21.181  25.693  1.00  0.00     0.329 C 
BRANCH   6   7
ATOM      7  O   UNL A   1      35.880  21.094  24.613  1.00  0.00    -0.481 OA
BRANCH   7   8
ATOM      8  C   UNL A   1      34.750  21.868  24.610  1.00  0.00     0.157 A 
ATOM      9  C   UNL A   1      32.548  23.634  24.373  1.00  0.00    -0.021 A 
ATOM     10  C   UNL A   1      33.702  23.848  23.621  1.00  0.00     0.032 A 
ATOM     11  C   UNL A   1      32.472  22.514  25.199  1.00  0.00     0.032 A 
ATOM     12  C   UNL A   1      34.782  22.968  23.733  1.00  0.00     0.085 A 
ATOM     13  C   UNL A   1      33.554  21.623  25.304  1.00  0.00     0.085 A 
ATOM     14  Cl  UNL A   1      36.155  23.271  22.716  1.00  0.00    -0.080 Cl
ATOM     15  Cl  UNL A   1      33.239  20.181  26.205  1.00  0.00    -0.080 Cl
BRANCH   9  16
ATOM     16  C   UNL A   1      31.432  24.570  24.240  1.00  0.00     0.028 C 
ATOM     17  N   UNL A   1      30.536  28.005  24.410  1.00  0.00    -0.253 N 
ATOM     18  C   UNL A   1      30.220  26.642  24.366  1.00  0.00     0.270 C 
ATOM     19  C   UNL A   1      31.406  28.532  25.369  1.00  0.00     0.187 C 
ATOM     20  O   UNL A   1      29.187  26.146  23.915  1.00  0.00    -0.268 OA
ATOM     21  C   UNL A   1      31.312  25.761  24.860  1.00  0.00     0.106 C 
ATOM     22  N   UNL A   1      32.159  27.626  26.074  1.00  0.00    -0.298 N 
ATOM     23  S   UNL A   1      31.595  30.140  25.816  1.00  0.00    -0.040 S 
ATOM     24  C   UNL A   1      32.258  26.281  25.863  1.00  0.00     0.263 C 
ATOM     25  H   UNL A   1      32.691  27.989  26.819  1.00  0.00     0.172 HD
ATOM     26  O   UNL A   1      33.077  25.602  26.469  1.00  0.00    -0.269 OA
BRANCH  17  27
ATOM     27  C   UNL A   1      29.969  28.836  23.384  1.00  0.00     0.052 A 
ATOM     28  C   UNL A   1      28.884  30.682  21.537  1.00  0.00    -0.048 A 
ATOM     29  C   UNL A   1      30.131  30.086  21.308  1.00  0.00     0.006 A 
ATOM     30  C   UNL A   1      28.174  30.326  22.687  1.00  0.00     0.006 A 
ATOM     31  C   UNL A   1      30.676  29.183  22.230  1.00  0.00     0.027 A 
ATOM     32  C   UNL A   1      28.711  29.419  23.602  1.00  0.00     0.027 A 
BRANCH  28  33
ATOM     33  C   UNL A   1      28.305  31.657  20.540  1.00  0.00     0.032 C 
ATOM     34  C   UNL A   1      27.716  32.910  21.177  1.00  0.00     0.009 C 
ENDBRANCH  28  33
ENDBRANCH  17  27
ENDBRANCH   9  16
ENDBRANCH   7   8
ENDBRANCH   6   7
ENDBRANCH   3   6
ENDBRANCH   1   2
BRANCH   1  35
ATOM     35  C   UNL A   1      41.187  21.461  26.843  1.00  0.00     0.042 C 
BRANCH  35  36
ATOM     36  C   UNL A   1      41.463  22.923  27.180  1.00  0.00     0.118 C 
BRANCH  36  37
ATOM     37  N   UNL A   1      42.148  23.646  26.121  1.00  0.00    -0.352 N 
ATOM     38  C   UNL A   1      42.472  24.976  26.011  1.00  0.00     0.251 C 
ATOM     39  H   UNL A   1      42.426  23.090  25.357  1.00  0.00     0.163 HD
ATOM     40  O   UNL A   1      42.967  25.376  24.959  1.00  0.00    -0.269 OA
BRANCH  38  41
ATOM     41  C   UNL A   1      42.211  25.937  27.111  1.00  0.00     0.039 A 
ATOM     42  C   UNL A   1      41.029  25.790  27.847  1.00  0.00     0.014 A 
ATOM     43  C   UNL A   1      43.074  26.996  27.403  1.00  0.00     0.014 A 
ATOM     44  C   UNL A   1      40.746  26.662  28.902  1.00  0.00     0.010 A 
ATOM     45  C   UNL A   1      42.825  27.823  28.502  1.00  0.00     0.010 A 
ATOM     46  C   UNL A   1      41.656  27.667  29.261  1.00  0.00    -0.014 A 
BRANCH  46  47
ATOM     47  C   UNL A   1      41.392  28.548  30.431  1.00  0.00     0.031 A 
ATOM     48  C   UNL A   1      40.244  29.523  30.420  1.00  0.00     0.074 A 
ATOM     49  C   UNL A   1      42.211  28.494  31.501  1.00  0.00     0.049 A 
ATOM     50  N   UNL A   1      39.863  30.357  31.355  1.00  0.00    -0.248 NA
ATOM     51  C   UNL A   1      39.435  29.587  29.193  1.00  0.00     0.031 C 
ATOM     52  C   UNL A   1      43.390  27.633  31.623  1.00  0.00     0.029 A 
ATOM     53  N   UNL A   1      42.173  29.174  32.693  1.00  0.00    -0.354 N 
ATOM     54  C   UNL A   1      38.782  31.053  30.825  1.00  0.00     0.074 A 
ATOM     55  C   UNL A   1      38.597  30.575  29.472  1.00  0.00     0.031 C 
ATOM     56  C   UNL A   1      43.942  27.811  32.835  1.00  0.00     0.029 A 
ATOM     57  C   UNL A   1      43.173  28.814  33.565  1.00  0.00     0.049 A 
ATOM     58  H   UNL A   1      41.494  29.855  32.903  1.00  0.00     0.167 HD
ATOM     59  C   UNL A   1      38.000  31.990  31.416  1.00  0.00     0.031 A 
ATOM     60  C   UNL A   1      43.440  29.234  34.817  1.00  0.00     0.031 A 
ATOM     61  C   UNL A   1      38.169  32.455  32.768  1.00  0.00     0.049 A 
ATOM     62  C   UNL A   1      42.537  30.247  35.465  1.00  0.00     0.074 A 
ATOM     63  C   UNL A   1      37.395  33.365  33.470  1.00  0.00     0.029 A 
ATOM     64  N   UNL A   1      39.178  32.045  33.625  1.00  0.00    -0.354 N 
ATOM     65  N   UNL A   1      41.484  30.848  34.966  1.00  0.00    -0.248 NA
ATOM     66  C   UNL A   1      42.849  30.620  36.851  1.00  0.00     0.031 C 
ATOM     67  C   UNL A   1      37.955  33.529  34.741  1.00  0.00     0.029 A 
ATOM     68  C   UNL A   1      39.053  32.689  34.846  1.00  0.00     0.049 A 
ATOM     69  H   UNL A   1      39.880  31.394  33.400  1.00  0.00     0.167 HD
ATOM     70  C   UNL A   1      40.992  31.653  35.988  1.00  0.00     0.074 A 
ATOM     71  C   UNL A   1      41.854  31.450  37.134  1.00  0.00     0.031 C 
ATOM     72  C   UNL A   1      39.920  32.483  35.977  1.00  0.00     0.031 A 
BRANCH  59  73
ATOM     73  C   UNL A   1      36.883  32.575  30.593  1.00  0.00    -0.014 A 
ATOM     74  C   UNL A   1      37.049  33.794  29.910  1.00  0.00     0.010 A 
ATOM     75  C   UNL A   1      35.663  31.884  30.475  1.00  0.00     0.010 A 
ATOM     76  C   UNL A   1      36.000  34.336  29.163  1.00  0.00     0.020 A 
ATOM     77  C   UNL A   1      34.619  32.410  29.707  1.00  0.00     0.020 A 
ATOM     78  C   UNL A   1      34.788  33.643  29.073  1.00  0.00     0.054 A 
BRANCH  78  79
ATOM     79  S   UNL A   1      33.445  34.362  28.087  1.00  0.00     0.124 S 
ATOM     80  O   UNL A   1      34.183  35.131  27.089  1.00  0.00    -0.237 OA
ATOM     81  O   UNL A   1      32.748  33.182  27.580  1.00  0.00    -0.237 OA
ATOM     82  O   UNL A   1      32.693  35.156  29.056  1.00  0.00    -0.744 OA
ENDBRANCH  78  79
ENDBRANCH  59  73
BRANCH  60  83
ATOM     83  C   UNL A   1      44.597  28.663  35.557  1.00  0.00    -0.014 A 
ATOM     84  C   UNL A   1      44.411  27.589  36.446  1.00  0.00     0.010 A 
ATOM     85  C   UNL A   1      45.890  29.178  35.363  1.00  0.00     0.010 A 
ATOM     86  C   UNL A   1      45.497  27.050  37.139  1.00  0.00     0.020 A 
ATOM     87  C   UNL A   1      46.982  28.625  36.038  1.00  0.00     0.020 A 
ATOM     88  C   UNL A   1      46.777  27.571  36.931  1.00  0.00     0.054 A 
BRANCH  88  89
ATOM     89  S   UNL A   1      48.185  26.819  37.795  1.00  0.00     0.124 S 
ATOM     90  O   UNL A   1      49.320  27.406  37.091  1.00  0.00    -0.237 OA
ATOM     91  O   UNL A   1      47.990  27.268  39.171  1.00  0.00    -0.237 OA
ATOM     92  O   UNL A   1      47.987  25.387  37.583  1.00  0.00    -0.744 OA
ENDBRANCH  88  89
ENDBRANCH  60  83
BRANCH  72  93
ATOM     93  C   UNL A   1      39.605  33.211  37.255  1.00  0.00    -0.014 A 
ATOM     94  C   UNL A   1      40.226  34.433  37.570  1.00  0.00     0.010 A 
ATOM     95  C   UNL A   1      38.657  32.674  38.144  1.00  0.00     0.010 A 
ATOM     96  C   UNL A   1      39.939  35.081  38.773  1.00  0.00     0.020 A 
ATOM     97  C   UNL A   1      38.349  33.330  39.337  1.00  0.00     0.020 A 
ATOM     98  C   UNL A   1      39.008  34.521  39.655  1.00  0.00     0.054 A 
BRANCH  98  99
ATOM     99  S   UNL A   1      38.636  35.385  41.206  1.00  0.00     0.124 S 
ATOM    100  O   UNL A   1      39.801  35.054  42.022  1.00  0.00    -0.237 OA
ATOM    101  O   UNL A   1      38.540  36.781  40.784  1.00  0.00    -0.237 OA
ATOM    102  O   UNL A   1      37.377  34.785  41.642  1.00  0.00    -0.744 OA
ENDBRANCH  98  99
ENDBRANCH  72  93
ENDBRANCH  46  47
ENDBRANCH  38  41
ENDBRANCH  36  37
ENDBRANCH  35  36
ENDBRANCH   1  35
TORSDOF 18
ENDMDL
