MODEL 1
REMARK VINA RESULT:     -11.5      0.000      0.000
REMARK SMILES CCc1cc(OC(F)(F)F)cc2c1O[C@H](C(F)(F)F)C(C(=O)NCCCNC(=O)c1ccc(-c3c4nc(c(-c5ccc(S(=O)(=O)[O-])cc5)c5ccc([nH]5)c(-c5ccc(S(=O)(=O)[O-])cc5)c5nc(c(-c6ccc(S(=O)(=O)[O-])cc6)c6ccc3[nH]6)C=C5)C=C4)cc1)=C2
REMARK SMILES IDX 25 1 24 2 23 3 21 4 22 5 20 7 3 8 4 9 13 10 5 11 12 12 14 13
REMARK SMILES IDX 11 14 90 15 15 16 2 17 1 18 6 19 7 20 8 21 9 22 10 23 16 24
REMARK SMILES IDX 17 25 18 26 19 27 26 28 27 29 28 30 29 32 30 33 31 34 89 35
REMARK SMILES IDX 32 36 88 37 33 38 34 39 35 40 82 41 36 42 87 43 81 44 83 45
REMARK SMILES IDX 37 46 86 47 80 48 79 49 38 51 68 52 49 53 67 54 50 55 53 56
REMARK SMILES IDX 66 57 84 58 51 59 52 60 65 62 85 63 54 64 39 65 40 66 48 67
REMARK SMILES IDX 41 68 47 69 42 70 43 71 44 72 45 73 46 74 69 75 70 76 78 77
REMARK SMILES IDX 71 78 77 79 72 80 73 81 74 82 75 83 76 84 55 85 56 86 64 87
REMARK SMILES IDX 57 88 63 89 58 90 59 91 60 92 61 93 62 94
REMARK H PARENT 23 6 27 31 83 50 53 61
REMARK Flexibility Score: inf
ROOT
ATOM      1  C   UNL A   1      32.982  27.475  26.752  1.00  0.00     0.042 C 
ENDROOT
BRANCH   1   2
ATOM      2  C   UNL A   1      31.924  27.188  25.688  1.00  0.00     0.118 C 
BRANCH   2   3
ATOM      3  N   UNL A   1      30.844  26.381  26.225  1.00  0.00    -0.352 N 
ATOM      4  C   UNL A   1      30.659  25.043  26.337  1.00  0.00     0.251 C 
ATOM      5  O   UNL A   1      29.642  24.660  26.916  1.00  0.00    -0.270 OA
ATOM      6  H   UNL A   1      30.095  26.912  26.581  1.00  0.00     0.163 HD
BRANCH   4   7
ATOM      7  C   UNL A   1      31.665  24.036  25.901  1.00  0.00     0.067 C 
ATOM      8  C   UNL A   1      33.882  20.618  24.863  1.00  0.00    -0.002 A 
ATOM      9  C   UNL A   1      35.259  20.589  25.162  1.00  0.00     0.054 A 
ATOM     10  C   UNL A   1      33.142  21.759  25.205  1.00  0.00     0.131 A 
ATOM     11  C   UNL A   1      35.883  21.669  25.790  1.00  0.00     0.130 A 
ATOM     12  C   UNL A   1      33.761  22.851  25.822  1.00  0.00     0.021 A 
ATOM     13  O   UNL A   1      31.789  21.733  24.991  1.00  0.00    -0.475 OA
ATOM     14  C   UNL A   1      35.127  22.801  26.110  1.00  0.00     0.058 A 
ATOM     15  C   UNL A   1      32.956  23.989  26.260  1.00  0.00     0.025 C 
ATOM     16  C   UNL A   1      31.129  23.027  24.898  1.00  0.00     0.314 C 
BRANCH   8  17
ATOM     17  C   UNL A   1      33.241  19.407  24.221  1.00  0.00     0.036 C 
ATOM     18  C   UNL A   1      32.839  18.323  25.212  1.00  0.00     0.009 C 
ENDBRANCH   8  17
BRANCH  11  19
ATOM     19  O   UNL A   1      37.194  21.748  26.164  1.00  0.00    -0.406 OA
BRANCH  19  20
ATOM     20  C   UNL A   1      37.925  22.904  25.795  1.00  0.00     0.573 C 
ATOM     21  F   UNL A   1      39.254  22.708  25.943  1.00  0.00    -0.132 F 
ATOM     22  F   UNL A   1      37.664  23.257  24.519  1.00  0.00    -0.132 F 
ATOM     23  F   UNL A   1      37.562  23.926  26.600  1.00  0.00    -0.132 F 
ENDBRANCH  19  20
ENDBRANCH  11  19
BRANCH  16  24
ATOM     24  C   UNL A   1      31.173  23.555  23.447  1.00  0.00     0.429 C 
ATOM     25  F   UNL A   1      31.453  22.554  22.574  1.00  0.00    -0.167 F 
ATOM     26  F   UNL A   1      30.003  24.091  23.042  1.00  0.00    -0.167 F 
ATOM     27  F   UNL A   1      32.127  24.502  23.275  1.00  0.00    -0.167 F 
ENDBRANCH  16  24
ENDBRANCH   4   7
ENDBRANCH   2   3
ENDBRANCH   1   2
BRANCH   1  28
ATOM     28  C   UNL A   1      34.037  28.478  26.295  1.00  0.00     0.118 C 
BRANCH  28  29
ATOM     29  N   UNL A   1      33.809  29.797  26.869  1.00  0.00    -0.352 N 
ATOM     30  C   UNL A   1      34.547  30.494  27.793  1.00  0.00     0.251 C 
ATOM     31  H   UNL A   1      33.002  30.259  26.545  1.00  0.00     0.163 HD
ATOM     32  O   UNL A   1      34.053  31.480  28.331  1.00  0.00    -0.269 OA
BRANCH  30  33
ATOM     33  C   UNL A   1      35.919  30.066  28.144  1.00  0.00     0.039 A 
ATOM     34  C   UNL A   1      36.930  30.193  27.186  1.00  0.00     0.014 A 
ATOM     35  C   UNL A   1      36.202  29.489  29.386  1.00  0.00     0.014 A 
ATOM     36  C   UNL A   1      38.230  29.783  27.489  1.00  0.00     0.010 A 
ATOM     37  C   UNL A   1      37.512  29.142  29.710  1.00  0.00     0.010 A 
ATOM     38  C   UNL A   1      38.537  29.276  28.761  1.00  0.00    -0.014 A 
BRANCH  38  39
ATOM     39  C   UNL A   1      39.920  28.868  29.116  1.00  0.00     0.031 A 
ATOM     40  C   UNL A   1      40.838  29.836  29.814  1.00  0.00     0.074 A 
ATOM     41  C   UNL A   1      40.363  27.644  28.767  1.00  0.00     0.049 A 
ATOM     42  N   UNL A   1      42.096  29.689  30.141  1.00  0.00    -0.248 NA
ATOM     43  C   UNL A   1      40.273  31.147  30.172  1.00  0.00     0.031 C 
ATOM     44  C   UNL A   1      39.577  26.625  28.068  1.00  0.00     0.029 A 
ATOM     45  N   UNL A   1      41.587  27.051  28.948  1.00  0.00    -0.354 N 
ATOM     46  C   UNL A   1      42.476  30.888  30.733  1.00  0.00     0.074 A 
ATOM     47  C   UNL A   1      41.330  31.770  30.674  1.00  0.00     0.031 C 
ATOM     48  C   UNL A   1      40.330  25.524  27.903  1.00  0.00     0.029 A 
ATOM     49  C   UNL A   1      41.662  25.773  28.445  1.00  0.00     0.049 A 
ATOM     50  H   UNL A   1      42.342  27.499  29.395  1.00  0.00     0.167 HD
ATOM     51  C   UNL A   1      43.664  31.220  31.295  1.00  0.00     0.031 A 
ATOM     52  C   UNL A   1      42.689  24.903  28.416  1.00  0.00     0.031 A 
ATOM     53  C   UNL A   1      44.799  30.339  31.358  1.00  0.00     0.049 A 
ATOM     54  C   UNL A   1      44.007  25.306  29.021  1.00  0.00     0.074 A 
ATOM     55  C   UNL A   1      46.038  30.570  31.929  1.00  0.00     0.029 A 
ATOM     56  N   UNL A   1      44.833  29.053  30.837  1.00  0.00    -0.354 N 
ATOM     57  N   UNL A   1      44.333  26.433  29.609  1.00  0.00    -0.248 NA
ATOM     58  C   UNL A   1      45.091  24.316  28.965  1.00  0.00     0.031 C 
ATOM     59  C   UNL A   1      46.834  29.439  31.719  1.00  0.00     0.029 A 
ATOM     60  C   UNL A   1      46.074  28.485  31.062  1.00  0.00     0.049 A 
ATOM     61  H   UNL A   1      44.084  28.613  30.375  1.00  0.00     0.167 HD
ATOM     62  C   UNL A   1      45.652  26.274  30.021  1.00  0.00     0.074 A 
ATOM     63  C   UNL A   1      46.057  24.940  29.627  1.00  0.00     0.031 C 
ATOM     64  C   UNL A   1      46.455  27.152  30.669  1.00  0.00     0.031 A 
BRANCH  51  65
ATOM     65  C   UNL A   1      43.790  32.597  31.892  1.00  0.00    -0.014 A 
ATOM     66  C   UNL A   1      43.522  32.818  33.256  1.00  0.00     0.010 A 
ATOM     67  C   UNL A   1      44.217  33.674  31.096  1.00  0.00     0.010 A 
ATOM     68  C   UNL A   1      43.638  34.099  33.802  1.00  0.00     0.020 A 
ATOM     69  C   UNL A   1      44.361  34.952  31.645  1.00  0.00     0.020 A 
ATOM     70  C   UNL A   1      44.054  35.159  32.992  1.00  0.00     0.054 A 
BRANCH  70  71
ATOM     71  S   UNL A   1      44.216  36.807  33.733  1.00  0.00     0.124 S 
ATOM     72  O   UNL A   1      42.830  37.265  33.752  1.00  0.00    -0.237 OA
ATOM     73  O   UNL A   1      44.798  36.515  35.040  1.00  0.00    -0.237 OA
ATOM     74  O   UNL A   1      45.095  37.519  32.807  1.00  0.00    -0.744 OA
ENDBRANCH  70  71
ENDBRANCH  51  65
BRANCH  52  75
ATOM     75  C   UNL A   1      42.514  23.556  27.808  1.00  0.00    -0.014 A 
ATOM     76  C   UNL A   1      42.034  22.483  28.580  1.00  0.00     0.010 A 
ATOM     77  C   UNL A   1      42.835  23.336  26.456  1.00  0.00     0.010 A 
ATOM     78  C   UNL A   1      41.907  21.209  28.021  1.00  0.00     0.020 A 
ATOM     79  C   UNL A   1      42.682  22.068  25.886  1.00  0.00     0.020 A 
ATOM     80  C   UNL A   1      42.235  21.009  26.677  1.00  0.00     0.054 A 
BRANCH  80  81
ATOM     81  S   UNL A   1      42.036  19.353  25.963  1.00  0.00     0.124 S 
ATOM     82  O   UNL A   1      42.878  19.433  24.774  1.00  0.00    -0.237 OA
ATOM     83  O   UNL A   1      42.528  18.486  27.032  1.00  0.00    -0.237 OA
ATOM     84  O   UNL A   1      40.600  19.262  25.710  1.00  0.00    -0.744 OA
ENDBRANCH  80  81
ENDBRANCH  52  75
BRANCH  64  85
ATOM     85  C   UNL A   1      47.839  26.685  31.030  1.00  0.00    -0.014 A 
ATOM     86  C   UNL A   1      48.928  26.889  30.165  1.00  0.00     0.010 A 
ATOM     87  C   UNL A   1      48.059  26.075  32.279  1.00  0.00     0.010 A 
ATOM     88  C   UNL A   1      50.208  26.463  30.529  1.00  0.00     0.020 A 
ATOM     89  C   UNL A   1      49.341  25.672  32.657  1.00  0.00     0.020 A 
ATOM     90  C   UNL A   1      50.406  25.856  31.773  1.00  0.00     0.054 A 
BRANCH  90  91
ATOM     91  S   UNL A   1      52.085  25.352  32.242  1.00  0.00     0.124 S 
ATOM     92  O   UNL A   1      52.870  25.812  31.100  1.00  0.00    -0.237 OA
ATOM     93  O   UNL A   1      52.302  26.082  33.489  1.00  0.00    -0.237 OA
ATOM     94  O   UNL A   1      51.983  23.901  32.386  1.00  0.00    -0.744 OA
ENDBRANCH  90  91
ENDBRANCH  64  85
ENDBRANCH  38  39
ENDBRANCH  30  33
ENDBRANCH  28  29
ENDBRANCH   1  28
TORSDOF 17
ENDMDL
MODEL 2
REMARK VINA RESULT:     -11.0      2.843      3.652
REMARK SMILES CCc1cc(OC(F)(F)F)cc2c1O[C@H](C(F)(F)F)C(C(=O)NCCCNC(=O)c1ccc(-c3c4nc(c(-c5ccc(S(=O)(=O)[O-])cc5)c5ccc([nH]5)c(-c5ccc(S(=O)(=O)[O-])cc5)c5nc(c(-c6ccc(S(=O)(=O)[O-])cc6)c6ccc3[nH]6)C=C5)C=C4)cc1)=C2
REMARK SMILES IDX 25 1 24 2 23 3 21 4 22 5 20 7 3 8 4 9 13 10 5 11 12 12 14 13
REMARK SMILES IDX 11 14 90 15 15 16 2 17 1 18 6 19 7 20 8 21 9 22 10 23 16 24
REMARK SMILES IDX 17 25 18 26 19 27 26 28 27 29 28 30 29 32 30 33 31 34 89 35
REMARK SMILES IDX 32 36 88 37 33 38 34 39 35 40 82 41 36 42 87 43 81 44 83 45
REMARK SMILES IDX 37 46 86 47 80 48 79 49 38 51 68 52 49 53 67 54 50 55 53 56
REMARK SMILES IDX 66 57 84 58 51 59 52 60 65 62 85 63 54 64 39 65 40 66 48 67
REMARK SMILES IDX 41 68 47 69 42 70 43 71 44 72 45 73 46 74 69 75 70 76 78 77
REMARK SMILES IDX 71 78 77 79 72 80 73 81 74 82 75 83 76 84 55 85 56 86 64 87
REMARK SMILES IDX 57 88 63 89 58 90 59 91 60 92 61 93 62 94
REMARK H PARENT 23 6 27 31 83 50 53 61
REMARK Flexibility Score: inf
ROOT
ATOM      1  C   UNL A   1      34.076  30.755  27.244  1.00  0.00     0.042 C 
ENDROOT
BRANCH   1   2
ATOM      2  C   UNL A   1      33.484  29.764  26.243  1.00  0.00     0.118 C 
BRANCH   2   3
ATOM      3  N   UNL A   1      32.418  28.985  26.845  1.00  0.00    -0.352 N 
ATOM      4  C   UNL A   1      32.028  27.693  26.709  1.00  0.00     0.251 C 
ATOM      5  O   UNL A   1      31.106  27.304  27.426  1.00  0.00    -0.270 OA
ATOM      6  H   UNL A   1      31.866  29.496  27.481  1.00  0.00     0.163 HD
BRANCH   4   7
ATOM      7  C   UNL A   1      32.725  26.714  25.831  1.00  0.00     0.067 C 
ATOM      8  C   UNL A   1      33.914  23.566  23.311  1.00  0.00    -0.002 A 
ATOM      9  C   UNL A   1      35.188  22.996  23.497  1.00  0.00     0.054 A 
ATOM     10  C   UNL A   1      33.517  24.619  24.148  1.00  0.00     0.131 A 
ATOM     11  C   UNL A   1      36.047  23.460  24.497  1.00  0.00     0.130 A 
ATOM     12  C   UNL A   1      34.375  25.099  25.143  1.00  0.00     0.021 A 
ATOM     13  O   UNL A   1      32.241  25.099  24.014  1.00  0.00    -0.475 OA
ATOM     14  C   UNL A   1      35.635  24.519  25.311  1.00  0.00     0.058 A 
ATOM     15  C   UNL A   1      33.908  26.129  26.068  1.00  0.00     0.025 C 
ATOM     16  C   UNL A   1      32.005  26.442  24.521  1.00  0.00     0.314 C 
BRANCH   8  17
ATOM     17  C   UNL A   1      33.002  23.001  22.244  1.00  0.00     0.036 C 
ATOM     18  C   UNL A   1      32.304  21.709  22.649  1.00  0.00     0.009 C 
ENDBRANCH   8  17
BRANCH  11  19
ATOM     19  O   UNL A   1      37.284  22.969  24.801  1.00  0.00    -0.406 OA
BRANCH  19  20
ATOM     20  C   UNL A   1      37.368  21.676  25.374  1.00  0.00     0.573 C 
ATOM     21  F   UNL A   1      36.281  21.407  26.131  1.00  0.00    -0.132 F 
ATOM     22  F   UNL A   1      37.495  20.730  24.421  1.00  0.00    -0.132 F 
ATOM     23  F   UNL A   1      38.455  21.622  26.173  1.00  0.00    -0.132 F 
ENDBRANCH  19  20
ENDBRANCH  11  19
BRANCH  16  24
ATOM     24  C   UNL A   1      32.329  27.496  23.438  1.00  0.00     0.429 C 
ATOM     25  F   UNL A   1      31.550  28.598  23.584  1.00  0.00    -0.167 F 
ATOM     26  F   UNL A   1      33.607  27.929  23.486  1.00  0.00    -0.167 F 
ATOM     27  F   UNL A   1      32.113  27.027  22.185  1.00  0.00    -0.167 F 
ENDBRANCH  16  24
ENDBRANCH   4   7
ENDBRANCH   2   3
ENDBRANCH   1   2
BRANCH   1  28
ATOM     28  C   UNL A   1      35.186  30.153  28.100  1.00  0.00     0.118 C 
BRANCH  28  29
ATOM     29  N   UNL A   1      35.223  30.749  29.429  1.00  0.00    -0.352 N 
ATOM     30  C   UNL A   1      36.216  30.727  30.375  1.00  0.00     0.251 C 
ATOM     31  H   UNL A   1      34.411  31.242  29.687  1.00  0.00     0.163 HD
ATOM     32  O   UNL A   1      35.956  31.074  31.523  1.00  0.00    -0.269 OA
BRANCH  30  33
ATOM     33  C   UNL A   1      37.585  30.286  30.025  1.00  0.00     0.039 A 
ATOM     34  C   UNL A   1      38.006  30.390  28.697  1.00  0.00     0.014 A 
ATOM     35  C   UNL A   1      38.431  29.721  30.984  1.00  0.00     0.014 A 
ATOM     36  C   UNL A   1      39.288  29.968  28.339  1.00  0.00     0.010 A 
ATOM     37  C   UNL A   1      39.732  29.363  30.640  1.00  0.00     0.010 A 
ATOM     38  C   UNL A   1      40.171  29.473  29.312  1.00  0.00    -0.014 A 
BRANCH  38  39
ATOM     39  C   UNL A   1      41.550  29.053  28.959  1.00  0.00     0.031 A 
ATOM     40  C   UNL A   1      42.677  30.051  28.999  1.00  0.00     0.074 A 
ATOM     41  C   UNL A   1      41.779  27.787  28.558  1.00  0.00     0.049 A 
ATOM     42  N   UNL A   1      43.931  29.892  28.659  1.00  0.00    -0.248 NA
ATOM     43  C   UNL A   1      42.347  31.409  29.460  1.00  0.00     0.031 C 
ATOM     44  C   UNL A   1      40.766  26.733  28.456  1.00  0.00     0.029 A 
ATOM     45  N   UNL A   1      42.937  27.172  28.155  1.00  0.00    -0.354 N 
ATOM     46  C   UNL A   1      44.536  31.129  28.856  1.00  0.00     0.074 A 
ATOM     47  C   UNL A   1      43.502  32.040  29.296  1.00  0.00     0.031 C 
ATOM     48  C   UNL A   1      41.352  25.597  28.045  1.00  0.00     0.029 A 
ATOM     49  C   UNL A   1      42.771  25.850  27.813  1.00  0.00     0.049 A 
ATOM     50  H   UNL A   1      43.806  27.633  28.114  1.00  0.00     0.167 HD
ATOM     51  C   UNL A   1      45.839  31.470  28.706  1.00  0.00     0.031 A 
ATOM     52  C   UNL A   1      43.659  24.946  27.358  1.00  0.00     0.031 A 
ATOM     53  C   UNL A   1      46.866  30.561  28.275  1.00  0.00     0.049 A 
ATOM     54  C   UNL A   1      45.094  25.359  27.172  1.00  0.00     0.074 A 
ATOM     55  C   UNL A   1      48.219  30.802  28.117  1.00  0.00     0.029 A 
ATOM     56  N   UNL A   1      46.655  29.231  27.939  1.00  0.00    -0.354 N 
ATOM     57  N   UNL A   1      45.652  26.524  27.399  1.00  0.00    -0.248 NA
ATOM     58  C   UNL A   1      46.020  24.331  26.675  1.00  0.00     0.031 C 
ATOM     59  C   UNL A   1      48.821  29.629  27.648  1.00  0.00     0.029 A 
ATOM     60  C   UNL A   1      47.851  28.644  27.563  1.00  0.00     0.049 A 
ATOM     61  H   UNL A   1      45.784  28.775  27.965  1.00  0.00     0.167 HD
ATOM     62  C   UNL A   1      47.001  26.360  27.103  1.00  0.00     0.074 A 
ATOM     63  C   UNL A   1      47.176  24.981  26.694  1.00  0.00     0.031 C 
ATOM     64  C   UNL A   1      48.005  27.267  27.166  1.00  0.00     0.031 A 
BRANCH  51  65
ATOM     65  C   UNL A   1      46.223  32.893  29.018  1.00  0.00    -0.014 A 
ATOM     66  C   UNL A   1      46.183  33.885  28.021  1.00  0.00     0.010 A 
ATOM     67  C   UNL A   1      46.592  33.253  30.326  1.00  0.00     0.010 A 
ATOM     68  C   UNL A   1      46.544  35.203  28.317  1.00  0.00     0.020 A 
ATOM     69  C   UNL A   1      46.927  34.575  30.633  1.00  0.00     0.020 A 
ATOM     70  C   UNL A   1      46.918  35.538  29.621  1.00  0.00     0.054 A 
BRANCH  70  71
ATOM     71  S   UNL A   1      47.361  37.260  29.982  1.00  0.00     0.124 S 
ATOM     72  O   UNL A   1      48.786  37.147  30.280  1.00  0.00    -0.237 OA
ATOM     73  O   UNL A   1      47.034  37.944  28.734  1.00  0.00    -0.237 OA
ATOM     74  O   UNL A   1      46.512  37.606  31.120  1.00  0.00    -0.744 OA
ENDBRANCH  70  71
ENDBRANCH  51  65
BRANCH  52  75
ATOM     75  C   UNL A   1      43.225  23.554  27.058  1.00  0.00    -0.014 A 
ATOM     76  C   UNL A   1      43.095  22.612  28.093  1.00  0.00     0.010 A 
ATOM     77  C   UNL A   1      42.950  23.161  25.736  1.00  0.00     0.010 A 
ATOM     78  C   UNL A   1      42.726  21.294  27.809  1.00  0.00     0.020 A 
ATOM     79  C   UNL A   1      42.554  21.850  25.451  1.00  0.00     0.020 A 
ATOM     80  C   UNL A   1      42.461  20.921  26.488  1.00  0.00     0.054 A 
BRANCH  80  81
ATOM     81  S   UNL A   1      41.956  19.212  26.144  1.00  0.00     0.124 S 
ATOM     82  O   UNL A   1      40.528  19.365  25.885  1.00  0.00    -0.237 OA
ATOM     83  O   UNL A   1      42.777  18.867  24.985  1.00  0.00    -0.237 OA
ATOM     84  O   UNL A   1      42.299  18.502  27.374  1.00  0.00    -0.744 OA
ENDBRANCH  80  81
ENDBRANCH  52  75
BRANCH  64  85
ATOM     85  C   UNL A   1      49.391  26.789  26.825  1.00  0.00    -0.014 A 
ATOM     86  C   UNL A   1      50.227  26.219  27.802  1.00  0.00     0.010 A 
ATOM     87  C   UNL A   1      49.842  26.869  25.495  1.00  0.00     0.010 A 
ATOM     88  C   UNL A   1      51.503  25.766  27.459  1.00  0.00     0.020 A 
ATOM     89  C   UNL A   1      51.107  26.392  25.144  1.00  0.00     0.020 A 
ATOM     90  C   UNL A   1      51.936  25.856  26.132  1.00  0.00     0.054 A 
BRANCH  90  91
ATOM     91  S   UNL A   1      53.579  25.220  25.703  1.00  0.00     0.124 S 
ATOM     92  O   UNL A   1      54.313  25.408  26.952  1.00  0.00    -0.237 OA
ATOM     93  O   UNL A   1      53.301  23.832  25.340  1.00  0.00    -0.237 OA
ATOM     94  O   UNL A   1      54.003  26.074  24.595  1.00  0.00    -0.744 OA
ENDBRANCH  90  91
ENDBRANCH  64  85
ENDBRANCH  38  39
ENDBRANCH  30  33
ENDBRANCH  28  29
ENDBRANCH   1  28
TORSDOF 17
ENDMDL
MODEL 3
REMARK VINA RESULT:     -10.9      2.283      2.907
REMARK SMILES CCc1cc(OC(F)(F)F)cc2c1O[C@H](C(F)(F)F)C(C(=O)NCCCNC(=O)c1ccc(-c3c4nc(c(-c5ccc(S(=O)(=O)[O-])cc5)c5ccc([nH]5)c(-c5ccc(S(=O)(=O)[O-])cc5)c5nc(c(-c6ccc(S(=O)(=O)[O-])cc6)c6ccc3[nH]6)C=C5)C=C4)cc1)=C2
REMARK SMILES IDX 25 1 24 2 23 3 21 4 22 5 20 7 3 8 4 9 13 10 5 11 12 12 14 13
REMARK SMILES IDX 11 14 90 15 15 16 2 17 1 18 6 19 7 20 8 21 9 22 10 23 16 24
REMARK SMILES IDX 17 25 18 26 19 27 26 28 27 29 28 30 29 32 30 33 31 34 89 35
REMARK SMILES IDX 32 36 88 37 33 38 34 39 35 40 82 41 36 42 87 43 81 44 83 45
REMARK SMILES IDX 37 46 86 47 80 48 79 49 38 51 68 52 49 53 67 54 50 55 53 56
REMARK SMILES IDX 66 57 84 58 51 59 52 60 65 62 85 63 54 64 39 65 40 66 48 67
REMARK SMILES IDX 41 68 47 69 42 70 43 71 44 72 45 73 46 74 69 75 70 76 78 77
REMARK SMILES IDX 71 78 77 79 72 80 73 81 74 82 75 83 76 84 55 85 56 86 64 87
REMARK SMILES IDX 57 88 63 89 58 90 59 91 60 92 61 93 62 94
REMARK H PARENT 23 6 27 31 83 50 53 61
REMARK Flexibility Score: inf
ROOT
ATOM      1  C   UNL A   1      32.803  27.613  26.818  1.00  0.00     0.042 C 
ENDROOT
BRANCH   1   2
ATOM      2  C   UNL A   1      31.895  27.089  25.706  1.00  0.00     0.118 C 
BRANCH   2   3
ATOM      3  N   UNL A   1      30.807  26.295  26.247  1.00  0.00    -0.352 N 
ATOM      4  C   UNL A   1      30.603  24.959  26.354  1.00  0.00     0.251 C 
ATOM      5  O   UNL A   1      29.585  24.589  26.937  1.00  0.00    -0.270 OA
ATOM      6  H   UNL A   1      30.068  26.836  26.610  1.00  0.00     0.163 HD
BRANCH   4   7
ATOM      7  C   UNL A   1      31.591  23.940  25.906  1.00  0.00     0.067 C 
ATOM      8  C   UNL A   1      33.745  20.497  24.818  1.00  0.00    -0.002 A 
ATOM      9  C   UNL A   1      35.117  20.433  25.127  1.00  0.00     0.054 A 
ATOM     10  C   UNL A   1      33.025  21.647  25.177  1.00  0.00     0.131 A 
ATOM     11  C   UNL A   1      35.759  21.488  25.782  1.00  0.00     0.130 A 
ATOM     12  C   UNL A   1      33.662  22.713  25.821  1.00  0.00     0.021 A 
ATOM     13  O   UNL A   1      31.674  21.654  24.952  1.00  0.00    -0.475 OA
ATOM     14  C   UNL A   1      35.025  22.628  26.118  1.00  0.00     0.058 A 
ATOM     15  C   UNL A   1      32.878  23.859  26.274  1.00  0.00     0.025 C 
ATOM     16  C   UNL A   1      31.043  22.963  24.879  1.00  0.00     0.314 C 
BRANCH   8  17
ATOM     17  C   UNL A   1      33.084  19.313  24.147  1.00  0.00     0.036 C 
ATOM     18  C   UNL A   1      32.636  18.226  25.115  1.00  0.00     0.009 C 
ENDBRANCH   8  17
BRANCH  11  19
ATOM     19  O   UNL A   1      37.068  21.531  26.168  1.00  0.00    -0.406 OA
BRANCH  19  20
ATOM     20  C   UNL A   1      37.973  22.280  25.376  1.00  0.00     0.573 C 
ATOM     21  F   UNL A   1      38.017  23.571  25.775  1.00  0.00    -0.132 F 
ATOM     22  F   UNL A   1      39.214  21.754  25.427  1.00  0.00    -0.132 F 
ATOM     23  F   UNL A   1      37.555  22.255  24.092  1.00  0.00    -0.132 F 
ENDBRANCH  19  20
ENDBRANCH  11  19
BRANCH  16  24
ATOM     24  C   UNL A   1      31.110  23.518  23.439  1.00  0.00     0.429 C 
ATOM     25  F   UNL A   1      32.056  24.487  23.336  1.00  0.00    -0.167 F 
ATOM     26  F   UNL A   1      31.432  22.580  22.523  1.00  0.00    -0.167 F 
ATOM     27  F   UNL A   1      29.937  24.073  23.048  1.00  0.00    -0.167 F 
ENDBRANCH  16  24
ENDBRANCH   4   7
ENDBRANCH   2   3
ENDBRANCH   1   2
BRANCH   1  28
ATOM     28  C   UNL A   1      33.954  28.470  26.300  1.00  0.00     0.118 C 
BRANCH  28  29
ATOM     29  N   UNL A   1      33.708  29.889  26.518  1.00  0.00    -0.352 N 
ATOM     30  C   UNL A   1      34.313  30.764  27.385  1.00  0.00     0.251 C 
ATOM     31  H   UNL A   1      33.000  30.280  25.957  1.00  0.00     0.163 HD
ATOM     32  O   UNL A   1      33.792  31.855  27.593  1.00  0.00    -0.269 OA
BRANCH  30  33
ATOM     33  C   UNL A   1      35.574  30.400  28.068  1.00  0.00     0.039 A 
ATOM     34  C   UNL A   1      35.509  29.661  29.253  1.00  0.00     0.014 A 
ATOM     35  C   UNL A   1      36.812  30.831  27.581  1.00  0.00     0.014 A 
ATOM     36  C   UNL A   1      36.685  29.318  29.924  1.00  0.00     0.010 A 
ATOM     37  C   UNL A   1      37.987  30.431  28.214  1.00  0.00     0.010 A 
ATOM     38  C   UNL A   1      37.935  29.679  29.397  1.00  0.00    -0.014 A 
BRANCH  38  39
ATOM     39  C   UNL A   1      39.198  29.293  30.076  1.00  0.00     0.031 A 
ATOM     40  C   UNL A   1      39.651  30.034  31.306  1.00  0.00     0.074 A 
ATOM     41  C   UNL A   1      39.959  28.310  29.558  1.00  0.00     0.049 A 
ATOM     42  N   UNL A   1      40.755  29.892  31.995  1.00  0.00    -0.248 NA
ATOM     43  C   UNL A   1      38.757  31.086  31.816  1.00  0.00     0.031 C 
ATOM     44  C   UNL A   1      39.639  27.533  28.358  1.00  0.00     0.029 A 
ATOM     45  N   UNL A   1      41.163  27.798  29.971  1.00  0.00    -0.354 N 
ATOM     46  C   UNL A   1      40.692  30.839  33.010  1.00  0.00     0.074 A 
ATOM     47  C   UNL A   1      39.467  31.585  32.818  1.00  0.00     0.031 C 
ATOM     48  C   UNL A   1      40.609  26.627  28.148  1.00  0.00     0.029 A 
ATOM     49  C   UNL A   1      41.638  26.785  29.171  1.00  0.00     0.049 A 
ATOM     50  H   UNL A   1      41.643  28.126  30.767  1.00  0.00     0.167 HD
ATOM     51  C   UNL A   1      41.565  31.056  34.024  1.00  0.00     0.031 A 
ATOM     52  C   UNL A   1      42.777  26.070  29.247  1.00  0.00     0.031 A 
ATOM     53  C   UNL A   1      42.778  30.309  34.217  1.00  0.00     0.049 A 
ATOM     54  C   UNL A   1      43.742  26.350  30.367  1.00  0.00     0.074 A 
ATOM     55  C   UNL A   1      43.715  30.433  35.227  1.00  0.00     0.029 A 
ATOM     56  N   UNL A   1      43.222  29.291  33.383  1.00  0.00    -0.354 N 
ATOM     57  N   UNL A   1      43.646  27.227  31.338  1.00  0.00    -0.248 NA
ATOM     58  C   UNL A   1      44.966  25.538  30.403  1.00  0.00     0.031 C 
ATOM     59  C   UNL A   1      44.745  29.517  34.984  1.00  0.00     0.029 A 
ATOM     60  C   UNL A   1      44.424  28.789  33.850  1.00  0.00     0.049 A 
ATOM     61  H   UNL A   1      42.750  28.976  32.580  1.00  0.00     0.167 HD
ATOM     62  C   UNL A   1      44.783  27.049  32.120  1.00  0.00     0.074 A 
ATOM     63  C   UNL A   1      45.543  25.974  31.515  1.00  0.00     0.031 C 
ATOM     64  C   UNL A   1      45.162  27.713  33.238  1.00  0.00     0.031 A 
BRANCH  51  65
ATOM     65  C   UNL A   1      41.229  32.145  35.008  1.00  0.00    -0.014 A 
ATOM     66  C   UNL A   1      41.559  33.486  34.739  1.00  0.00     0.010 A 
ATOM     67  C   UNL A   1      40.542  31.836  36.196  1.00  0.00     0.010 A 
ATOM     68  C   UNL A   1      41.247  34.492  35.658  1.00  0.00     0.020 A 
ATOM     69  C   UNL A   1      40.202  32.842  37.105  1.00  0.00     0.020 A 
ATOM     70  C   UNL A   1      40.573  34.162  36.838  1.00  0.00     0.054 A 
BRANCH  70  71
ATOM     71  S   UNL A   1      40.161  35.491  38.003  1.00  0.00     0.124 S 
ATOM     72  O   UNL A   1      40.023  36.639  37.111  1.00  0.00    -0.237 OA
ATOM     73  O   UNL A   1      38.921  35.014  38.608  1.00  0.00    -0.237 OA
ATOM     74  O   UNL A   1      41.314  35.534  38.901  1.00  0.00    -0.744 OA
ENDBRANCH  70  71
ENDBRANCH  51  65
BRANCH  52  75
ATOM     75  C   UNL A   1      43.063  25.008  28.245  1.00  0.00    -0.014 A 
ATOM     76  C   UNL A   1      42.796  23.660  28.541  1.00  0.00     0.010 A 
ATOM     77  C   UNL A   1      43.616  25.338  26.994  1.00  0.00     0.010 A 
ATOM     78  C   UNL A   1      43.102  22.658  27.615  1.00  0.00     0.020 A 
ATOM     79  C   UNL A   1      43.897  24.341  26.055  1.00  0.00     0.020 A 
ATOM     80  C   UNL A   1      43.654  23.005  26.380  1.00  0.00     0.054 A 
BRANCH  80  81
ATOM     81  S   UNL A   1      44.018  21.691  25.182  1.00  0.00     0.124 S 
ATOM     82  O   UNL A   1      43.982  22.417  23.916  1.00  0.00    -0.237 OA
ATOM     83  O   UNL A   1      45.336  21.228  25.611  1.00  0.00    -0.237 OA
ATOM     84  O   UNL A   1      42.933  20.734  25.387  1.00  0.00    -0.744 OA
ENDBRANCH  80  81
ENDBRANCH  52  75
BRANCH  64  85
ATOM     85  C   UNL A   1      46.436  27.270  33.906  1.00  0.00    -0.014 A 
ATOM     86  C   UNL A   1      46.425  26.309  34.933  1.00  0.00     0.010 A 
ATOM     87  C   UNL A   1      47.666  27.790  33.464  1.00  0.00     0.010 A 
ATOM     88  C   UNL A   1      47.621  25.900  35.527  1.00  0.00     0.020 A 
ATOM     89  C   UNL A   1      48.865  27.363  34.038  1.00  0.00     0.020 A 
ATOM     90  C   UNL A   1      48.834  26.430  35.076  1.00  0.00     0.054 A 
BRANCH  90  91
ATOM     91  S   UNL A   1      50.377  25.849  35.833  1.00  0.00     0.124 S 
ATOM     92  O   UNL A   1      51.085  27.103  36.077  1.00  0.00    -0.237 OA
ATOM     93  O   UNL A   1      49.906  25.150  37.026  1.00  0.00    -0.237 OA
ATOM     94  O   UNL A   1      50.964  24.991  34.806  1.00  0.00    -0.744 OA
ENDBRANCH  90  91
ENDBRANCH  64  85
ENDBRANCH  38  39
ENDBRANCH  30  33
ENDBRANCH  28  29
ENDBRANCH   1  28
TORSDOF 17
ENDMDL
