MODEL 1
REMARK VINA RESULT:     -11.0      0.000      0.000
REMARK SMILES C[C@@H](C(=O)NCCCNC(=O)c1ccc(-c2c3nc(c(-c4ccc(S(=O)(=O)[O-])cc4)c4ccc([nH]4)c(-c4ccc(S(=O)(=O)[O-])cc4)c4nc(c(-c5ccc(S(=O)(=O)[O-])cc5)c5ccc2[nH]5)C=C4)C=C3)cc1)c1ccc(-c2ccccc2)c(F)c1
REMARK SMILES IDX 7 1 6 2 5 3 3 4 4 5 2 7 1 8 72 9 73 10 84 11 74 12 82 13
REMARK SMILES IDX 75 14 83 15 76 16 77 17 81 18 78 19 80 20 79 21 8 22 9 23
REMARK SMILES IDX 10 24 11 26 12 27 13 28 71 29 14 30 70 31 15 32 16 33 17 34
REMARK SMILES IDX 64 35 18 36 69 37 63 38 65 39 19 40 68 41 62 42 61 43 20 45
REMARK SMILES IDX 50 46 31 47 49 48 32 49 35 50 48 51 66 52 33 53 34 54 47 56
REMARK SMILES IDX 67 57 36 58 21 59 22 60 30 61 23 62 29 63 24 64 25 65 26 66
REMARK SMILES IDX 27 67 28 68 51 69 52 70 60 71 53 72 59 73 54 74 55 75 56 76
REMARK SMILES IDX 57 77 58 78 37 79 38 80 46 81 39 82 45 83 40 84 41 85 42 86
REMARK SMILES IDX 43 87 44 88
REMARK H PARENT 5 6 9 25 65 44 35 55
REMARK Flexibility Score: inf
ROOT
ATOM      1  C   UNL A   1      33.049  27.789  26.893  1.00  0.00     0.042 C 
ENDROOT
BRANCH   1   2
ATOM      2  C   UNL A   1      31.655  27.807  26.265  1.00  0.00     0.117 C 
BRANCH   2   3
ATOM      3  N   UNL A   1      30.884  26.637  26.644  1.00  0.00    -0.356 N 
ATOM      4  C   UNL A   1      30.666  25.463  25.983  1.00  0.00     0.227 C 
ATOM      5  O   UNL A   1      29.832  24.700  26.476  1.00  0.00    -0.274 OA
ATOM      6  H   UNL A   1      30.446  26.701  27.524  1.00  0.00     0.163 HD
BRANCH   4   7
ATOM      7  C   UNL A   1      31.469  25.122  24.712  1.00  0.00     0.105 C 
ATOM      8  C   UNL A   1      30.682  24.121  23.857  1.00  0.00     0.023 C 
BRANCH   7   9
ATOM      9  C   UNL A   1      32.896  24.656  25.030  1.00  0.00    -0.033 A 
ATOM     10  C   UNL A   1      33.980  24.896  24.172  1.00  0.00     0.005 A 
ATOM     11  C   UNL A   1      33.160  23.967  26.226  1.00  0.00     0.044 A 
ATOM     12  C   UNL A   1      35.265  24.436  24.477  1.00  0.00     0.012 A 
ATOM     13  C   UNL A   1      34.444  23.495  26.516  1.00  0.00     0.131 A 
ATOM     14  C   UNL A   1      35.520  23.715  25.651  1.00  0.00     0.017 A 
ATOM     15  F   UNL A   1      34.625  22.815  27.661  1.00  0.00    -0.206 F 
BRANCH  14  16
ATOM     16  C   UNL A   1      36.870  23.198  25.909  1.00  0.00    -0.015 A 
ATOM     17  C   UNL A   1      37.858  24.017  26.479  1.00  0.00     0.009 A 
ATOM     18  C   UNL A   1      37.227  21.894  25.530  1.00  0.00     0.009 A 
ATOM     19  C   UNL A   1      39.165  23.556  26.649  1.00  0.00     0.001 A 
ATOM     20  C   UNL A   1      38.536  21.432  25.697  1.00  0.00     0.001 A 
ATOM     21  C   UNL A   1      39.504  22.265  26.252  1.00  0.00     0.000 A 
ENDBRANCH  14  16
ENDBRANCH   7   9
ENDBRANCH   4   7
ENDBRANCH   2   3
ENDBRANCH   1   2
BRANCH   1  22
ATOM     22  C   UNL A   1      34.042  28.754  26.253  1.00  0.00     0.118 C 
BRANCH  22  23
ATOM     23  N   UNL A   1      33.736  30.142  26.547  1.00  0.00    -0.352 N 
ATOM     24  C   UNL A   1      34.294  30.989  27.471  1.00  0.00     0.251 C 
ATOM     25  H   UNL A   1      33.019  30.537  26.000  1.00  0.00     0.163 HD
ATOM     26  O   UNL A   1      33.751  32.073  27.685  1.00  0.00    -0.269 OA
BRANCH  24  27
ATOM     27  C   UNL A   1      35.521  30.617  28.215  1.00  0.00     0.039 A 
ATOM     28  C   UNL A   1      36.727  31.232  27.859  1.00  0.00     0.014 A 
ATOM     29  C   UNL A   1      35.515  29.628  29.204  1.00  0.00     0.014 A 
ATOM     30  C   UNL A   1      37.912  30.872  28.505  1.00  0.00     0.010 A 
ATOM     31  C   UNL A   1      36.685  29.325  29.899  1.00  0.00     0.010 A 
ATOM     32  C   UNL A   1      37.901  29.922  29.538  1.00  0.00    -0.014 A 
BRANCH  32  33
ATOM     33  C   UNL A   1      39.163  29.504  30.202  1.00  0.00     0.031 A 
ATOM     34  C   UNL A   1      39.622  30.200  31.457  1.00  0.00     0.074 A 
ATOM     35  C   UNL A   1      39.912  28.520  29.668  1.00  0.00     0.049 A 
ATOM     36  N   UNL A   1      40.697  29.989  32.174  1.00  0.00    -0.248 NA
ATOM     37  C   UNL A   1      38.775  31.295  31.959  1.00  0.00     0.031 C 
ATOM     38  C   UNL A   1      39.604  27.796  28.433  1.00  0.00     0.029 A 
ATOM     39  N   UNL A   1      41.089  27.959  30.098  1.00  0.00    -0.354 N 
ATOM     40  C   UNL A   1      40.661  30.929  33.197  1.00  0.00     0.074 A 
ATOM     41  C   UNL A   1      39.490  31.747  32.977  1.00  0.00     0.031 C 
ATOM     42  C   UNL A   1      40.556  26.873  28.217  1.00  0.00     0.029 A 
ATOM     43  C   UNL A   1      41.551  26.955  29.282  1.00  0.00     0.049 A 
ATOM     44  H   UNL A   1      41.557  28.249  30.914  1.00  0.00     0.167 HD
ATOM     45  C   UNL A   1      41.511  31.085  34.243  1.00  0.00     0.031 A 
ATOM     46  C   UNL A   1      42.649  26.181  29.381  1.00  0.00     0.031 A 
ATOM     47  C   UNL A   1      42.668  30.263  34.471  1.00  0.00     0.049 A 
ATOM     48  C   UNL A   1      43.561  26.346  30.565  1.00  0.00     0.074 A 
ATOM     49  C   UNL A   1      43.574  30.317  35.516  1.00  0.00     0.029 A 
ATOM     50  N   UNL A   1      43.078  29.230  33.641  1.00  0.00    -0.354 N 
ATOM     51  N   UNL A   1      43.483  27.210  31.550  1.00  0.00    -0.248 NA
ATOM     52  C   UNL A   1      44.694  25.416  30.665  1.00  0.00     0.031 C 
ATOM     53  C   UNL A   1      44.549  29.337  35.301  1.00  0.00     0.029 A 
ATOM     54  C   UNL A   1      44.224  28.641  34.148  1.00  0.00     0.049 A 
ATOM     55  H   UNL A   1      42.623  28.957  32.813  1.00  0.00     0.167 HD
ATOM     56  C   UNL A   1      44.541  26.910  32.400  1.00  0.00     0.074 A 
ATOM     57  C   UNL A   1      45.234  25.777  31.821  1.00  0.00     0.031 C 
ATOM     58  C   UNL A   1      44.903  27.514  33.559  1.00  0.00     0.031 A 
BRANCH  45  59
ATOM     59  C   UNL A   1      41.204  32.192  35.217  1.00  0.00    -0.014 A 
ATOM     60  C   UNL A   1      40.390  31.962  36.342  1.00  0.00     0.010 A 
ATOM     61  C   UNL A   1      41.735  33.478  35.010  1.00  0.00     0.010 A 
ATOM     62  C   UNL A   1      40.066  33.008  37.209  1.00  0.00     0.020 A 
ATOM     63  C   UNL A   1      41.437  34.521  35.893  1.00  0.00     0.020 A 
ATOM     64  C   UNL A   1      40.584  34.285  36.973  1.00  0.00     0.054 A 
BRANCH  64  65
ATOM     65  S   UNL A   1      40.144  35.627  38.110  1.00  0.00     0.124 S 
ATOM     66  O   UNL A   1      39.918  36.738  37.188  1.00  0.00    -0.237 OA
ATOM     67  O   UNL A   1      38.951  35.111  38.774  1.00  0.00    -0.237 OA
ATOM     68  O   UNL A   1      41.322  35.757  38.965  1.00  0.00    -0.744 OA
ENDBRANCH  64  65
ENDBRANCH  45  59
BRANCH  46  69
ATOM     69  C   UNL A   1      42.921  25.153  28.340  1.00  0.00    -0.014 A 
ATOM     70  C   UNL A   1      43.687  25.470  27.205  1.00  0.00     0.010 A 
ATOM     71  C   UNL A   1      42.444  23.839  28.501  1.00  0.00     0.010 A 
ATOM     72  C   UNL A   1      43.963  24.494  26.243  1.00  0.00     0.020 A 
ATOM     73  C   UNL A   1      42.738  22.856  27.552  1.00  0.00     0.020 A 
ATOM     74  C   UNL A   1      43.489  23.192  26.424  1.00  0.00     0.054 A 
BRANCH  74  75
ATOM     75  S   UNL A   1      43.919  21.924  25.199  1.00  0.00     0.124 S 
ATOM     76  O   UNL A   1      45.285  21.582  25.580  1.00  0.00    -0.237 OA
ATOM     77  O   UNL A   1      42.914  20.892  25.444  1.00  0.00    -0.237 OA
ATOM     78  O   UNL A   1      43.780  22.624  23.923  1.00  0.00    -0.744 OA
ENDBRANCH  74  75
ENDBRANCH  46  69
BRANCH  58  79
ATOM     79  C   UNL A   1      46.079  26.938  34.299  1.00  0.00    -0.014 A 
ATOM     80  C   UNL A   1      47.375  27.456  34.129  1.00  0.00     0.010 A 
ATOM     81  C   UNL A   1      45.875  25.884  35.208  1.00  0.00     0.010 A 
ATOM     82  C   UNL A   1      48.455  26.900  34.824  1.00  0.00     0.020 A 
ATOM     83  C   UNL A   1      46.947  25.343  35.923  1.00  0.00     0.020 A 
ATOM     84  C   UNL A   1      48.232  25.844  35.712  1.00  0.00     0.054 A 
BRANCH  84  85
ATOM     85  S   UNL A   1      49.643  25.153  36.621  1.00  0.00     0.124 S 
ATOM     86  O   UNL A   1      49.802  26.113  37.709  1.00  0.00    -0.237 OA
ATOM     87  O   UNL A   1      49.158  23.832  37.014  1.00  0.00    -0.237 OA
ATOM     88  O   UNL A   1      50.720  25.145  35.634  1.00  0.00    -0.744 OA
ENDBRANCH  84  85
ENDBRANCH  58  79
ENDBRANCH  32  33
ENDBRANCH  24  27
ENDBRANCH  22  23
ENDBRANCH   1  22
TORSDOF 15
ENDMDL
MODEL 2
REMARK VINA RESULT:     -10.9      3.144      3.946
REMARK SMILES C[C@@H](C(=O)NCCCNC(=O)c1ccc(-c2c3nc(c(-c4ccc(S(=O)(=O)[O-])cc4)c4ccc([nH]4)c(-c4ccc(S(=O)(=O)[O-])cc4)c4nc(c(-c5ccc(S(=O)(=O)[O-])cc5)c5ccc2[nH]5)C=C4)C=C3)cc1)c1ccc(-c2ccccc2)c(F)c1
REMARK SMILES IDX 7 1 6 2 5 3 3 4 4 5 2 7 1 8 72 9 73 10 84 11 74 12 82 13
REMARK SMILES IDX 75 14 83 15 76 16 77 17 81 18 78 19 80 20 79 21 8 22 9 23
REMARK SMILES IDX 10 24 11 26 12 27 13 28 71 29 14 30 70 31 15 32 16 33 17 34
REMARK SMILES IDX 64 35 18 36 69 37 63 38 65 39 19 40 68 41 62 42 61 43 20 45
REMARK SMILES IDX 50 46 31 47 49 48 32 49 35 50 48 51 66 52 33 53 34 54 47 56
REMARK SMILES IDX 67 57 36 58 21 59 22 60 30 61 23 62 29 63 24 64 25 65 26 66
REMARK SMILES IDX 27 67 28 68 51 69 52 70 60 71 53 72 59 73 54 74 55 75 56 76
REMARK SMILES IDX 57 77 58 78 37 79 38 80 46 81 39 82 45 83 40 84 41 85 42 86
REMARK SMILES IDX 43 87 44 88
REMARK H PARENT 5 6 9 25 65 44 35 55
REMARK Flexibility Score: inf
ROOT
ATOM      1  C   UNL A   1      33.645  28.028  24.711  1.00  0.00     0.042 C 
ENDROOT
BRANCH   1   2
ATOM      2  C   UNL A   1      32.552  27.012  24.376  1.00  0.00     0.117 C 
BRANCH   2   3
ATOM      3  N   UNL A   1      32.980  26.091  23.338  1.00  0.00    -0.356 N 
ATOM      4  C   UNL A   1      33.654  24.907  23.421  1.00  0.00     0.227 C 
ATOM      5  O   UNL A   1      34.028  24.411  22.356  1.00  0.00    -0.274 OA
ATOM      6  H   UNL A   1      32.744  26.367  22.422  1.00  0.00     0.163 HD
BRANCH   4   7
ATOM      7  C   UNL A   1      33.882  24.234  24.789  1.00  0.00     0.105 C 
ATOM      8  C   UNL A   1      35.221  24.699  25.376  1.00  0.00     0.023 C 
BRANCH   7   9
ATOM      9  C   UNL A   1      33.750  22.706  24.717  1.00  0.00    -0.033 A 
ATOM     10  C   UNL A   1      32.522  22.061  24.510  1.00  0.00     0.005 A 
ATOM     11  C   UNL A   1      34.891  21.896  24.852  1.00  0.00     0.044 A 
ATOM     12  C   UNL A   1      32.430  20.666  24.474  1.00  0.00     0.012 A 
ATOM     13  C   UNL A   1      34.789  20.501  24.834  1.00  0.00     0.131 A 
ATOM     14  C   UNL A   1      33.562  19.858  24.648  1.00  0.00     0.017 A 
ATOM     15  F   UNL A   1      35.911  19.782  25.000  1.00  0.00    -0.206 F 
BRANCH  14  16
ATOM     16  C   UNL A   1      33.417  18.397  24.663  1.00  0.00    -0.015 A 
ATOM     17  C   UNL A   1      32.693  17.756  25.683  1.00  0.00     0.009 A 
ATOM     18  C   UNL A   1      34.056  17.598  23.702  1.00  0.00     0.009 A 
ATOM     19  C   UNL A   1      32.624  16.362  25.749  1.00  0.00     0.001 A 
ATOM     20  C   UNL A   1      33.990  16.203  23.769  1.00  0.00     0.001 A 
ATOM     21  C   UNL A   1      33.278  15.588  24.795  1.00  0.00     0.000 A 
ENDBRANCH  14  16
ENDBRANCH   7   9
ENDBRANCH   4   7
ENDBRANCH   2   3
ENDBRANCH   1   2
BRANCH   1  22
ATOM     22  C   UNL A   1      33.938  28.172  26.200  1.00  0.00     0.118 C 
BRANCH  22  23
ATOM     23  N   UNL A   1      33.612  29.493  26.706  1.00  0.00    -0.352 N 
ATOM     24  C   UNL A   1      34.302  30.294  27.580  1.00  0.00     0.251 C 
ATOM     25  H   UNL A   1      32.767  29.871  26.371  1.00  0.00     0.163 HD
ATOM     26  O   UNL A   1      33.747  31.300  28.024  1.00  0.00    -0.269 OA
BRANCH  24  27
ATOM     27  C   UNL A   1      35.683  29.965  28.002  1.00  0.00     0.039 A 
ATOM     28  C   UNL A   1      36.713  30.090  27.062  1.00  0.00     0.014 A 
ATOM     29  C   UNL A   1      35.970  29.472  29.278  1.00  0.00     0.014 A 
ATOM     30  C   UNL A   1      38.021  29.742  27.408  1.00  0.00     0.010 A 
ATOM     31  C   UNL A   1      37.287  29.198  29.645  1.00  0.00     0.010 A 
ATOM     32  C   UNL A   1      38.322  29.302  28.706  1.00  0.00    -0.014 A 
BRANCH  32  33
ATOM     33  C   UNL A   1      39.704  28.893  29.070  1.00  0.00     0.031 A 
ATOM     34  C   UNL A   1      40.613  29.857  29.787  1.00  0.00     0.074 A 
ATOM     35  C   UNL A   1      40.154  27.668  28.736  1.00  0.00     0.049 A 
ATOM     36  N   UNL A   1      41.852  29.690  30.178  1.00  0.00    -0.248 NA
ATOM     37  C   UNL A   1      40.067  31.192  30.082  1.00  0.00     0.031 C 
ATOM     38  C   UNL A   1      39.391  26.656  28.002  1.00  0.00     0.029 A 
ATOM     39  N   UNL A   1      41.364  27.065  28.971  1.00  0.00    -0.354 N 
ATOM     40  C   UNL A   1      42.234  30.899  30.749  1.00  0.00     0.074 A 
ATOM     41  C   UNL A   1      41.119  31.806  30.603  1.00  0.00     0.031 C 
ATOM     42  C   UNL A   1      40.144  25.552  27.867  1.00  0.00     0.029 A 
ATOM     43  C   UNL A   1      41.448  25.785  28.481  1.00  0.00     0.049 A 
ATOM     44  H   UNL A   1      42.103  27.510  29.446  1.00  0.00     0.167 HD
ATOM     45  C   UNL A   1      43.400  31.221  31.362  1.00  0.00     0.031 A 
ATOM     46  C   UNL A   1      42.457  24.893  28.526  1.00  0.00     0.031 A 
ATOM     47  C   UNL A   1      44.506  30.316  31.520  1.00  0.00     0.049 A 
ATOM     48  C   UNL A   1      43.729  25.258  29.239  1.00  0.00     0.074 A 
ATOM     49  C   UNL A   1      45.717  30.533  32.154  1.00  0.00     0.029 A 
ATOM     50  N   UNL A   1      44.533  29.014  31.043  1.00  0.00    -0.354 N 
ATOM     51  N   UNL A   1      44.054  26.390  29.816  1.00  0.00    -0.248 NA
ATOM     52  C   UNL A   1      44.760  24.215  29.331  1.00  0.00     0.031 C 
ATOM     53  C   UNL A   1      46.489  29.373  32.033  1.00  0.00     0.029 A 
ATOM     54  C   UNL A   1      45.739  28.416  31.366  1.00  0.00     0.049 A 
ATOM     55  H   UNL A   1      43.803  28.579  30.547  1.00  0.00     0.167 HD
ATOM     56  C   UNL A   1      45.316  26.188  30.362  1.00  0.00     0.074 A 
ATOM     57  C   UNL A   1      45.688  24.821  30.059  1.00  0.00     0.031 C 
ATOM     58  C   UNL A   1      46.095  27.054  31.056  1.00  0.00     0.031 A 
BRANCH  45  59
ATOM     59  C   UNL A   1      43.523  32.620  31.908  1.00  0.00    -0.014 A 
ATOM     60  C   UNL A   1      44.044  33.663  31.119  1.00  0.00     0.010 A 
ATOM     61  C   UNL A   1      43.113  32.900  33.224  1.00  0.00     0.010 A 
ATOM     62  C   UNL A   1      44.206  34.943  31.652  1.00  0.00     0.020 A 
ATOM     63  C   UNL A   1      43.246  34.188  33.752  1.00  0.00     0.020 A 
ATOM     64  C   UNL A   1      43.814  35.196  32.970  1.00  0.00     0.054 A 
BRANCH  64  65
ATOM     65  S   UNL A   1      44.040  36.865  33.641  1.00  0.00     0.124 S 
ATOM     66  O   UNL A   1      42.713  37.154  34.178  1.00  0.00    -0.237 OA
ATOM     67  O   UNL A   1      45.091  36.674  34.637  1.00  0.00    -0.237 OA
ATOM     68  O   UNL A   1      44.428  37.657  32.476  1.00  0.00    -0.744 OA
ENDBRANCH  64  65
ENDBRANCH  45  59
BRANCH  46  69
ATOM     69  C   UNL A   1      42.283  23.554  27.901  1.00  0.00    -0.014 A 
ATOM     70  C   UNL A   1      42.782  23.294  26.613  1.00  0.00     0.010 A 
ATOM     71  C   UNL A   1      41.648  22.519  28.612  1.00  0.00     0.010 A 
ATOM     72  C   UNL A   1      42.640  22.027  26.041  1.00  0.00     0.020 A 
ATOM     73  C   UNL A   1      41.526  21.244  28.052  1.00  0.00     0.020 A 
ATOM     74  C   UNL A   1      42.015  21.009  26.766  1.00  0.00     0.054 A 
BRANCH  74  75
ATOM     75  S   UNL A   1      41.905  19.352  26.033  1.00  0.00     0.124 S 
ATOM     76  O   UNL A   1      40.478  19.238  25.751  1.00  0.00    -0.237 OA
ATOM     77  O   UNL A   1      42.776  19.462  24.866  1.00  0.00    -0.237 OA
ATOM     78  O   UNL A   1      42.407  18.478  27.092  1.00  0.00    -0.744 OA
ENDBRANCH  74  75
ENDBRANCH  46  69
BRANCH  58  79
ATOM     79  C   UNL A   1      47.411  26.537  31.571  1.00  0.00    -0.014 A 
ATOM     80  C   UNL A   1      47.541  26.043  32.881  1.00  0.00     0.010 A 
ATOM     81  C   UNL A   1      48.526  26.512  30.714  1.00  0.00     0.010 A 
ATOM     82  C   UNL A   1      48.776  25.572  33.339  1.00  0.00     0.020 A 
ATOM     83  C   UNL A   1      49.755  26.020  31.160  1.00  0.00     0.020 A 
ATOM     84  C   UNL A   1      49.875  25.569  32.476  1.00  0.00     0.054 A 
BRANCH  84  85
ATOM     85  S   UNL A   1      51.462  24.932  33.083  1.00  0.00     0.124 S 
ATOM     86  O   UNL A   1      52.397  25.950  32.613  1.00  0.00    -0.237 OA
ATOM     87  O   UNL A   1      51.260  24.883  34.529  1.00  0.00    -0.237 OA
ATOM     88  O   UNL A   1      51.583  23.629  32.434  1.00  0.00    -0.744 OA
ENDBRANCH  84  85
ENDBRANCH  58  79
ENDBRANCH  32  33
ENDBRANCH  24  27
ENDBRANCH  22  23
ENDBRANCH   1  22
TORSDOF 15
ENDMDL
MODEL 3
REMARK VINA RESULT:     -10.7      3.568      9.475
REMARK SMILES C[C@@H](C(=O)NCCCNC(=O)c1ccc(-c2c3nc(c(-c4ccc(S(=O)(=O)[O-])cc4)c4ccc([nH]4)c(-c4ccc(S(=O)(=O)[O-])cc4)c4nc(c(-c5ccc(S(=O)(=O)[O-])cc5)c5ccc2[nH]5)C=C4)C=C3)cc1)c1ccc(-c2ccccc2)c(F)c1
REMARK SMILES IDX 7 1 6 2 5 3 3 4 4 5 2 7 1 8 72 9 73 10 84 11 74 12 82 13
REMARK SMILES IDX 75 14 83 15 76 16 77 17 81 18 78 19 80 20 79 21 8 22 9 23
REMARK SMILES IDX 10 24 11 26 12 27 13 28 71 29 14 30 70 31 15 32 16 33 17 34
REMARK SMILES IDX 64 35 18 36 69 37 63 38 65 39 19 40 68 41 62 42 61 43 20 45
REMARK SMILES IDX 50 46 31 47 49 48 32 49 35 50 48 51 66 52 33 53 34 54 47 56
REMARK SMILES IDX 67 57 36 58 21 59 22 60 30 61 23 62 29 63 24 64 25 65 26 66
REMARK SMILES IDX 27 67 28 68 51 69 52 70 60 71 53 72 59 73 54 74 55 75 56 76
REMARK SMILES IDX 57 77 58 78 37 79 38 80 46 81 39 82 45 83 40 84 41 85 42 86
REMARK SMILES IDX 43 87 44 88
REMARK H PARENT 5 6 9 25 65 44 35 55
REMARK Flexibility Score: inf
ROOT
ATOM      1  C   UNL A   1      35.239  22.790  26.096  1.00  0.00     0.042 C 
ENDROOT
BRANCH   1   2
ATOM      2  C   UNL A   1      34.793  21.775  25.044  1.00  0.00     0.117 C 
BRANCH   2   3
ATOM      3  N   UNL A   1      33.453  21.284  25.310  1.00  0.00    -0.356 N 
ATOM      4  C   UNL A   1      32.235  21.789  24.959  1.00  0.00     0.227 C 
ATOM      5  O   UNL A   1      31.248  21.246  25.460  1.00  0.00    -0.274 OA
ATOM      6  H   UNL A   1      33.418  20.448  25.830  1.00  0.00     0.163 HD
BRANCH   4   7
ATOM      7  C   UNL A   1      32.133  22.952  23.952  1.00  0.00     0.105 C 
ATOM      8  C   UNL A   1      33.042  22.673  22.748  1.00  0.00     0.023 C 
BRANCH   7   9
ATOM      9  C   UNL A   1      32.395  24.316  24.606  1.00  0.00    -0.033 A 
ATOM     10  C   UNL A   1      31.999  24.616  25.918  1.00  0.00     0.005 A 
ATOM     11  C   UNL A   1      33.066  25.321  23.888  1.00  0.00     0.044 A 
ATOM     12  C   UNL A   1      32.231  25.876  26.478  1.00  0.00     0.012 A 
ATOM     13  C   UNL A   1      33.278  26.585  24.447  1.00  0.00     0.131 A 
ATOM     14  C   UNL A   1      32.864  26.890  25.748  1.00  0.00     0.017 A 
ATOM     15  F   UNL A   1      33.897  27.513  23.699  1.00  0.00    -0.206 F 
BRANCH  14  16
ATOM     16  C   UNL A   1      33.037  28.220  26.347  1.00  0.00    -0.015 A 
ATOM     17  C   UNL A   1      32.011  29.178  26.281  1.00  0.00     0.009 A 
ATOM     18  C   UNL A   1      34.254  28.592  26.940  1.00  0.00     0.009 A 
ATOM     19  C   UNL A   1      32.201  30.470  26.776  1.00  0.00     0.001 A 
ATOM     20  C   UNL A   1      34.446  29.886  27.432  1.00  0.00     0.001 A 
ATOM     21  C   UNL A   1      33.421  30.824  27.345  1.00  0.00     0.000 A 
ENDBRANCH  14  16
ENDBRANCH   7   9
ENDBRANCH   4   7
ENDBRANCH   2   3
ENDBRANCH   1   2
BRANCH   1  22
ATOM     22  C   UNL A   1      36.552  23.496  25.775  1.00  0.00     0.118 C 
BRANCH  22  23
ATOM     23  N   UNL A   1      37.700  22.615  25.890  1.00  0.00    -0.352 N 
ATOM     24  C   UNL A   1      38.974  22.883  26.320  1.00  0.00     0.251 C 
ATOM     25  H   UNL A   1      37.539  21.683  25.616  1.00  0.00     0.163 HD
ATOM     26  O   UNL A   1      39.847  22.029  26.153  1.00  0.00    -0.269 OA
BRANCH  24  27
ATOM     27  C   UNL A   1      39.316  24.173  26.964  1.00  0.00     0.039 A 
ATOM     28  C   UNL A   1      40.044  25.113  26.226  1.00  0.00     0.014 A 
ATOM     29  C   UNL A   1      38.993  24.442  28.298  1.00  0.00     0.014 A 
ATOM     30  C   UNL A   1      40.427  26.320  26.816  1.00  0.00     0.010 A 
ATOM     31  C   UNL A   1      39.310  25.678  28.860  1.00  0.00     0.010 A 
ATOM     32  C   UNL A   1      40.055  26.618  28.135  1.00  0.00    -0.014 A 
BRANCH  32  33
ATOM     33  C   UNL A   1      40.492  27.883  28.783  1.00  0.00     0.031 A 
ATOM     34  C   UNL A   1      41.891  28.006  29.330  1.00  0.00     0.074 A 
ATOM     35  C   UNL A   1      39.631  28.911  28.905  1.00  0.00     0.049 A 
ATOM     36  N   UNL A   1      42.454  29.020  29.938  1.00  0.00    -0.248 NA
ATOM     37  C   UNL A   1      42.764  26.827  29.198  1.00  0.00     0.031 C 
ATOM     38  C   UNL A   1      38.236  28.904  28.459  1.00  0.00     0.029 A 
ATOM     39  N   UNL A   1      39.802  30.162  29.442  1.00  0.00    -0.354 N 
ATOM     40  C   UNL A   1      43.736  28.596  30.272  1.00  0.00     0.074 A 
ATOM     41  C   UNL A   1      43.848  27.218  29.851  1.00  0.00     0.031 C 
ATOM     42  C   UNL A   1      37.686  30.102  28.721  1.00  0.00     0.029 A 
ATOM     43  C   UNL A   1      38.679  30.950  29.374  1.00  0.00     0.049 A 
ATOM     44  H   UNL A   1      40.651  30.465  29.839  1.00  0.00     0.167 HD
ATOM     45  C   UNL A   1      44.740  29.296  30.855  1.00  0.00     0.031 A 
ATOM     46  C   UNL A   1      38.471  32.216  29.784  1.00  0.00     0.031 A 
ATOM     47  C   UNL A   1      44.635  30.671  31.262  1.00  0.00     0.049 A 
ATOM     48  C   UNL A   1      39.607  32.986  30.398  1.00  0.00     0.074 A 
ATOM     49  C   UNL A   1      45.603  31.480  31.831  1.00  0.00     0.029 A 
ATOM     50  N   UNL A   1      43.491  31.445  31.138  1.00  0.00    -0.354 N 
ATOM     51  N   UNL A   1      40.827  32.584  30.661  1.00  0.00    -0.248 NA
ATOM     52  C   UNL A   1      39.346  34.390  30.745  1.00  0.00     0.031 C 
ATOM     53  C   UNL A   1      45.035  32.734  32.079  1.00  0.00     0.029 A 
ATOM     54  C   UNL A   1      43.728  32.721  31.620  1.00  0.00     0.049 A 
ATOM     55  H   UNL A   1      42.636  31.133  30.763  1.00  0.00     0.167 HD
ATOM     56  C   UNL A   1      41.488  33.691  31.180  1.00  0.00     0.074 A 
ATOM     57  C   UNL A   1      40.535  34.783  31.180  1.00  0.00     0.031 C 
ATOM     58  C   UNL A   1      42.768  33.797  31.614  1.00  0.00     0.031 A 
BRANCH  45  59
ATOM     59  C   UNL A   1      46.042  28.570  31.078  1.00  0.00    -0.014 A 
ATOM     60  C   UNL A   1      47.075  28.626  30.124  1.00  0.00     0.010 A 
ATOM     61  C   UNL A   1      46.239  27.825  32.255  1.00  0.00     0.010 A 
ATOM     62  C   UNL A   1      48.257  27.905  30.316  1.00  0.00     0.020 A 
ATOM     63  C   UNL A   1      47.432  27.127  32.463  1.00  0.00     0.020 A 
ATOM     64  C   UNL A   1      48.423  27.151  31.481  1.00  0.00     0.054 A 
BRANCH  64  65
ATOM     65  S   UNL A   1      49.963  26.220  31.702  1.00  0.00     0.124 S 
ATOM     66  O   UNL A   1      49.768  25.097  30.788  1.00  0.00    -0.237 OA
ATOM     67  O   UNL A   1      50.985  27.183  31.302  1.00  0.00    -0.237 OA
ATOM     68  O   UNL A   1      49.958  25.876  33.122  1.00  0.00    -0.744 OA
ENDBRANCH  64  65
ENDBRANCH  45  59
BRANCH  46  69
ATOM     69  C   UNL A   1      37.135  32.842  29.590  1.00  0.00    -0.014 A 
ATOM     70  C   UNL A   1      36.252  32.994  30.673  1.00  0.00     0.010 A 
ATOM     71  C   UNL A   1      36.756  33.325  28.324  1.00  0.00     0.010 A 
ATOM     72  C   UNL A   1      35.009  33.606  30.493  1.00  0.00     0.020 A 
ATOM     73  C   UNL A   1      35.524  33.959  28.145  1.00  0.00     0.020 A 
ATOM     74  C   UNL A   1      34.654  34.088  29.230  1.00  0.00     0.054 A 
BRANCH  74  75
ATOM     75  S   UNL A   1      33.065  34.943  29.033  1.00  0.00     0.124 S 
ATOM     76  O   UNL A   1      32.534  34.915  30.391  1.00  0.00    -0.237 OA
ATOM     77  O   UNL A   1      33.471  36.257  28.538  1.00  0.00    -0.237 OA
ATOM     78  O   UNL A   1      32.352  34.115  28.062  1.00  0.00    -0.744 OA
ENDBRANCH  74  75
ENDBRANCH  46  69
BRANCH  58  79
ATOM     79  C   UNL A   1      43.227  35.149  32.088  1.00  0.00    -0.014 A 
ATOM     80  C   UNL A   1      43.095  35.536  33.433  1.00  0.00     0.010 A 
ATOM     81  C   UNL A   1      43.834  36.032  31.176  1.00  0.00     0.010 A 
ATOM     82  C   UNL A   1      43.524  36.800  33.850  1.00  0.00     0.020 A 
ATOM     83  C   UNL A   1      44.286  37.286  31.593  1.00  0.00     0.020 A 
ATOM     84  C   UNL A   1      44.112  37.668  32.925  1.00  0.00     0.054 A 
BRANCH  84  85
ATOM     85  S   UNL A   1      44.682  39.295  33.491  1.00  0.00     0.124 S 
ATOM     86  O   UNL A   1      46.090  39.038  33.781  1.00  0.00    -0.237 OA
ATOM     87  O   UNL A   1      44.424  40.149  32.333  1.00  0.00    -0.237 OA
ATOM     88  O   UNL A   1      43.845  39.568  34.656  1.00  0.00    -0.744 OA
ENDBRANCH  84  85
ENDBRANCH  58  79
ENDBRANCH  32  33
ENDBRANCH  24  27
ENDBRANCH  22  23
ENDBRANCH   1  22
TORSDOF 15
ENDMDL
