MODEL 1
REMARK VINA RESULT:     -12.5      0.000      0.000
REMARK SMILES Cc1ccnc(C(=O)c2[nH]c3ccc(C(C)(C)C)cc3c2CC(=O)NCCCNC(=O)c2ccc(-c3c4nc(c(-c5ccc(S(=O)(=O)[O-])cc5)c5ccc([nH]5)c(-c5ccc(S(=O)(=O)[O-])cc5)c5nc(c(-c6ccc(S(=O)(=O)[O-])cc6)c6ccc3[nH]6)C=C5)C=C4)cc2)c1
REMARK SMILES IDX 27 1 26 2 25 3 23 4 24 5 22 7 21 8 9 9 10 10 11 11 20 13
REMARK SMILES IDX 12 14 19 15 13 16 14 17 7 18 8 19 6 20 1 21 2 22 3 23 92 24
REMARK SMILES IDX 4 25 5 26 15 27 16 28 17 29 18 30 28 31 29 32 30 33 31 35
REMARK SMILES IDX 32 36 33 37 91 38 34 39 90 40 35 41 36 42 37 43 84 44 38 45
REMARK SMILES IDX 89 46 83 47 85 48 39 49 88 50 82 51 81 52 40 54 70 55 51 56
REMARK SMILES IDX 69 57 52 58 55 59 68 60 86 61 53 62 54 63 67 65 87 66 56 67
REMARK SMILES IDX 41 68 42 69 50 70 43 71 49 72 44 73 45 74 46 75 47 76 48 77
REMARK SMILES IDX 71 78 72 79 80 80 73 81 79 82 74 83 75 84 76 85 77 86 78 87
REMARK SMILES IDX 57 88 58 89 66 90 59 91 65 92 60 93 61 94 62 95 63 96 64 97
REMARK H PARENT 25 6 10 12 29 34 85 53 55 64
REMARK Flexibility Score: inf
ROOT
ATOM      1  C   UNL A   1      34.140  31.036  27.255  1.00  0.00     0.042 C 
ENDROOT
BRANCH   1   2
ATOM      2  C   UNL A   1      33.159  30.047  26.630  1.00  0.00     0.117 C 
BRANCH   2   3
ATOM      3  N   UNL A   1      33.720  29.275  25.538  1.00  0.00    -0.356 N 
ATOM      4  C   UNL A   1      33.611  27.941  25.268  1.00  0.00     0.224 C 
ATOM      5  O   UNL A   1      33.994  27.542  24.164  1.00  0.00    -0.275 OA
ATOM      6  H   UNL A   1      34.260  29.790  24.896  1.00  0.00     0.163 HD
BRANCH   4   7
ATOM      7  C   UNL A   1      32.918  26.997  26.236  1.00  0.00     0.138 C 
BRANCH   7   8
ATOM      8  C   UNL A   1      31.689  26.319  25.703  1.00  0.00    -0.002 A 
ATOM      9  C   UNL A   1      31.324  24.983  25.848  1.00  0.00     0.093 A 
ATOM     10  N   UNL A   1      30.096  24.823  25.247  1.00  0.00    -0.352 N 
ATOM     11  C   UNL A   1      29.707  25.982  24.624  1.00  0.00     0.046 A 
ATOM     12  H   UNL A   1      29.569  23.992  25.262  1.00  0.00     0.167 HD
ATOM     13  C   UNL A   1      30.686  26.934  24.879  1.00  0.00     0.004 A 
ATOM     14  C   UNL A   1      28.560  26.262  23.880  1.00  0.00     0.027 A 
ATOM     15  C   UNL A   1      30.508  28.231  24.347  1.00  0.00     0.015 A 
ATOM     16  C   UNL A   1      28.409  27.560  23.374  1.00  0.00     0.006 A 
ATOM     17  C   UNL A   1      29.364  28.566  23.590  1.00  0.00    -0.042 A 
BRANCH   9  18
ATOM     18  C   UNL A   1      32.005  23.912  26.556  1.00  0.00     0.227 C 
ATOM     19  O   UNL A   1      31.747  23.666  27.730  1.00  0.00    -0.285 OA
BRANCH  18  20
ATOM     20  C   UNL A   1      33.023  23.086  25.804  1.00  0.00     0.113 A 
ATOM     21  C   UNL A   1      33.612  19.586  24.457  1.00  0.00     0.044 C 
ATOM     22  C   UNL A   1      33.797  21.031  24.810  1.00  0.00    -0.047 A 
ATOM     23  C   UNL A   1      34.967  21.698  24.447  1.00  0.00     0.023 A 
ATOM     24  C   UNL A   1      32.801  21.746  25.484  1.00  0.00     0.036 A 
ATOM     25  C   UNL A   1      35.102  23.034  24.788  1.00  0.00     0.112 A 
ATOM     26  N   UNL A   1      34.166  23.734  25.459  1.00  0.00    -0.253 NA
ENDBRANCH  18  20
ENDBRANCH   9  18
BRANCH  17  27
ATOM     27  C   UNL A   1      29.193  30.001  23.060  1.00  0.00    -0.013 C 
ATOM     28  C   UNL A   1      29.992  30.157  21.748  1.00  0.00     0.016 C 
ATOM     29  C   UNL A   1      27.700  30.286  22.784  1.00  0.00     0.016 C 
ATOM     30  C   UNL A   1      29.691  31.092  24.035  1.00  0.00     0.016 C 
ENDBRANCH  17  27
ENDBRANCH   7   8
ENDBRANCH   4   7
ENDBRANCH   2   3
ENDBRANCH   1   2
BRANCH   1  31
ATOM     31  C   UNL A   1      35.222  30.409  28.131  1.00  0.00     0.118 C 
BRANCH  31  32
ATOM     32  N   UNL A   1      35.259  30.974  29.471  1.00  0.00    -0.352 N 
ATOM     33  C   UNL A   1      36.258  30.966  30.414  1.00  0.00     0.251 C 
ATOM     34  H   UNL A   1      34.435  31.436  29.747  1.00  0.00     0.163 HD
ATOM     35  O   UNL A   1      36.004  31.362  31.550  1.00  0.00    -0.269 OA
BRANCH  33  36
ATOM     36  C   UNL A   1      37.621  30.478  30.098  1.00  0.00     0.039 A 
ATOM     37  C   UNL A   1      38.096  30.638  28.790  1.00  0.00     0.014 A 
ATOM     38  C   UNL A   1      38.403  29.804  31.041  1.00  0.00     0.014 A 
ATOM     39  C   UNL A   1      39.370  30.175  28.443  1.00  0.00     0.010 A 
ATOM     40  C   UNL A   1      39.689  29.372  30.703  1.00  0.00     0.010 A 
ATOM     41  C   UNL A   1      40.184  29.556  29.403  1.00  0.00    -0.014 A 
BRANCH  41  42
ATOM     42  C   UNL A   1      41.553  29.100  29.064  1.00  0.00     0.031 A 
ATOM     43  C   UNL A   1      42.708  30.058  29.107  1.00  0.00     0.074 A 
ATOM     44  C   UNL A   1      41.756  27.828  28.670  1.00  0.00     0.049 A 
ATOM     45  N   UNL A   1      43.946  29.870  28.725  1.00  0.00    -0.248 NA
ATOM     46  C   UNL A   1      42.433  31.402  29.634  1.00  0.00     0.031 C 
ATOM     47  C   UNL A   1      40.724  26.796  28.571  1.00  0.00     0.029 A 
ATOM     48  N   UNL A   1      42.905  27.195  28.268  1.00  0.00    -0.354 N 
ATOM     49  C   UNL A   1      44.591  31.083  28.929  1.00  0.00     0.074 A 
ATOM     50  C   UNL A   1      43.610  31.995  29.481  1.00  0.00     0.031 C 
ATOM     51  C   UNL A   1      41.288  25.655  28.142  1.00  0.00     0.029 A 
ATOM     52  C   UNL A   1      42.712  25.882  27.913  1.00  0.00     0.049 A 
ATOM     53  H   UNL A   1      43.783  27.638  28.237  1.00  0.00     0.167 HD
ATOM     54  C   UNL A   1      45.879  31.414  28.672  1.00  0.00     0.031 A 
ATOM     55  C   UNL A   1      43.578  24.966  27.440  1.00  0.00     0.031 A 
ATOM     56  C   UNL A   1      46.872  30.514  28.153  1.00  0.00     0.049 A 
ATOM     57  C   UNL A   1      45.011  25.339  27.210  1.00  0.00     0.074 A 
ATOM     58  C   UNL A   1      48.203  30.766  27.869  1.00  0.00     0.029 A 
ATOM     59  N   UNL A   1      46.644  29.182  27.850  1.00  0.00    -0.354 N 
ATOM     60  N   UNL A   1      45.595  26.499  27.387  1.00  0.00    -0.248 NA
ATOM     61  C   UNL A   1      45.900  24.280  26.710  1.00  0.00     0.031 C 
ATOM     62  C   UNL A   1      48.782  29.581  27.394  1.00  0.00     0.029 A 
ATOM     63  C   UNL A   1      47.810  28.594  27.388  1.00  0.00     0.049 A 
ATOM     64  H   UNL A   1      45.781  28.720  27.949  1.00  0.00     0.167 HD
ATOM     65  C   UNL A   1      46.919  26.313  27.011  1.00  0.00     0.074 A 
ATOM     66  C   UNL A   1      47.054  24.927  26.610  1.00  0.00     0.031 C 
ATOM     67  C   UNL A   1      47.929  27.215  26.993  1.00  0.00     0.031 A 
BRANCH  54  68
ATOM     68  C   UNL A   1      46.269  32.838  28.937  1.00  0.00    -0.014 A 
ATOM     69  C   UNL A   1      46.201  33.803  27.917  1.00  0.00     0.010 A 
ATOM     70  C   UNL A   1      46.730  33.208  30.212  1.00  0.00     0.010 A 
ATOM     71  C   UNL A   1      46.628  35.111  28.157  1.00  0.00     0.020 A 
ATOM     72  C   UNL A   1      47.153  34.517  30.457  1.00  0.00     0.020 A 
ATOM     73  C   UNL A   1      47.119  35.455  29.421  1.00  0.00     0.054 A 
BRANCH  73  74
ATOM     74  S   UNL A   1      47.698  37.146  29.732  1.00  0.00     0.124 S 
ATOM     75  O   UNL A   1      46.729  37.616  30.718  1.00  0.00    -0.237 OA
ATOM     76  O   UNL A   1      49.056  36.949  30.234  1.00  0.00    -0.237 OA
ATOM     77  O   UNL A   1      47.611  37.776  28.417  1.00  0.00    -0.744 OA
ENDBRANCH  73  74
ENDBRANCH  54  68
BRANCH  55  78
ATOM     78  C   UNL A   1      43.087  23.601  27.135  1.00  0.00    -0.014 A 
ATOM     79  C   UNL A   1      42.773  23.244  25.814  1.00  0.00     0.010 A 
ATOM     80  C   UNL A   1      42.999  22.639  28.154  1.00  0.00     0.010 A 
ATOM     81  C   UNL A   1      42.391  21.934  25.510  1.00  0.00     0.020 A 
ATOM     82  C   UNL A   1      42.622  21.329  27.854  1.00  0.00     0.020 A 
ATOM     83  C   UNL A   1      42.320  20.984  26.534  1.00  0.00     0.054 A 
BRANCH  83  84
ATOM     84  S   UNL A   1      41.929  19.256  26.138  1.00  0.00     0.124 S 
ATOM     85  O   UNL A   1      42.340  18.566  27.355  1.00  0.00    -0.237 OA
ATOM     86  O   UNL A   1      40.491  19.288  25.884  1.00  0.00    -0.237 OA
ATOM     87  O   UNL A   1      42.753  19.000  24.957  1.00  0.00    -0.744 OA
ENDBRANCH  83  84
ENDBRANCH  55  78
BRANCH  67  88
ATOM     88  C   UNL A   1      49.267  26.728  26.520  1.00  0.00    -0.014 A 
ATOM     89  C   UNL A   1      49.633  26.861  25.171  1.00  0.00     0.010 A 
ATOM     90  C   UNL A   1      50.171  26.154  27.430  1.00  0.00     0.010 A 
ATOM     91  C   UNL A   1      50.881  26.411  24.730  1.00  0.00     0.020 A 
ATOM     92  C   UNL A   1      51.420  25.706  26.993  1.00  0.00     0.020 A 
ATOM     93  C   UNL A   1      51.763  25.825  25.644  1.00  0.00     0.054 A 
BRANCH  93  94
ATOM     94  S   UNL A   1      53.394  25.266  25.080  1.00  0.00     0.124 S 
ATOM     95  O   UNL A   1      53.307  23.823  25.287  1.00  0.00    -0.237 OA
ATOM     96  O   UNL A   1      53.434  25.697  23.684  1.00  0.00    -0.237 OA
ATOM     97  O   UNL A   1      54.316  25.971  25.967  1.00  0.00    -0.744 OA
ENDBRANCH  93  94
ENDBRANCH  67  88
ENDBRANCH  41  42
ENDBRANCH  33  36
ENDBRANCH  31  32
ENDBRANCH   1  31
TORSDOF 17
ENDMDL
MODEL 2
REMARK VINA RESULT:     -12.5      1.131      4.040
REMARK SMILES Cc1ccnc(C(=O)c2[nH]c3ccc(C(C)(C)C)cc3c2CC(=O)NCCCNC(=O)c2ccc(-c3c4nc(c(-c5ccc(S(=O)(=O)[O-])cc5)c5ccc([nH]5)c(-c5ccc(S(=O)(=O)[O-])cc5)c5nc(c(-c6ccc(S(=O)(=O)[O-])cc6)c6ccc3[nH]6)C=C5)C=C4)cc2)c1
REMARK SMILES IDX 27 1 26 2 25 3 23 4 24 5 22 7 21 8 9 9 10 10 11 11 20 13
REMARK SMILES IDX 12 14 19 15 13 16 14 17 7 18 8 19 6 20 1 21 2 22 3 23 92 24
REMARK SMILES IDX 4 25 5 26 15 27 16 28 17 29 18 30 28 31 29 32 30 33 31 35
REMARK SMILES IDX 32 36 33 37 91 38 34 39 90 40 35 41 36 42 37 43 84 44 38 45
REMARK SMILES IDX 89 46 83 47 85 48 39 49 88 50 82 51 81 52 40 54 70 55 51 56
REMARK SMILES IDX 69 57 52 58 55 59 68 60 86 61 53 62 54 63 67 65 87 66 56 67
REMARK SMILES IDX 41 68 42 69 50 70 43 71 49 72 44 73 45 74 46 75 47 76 48 77
REMARK SMILES IDX 71 78 72 79 80 80 73 81 79 82 74 83 75 84 76 85 77 86 78 87
REMARK SMILES IDX 57 88 58 89 66 90 59 91 65 92 60 93 61 94 62 95 63 96 64 97
REMARK H PARENT 25 6 10 12 29 34 85 53 55 64
REMARK Flexibility Score: inf
ROOT
ATOM      1  C   UNL A   1      34.298  30.784  27.594  1.00  0.00     0.042 C 
ENDROOT
BRANCH   1   2
ATOM      2  C   UNL A   1      34.464  29.309  27.235  1.00  0.00     0.117 C 
BRANCH   2   3
ATOM      3  N   UNL A   1      33.211  28.589  27.118  1.00  0.00    -0.356 N 
ATOM      4  C   UNL A   1      32.910  27.477  26.386  1.00  0.00     0.224 C 
ATOM      5  O   UNL A   1      31.834  26.913  26.607  1.00  0.00    -0.275 OA
ATOM      6  H   UNL A   1      32.466  28.957  27.647  1.00  0.00     0.163 HD
BRANCH   4   7
ATOM      7  C   UNL A   1      33.919  26.874  25.423  1.00  0.00     0.138 C 
BRANCH   7   8
ATOM      8  C   UNL A   1      33.330  26.117  24.267  1.00  0.00    -0.002 A 
ATOM      9  C   UNL A   1      32.578  26.625  23.212  1.00  0.00     0.093 A 
ATOM     10  N   UNL A   1      32.303  25.580  22.360  1.00  0.00    -0.352 N 
ATOM     11  C   UNL A   1      32.757  24.396  22.884  1.00  0.00     0.046 A 
ATOM     12  H   UNL A   1      31.844  25.669  21.494  1.00  0.00     0.167 HD
ATOM     13  C   UNL A   1      33.394  24.694  24.082  1.00  0.00     0.004 A 
ATOM     14  C   UNL A   1      32.671  23.097  22.378  1.00  0.00     0.027 A 
ATOM     15  C   UNL A   1      33.963  23.629  24.815  1.00  0.00     0.015 A 
ATOM     16  C   UNL A   1      33.255  22.066  23.127  1.00  0.00     0.006 A 
ATOM     17  C   UNL A   1      33.906  22.298  24.347  1.00  0.00    -0.042 A 
BRANCH   9  18
ATOM     18  C   UNL A   1      32.184  27.997  22.936  1.00  0.00     0.227 C 
ATOM     19  O   UNL A   1      33.025  28.871  22.749  1.00  0.00    -0.285 OA
BRANCH  18  20
ATOM     20  C   UNL A   1      30.710  28.319  22.857  1.00  0.00     0.113 A 
ATOM     21  C   UNL A   1      28.297  30.913  21.493  1.00  0.00     0.044 C 
ATOM     22  C   UNL A   1      28.857  29.705  22.180  1.00  0.00    -0.047 A 
ATOM     23  C   UNL A   1      28.005  28.795  22.805  1.00  0.00     0.023 A 
ATOM     24  C   UNL A   1      30.233  29.450  22.192  1.00  0.00     0.036 A 
ATOM     25  C   UNL A   1      28.557  27.688  23.429  1.00  0.00     0.112 A 
ATOM     26  N   UNL A   1      29.881  27.437  23.474  1.00  0.00    -0.253 NA
ENDBRANCH  18  20
ENDBRANCH   9  18
BRANCH  17  27
ATOM     27  C   UNL A   1      34.571  21.174  25.161  1.00  0.00    -0.013 C 
ATOM     28  C   UNL A   1      36.081  21.140  24.842  1.00  0.00     0.016 C 
ATOM     29  C   UNL A   1      34.376  21.431  26.672  1.00  0.00     0.016 C 
ATOM     30  C   UNL A   1      34.006  19.767  24.864  1.00  0.00     0.016 C 
ENDBRANCH  17  27
ENDBRANCH   7   8
ENDBRANCH   4   7
ENDBRANCH   2   3
ENDBRANCH   1   2
BRANCH   1  31
ATOM     31  C   UNL A   1      35.478  31.408  28.334  1.00  0.00     0.118 C 
BRANCH  31  32
ATOM     32  N   UNL A   1      35.393  31.235  29.777  1.00  0.00    -0.352 N 
ATOM     33  C   UNL A   1      36.278  30.665  30.659  1.00  0.00     0.251 C 
ATOM     34  H   UNL A   1      34.568  31.582  30.185  1.00  0.00     0.163 HD
ATOM     35  O   UNL A   1      35.919  30.475  31.820  1.00  0.00    -0.269 OA
BRANCH  33  36
ATOM     36  C   UNL A   1      37.642  30.262  30.241  1.00  0.00     0.039 A 
ATOM     37  C   UNL A   1      38.561  29.901  31.234  1.00  0.00     0.014 A 
ATOM     38  C   UNL A   1      38.049  30.306  28.904  1.00  0.00     0.014 A 
ATOM     39  C   UNL A   1      39.864  29.532  30.885  1.00  0.00     0.010 A 
ATOM     40  C   UNL A   1      39.341  29.904  28.553  1.00  0.00     0.010 A 
ATOM     41  C   UNL A   1      40.258  29.512  29.540  1.00  0.00    -0.014 A 
BRANCH  41  42
ATOM     42  C   UNL A   1      41.622  29.080  29.149  1.00  0.00     0.031 A 
ATOM     43  C   UNL A   1      42.763  30.056  29.163  1.00  0.00     0.074 A 
ATOM     44  C   UNL A   1      41.831  27.817  28.733  1.00  0.00     0.049 A 
ATOM     45  N   UNL A   1      43.990  29.892  28.737  1.00  0.00    -0.248 NA
ATOM     46  C   UNL A   1      42.486  31.390  29.716  1.00  0.00     0.031 C 
ATOM     47  C   UNL A   1      40.811  26.770  28.657  1.00  0.00     0.029 A 
ATOM     48  N   UNL A   1      42.974  27.206  28.284  1.00  0.00    -0.354 N 
ATOM     49  C   UNL A   1      44.623  31.112  28.933  1.00  0.00     0.074 A 
ATOM     50  C   UNL A   1      43.647  32.003  29.529  1.00  0.00     0.031 C 
ATOM     51  C   UNL A   1      41.377  25.642  28.195  1.00  0.00     0.029 A 
ATOM     52  C   UNL A   1      42.789  25.895  27.920  1.00  0.00     0.049 A 
ATOM     53  H   UNL A   1      43.844  27.663  28.228  1.00  0.00     0.167 HD
ATOM     54  C   UNL A   1      45.896  31.466  28.636  1.00  0.00     0.031 A 
ATOM     55  C   UNL A   1      43.652  24.997  27.407  1.00  0.00     0.031 A 
ATOM     56  C   UNL A   1      46.884  30.587  28.072  1.00  0.00     0.049 A 
ATOM     57  C   UNL A   1      45.070  25.395  27.133  1.00  0.00     0.074 A 
ATOM     58  C   UNL A   1      48.200  30.864  27.746  1.00  0.00     0.029 A 
ATOM     59  N   UNL A   1      46.666  29.255  27.762  1.00  0.00    -0.354 N 
ATOM     60  N   UNL A   1      45.642  26.562  27.303  1.00  0.00    -0.248 NA
ATOM     61  C   UNL A   1      45.957  24.356  26.590  1.00  0.00     0.031 C 
ATOM     62  C   UNL A   1      48.781  29.693  27.237  1.00  0.00     0.029 A 
ATOM     63  C   UNL A   1      47.824  28.691  27.253  1.00  0.00     0.049 A 
ATOM     64  H   UNL A   1      45.814  28.780  27.885  1.00  0.00     0.167 HD
ATOM     65  C   UNL A   1      46.956  26.402  26.880  1.00  0.00     0.074 A 
ATOM     66  C   UNL A   1      47.098  25.022  26.458  1.00  0.00     0.031 C 
ATOM     67  C   UNL A   1      47.950  27.319  26.838  1.00  0.00     0.031 A 
BRANCH  54  68
ATOM     68  C   UNL A   1      46.272  32.893  28.905  1.00  0.00    -0.014 A 
ATOM     69  C   UNL A   1      46.106  33.878  27.916  1.00  0.00     0.010 A 
ATOM     70  C   UNL A   1      46.821  33.246  30.150  1.00  0.00     0.010 A 
ATOM     71  C   UNL A   1      46.522  35.190  28.153  1.00  0.00     0.020 A 
ATOM     72  C   UNL A   1      47.232  34.559  30.393  1.00  0.00     0.020 A 
ATOM     73  C   UNL A   1      47.098  35.518  29.384  1.00  0.00     0.054 A 
BRANCH  73  74
ATOM     74  S   UNL A   1      47.661  37.216  29.690  1.00  0.00     0.124 S 
ATOM     75  O   UNL A   1      46.684  37.682  30.671  1.00  0.00    -0.237 OA
ATOM     76  O   UNL A   1      49.019  37.033  30.199  1.00  0.00    -0.237 OA
ATOM     77  O   UNL A   1      47.575  37.840  28.373  1.00  0.00    -0.744 OA
ENDBRANCH  73  74
ENDBRANCH  54  68
BRANCH  55  78
ATOM     78  C   UNL A   1      43.172  23.629  27.103  1.00  0.00    -0.014 A 
ATOM     79  C   UNL A   1      42.910  23.252  25.776  1.00  0.00     0.010 A 
ATOM     80  C   UNL A   1      43.042  22.682  28.132  1.00  0.00     0.010 A 
ATOM     81  C   UNL A   1      42.538  21.938  25.477  1.00  0.00     0.020 A 
ATOM     82  C   UNL A   1      42.676  21.367  27.837  1.00  0.00     0.020 A 
ATOM     83  C   UNL A   1      42.426  21.003  26.510  1.00  0.00     0.054 A 
BRANCH  83  84
ATOM     84  S   UNL A   1      42.049  19.270  26.124  1.00  0.00     0.124 S 
ATOM     85  O   UNL A   1      42.457  18.591  27.348  1.00  0.00    -0.237 OA
ATOM     86  O   UNL A   1      40.612  19.291  25.862  1.00  0.00    -0.237 OA
ATOM     87  O   UNL A   1      42.880  19.011  24.950  1.00  0.00    -0.744 OA
ENDBRANCH  83  84
ENDBRANCH  55  78
BRANCH  67  88
ATOM     88  C   UNL A   1      49.278  26.858  26.314  1.00  0.00    -0.014 A 
ATOM     89  C   UNL A   1      49.603  27.030  24.958  1.00  0.00     0.010 A 
ATOM     90  C   UNL A   1      50.215  26.272  27.181  1.00  0.00     0.010 A 
ATOM     91  C   UNL A   1      50.841  26.604  24.469  1.00  0.00     0.020 A 
ATOM     92  C   UNL A   1      51.455  25.847  26.697  1.00  0.00     0.020 A 
ATOM     93  C   UNL A   1      51.756  26.005  25.342  1.00  0.00     0.054 A 
BRANCH  93  94
ATOM     94  S   UNL A   1      53.376  25.477  24.716  1.00  0.00     0.124 S 
ATOM     95  O   UNL A   1      53.257  25.766  23.289  1.00  0.00    -0.237 OA
ATOM     96  O   UNL A   1      54.312  26.325  25.450  1.00  0.00    -0.237 OA
ATOM     97  O   UNL A   1      53.425  24.060  25.066  1.00  0.00    -0.744 OA
ENDBRANCH  93  94
ENDBRANCH  67  88
ENDBRANCH  41  42
ENDBRANCH  33  36
ENDBRANCH  31  32
ENDBRANCH   1  31
TORSDOF 17
ENDMDL
MODEL 3
REMARK VINA RESULT:     -12.4      5.765     11.001
REMARK SMILES Cc1ccnc(C(=O)c2[nH]c3ccc(C(C)(C)C)cc3c2CC(=O)NCCCNC(=O)c2ccc(-c3c4nc(c(-c5ccc(S(=O)(=O)[O-])cc5)c5ccc([nH]5)c(-c5ccc(S(=O)(=O)[O-])cc5)c5nc(c(-c6ccc(S(=O)(=O)[O-])cc6)c6ccc3[nH]6)C=C5)C=C4)cc2)c1
REMARK SMILES IDX 27 1 26 2 25 3 23 4 24 5 22 7 21 8 9 9 10 10 11 11 20 13
REMARK SMILES IDX 12 14 19 15 13 16 14 17 7 18 8 19 6 20 1 21 2 22 3 23 92 24
REMARK SMILES IDX 4 25 5 26 15 27 16 28 17 29 18 30 28 31 29 32 30 33 31 35
REMARK SMILES IDX 32 36 33 37 91 38 34 39 90 40 35 41 36 42 37 43 84 44 38 45
REMARK SMILES IDX 89 46 83 47 85 48 39 49 88 50 82 51 81 52 40 54 70 55 51 56
REMARK SMILES IDX 69 57 52 58 55 59 68 60 86 61 53 62 54 63 67 65 87 66 56 67
REMARK SMILES IDX 41 68 42 69 50 70 43 71 49 72 44 73 45 74 46 75 47 76 48 77
REMARK SMILES IDX 71 78 72 79 80 80 73 81 79 82 74 83 75 84 76 85 77 86 78 87
REMARK SMILES IDX 57 88 58 89 66 90 59 91 65 92 60 93 61 94 62 95 63 96 64 97
REMARK H PARENT 25 6 10 12 29 34 85 53 55 64
REMARK Flexibility Score: inf
ROOT
ATOM      1  C   UNL A   1      38.190  23.555  25.875  1.00  0.00     0.042 C 
ENDROOT
BRANCH   1   2
ATOM      2  C   UNL A   1      37.670  22.309  25.163  1.00  0.00     0.117 C 
BRANCH   2   3
ATOM      3  N   UNL A   1      36.729  22.593  24.097  1.00  0.00    -0.356 N 
ATOM      4  C   UNL A   1      35.599  23.359  24.112  1.00  0.00     0.224 C 
ATOM      5  O   UNL A   1      35.071  23.632  23.030  1.00  0.00    -0.275 OA
ATOM      6  H   UNL A   1      36.937  22.171  23.231  1.00  0.00     0.163 HD
BRANCH   4   7
ATOM      7  C   UNL A   1      35.081  23.969  25.404  1.00  0.00     0.138 C 
BRANCH   7   8
ATOM      8  C   UNL A   1      33.596  23.881  25.605  1.00  0.00    -0.002 A 
ATOM      9  C   UNL A   1      32.840  22.744  25.876  1.00  0.00     0.093 A 
ATOM     10  N   UNL A   1      31.534  23.146  26.040  1.00  0.00    -0.352 N 
ATOM     11  C   UNL A   1      31.403  24.486  25.775  1.00  0.00     0.046 A 
ATOM     12  H   UNL A   1      30.795  22.555  26.310  1.00  0.00     0.167 HD
ATOM     13  C   UNL A   1      32.671  24.974  25.488  1.00  0.00     0.004 A 
ATOM     14  C   UNL A   1      30.268  25.299  25.791  1.00  0.00     0.027 A 
ATOM     15  C   UNL A   1      32.803  26.348  25.189  1.00  0.00     0.015 A 
ATOM     16  C   UNL A   1      30.436  26.660  25.499  1.00  0.00     0.006 A 
ATOM     17  C   UNL A   1      31.688  27.214  25.194  1.00  0.00    -0.042 A 
BRANCH   9  18
ATOM     18  C   UNL A   1      33.273  21.368  26.056  1.00  0.00     0.227 C 
ATOM     19  O   UNL A   1      33.791  21.000  27.106  1.00  0.00    -0.285 OA
BRANCH  18  20
ATOM     20  C   UNL A   1      33.048  20.390  24.926  1.00  0.00     0.113 A 
ATOM     21  C   UNL A   1      33.854  16.839  23.856  1.00  0.00     0.044 C 
ATOM     22  C   UNL A   1      33.326  18.241  23.871  1.00  0.00    -0.047 A 
ATOM     23  C   UNL A   1      32.579  18.721  22.795  1.00  0.00     0.023 A 
ATOM     24  C   UNL A   1      33.547  19.087  24.963  1.00  0.00     0.036 A 
ATOM     25  C   UNL A   1      32.105  20.022  22.844  1.00  0.00     0.112 A 
ATOM     26  N   UNL A   1      32.328  20.862  23.875  1.00  0.00    -0.253 NA
ENDBRANCH  18  20
ENDBRANCH   9  18
BRANCH  17  27
ATOM     27  C   UNL A   1      31.883  28.712  24.898  1.00  0.00    -0.013 C 
ATOM     28  C   UNL A   1      30.714  29.215  24.025  1.00  0.00     0.016 C 
ATOM     29  C   UNL A   1      31.911  29.511  26.220  1.00  0.00     0.016 C 
ATOM     30  C   UNL A   1      33.193  29.035  24.144  1.00  0.00     0.016 C 
ENDBRANCH  17  27
ENDBRANCH   7   8
ENDBRANCH   4   7
ENDBRANCH   2   3
ENDBRANCH   1   2
BRANCH   1  31
ATOM     31  C   UNL A   1      39.372  23.319  26.812  1.00  0.00     0.118 C 
BRANCH  31  32
ATOM     32  N   UNL A   1      40.657  23.497  26.154  1.00  0.00    -0.352 N 
ATOM     33  C   UNL A   1      41.586  24.502  26.269  1.00  0.00     0.251 C 
ATOM     34  H   UNL A   1      40.900  22.782  25.523  1.00  0.00     0.163 HD
ATOM     35  O   UNL A   1      42.530  24.531  25.482  1.00  0.00    -0.269 OA
BRANCH  33  36
ATOM     36  C   UNL A   1      41.466  25.556  27.305  1.00  0.00     0.039 A 
ATOM     37  C   UNL A   1      40.522  25.380  28.324  1.00  0.00     0.014 A 
ATOM     38  C   UNL A   1      42.209  26.739  27.246  1.00  0.00     0.014 A 
ATOM     39  C   UNL A   1      40.362  26.358  29.311  1.00  0.00     0.010 A 
ATOM     40  C   UNL A   1      42.072  27.701  28.251  1.00  0.00     0.010 A 
ATOM     41  C   UNL A   1      41.150  27.517  29.293  1.00  0.00    -0.014 A 
BRANCH  41  42
ATOM     42  C   UNL A   1      41.025  28.544  30.356  1.00  0.00     0.031 A 
ATOM     43  C   UNL A   1      41.950  28.533  31.539  1.00  0.00     0.074 A 
ATOM     44  C   UNL A   1      40.046  29.465  30.285  1.00  0.00     0.049 A 
ATOM     45  N   UNL A   1      41.911  29.269  32.620  1.00  0.00    -0.248 NA
ATOM     46  C   UNL A   1      43.052  27.560  31.507  1.00  0.00     0.031 C 
ATOM     47  C   UNL A   1      39.072  29.584  29.199  1.00  0.00     0.029 A 
ATOM     48  N   UNL A   1      39.706  30.471  31.154  1.00  0.00    -0.354 N 
ATOM     49  C   UNL A   1      42.957  28.825  33.417  1.00  0.00     0.074 A 
ATOM     50  C   UNL A   1      43.622  27.764  32.688  1.00  0.00     0.031 C 
ATOM     51  C   UNL A   1      38.246  30.611  29.465  1.00  0.00     0.029 A 
ATOM     52  C   UNL A   1      38.618  31.203  30.748  1.00  0.00     0.049 A 
ATOM     53  H   UNL A   1      40.195  30.650  31.989  1.00  0.00     0.167 HD
ATOM     54  C   UNL A   1      43.328  29.252  34.648  1.00  0.00     0.031 A 
ATOM     55  C   UNL A   1      37.977  32.226  31.344  1.00  0.00     0.031 A 
ATOM     56  C   UNL A   1      42.699  30.322  35.372  1.00  0.00     0.049 A 
ATOM     57  C   UNL A   1      38.436  32.717  32.684  1.00  0.00     0.074 A 
ATOM     58  C   UNL A   1      43.016  30.823  36.622  1.00  0.00     0.029 A 
ATOM     59  N   UNL A   1      41.628  31.066  34.903  1.00  0.00    -0.354 N 
ATOM     60  N   UNL A   1      39.413  32.266  33.432  1.00  0.00    -0.248 NA
ATOM     61  C   UNL A   1      37.699  33.849  33.263  1.00  0.00     0.031 C 
ATOM     62  C   UNL A   1      42.135  31.875  36.910  1.00  0.00     0.029 A 
ATOM     63  C   UNL A   1      41.274  32.027  35.835  1.00  0.00     0.049 A 
ATOM     64  H   UNL A   1      41.185  30.931  34.035  1.00  0.00     0.167 HD
ATOM     65  C   UNL A   1      39.405  33.054  34.575  1.00  0.00     0.074 A 
ATOM     66  C   UNL A   1      38.333  34.018  34.416  1.00  0.00     0.031 C 
ATOM     67  C   UNL A   1      40.208  32.978  35.663  1.00  0.00     0.031 A 
BRANCH  54  68
ATOM     68  C   UNL A   1      44.470  28.522  35.292  1.00  0.00    -0.014 A 
ATOM     69  C   UNL A   1      45.795  28.952  35.101  1.00  0.00     0.010 A 
ATOM     70  C   UNL A   1      44.216  27.383  36.074  1.00  0.00     0.010 A 
ATOM     71  C   UNL A   1      46.855  28.227  35.651  1.00  0.00     0.020 A 
ATOM     72  C   UNL A   1      45.274  26.659  36.630  1.00  0.00     0.020 A 
ATOM     73  C   UNL A   1      46.588  27.075  36.397  1.00  0.00     0.054 A 
BRANCH  73  74
ATOM     74  S   UNL A   1      47.962  26.116  37.094  1.00  0.00     0.124 S 
ATOM     75  O   UNL A   1      47.332  24.819  37.327  1.00  0.00    -0.237 OA
ATOM     76  O   UNL A   1      48.964  26.142  36.031  1.00  0.00    -0.237 OA
ATOM     77  O   UNL A   1      48.317  26.865  38.296  1.00  0.00    -0.744 OA
ENDBRANCH  73  74
ENDBRANCH  54  68
BRANCH  55  78
ATOM     78  C   UNL A   1      36.810  32.839  30.667  1.00  0.00    -0.014 A 
ATOM     79  C   UNL A   1      35.507  32.460  31.028  1.00  0.00     0.010 A 
ATOM     80  C   UNL A   1      37.000  33.849  29.709  1.00  0.00     0.010 A 
ATOM     81  C   UNL A   1      34.404  33.096  30.450  1.00  0.00     0.020 A 
ATOM     82  C   UNL A   1      35.901  34.490  29.135  1.00  0.00     0.020 A 
ATOM     83  C   UNL A   1      34.609  34.109  29.509  1.00  0.00     0.054 A 
BRANCH  83  84
ATOM     84  S   UNL A   1      33.189  35.015  28.833  1.00  0.00     0.124 S 
ATOM     85  O   UNL A   1      33.825  36.204  28.277  1.00  0.00    -0.237 OA
ATOM     86  O   UNL A   1      32.630  34.082  27.857  1.00  0.00    -0.237 OA
ATOM     87  O   UNL A   1      32.355  35.238  30.012  1.00  0.00    -0.744 OA
ENDBRANCH  83  84
ENDBRANCH  55  78
BRANCH  67  88
ATOM     88  C   UNL A   1      39.954  33.963  36.765  1.00  0.00    -0.014 A 
ATOM     89  C   UNL A   1      39.109  33.626  37.836  1.00  0.00     0.010 A 
ATOM     90  C   UNL A   1      40.578  35.222  36.745  1.00  0.00     0.010 A 
ATOM     91  C   UNL A   1      38.875  34.542  38.865  1.00  0.00     0.020 A 
ATOM     92  C   UNL A   1      40.348  36.139  37.774  1.00  0.00     0.020 A 
ATOM     93  C   UNL A   1      39.489  35.798  38.822  1.00  0.00     0.054 A 
BRANCH  93  94
ATOM     94  S   UNL A   1      39.209  36.978  40.172  1.00  0.00     0.124 S 
ATOM     95  O   UNL A   1      38.543  38.078  39.479  1.00  0.00    -0.237 OA
ATOM     96  O   UNL A   1      38.371  36.228  41.105  1.00  0.00    -0.237 OA
ATOM     97  O   UNL A   1      40.558  37.266  40.651  1.00  0.00    -0.744 OA
ENDBRANCH  93  94
ENDBRANCH  67  88
ENDBRANCH  41  42
ENDBRANCH  33  36
ENDBRANCH  31  32
ENDBRANCH   1  31
TORSDOF 17
ENDMDL
