MODEL 1
REMARK VINA RESULT:     -11.0      0.000      0.000
REMARK SMILES C[C@@H](C(=O)NCCCNC(=O)c1ccc(-c2c3nc(c(-c4ccc(S(=O)(=O)[O-])cc4)c4ccc([nH]4)c(-c4ccc(S(=O)(=O)[O-])cc4)c4nc(c(-c5ccc(S(=O)(=O)[O-])cc5)c5ccc2[nH]5)C=C4)C=C3)cc1)c1ccc(-c2ccccc2)c(F)c1
REMARK SMILES IDX 7 1 6 2 5 3 3 4 4 5 2 7 1 8 72 9 73 10 84 11 74 12 82 13
REMARK SMILES IDX 75 14 83 15 76 16 77 17 81 18 78 19 80 20 79 21 8 22 9 23
REMARK SMILES IDX 10 24 11 26 12 27 13 28 71 29 14 30 70 31 15 32 16 33 17 34
REMARK SMILES IDX 64 35 18 36 69 37 63 38 65 39 19 40 68 41 62 42 61 43 20 45
REMARK SMILES IDX 50 46 31 47 49 48 32 49 35 50 48 51 66 52 33 53 34 54 47 56
REMARK SMILES IDX 67 57 36 58 21 59 22 60 30 61 23 62 29 63 24 64 25 65 26 66
REMARK SMILES IDX 27 67 28 68 51 69 52 70 60 71 53 72 59 73 54 74 55 75 56 76
REMARK SMILES IDX 57 77 58 78 37 79 38 80 46 81 39 82 45 83 40 84 41 85 42 86
REMARK SMILES IDX 43 87 44 88
REMARK H PARENT 5 6 9 25 65 44 35 55
REMARK Flexibility Score: inf
ROOT
ATOM      1  C   UNL A   1      33.345  28.087  25.420  1.00  0.00     0.042 C 
ENDROOT
BRANCH   1   2
ATOM      2  C   UNL A   1      31.907  28.514  25.129  1.00  0.00     0.117 C 
BRANCH   2   3
ATOM      3  N   UNL A   1      30.934  27.606  25.705  1.00  0.00    -0.356 N 
ATOM      4  C   UNL A   1      30.564  26.343  25.345  1.00  0.00     0.227 C 
ATOM      5  O   UNL A   1      29.705  25.808  26.047  1.00  0.00    -0.274 OA
ATOM      6  H   UNL A   1      30.458  27.962  26.490  1.00  0.00     0.163 HD
BRANCH   4   7
ATOM      7  C   UNL A   1      31.229  25.648  24.143  1.00  0.00     0.105 C 
ATOM      8  C   UNL A   1      30.347  24.546  23.551  1.00  0.00     0.023 C 
BRANCH   7   9
ATOM      9  C   UNL A   1      32.596  25.044  24.467  1.00  0.00    -0.033 A 
ATOM     10  C   UNL A   1      33.570  24.918  23.466  1.00  0.00     0.005 A 
ATOM     11  C   UNL A   1      32.884  24.533  25.741  1.00  0.00     0.044 A 
ATOM     12  C   UNL A   1      34.796  24.294  23.737  1.00  0.00     0.012 A 
ATOM     13  C   UNL A   1      34.109  23.921  26.001  1.00  0.00     0.131 A 
ATOM     14  C   UNL A   1      35.088  23.778  25.010  1.00  0.00     0.017 A 
ATOM     15  F   UNL A   1      34.328  23.456  27.242  1.00  0.00    -0.206 F 
BRANCH  14  16
ATOM     16  C   UNL A   1      36.365  23.096  25.280  1.00  0.00    -0.015 A 
ATOM     17  C   UNL A   1      37.368  23.705  26.052  1.00  0.00     0.009 A 
ATOM     18  C   UNL A   1      36.621  21.813  24.765  1.00  0.00     0.009 A 
ATOM     19  C   UNL A   1      38.580  23.055  26.304  1.00  0.00     0.001 A 
ATOM     20  C   UNL A   1      37.832  21.162  25.015  1.00  0.00     0.001 A 
ATOM     21  C   UNL A   1      38.811  21.783  25.784  1.00  0.00     0.000 A 
ENDBRANCH  14  16
ENDBRANCH   7   9
ENDBRANCH   4   7
ENDBRANCH   2   3
ENDBRANCH   1   2
BRANCH   1  22
ATOM     22  C   UNL A   1      33.810  28.309  26.858  1.00  0.00     0.118 C 
BRANCH  22  23
ATOM     23  N   UNL A   1      33.695  29.694  27.283  1.00  0.00    -0.352 N 
ATOM     24  C   UNL A   1      34.563  30.489  27.988  1.00  0.00     0.251 C 
ATOM     25  H   UNL A   1      32.855  30.135  27.022  1.00  0.00     0.163 HD
ATOM     26  O   UNL A   1      34.173  31.593  28.367  1.00  0.00    -0.269 OA
BRANCH  24  27
ATOM     27  C   UNL A   1      35.938  30.044  28.318  1.00  0.00     0.039 A 
ATOM     28  C   UNL A   1      36.921  30.147  27.327  1.00  0.00     0.014 A 
ATOM     29  C   UNL A   1      36.264  29.476  29.554  1.00  0.00     0.014 A 
ATOM     30  C   UNL A   1      38.229  29.730  27.590  1.00  0.00     0.010 A 
ATOM     31  C   UNL A   1      37.586  29.119  29.837  1.00  0.00     0.010 A 
ATOM     32  C   UNL A   1      38.581  29.239  28.857  1.00  0.00    -0.014 A 
BRANCH  32  33
ATOM     33  C   UNL A   1      39.990  28.869  29.155  1.00  0.00     0.031 A 
ATOM     34  C   UNL A   1      40.914  29.831  29.851  1.00  0.00     0.074 A 
ATOM     35  C   UNL A   1      40.448  27.658  28.775  1.00  0.00     0.049 A 
ATOM     36  N   UNL A   1      42.159  29.656  30.221  1.00  0.00    -0.248 NA
ATOM     37  C   UNL A   1      40.382  31.168  30.156  1.00  0.00     0.031 C 
ATOM     38  C   UNL A   1      39.672  26.651  28.047  1.00  0.00     0.029 A 
ATOM     39  N   UNL A   1      41.673  27.067  28.955  1.00  0.00    -0.354 N 
ATOM     40  C   UNL A   1      42.559  30.857  30.794  1.00  0.00     0.074 A 
ATOM     41  C   UNL A   1      41.441  31.769  30.682  1.00  0.00     0.031 C 
ATOM     42  C   UNL A   1      40.427  25.556  27.873  1.00  0.00     0.029 A 
ATOM     43  C   UNL A   1      41.746  25.789  28.453  1.00  0.00     0.049 A 
ATOM     44  H   UNL A   1      42.427  27.515  29.401  1.00  0.00     0.167 HD
ATOM     45  C   UNL A   1      43.743  31.170  31.377  1.00  0.00     0.031 A 
ATOM     46  C   UNL A   1      42.756  24.898  28.464  1.00  0.00     0.031 A 
ATOM     47  C   UNL A   1      44.855  30.264  31.496  1.00  0.00     0.049 A 
ATOM     48  C   UNL A   1      44.050  25.259  29.135  1.00  0.00     0.074 A 
ATOM     49  C   UNL A   1      46.075  30.472  32.117  1.00  0.00     0.029 A 
ATOM     50  N   UNL A   1      44.886  28.976  30.981  1.00  0.00    -0.354 N 
ATOM     51  N   UNL A   1      44.384  26.379  29.732  1.00  0.00    -0.248 NA
ATOM     52  C   UNL A   1      45.098  24.229  29.148  1.00  0.00     0.031 C 
ATOM     53  C   UNL A   1      46.859  29.325  31.944  1.00  0.00     0.029 A 
ATOM     54  C   UNL A   1      46.109  28.385  31.255  1.00  0.00     0.049 A 
ATOM     55  H   UNL A   1      44.148  28.545  30.494  1.00  0.00     0.167 HD
ATOM     56  C   UNL A   1      45.676  26.183  30.204  1.00  0.00     0.074 A 
ATOM     57  C   UNL A   1      46.054  24.831  29.845  1.00  0.00     0.031 C 
ATOM     58  C   UNL A   1      46.479  27.045  30.875  1.00  0.00     0.031 A 
BRANCH  45  59
ATOM     59  C   UNL A   1      43.893  32.561  31.935  1.00  0.00    -0.014 A 
ATOM     60  C   UNL A   1      44.312  33.626  31.117  1.00  0.00     0.010 A 
ATOM     61  C   UNL A   1      43.580  32.815  33.282  1.00  0.00     0.010 A 
ATOM     62  C   UNL A   1      44.456  34.911  31.647  1.00  0.00     0.020 A 
ATOM     63  C   UNL A   1      43.700  34.105  33.810  1.00  0.00     0.020 A 
ATOM     64  C   UNL A   1      44.155  35.141  32.992  1.00  0.00     0.054 A 
BRANCH  64  65
ATOM     65  S   UNL A   1      44.338  36.822  33.651  1.00  0.00     0.124 S 
ATOM     66  O   UNL A   1      42.963  37.315  33.599  1.00  0.00    -0.237 OA
ATOM     67  O   UNL A   1      44.869  36.587  34.990  1.00  0.00    -0.237 OA
ATOM     68  O   UNL A   1      45.265  37.460  32.720  1.00  0.00    -0.744 OA
ENDBRANCH  64  65
ENDBRANCH  45  59
BRANCH  46  69
ATOM     69  C   UNL A   1      42.566  23.560  27.843  1.00  0.00    -0.014 A 
ATOM     70  C   UNL A   1      42.943  23.335  26.507  1.00  0.00     0.010 A 
ATOM     71  C   UNL A   1      42.031  22.499  28.594  1.00  0.00     0.010 A 
ATOM     72  C   UNL A   1      42.776  22.073  25.929  1.00  0.00     0.020 A 
ATOM     73  C   UNL A   1      41.885  21.230  28.026  1.00  0.00     0.020 A 
ATOM     74  C   UNL A   1      42.250  21.028  26.694  1.00  0.00     0.054 A 
BRANCH  74  75
ATOM     75  S   UNL A   1      42.104  19.380  25.946  1.00  0.00     0.124 S 
ATOM     76  O   UNL A   1      42.655  18.524  26.991  1.00  0.00    -0.237 OA
ATOM     77  O   UNL A   1      40.666  19.259  25.719  1.00  0.00    -0.237 OA
ATOM     78  O   UNL A   1      42.909  19.488  24.731  1.00  0.00    -0.744 OA
ENDBRANCH  74  75
ENDBRANCH  46  69
BRANCH  58  79
ATOM     79  C   UNL A   1      47.841  26.543  31.270  1.00  0.00    -0.014 A 
ATOM     80  C   UNL A   1      48.934  26.647  30.390  1.00  0.00     0.010 A 
ATOM     81  C   UNL A   1      48.033  25.971  32.540  1.00  0.00     0.010 A 
ATOM     82  C   UNL A   1      50.186  26.145  30.757  1.00  0.00     0.020 A 
ATOM     83  C   UNL A   1      49.290  25.489  32.919  1.00  0.00     0.020 A 
ATOM     84  C   UNL A   1      50.353  25.561  32.016  1.00  0.00     0.054 A 
BRANCH  84  85
ATOM     85  S   UNL A   1      51.988  24.923  32.477  1.00  0.00     0.124 S 
ATOM     86  O   UNL A   1      52.851  25.565  31.490  1.00  0.00    -0.237 OA
ATOM     87  O   UNL A   1      52.144  25.395  33.851  1.00  0.00    -0.237 OA
ATOM     88  O   UNL A   1      51.846  23.476  32.335  1.00  0.00    -0.744 OA
ENDBRANCH  84  85
ENDBRANCH  58  79
ENDBRANCH  32  33
ENDBRANCH  24  27
ENDBRANCH  22  23
ENDBRANCH   1  22
TORSDOF 15
ENDMDL
MODEL 2
REMARK VINA RESULT:     -10.9      2.009      2.694
REMARK SMILES C[C@@H](C(=O)NCCCNC(=O)c1ccc(-c2c3nc(c(-c4ccc(S(=O)(=O)[O-])cc4)c4ccc([nH]4)c(-c4ccc(S(=O)(=O)[O-])cc4)c4nc(c(-c5ccc(S(=O)(=O)[O-])cc5)c5ccc2[nH]5)C=C4)C=C3)cc1)c1ccc(-c2ccccc2)c(F)c1
REMARK SMILES IDX 7 1 6 2 5 3 3 4 4 5 2 7 1 8 72 9 73 10 84 11 74 12 82 13
REMARK SMILES IDX 75 14 83 15 76 16 77 17 81 18 78 19 80 20 79 21 8 22 9 23
REMARK SMILES IDX 10 24 11 26 12 27 13 28 71 29 14 30 70 31 15 32 16 33 17 34
REMARK SMILES IDX 64 35 18 36 69 37 63 38 65 39 19 40 68 41 62 42 61 43 20 45
REMARK SMILES IDX 50 46 31 47 49 48 32 49 35 50 48 51 66 52 33 53 34 54 47 56
REMARK SMILES IDX 67 57 36 58 21 59 22 60 30 61 23 62 29 63 24 64 25 65 26 66
REMARK SMILES IDX 27 67 28 68 51 69 52 70 60 71 53 72 59 73 54 74 55 75 56 76
REMARK SMILES IDX 57 77 58 78 37 79 38 80 46 81 39 82 45 83 40 84 41 85 42 86
REMARK SMILES IDX 43 87 44 88
REMARK H PARENT 5 6 9 25 65 44 35 55
REMARK Flexibility Score: inf
ROOT
ATOM      1  C   UNL A   1      33.666  27.691  26.091  1.00  0.00     0.042 C 
ENDROOT
BRANCH   1   2
ATOM      2  C   UNL A   1      33.130  26.294  25.781  1.00  0.00     0.117 C 
BRANCH   2   3
ATOM      3  N   UNL A   1      33.562  25.812  24.484  1.00  0.00    -0.356 N 
ATOM      4  C   UNL A   1      34.429  24.814  24.143  1.00  0.00     0.227 C 
ATOM      5  O   UNL A   1      34.588  24.623  22.935  1.00  0.00    -0.274 OA
ATOM      6  H   UNL A   1      33.161  26.284  23.719  1.00  0.00     0.163 HD
BRANCH   4   7
ATOM      7  C   UNL A   1      35.125  23.978  25.231  1.00  0.00     0.105 C 
ATOM      8  C   UNL A   1      36.650  24.075  25.149  1.00  0.00     0.023 C 
BRANCH   7   9
ATOM      9  C   UNL A   1      34.737  22.499  25.204  1.00  0.00    -0.033 A 
ATOM     10  C   UNL A   1      35.728  21.507  25.196  1.00  0.00     0.005 A 
ATOM     11  C   UNL A   1      33.396  22.098  25.110  1.00  0.00     0.044 A 
ATOM     12  C   UNL A   1      35.383  20.152  25.094  1.00  0.00     0.012 A 
ATOM     13  C   UNL A   1      33.063  20.748  25.015  1.00  0.00     0.131 A 
ATOM     14  C   UNL A   1      34.041  19.745  24.995  1.00  0.00     0.017 A 
ATOM     15  F   UNL A   1      31.762  20.426  24.932  1.00  0.00    -0.206 F 
BRANCH  14  16
ATOM     16  C   UNL A   1      33.686  18.323  24.855  1.00  0.00    -0.015 A 
ATOM     17  C   UNL A   1      32.791  17.705  25.744  1.00  0.00     0.009 A 
ATOM     18  C   UNL A   1      34.239  17.539  23.828  1.00  0.00     0.009 A 
ATOM     19  C   UNL A   1      32.457  16.354  25.609  1.00  0.00     0.001 A 
ATOM     20  C   UNL A   1      33.908  16.188  23.692  1.00  0.00     0.001 A 
ATOM     21  C   UNL A   1      33.018  15.596  24.582  1.00  0.00     0.000 A 
ENDBRANCH  14  16
ENDBRANCH   7   9
ENDBRANCH   4   7
ENDBRANCH   2   3
ENDBRANCH   1   2
BRANCH   1  22
ATOM     22  C   UNL A   1      33.283  28.245  27.463  1.00  0.00     0.118 C 
BRANCH  22  23
ATOM     23  N   UNL A   1      33.263  29.697  27.503  1.00  0.00    -0.352 N 
ATOM     24  C   UNL A   1      34.224  30.594  27.895  1.00  0.00     0.251 C 
ATOM     25  H   UNL A   1      32.422  30.104  27.196  1.00  0.00     0.163 HD
ATOM     26  O   UNL A   1      33.915  31.782  27.988  1.00  0.00    -0.269 OA
BRANCH  24  27
ATOM     27  C   UNL A   1      35.604  30.168  28.228  1.00  0.00     0.039 A 
ATOM     28  C   UNL A   1      36.567  30.197  27.212  1.00  0.00     0.014 A 
ATOM     29  C   UNL A   1      35.953  29.687  29.494  1.00  0.00     0.014 A 
ATOM     30  C   UNL A   1      37.878  29.794  27.477  1.00  0.00     0.010 A 
ATOM     31  C   UNL A   1      37.280  29.345  29.774  1.00  0.00     0.010 A 
ATOM     32  C   UNL A   1      38.255  29.391  28.768  1.00  0.00    -0.014 A 
BRANCH  32  33
ATOM     33  C   UNL A   1      39.669  29.037  29.062  1.00  0.00     0.031 A 
ATOM     34  C   UNL A   1      40.593  30.021  29.727  1.00  0.00     0.074 A 
ATOM     35  C   UNL A   1      40.131  27.820  28.708  1.00  0.00     0.049 A 
ATOM     36  N   UNL A   1      41.842  29.862  30.091  1.00  0.00    -0.248 NA
ATOM     37  C   UNL A   1      40.055  31.362  30.005  1.00  0.00     0.031 C 
ATOM     38  C   UNL A   1      39.355  26.792  28.010  1.00  0.00     0.029 A 
ATOM     39  N   UNL A   1      41.361  27.241  28.891  1.00  0.00    -0.354 N 
ATOM     40  C   UNL A   1      42.240  31.079  30.631  1.00  0.00     0.074 A 
ATOM     41  C   UNL A   1      41.115  31.982  30.507  1.00  0.00     0.031 C 
ATOM     42  C   UNL A   1      40.116  25.697  27.856  1.00  0.00     0.029 A 
ATOM     43  C   UNL A   1      41.438  25.952  28.419  1.00  0.00     0.049 A 
ATOM     44  H   UNL A   1      42.117  27.704  29.319  1.00  0.00     0.167 HD
ATOM     45  C   UNL A   1      43.426  31.413  31.196  1.00  0.00     0.031 A 
ATOM     46  C   UNL A   1      42.454  25.067  28.442  1.00  0.00     0.031 A 
ATOM     47  C   UNL A   1      44.544  30.517  31.327  1.00  0.00     0.049 A 
ATOM     48  C   UNL A   1      43.751  25.453  29.093  1.00  0.00     0.074 A 
ATOM     49  C   UNL A   1      45.769  30.748  31.933  1.00  0.00     0.029 A 
ATOM     50  N   UNL A   1      44.579  29.217  30.843  1.00  0.00    -0.354 N 
ATOM     51  N   UNL A   1      44.083  26.588  29.660  1.00  0.00    -0.248 NA
ATOM     52  C   UNL A   1      44.806  24.429  29.122  1.00  0.00     0.031 C 
ATOM     53  C   UNL A   1      46.558  29.601  31.780  1.00  0.00     0.029 A 
ATOM     54  C   UNL A   1      45.809  28.640  31.120  1.00  0.00     0.049 A 
ATOM     55  H   UNL A   1      43.840  28.770  30.373  1.00  0.00     0.167 HD
ATOM     56  C   UNL A   1      45.380  26.411  30.125  1.00  0.00     0.074 A 
ATOM     57  C   UNL A   1      45.763  25.053  29.795  1.00  0.00     0.031 C 
ATOM     58  C   UNL A   1      46.184  27.294  30.769  1.00  0.00     0.031 A 
BRANCH  45  59
ATOM     59  C   UNL A   1      43.572  32.818  31.720  1.00  0.00    -0.014 A 
ATOM     60  C   UNL A   1      43.322  33.114  33.072  1.00  0.00     0.010 A 
ATOM     61  C   UNL A   1      43.997  33.847  30.861  1.00  0.00     0.010 A 
ATOM     62  C   UNL A   1      43.452  34.423  33.545  1.00  0.00     0.020 A 
ATOM     63  C   UNL A   1      44.152  35.153  31.336  1.00  0.00     0.020 A 
ATOM     64  C   UNL A   1      43.860  35.436  32.673  1.00  0.00     0.054 A 
BRANCH  64  65
ATOM     65  S   UNL A   1      44.034  37.123  33.316  1.00  0.00     0.124 S 
ATOM     66  O   UNL A   1      45.203  36.994  34.183  1.00  0.00    -0.237 OA
ATOM     67  O   UNL A   1      44.238  37.911  32.104  1.00  0.00    -0.237 OA
ATOM     68  O   UNL A   1      42.769  37.364  34.006  1.00  0.00    -0.744 OA
ENDBRANCH  64  65
ENDBRANCH  45  59
BRANCH  46  69
ATOM     69  C   UNL A   1      42.267  23.714  27.855  1.00  0.00    -0.014 A 
ATOM     70  C   UNL A   1      42.597  23.469  26.510  1.00  0.00     0.010 A 
ATOM     71  C   UNL A   1      41.782  22.658  28.646  1.00  0.00     0.010 A 
ATOM     72  C   UNL A   1      42.433  22.193  25.964  1.00  0.00     0.020 A 
ATOM     73  C   UNL A   1      41.639  21.376  28.109  1.00  0.00     0.020 A 
ATOM     74  C   UNL A   1      41.957  21.154  26.768  1.00  0.00     0.054 A 
BRANCH  74  75
ATOM     75  S   UNL A   1      41.816  19.489  26.059  1.00  0.00     0.124 S 
ATOM     76  O   UNL A   1      42.289  18.652  27.155  1.00  0.00    -0.237 OA
ATOM     77  O   UNL A   1      40.390  19.392  25.755  1.00  0.00    -0.237 OA
ATOM     78  O   UNL A   1      42.689  19.545  24.888  1.00  0.00    -0.744 OA
ENDBRANCH  74  75
ENDBRANCH  46  69
BRANCH  58  79
ATOM     79  C   UNL A   1      47.552  26.810  31.164  1.00  0.00    -0.014 A 
ATOM     80  C   UNL A   1      48.647  26.945  30.291  1.00  0.00     0.010 A 
ATOM     81  C   UNL A   1      47.747  26.223  32.426  1.00  0.00     0.010 A 
ATOM     82  C   UNL A   1      49.906  26.459  30.657  1.00  0.00     0.020 A 
ATOM     83  C   UNL A   1      49.011  25.758  32.805  1.00  0.00     0.020 A 
ATOM     84  C   UNL A   1      50.077  25.860  31.909  1.00  0.00     0.054 A 
BRANCH  84  85
ATOM     85  S   UNL A   1      51.720  25.244  32.370  1.00  0.00     0.124 S 
ATOM     86  O   UNL A   1      52.568  25.858  31.352  1.00  0.00    -0.237 OA
ATOM     87  O   UNL A   1      51.892  25.760  33.725  1.00  0.00    -0.237 OA
ATOM     88  O   UNL A   1      51.582  23.793  32.276  1.00  0.00    -0.744 OA
ENDBRANCH  84  85
ENDBRANCH  58  79
ENDBRANCH  32  33
ENDBRANCH  24  27
ENDBRANCH  22  23
ENDBRANCH   1  22
TORSDOF 15
ENDMDL
MODEL 3
REMARK VINA RESULT:     -10.8      2.596      3.203
REMARK SMILES C[C@@H](C(=O)NCCCNC(=O)c1ccc(-c2c3nc(c(-c4ccc(S(=O)(=O)[O-])cc4)c4ccc([nH]4)c(-c4ccc(S(=O)(=O)[O-])cc4)c4nc(c(-c5ccc(S(=O)(=O)[O-])cc5)c5ccc2[nH]5)C=C4)C=C3)cc1)c1ccc(-c2ccccc2)c(F)c1
REMARK SMILES IDX 7 1 6 2 5 3 3 4 4 5 2 7 1 8 72 9 73 10 84 11 74 12 82 13
REMARK SMILES IDX 75 14 83 15 76 16 77 17 81 18 78 19 80 20 79 21 8 22 9 23
REMARK SMILES IDX 10 24 11 26 12 27 13 28 71 29 14 30 70 31 15 32 16 33 17 34
REMARK SMILES IDX 64 35 18 36 69 37 63 38 65 39 19 40 68 41 62 42 61 43 20 45
REMARK SMILES IDX 50 46 31 47 49 48 32 49 35 50 48 51 66 52 33 53 34 54 47 56
REMARK SMILES IDX 67 57 36 58 21 59 22 60 30 61 23 62 29 63 24 64 25 65 26 66
REMARK SMILES IDX 27 67 28 68 51 69 52 70 60 71 53 72 59 73 54 74 55 75 56 76
REMARK SMILES IDX 57 77 58 78 37 79 38 80 46 81 39 82 45 83 40 84 41 85 42 86
REMARK SMILES IDX 43 87 44 88
REMARK H PARENT 5 6 9 25 65 44 35 55
REMARK Flexibility Score: inf
ROOT
ATOM      1  C   UNL A   1      33.076  27.816  26.759  1.00  0.00     0.042 C 
ENDROOT
BRANCH   1   2
ATOM      2  C   UNL A   1      31.666  27.920  26.179  1.00  0.00     0.117 C 
BRANCH   2   3
ATOM      3  N   UNL A   1      30.839  26.781  26.529  1.00  0.00    -0.356 N 
ATOM      4  C   UNL A   1      30.711  25.555  25.942  1.00  0.00     0.227 C 
ATOM      5  O   UNL A   1      29.926  24.775  26.484  1.00  0.00    -0.274 OA
ATOM      6  H   UNL A   1      30.275  26.914  27.324  1.00  0.00     0.163 HD
BRANCH   4   7
ATOM      7  C   UNL A   1      31.539  25.195  24.696  1.00  0.00     0.105 C 
ATOM      8  C   UNL A   1      30.868  24.109  23.850  1.00  0.00     0.023 C 
BRANCH   7   9
ATOM      9  C   UNL A   1      32.962  24.738  25.020  1.00  0.00    -0.033 A 
ATOM     10  C   UNL A   1      33.981  24.865  24.066  1.00  0.00     0.005 A 
ATOM     11  C   UNL A   1      33.268  24.115  26.239  1.00  0.00     0.044 A 
ATOM     12  C   UNL A   1      35.269  24.378  24.327  1.00  0.00     0.012 A 
ATOM     13  C   UNL A   1      34.554  23.640  26.491  1.00  0.00     0.131 A 
ATOM     14  C   UNL A   1      35.580  23.750  25.544  1.00  0.00     0.017 A 
ATOM     15  F   UNL A   1      34.786  23.057  27.678  1.00  0.00    -0.206 F 
BRANCH  14  16
ATOM     16  C   UNL A   1      36.927  23.211  25.800  1.00  0.00    -0.015 A 
ATOM     17  C   UNL A   1      37.897  23.967  26.479  1.00  0.00     0.009 A 
ATOM     18  C   UNL A   1      37.283  21.922  25.367  1.00  0.00     0.009 A 
ATOM     19  C   UNL A   1      39.175  23.453  26.718  1.00  0.00     0.001 A 
ATOM     20  C   UNL A   1      38.561  21.407  25.604  1.00  0.00     0.001 A 
ATOM     21  C   UNL A   1      39.506  22.173  26.279  1.00  0.00     0.000 A 
ENDBRANCH  14  16
ENDBRANCH   7   9
ENDBRANCH   4   7
ENDBRANCH   2   3
ENDBRANCH   1   2
BRANCH   1  22
ATOM     22  C   UNL A   1      34.074  28.844  26.227  1.00  0.00     0.118 C 
BRANCH  22  23
ATOM     23  N   UNL A   1      33.716  30.210  26.566  1.00  0.00    -0.352 N 
ATOM     24  C   UNL A   1      34.276  31.086  27.462  1.00  0.00     0.251 C 
ATOM     25  H   UNL A   1      32.945  30.568  26.071  1.00  0.00     0.163 HD
ATOM     26  O   UNL A   1      33.695  32.147  27.689  1.00  0.00    -0.269 OA
BRANCH  24  27
ATOM     27  C   UNL A   1      35.540  30.777  28.171  1.00  0.00     0.039 A 
ATOM     28  C   UNL A   1      35.552  29.693  29.057  1.00  0.00     0.014 A 
ATOM     29  C   UNL A   1      36.689  31.561  28.030  1.00  0.00     0.014 A 
ATOM     30  C   UNL A   1      36.718  29.370  29.756  1.00  0.00     0.010 A 
ATOM     31  C   UNL A   1      37.873  31.199  28.680  1.00  0.00     0.010 A 
ATOM     32  C   UNL A   1      37.898  30.102  29.553  1.00  0.00    -0.014 A 
BRANCH  32  33
ATOM     33  C   UNL A   1      39.156  29.707  30.242  1.00  0.00     0.031 A 
ATOM     34  C   UNL A   1      39.599  30.397  31.504  1.00  0.00     0.074 A 
ATOM     35  C   UNL A   1      39.917  28.728  29.712  1.00  0.00     0.049 A 
ATOM     36  N   UNL A   1      40.646  30.151  32.252  1.00  0.00    -0.248 NA
ATOM     37  C   UNL A   1      38.773  31.517  31.980  1.00  0.00     0.031 C 
ATOM     38  C   UNL A   1      39.630  28.014  28.465  1.00  0.00     0.029 A 
ATOM     39  N   UNL A   1      41.084  28.161  30.157  1.00  0.00    -0.354 N 
ATOM     40  C   UNL A   1      40.610  31.087  33.279  1.00  0.00     0.074 A 
ATOM     41  C   UNL A   1      39.462  31.934  33.033  1.00  0.00     0.031 C 
ATOM     42  C   UNL A   1      40.574  27.082  28.265  1.00  0.00     0.029 A 
ATOM     43  C   UNL A   1      41.546  27.147  29.351  1.00  0.00     0.049 A 
ATOM     44  H   UNL A   1      41.547  28.451  30.976  1.00  0.00     0.167 HD
ATOM     45  C   UNL A   1      41.442  31.219  34.341  1.00  0.00     0.031 A 
ATOM     46  C   UNL A   1      42.625  26.350  29.474  1.00  0.00     0.031 A 
ATOM     47  C   UNL A   1      42.580  30.375  34.591  1.00  0.00     0.049 A 
ATOM     48  C   UNL A   1      43.521  26.502  30.670  1.00  0.00     0.074 A 
ATOM     49  C   UNL A   1      43.452  30.398  35.668  1.00  0.00     0.029 A 
ATOM     50  N   UNL A   1      43.009  29.354  33.755  1.00  0.00    -0.354 N 
ATOM     51  N   UNL A   1      43.428  27.350  31.666  1.00  0.00    -0.248 NA
ATOM     52  C   UNL A   1      44.658  25.576  30.766  1.00  0.00     0.031 C 
ATOM     53  C   UNL A   1      44.430  29.418  35.463  1.00  0.00     0.029 A 
ATOM     54  C   UNL A   1      44.142  28.754  34.281  1.00  0.00     0.049 A 
ATOM     55  H   UNL A   1      42.573  29.095  32.912  1.00  0.00     0.167 HD
ATOM     56  C   UNL A   1      44.487  27.051  32.515  1.00  0.00     0.074 A 
ATOM     57  C   UNL A   1      45.192  25.929  31.927  1.00  0.00     0.031 C 
ATOM     58  C   UNL A   1      44.845  27.651  33.677  1.00  0.00     0.031 A 
BRANCH  45  59
ATOM     59  C   UNL A   1      41.148  32.328  35.317  1.00  0.00    -0.014 A 
ATOM     60  C   UNL A   1      41.757  33.589  35.183  1.00  0.00     0.010 A 
ATOM     61  C   UNL A   1      40.227  32.120  36.360  1.00  0.00     0.010 A 
ATOM     62  C   UNL A   1      41.483  34.608  36.100  1.00  0.00     0.020 A 
ATOM     63  C   UNL A   1      39.931  33.145  37.264  1.00  0.00     0.020 A 
ATOM     64  C   UNL A   1      40.577  34.377  37.138  1.00  0.00     0.054 A 
BRANCH  64  65
ATOM     65  S   UNL A   1      40.228  35.721  38.306  1.00  0.00     0.124 S 
ATOM     66  O   UNL A   1      41.532  35.916  38.937  1.00  0.00    -0.237 OA
ATOM     67  O   UNL A   1      39.788  36.803  37.431  1.00  0.00    -0.237 OA
ATOM     68  O   UNL A   1      39.192  35.166  39.174  1.00  0.00    -0.744 OA
ENDBRANCH  64  65
ENDBRANCH  45  59
BRANCH  46  69
ATOM     69  C   UNL A   1      42.897  25.312  28.444  1.00  0.00    -0.014 A 
ATOM     70  C   UNL A   1      42.525  23.975  28.664  1.00  0.00     0.010 A 
ATOM     71  C   UNL A   1      43.505  25.665  27.226  1.00  0.00     0.010 A 
ATOM     72  C   UNL A   1      42.769  23.003  27.690  1.00  0.00     0.020 A 
ATOM     73  C   UNL A   1      43.728  24.700  26.239  1.00  0.00     0.020 A 
ATOM     74  C   UNL A   1      43.368  23.373  26.482  1.00  0.00     0.054 A 
BRANCH  74  75
ATOM     75  S   UNL A   1      43.614  22.111  25.201  1.00  0.00     0.124 S 
ATOM     76  O   UNL A   1      44.943  21.605  25.526  1.00  0.00    -0.237 OA
ATOM     77  O   UNL A   1      42.507  21.189  25.445  1.00  0.00    -0.237 OA
ATOM     78  O   UNL A   1      43.517  22.870  23.956  1.00  0.00    -0.744 OA
ENDBRANCH  74  75
ENDBRANCH  46  69
BRANCH  58  79
ATOM     79  C   UNL A   1      46.048  27.096  34.390  1.00  0.00    -0.014 A 
ATOM     80  C   UNL A   1      47.336  27.599  34.135  1.00  0.00     0.010 A 
ATOM     81  C   UNL A   1      45.886  26.067  35.334  1.00  0.00     0.010 A 
ATOM     82  C   UNL A   1      48.448  27.050  34.779  1.00  0.00     0.020 A 
ATOM     83  C   UNL A   1      46.994  25.532  35.998  1.00  0.00     0.020 A 
ATOM     84  C   UNL A   1      48.271  26.013  35.701  1.00  0.00     0.054 A 
BRANCH  84  85
ATOM     85  S   UNL A   1      49.726  25.321  36.533  1.00  0.00     0.124 S 
ATOM     86  O   UNL A   1      50.358  26.517  37.081  1.00  0.00    -0.237 OA
ATOM     87  O   UNL A   1      49.137  24.415  37.516  1.00  0.00    -0.237 OA
ATOM     88  O   UNL A   1      50.460  24.665  35.454  1.00  0.00    -0.744 OA
ENDBRANCH  84  85
ENDBRANCH  58  79
ENDBRANCH  32  33
ENDBRANCH  24  27
ENDBRANCH  22  23
ENDBRANCH   1  22
TORSDOF 15
ENDMDL
