MODEL 1
REMARK VINA RESULT:     -10.0      0.000      0.000
REMARK SMILES O=C(CSC(=S)N1CCCCC1)NCCCNC(=O)c1ccc(-c2c3nc(c(-c4ccc(S(=O)(=O)[O-])cc4)c4ccc([nH]4)c(-c4ccc(S(=O)(=O)[O-])cc4)c4nc(c(-c5ccc(S(=O)(=O)[O-])cc5)c5ccc2[nH]5)C=C4)C=C3)cc1
REMARK SMILES IDX 15 1 14 2 13 3 1 4 2 5 3 7 4 8 5 9 6 10 7 11 8 12 12 13 9 14
REMARK SMILES IDX 11 15 10 16 16 17 17 18 18 19 19 21 20 22 21 23 79 24 22 25
REMARK SMILES IDX 78 26 23 27 24 28 25 29 72 30 26 31 77 32 71 33 73 34 27 35
REMARK SMILES IDX 76 36 70 37 69 38 28 40 58 41 39 42 57 43 40 44 43 45 56 46
REMARK SMILES IDX 74 47 41 48 42 49 55 51 75 52 44 53 29 54 30 55 38 56 31 57
REMARK SMILES IDX 37 58 32 59 33 60 34 61 35 62 36 63 59 64 60 65 68 66 61 67
REMARK SMILES IDX 67 68 62 69 63 70 64 71 65 72 66 73 45 74 46 75 54 76 47 77
REMARK SMILES IDX 53 78 48 79 49 80 50 81 51 82 52 83
REMARK H PARENT 13 6 17 20 73 39 43 50
REMARK Flexibility Score: inf
ROOT
ATOM      1  C   UNL A   1      31.894  28.025  27.171  1.00  0.00     0.042 C 
ENDROOT
BRANCH   1   2
ATOM      2  C   UNL A   1      31.552  27.466  25.794  1.00  0.00     0.117 C 
BRANCH   2   3
ATOM      3  N   UNL A   1      31.758  26.034  25.687  1.00  0.00    -0.355 N 
ATOM      4  O   UNL A   1      29.662  25.452  26.403  1.00  0.00    -0.274 OA
ATOM      5  C   UNL A   1      30.749  25.127  25.930  1.00  0.00     0.230 C 
ATOM      6  H   UNL A   1      32.648  25.700  25.432  1.00  0.00     0.163 HD
BRANCH   5   7
ATOM      7  C   UNL A   1      31.093  23.667  25.672  1.00  0.00     0.177 C 
BRANCH   7   8
ATOM      8  S   UNL A   1      32.226  23.398  24.282  1.00  0.00    -0.087 SA
BRANCH   8   9
ATOM      9  C   UNL A   1      33.119  21.919  24.666  1.00  0.00     0.136 C 
ATOM     10  S   UNL A   1      32.509  20.358  24.615  1.00  0.00    -0.053 S 
BRANCH   9  11
ATOM     11  N   UNL A   1      34.452  22.191  24.984  1.00  0.00    -0.358 N 
ATOM     12  C   UNL A   1      35.222  23.242  24.313  1.00  0.00     0.118 C 
ATOM     13  C   UNL A   1      35.252  21.300  25.833  1.00  0.00     0.118 C 
ATOM     14  C   UNL A   1      36.334  22.649  23.455  1.00  0.00     0.021 C 
ATOM     15  C   UNL A   1      36.369  20.655  25.003  1.00  0.00     0.021 C 
ATOM     16  C   UNL A   1      37.211  21.704  24.276  1.00  0.00     0.004 C 
ENDBRANCH   9  11
ENDBRANCH   8   9
ENDBRANCH   7   8
ENDBRANCH   5   7
ENDBRANCH   2   3
ENDBRANCH   1   2
BRANCH   1  17
ATOM     17  C   UNL A   1      33.310  28.579  27.300  1.00  0.00     0.118 C 
BRANCH  17  18
ATOM     18  N   UNL A   1      33.347  30.008  27.590  1.00  0.00    -0.352 N 
ATOM     19  C   UNL A   1      34.349  30.788  28.117  1.00  0.00     0.251 C 
ATOM     20  H   UNL A   1      32.519  30.494  27.371  1.00  0.00     0.163 HD
ATOM     21  O   UNL A   1      34.113  31.962  28.395  1.00  0.00    -0.269 OA
BRANCH  19  22
ATOM     22  C   UNL A   1      35.692  30.225  28.380  1.00  0.00     0.039 A 
ATOM     23  C   UNL A   1      36.628  30.203  27.341  1.00  0.00     0.014 A 
ATOM     24  C   UNL A   1      36.034  29.711  29.633  1.00  0.00     0.014 A 
ATOM     25  C   UNL A   1      37.929  29.750  27.582  1.00  0.00     0.010 A 
ATOM     26  C   UNL A   1      37.349  29.325  29.891  1.00  0.00     0.010 A 
ATOM     27  C   UNL A   1      38.315  29.355  28.873  1.00  0.00    -0.014 A 
BRANCH  27  28
ATOM     28  C   UNL A   1      39.726  29.009  29.191  1.00  0.00     0.031 A 
ATOM     29  C   UNL A   1      40.653  30.038  29.778  1.00  0.00     0.074 A 
ATOM     30  C   UNL A   1      40.197  27.786  28.870  1.00  0.00     0.049 A 
ATOM     31  N   UNL A   1      41.934  29.946  30.027  1.00  0.00    -0.248 NA
ATOM     32  C   UNL A   1      40.069  31.347  30.110  1.00  0.00     0.031 C 
ATOM     33  C   UNL A   1      39.412  26.705  28.269  1.00  0.00     0.029 A 
ATOM     34  N   UNL A   1      41.456  27.249  28.992  1.00  0.00    -0.354 N 
ATOM     35  C   UNL A   1      42.313  31.186  30.527  1.00  0.00     0.074 A 
ATOM     36  C   UNL A   1      41.135  32.026  30.507  1.00  0.00     0.031 C 
ATOM     37  C   UNL A   1      40.199  25.633  28.092  1.00  0.00     0.029 A 
ATOM     38  C   UNL A   1      41.556  25.960  28.518  1.00  0.00     0.049 A 
ATOM     39  H   UNL A   1      42.214  27.739  29.382  1.00  0.00     0.167 HD
ATOM     40  C   UNL A   1      43.529  31.586  30.975  1.00  0.00     0.031 A 
ATOM     41  C   UNL A   1      42.620  25.141  28.416  1.00  0.00     0.031 A 
ATOM     42  C   UNL A   1      44.699  30.747  30.997  1.00  0.00     0.049 A 
ATOM     43  C   UNL A   1      43.966  25.619  28.886  1.00  0.00     0.074 A 
ATOM     44  C   UNL A   1      45.961  31.047  31.480  1.00  0.00     0.029 A 
ATOM     45  N   UNL A   1      44.756  29.452  30.507  1.00  0.00    -0.354 N 
ATOM     46  N   UNL A   1      44.289  26.775  29.416  1.00  0.00    -0.248 NA
ATOM     47  C   UNL A   1      45.090  24.683  28.750  1.00  0.00     0.031 C 
ATOM     48  C   UNL A   1      46.796  29.954  31.229  1.00  0.00     0.029 A 
ATOM     49  C   UNL A   1      46.040  28.950  30.648  1.00  0.00     0.049 A 
ATOM     50  H   UNL A   1      43.998  28.961  30.116  1.00  0.00     0.167 HD
ATOM     51  C   UNL A   1      45.649  26.694  29.700  1.00  0.00     0.074 A 
ATOM     52  C   UNL A   1      46.082  25.372  29.298  1.00  0.00     0.031 C 
ATOM     53  C   UNL A   1      46.463  27.632  30.245  1.00  0.00     0.031 A 
BRANCH  40  54
ATOM     54  C   UNL A   1      43.659  33.004  31.470  1.00  0.00    -0.014 A 
ATOM     55  C   UNL A   1      43.969  34.056  30.590  1.00  0.00     0.010 A 
ATOM     56  C   UNL A   1      43.420  33.296  32.826  1.00  0.00     0.010 A 
ATOM     57  C   UNL A   1      44.080  35.367  31.065  1.00  0.00     0.020 A 
ATOM     58  C   UNL A   1      43.501  34.609  33.299  1.00  0.00     0.020 A 
ATOM     59  C   UNL A   1      43.848  35.634  32.417  1.00  0.00     0.054 A 
BRANCH  59  60
ATOM     60  S   UNL A   1      43.981  37.347  32.999  1.00  0.00     0.124 S 
ATOM     61  O   UNL A   1      42.840  37.445  33.906  1.00  0.00    -0.237 OA
ATOM     62  O   UNL A   1      45.294  37.368  33.638  1.00  0.00    -0.237 OA
ATOM     63  O   UNL A   1      43.873  38.139  31.777  1.00  0.00    -0.744 OA
ENDBRANCH  59  60
ENDBRANCH  40  54
BRANCH  41  64
ATOM     64  C   UNL A   1      42.454  23.775  27.842  1.00  0.00    -0.014 A 
ATOM     65  C   UNL A   1      42.173  22.680  28.675  1.00  0.00     0.010 A 
ATOM     66  C   UNL A   1      42.567  23.567  26.455  1.00  0.00     0.010 A 
ATOM     67  C   UNL A   1      42.023  21.398  28.137  1.00  0.00     0.020 A 
ATOM     68  C   UNL A   1      42.390  22.293  25.909  1.00  0.00     0.020 A 
ATOM     69  C   UNL A   1      42.130  21.214  26.755  1.00  0.00     0.054 A 
BRANCH  69  70
ATOM     70  S   UNL A   1      41.885  19.550  26.075  1.00  0.00     0.124 S 
ATOM     71  O   UNL A   1      42.356  18.703  27.165  1.00  0.00    -0.237 OA
ATOM     72  O   UNL A   1      40.446  19.521  25.827  1.00  0.00    -0.237 OA
ATOM     73  O   UNL A   1      42.717  19.545  24.873  1.00  0.00    -0.744 OA
ENDBRANCH  69  70
ENDBRANCH  41  64
BRANCH  53  74
ATOM     74  C   UNL A   1      47.903  27.257  30.472  1.00  0.00    -0.014 A 
ATOM     75  C   UNL A   1      48.881  27.484  29.488  1.00  0.00     0.010 A 
ATOM     76  C   UNL A   1      48.296  26.736  31.719  1.00  0.00     0.010 A 
ATOM     77  C   UNL A   1      50.221  27.175  29.739  1.00  0.00     0.020 A 
ATOM     78  C   UNL A   1      49.638  26.453  31.985  1.00  0.00     0.020 A 
ATOM     79  C   UNL A   1      50.592  26.667  30.988  1.00  0.00     0.054 A 
BRANCH  79  80
ATOM     80  S   UNL A   1      52.346  26.335  31.308  1.00  0.00     0.124 S 
ATOM     81  O   UNL A   1      52.889  26.229  29.957  1.00  0.00    -0.237 OA
ATOM     82  O   UNL A   1      52.762  27.515  32.063  1.00  0.00    -0.237 OA
ATOM     83  O   UNL A   1      52.330  25.088  32.071  1.00  0.00    -0.744 OA
ENDBRANCH  79  80
ENDBRANCH  53  74
ENDBRANCH  27  28
ENDBRANCH  19  22
ENDBRANCH  17  18
ENDBRANCH   1  17
TORSDOF 16
ENDMDL
MODEL 2
REMARK VINA RESULT:      -9.5      2.627      9.393
REMARK SMILES O=C(CSC(=S)N1CCCCC1)NCCCNC(=O)c1ccc(-c2c3nc(c(-c4ccc(S(=O)(=O)[O-])cc4)c4ccc([nH]4)c(-c4ccc(S(=O)(=O)[O-])cc4)c4nc(c(-c5ccc(S(=O)(=O)[O-])cc5)c5ccc2[nH]5)C=C4)C=C3)cc1
REMARK SMILES IDX 15 1 14 2 13 3 1 4 2 5 3 7 4 8 5 9 6 10 7 11 8 12 12 13 9 14
REMARK SMILES IDX 11 15 10 16 16 17 17 18 18 19 19 21 20 22 21 23 79 24 22 25
REMARK SMILES IDX 78 26 23 27 24 28 25 29 72 30 26 31 77 32 71 33 73 34 27 35
REMARK SMILES IDX 76 36 70 37 69 38 28 40 58 41 39 42 57 43 40 44 43 45 56 46
REMARK SMILES IDX 74 47 41 48 42 49 55 51 75 52 44 53 29 54 30 55 38 56 31 57
REMARK SMILES IDX 37 58 32 59 33 60 34 61 35 62 36 63 59 64 60 65 68 66 61 67
REMARK SMILES IDX 67 68 62 69 63 70 64 71 65 72 66 73 45 74 46 75 54 76 47 77
REMARK SMILES IDX 53 78 48 79 49 80 50 81 51 82 52 83
REMARK H PARENT 13 6 17 20 73 39 43 50
REMARK Flexibility Score: inf
ROOT
ATOM      1  C   UNL A   1      36.616  23.232  23.523  1.00  0.00     0.042 C 
ENDROOT
BRANCH   1   2
ATOM      2  C   UNL A   1      35.105  23.302  23.336  1.00  0.00     0.117 C 
BRANCH   2   3
ATOM      3  N   UNL A   1      34.407  23.848  24.484  1.00  0.00    -0.355 N 
ATOM      4  O   UNL A   1      33.284  21.921  25.001  1.00  0.00    -0.274 OA
ATOM      5  C   UNL A   1      33.597  23.076  25.287  1.00  0.00     0.230 C 
ATOM      6  H   UNL A   1      34.518  24.803  24.697  1.00  0.00     0.163 HD
BRANCH   5   7
ATOM      7  C   UNL A   1      33.021  23.769  26.513  1.00  0.00     0.177 C 
BRANCH   7   8
ATOM      8  S   UNL A   1      31.328  24.383  26.301  1.00  0.00    -0.087 SA
BRANCH   8   9
ATOM      9  C   UNL A   1      31.367  25.430  24.876  1.00  0.00     0.136 C 
ATOM     10  S   UNL A   1      30.942  24.988  23.316  1.00  0.00    -0.053 S 
BRANCH   9  11
ATOM     11  N   UNL A   1      31.760  26.730  25.204  1.00  0.00    -0.358 N 
ATOM     12  C   UNL A   1      33.017  27.316  24.728  1.00  0.00     0.118 C 
ATOM     13  C   UNL A   1      31.074  27.520  26.234  1.00  0.00     0.118 C 
ATOM     14  C   UNL A   1      33.993  27.537  25.879  1.00  0.00     0.021 C 
ATOM     15  C   UNL A   1      32.010  27.743  27.428  1.00  0.00     0.021 C 
ATOM     16  C   UNL A   1      33.343  28.354  26.995  1.00  0.00     0.004 C 
ENDBRANCH   9  11
ENDBRANCH   8   9
ENDBRANCH   7   8
ENDBRANCH   5   7
ENDBRANCH   2   3
ENDBRANCH   1   2
BRANCH   1  17
ATOM     17  C   UNL A   1      37.100  23.564  24.932  1.00  0.00     0.118 C 
BRANCH  17  18
ATOM     18  N   UNL A   1      38.081  22.614  25.445  1.00  0.00    -0.352 N 
ATOM     19  C   UNL A   1      39.170  22.807  26.261  1.00  0.00     0.251 C 
ATOM     20  H   UNL A   1      37.938  21.682  25.162  1.00  0.00     0.163 HD
ATOM     21  O   UNL A   1      39.940  21.871  26.466  1.00  0.00    -0.269 OA
BRANCH  19  22
ATOM     22  C   UNL A   1      39.441  24.129  26.868  1.00  0.00     0.039 A 
ATOM     23  C   UNL A   1      38.940  24.399  28.145  1.00  0.00     0.014 A 
ATOM     24  C   UNL A   1      40.173  25.106  26.189  1.00  0.00     0.014 A 
ATOM     25  C   UNL A   1      39.248  25.609  28.775  1.00  0.00     0.010 A 
ATOM     26  C   UNL A   1      40.537  26.282  26.843  1.00  0.00     0.010 A 
ATOM     27  C   UNL A   1      40.091  26.541  28.149  1.00  0.00    -0.014 A 
BRANCH  27  28
ATOM     28  C   UNL A   1      40.553  27.767  28.852  1.00  0.00     0.031 A 
ATOM     29  C   UNL A   1      41.896  27.802  29.529  1.00  0.00     0.074 A 
ATOM     30  C   UNL A   1      39.723  28.826  28.953  1.00  0.00     0.049 A 
ATOM     31  N   UNL A   1      42.422  28.744  30.269  1.00  0.00    -0.248 NA
ATOM     32  C   UNL A   1      42.752  26.615  29.371  1.00  0.00     0.031 C 
ATOM     33  C   UNL A   1      38.383  28.911  28.368  1.00  0.00     0.029 A 
ATOM     34  N   UNL A   1      39.878  30.030  29.597  1.00  0.00    -0.354 N 
ATOM     35  C   UNL A   1      43.659  28.260  30.679  1.00  0.00     0.074 A 
ATOM     36  C   UNL A   1      43.787  26.923  30.139  1.00  0.00     0.031 C 
ATOM     37  C   UNL A   1      37.847  30.106  28.664  1.00  0.00     0.029 A 
ATOM     38  C   UNL A   1      38.780  30.854  29.500  1.00  0.00     0.049 A 
ATOM     39  H   UNL A   1      40.697  30.279  30.081  1.00  0.00     0.167 HD
ATOM     40  C   UNL A   1      44.607  28.876  31.425  1.00  0.00     0.031 A 
ATOM     41  C   UNL A   1      38.539  32.065  30.038  1.00  0.00     0.031 A 
ATOM     42  C   UNL A   1      44.478  30.207  31.960  1.00  0.00     0.049 A 
ATOM     43  C   UNL A   1      39.593  32.714  30.893  1.00  0.00     0.074 A 
ATOM     44  C   UNL A   1      45.407  30.936  32.683  1.00  0.00     0.029 A 
ATOM     45  N   UNL A   1      43.351  31.005  31.839  1.00  0.00    -0.354 N 
ATOM     46  N   UNL A   1      40.783  32.265  31.215  1.00  0.00    -0.248 NA
ATOM     47  C   UNL A   1      39.275  34.035  31.454  1.00  0.00     0.031 C 
ATOM     48  C   UNL A   1      44.819  32.150  33.051  1.00  0.00     0.029 A 
ATOM     49  C   UNL A   1      43.549  32.206  32.501  1.00  0.00     0.049 A 
ATOM     50  H   UNL A   1      42.532  30.756  31.354  1.00  0.00     0.167 HD
ATOM     51  C   UNL A   1      41.364  33.259  31.995  1.00  0.00     0.074 A 
ATOM     52  C   UNL A   1      40.403  34.339  32.082  1.00  0.00     0.031 C 
ATOM     53  C   UNL A   1      42.585  33.275  32.583  1.00  0.00     0.031 A 
BRANCH  40  54
ATOM     54  C   UNL A   1      45.871  28.110  31.721  1.00  0.00    -0.014 A 
ATOM     55  C   UNL A   1      45.975  27.289  32.859  1.00  0.00     0.010 A 
ATOM     56  C   UNL A   1      46.952  28.171  30.823  1.00  0.00     0.010 A 
ATOM     57  C   UNL A   1      47.152  26.580  33.116  1.00  0.00     0.020 A 
ATOM     58  C   UNL A   1      48.120  27.440  31.060  1.00  0.00     0.020 A 
ATOM     59  C   UNL A   1      48.218  26.662  32.215  1.00  0.00     0.054 A 
BRANCH  59  60
ATOM     60  S   UNL A   1      49.725  25.715  32.566  1.00  0.00     0.124 S 
ATOM     61  O   UNL A   1      50.080  25.213  31.240  1.00  0.00    -0.237 OA
ATOM     62  O   UNL A   1      50.622  26.729  33.113  1.00  0.00    -0.237 OA
ATOM     63  O   UNL A   1      49.284  24.698  33.517  1.00  0.00    -0.744 OA
ENDBRANCH  59  60
ENDBRANCH  40  54
BRANCH  41  64
ATOM     64  C   UNL A   1      37.239  32.747  29.782  1.00  0.00    -0.014 A 
ATOM     65  C   UNL A   1      36.180  32.631  30.699  1.00  0.00     0.010 A 
ATOM     66  C   UNL A   1      37.057  33.525  28.624  1.00  0.00     0.010 A 
ATOM     67  C   UNL A   1      34.958  33.266  30.456  1.00  0.00     0.020 A 
ATOM     68  C   UNL A   1      35.848  34.185  28.391  1.00  0.00     0.020 A 
ATOM     69  C   UNL A   1      34.801  34.041  29.304  1.00  0.00     0.054 A 
BRANCH  69  70
ATOM     70  S   UNL A   1      33.223  34.894  29.034  1.00  0.00     0.124 S 
ATOM     71  O   UNL A   1      32.620  34.847  30.362  1.00  0.00    -0.237 OA
ATOM     72  O   UNL A   1      33.653  36.215  28.581  1.00  0.00    -0.237 OA
ATOM     73  O   UNL A   1      32.562  34.079  28.017  1.00  0.00    -0.744 OA
ENDBRANCH  69  70
ENDBRANCH  41  64
BRANCH  53  74
ATOM     74  C   UNL A   1      42.973  34.511  33.351  1.00  0.00    -0.014 A 
ATOM     75  C   UNL A   1      42.783  34.596  34.742  1.00  0.00     0.010 A 
ATOM     76  C   UNL A   1      43.604  35.576  32.681  1.00  0.00     0.010 A 
ATOM     77  C   UNL A   1      43.196  35.733  35.443  1.00  0.00     0.020 A 
ATOM     78  C   UNL A   1      44.045  36.701  33.383  1.00  0.00     0.020 A 
ATOM     79  C   UNL A   1      43.829  36.776  34.760  1.00  0.00     0.054 A 
BRANCH  79  80
ATOM     80  S   UNL A   1      44.412  38.210  35.704  1.00  0.00     0.124 S 
ATOM     81  O   UNL A   1      43.844  39.324  34.949  1.00  0.00    -0.237 OA
ATOM     82  O   UNL A   1      43.828  37.983  37.024  1.00  0.00    -0.237 OA
ATOM     83  O   UNL A   1      45.867  38.096  35.646  1.00  0.00    -0.744 OA
ENDBRANCH  79  80
ENDBRANCH  53  74
ENDBRANCH  27  28
ENDBRANCH  19  22
ENDBRANCH  17  18
ENDBRANCH   1  17
TORSDOF 16
ENDMDL
MODEL 3
REMARK VINA RESULT:      -9.5      3.272      5.883
REMARK SMILES O=C(CSC(=S)N1CCCCC1)NCCCNC(=O)c1ccc(-c2c3nc(c(-c4ccc(S(=O)(=O)[O-])cc4)c4ccc([nH]4)c(-c4ccc(S(=O)(=O)[O-])cc4)c4nc(c(-c5ccc(S(=O)(=O)[O-])cc5)c5ccc2[nH]5)C=C4)C=C3)cc1
REMARK SMILES IDX 15 1 14 2 13 3 1 4 2 5 3 7 4 8 5 9 6 10 7 11 8 12 12 13 9 14
REMARK SMILES IDX 11 15 10 16 16 17 17 18 18 19 19 21 20 22 21 23 79 24 22 25
REMARK SMILES IDX 78 26 23 27 24 28 25 29 72 30 26 31 77 32 71 33 73 34 27 35
REMARK SMILES IDX 76 36 70 37 69 38 28 40 58 41 39 42 57 43 40 44 43 45 56 46
REMARK SMILES IDX 74 47 41 48 42 49 55 51 75 52 44 53 29 54 30 55 38 56 31 57
REMARK SMILES IDX 37 58 32 59 33 60 34 61 35 62 36 63 59 64 60 65 68 66 61 67
REMARK SMILES IDX 67 68 62 69 63 70 64 71 65 72 66 73 45 74 46 75 54 76 47 77
REMARK SMILES IDX 53 78 48 79 49 80 50 81 51 82 52 83
REMARK H PARENT 13 6 17 20 73 39 43 50
REMARK Flexibility Score: inf
ROOT
ATOM      1  C   UNL A   1      35.281  33.090  28.007  1.00  0.00     0.042 C 
ENDROOT
BRANCH   1   2
ATOM      2  C   UNL A   1      36.380  33.674  28.887  1.00  0.00     0.117 C 
BRANCH   2   3
ATOM      3  N   UNL A   1      35.936  33.982  30.233  1.00  0.00    -0.355 N 
ATOM      4  O   UNL A   1      38.038  34.163  31.126  1.00  0.00    -0.274 OA
ATOM      5  C   UNL A   1      36.820  34.285  31.247  1.00  0.00     0.230 C 
ATOM      6  H   UNL A   1      34.972  33.975  30.429  1.00  0.00     0.163 HD
BRANCH   5   7
ATOM      7  C   UNL A   1      36.196  34.689  32.574  1.00  0.00     0.177 C 
BRANCH   7   8
ATOM      8  S   UNL A   1      35.767  33.298  33.656  1.00  0.00    -0.087 SA
BRANCH   8   9
ATOM      9  C   UNL A   1      37.205  32.991  34.641  1.00  0.00     0.136 C 
ATOM     10  S   UNL A   1      37.404  33.412  36.252  1.00  0.00    -0.053 S 
BRANCH   9  11
ATOM     11  N   UNL A   1      38.179  32.292  33.925  1.00  0.00    -0.358 N 
ATOM     12  C   UNL A   1      37.855  31.153  33.061  1.00  0.00     0.118 C 
ATOM     13  C   UNL A   1      39.615  32.484  34.163  1.00  0.00     0.118 C 
ATOM     14  C   UNL A   1      38.416  29.853  33.629  1.00  0.00     0.021 C 
ATOM     15  C   UNL A   1      40.218  31.209  34.764  1.00  0.00     0.021 C 
ATOM     16  C   UNL A   1      39.914  29.981  33.905  1.00  0.00     0.004 C 
ENDBRANCH   9  11
ENDBRANCH   8   9
ENDBRANCH   7   8
ENDBRANCH   5   7
ENDBRANCH   2   3
ENDBRANCH   1   2
BRANCH   1  17
ATOM     17  C   UNL A   1      34.249  32.247  28.751  1.00  0.00     0.118 C 
BRANCH  17  18
ATOM     18  N   UNL A   1      33.868  31.035  28.034  1.00  0.00    -0.352 N 
ATOM     19  C   UNL A   1      34.610  29.932  27.686  1.00  0.00     0.251 C 
ATOM     20  H   UNL A   1      32.925  31.001  27.754  1.00  0.00     0.163 HD
ATOM     21  O   UNL A   1      34.107  29.073  26.963  1.00  0.00    -0.269 OA
BRANCH  19  22
ATOM     22  C   UNL A   1      36.009  29.780  28.144  1.00  0.00     0.039 A 
ATOM     23  C   UNL A   1      36.247  29.380  29.462  1.00  0.00     0.014 A 
ATOM     24  C   UNL A   1      37.086  30.039  27.292  1.00  0.00     0.014 A 
ATOM     25  C   UNL A   1      37.556  29.153  29.898  1.00  0.00     0.010 A 
ATOM     26  C   UNL A   1      38.385  29.746  27.706  1.00  0.00     0.010 A 
ATOM     27  C   UNL A   1      38.633  29.285  29.008  1.00  0.00    -0.014 A 
BRANCH  27  28
ATOM     28  C   UNL A   1      40.018  28.909  29.402  1.00  0.00     0.031 A 
ATOM     29  C   UNL A   1      40.905  29.894  30.114  1.00  0.00     0.074 A 
ATOM     30  C   UNL A   1      40.505  27.704  29.043  1.00  0.00     0.049 A 
ATOM     31  N   UNL A   1      42.166  29.777  30.446  1.00  0.00    -0.248 NA
ATOM     32  C   UNL A   1      40.304  31.186  30.481  1.00  0.00     0.031 C 
ATOM     33  C   UNL A   1      39.760  26.668  28.325  1.00  0.00     0.029 A 
ATOM     34  N   UNL A   1      41.750  27.151  29.220  1.00  0.00    -0.354 N 
ATOM     35  C   UNL A   1      42.514  30.983  31.044  1.00  0.00     0.074 A 
ATOM     36  C   UNL A   1      41.343  31.832  30.992  1.00  0.00     0.031 C 
ATOM     37  C   UNL A   1      40.554  25.601  28.139  1.00  0.00     0.029 A 
ATOM     38  C   UNL A   1      41.878  25.892  28.678  1.00  0.00     0.049 A 
ATOM     39  H   UNL A   1      42.482  27.611  29.690  1.00  0.00     0.167 HD
ATOM     40  C   UNL A   1      43.696  31.345  31.599  1.00  0.00     0.031 A 
ATOM     41  C   UNL A   1      42.944  25.071  28.601  1.00  0.00     0.031 A 
ATOM     42  C   UNL A   1      44.859  30.497  31.651  1.00  0.00     0.049 A 
ATOM     43  C   UNL A   1      44.255  25.510  29.192  1.00  0.00     0.074 A 
ATOM     44  C   UNL A   1      46.085  30.757  32.239  1.00  0.00     0.029 A 
ATOM     45  N   UNL A   1      44.945  29.233  31.090  1.00  0.00    -0.354 N 
ATOM     46  N   UNL A   1      44.545  26.630  29.811  1.00  0.00    -0.248 NA
ATOM     47  C   UNL A   1      45.382  24.574  29.079  1.00  0.00     0.031 C 
ATOM     48  C   UNL A   1      46.932  29.675  31.981  1.00  0.00     0.029 A 
ATOM     49  C   UNL A   1      46.214  28.712  31.290  1.00  0.00     0.049 A 
ATOM     50  H   UNL A   1      44.214  28.772  30.619  1.00  0.00     0.167 HD
ATOM     51  C   UNL A   1      45.881  26.521  30.183  1.00  0.00     0.074 A 
ATOM     52  C   UNL A   1      46.336  25.221  29.734  1.00  0.00     0.031 C 
ATOM     53  C   UNL A   1      46.658  27.417  30.839  1.00  0.00     0.031 A 
BRANCH  40  54
ATOM     54  C   UNL A   1      43.797  32.730  32.186  1.00  0.00    -0.014 A 
ATOM     55  C   UNL A   1      44.279  33.810  31.424  1.00  0.00     0.010 A 
ATOM     56  C   UNL A   1      43.358  32.965  33.502  1.00  0.00     0.010 A 
ATOM     57  C   UNL A   1      44.361  35.090  31.982  1.00  0.00     0.020 A 
ATOM     58  C   UNL A   1      43.410  34.248  34.054  1.00  0.00     0.020 A 
ATOM     59  C   UNL A   1      43.928  35.299  33.295  1.00  0.00     0.054 A 
BRANCH  59  60
ATOM     60  S   UNL A   1      44.028  36.974  33.984  1.00  0.00     0.124 S 
ATOM     61  O   UNL A   1      45.471  37.163  34.108  1.00  0.00    -0.237 OA
ATOM     62  O   UNL A   1      43.375  37.783  32.958  1.00  0.00    -0.237 OA
ATOM     63  O   UNL A   1      43.304  36.874  35.248  1.00  0.00    -0.744 OA
ENDBRANCH  59  60
ENDBRANCH  40  54
BRANCH  41  64
ATOM     64  C   UNL A   1      42.813  23.744  27.936  1.00  0.00    -0.014 A 
ATOM     65  C   UNL A   1      42.450  22.606  28.677  1.00  0.00     0.010 A 
ATOM     66  C   UNL A   1      43.041  23.614  26.553  1.00  0.00     0.010 A 
ATOM     67  C   UNL A   1      42.334  21.360  28.053  1.00  0.00     0.020 A 
ATOM     68  C   UNL A   1      42.898  22.376  25.921  1.00  0.00     0.020 A 
ATOM     69  C   UNL A   1      42.556  21.254  26.678  1.00  0.00     0.054 A 
BRANCH  69  70
ATOM     70  S   UNL A   1      42.352  19.636  25.883  1.00  0.00     0.124 S 
ATOM     71  O   UNL A   1      42.626  18.719  26.984  1.00  0.00    -0.237 OA
ATOM     72  O   UNL A   1      40.965  19.683  25.427  1.00  0.00    -0.237 OA
ATOM     73  O   UNL A   1      43.351  19.650  24.816  1.00  0.00    -0.744 OA
ENDBRANCH  69  70
ENDBRANCH  41  64
BRANCH  53  74
ATOM     74  C   UNL A   1      48.078  27.018  31.144  1.00  0.00    -0.014 A 
ATOM     75  C   UNL A   1      48.392  26.243  32.274  1.00  0.00     0.010 A 
ATOM     76  C   UNL A   1      49.104  27.363  30.244  1.00  0.00     0.010 A 
ATOM     77  C   UNL A   1      49.710  25.842  32.511  1.00  0.00     0.020 A 
ATOM     78  C   UNL A   1      50.417  26.938  30.461  1.00  0.00     0.020 A 
ATOM     79  C   UNL A   1      50.714  26.187  31.600  1.00  0.00     0.054 A 
BRANCH  79  80
ATOM     80  S   UNL A   1      52.403  25.599  31.899  1.00  0.00     0.124 S 
ATOM     81  O   UNL A   1      52.186  24.185  32.195  1.00  0.00    -0.237 OA
ATOM     82  O   UNL A   1      53.068  25.880  30.629  1.00  0.00    -0.237 OA
ATOM     83  O   UNL A   1      52.858  26.408  33.027  1.00  0.00    -0.744 OA
ENDBRANCH  79  80
ENDBRANCH  53  74
ENDBRANCH  27  28
ENDBRANCH  19  22
ENDBRANCH  17  18
ENDBRANCH   1  17
TORSDOF 16
ENDMDL
