MODEL 1
REMARK VINA RESULT:     -12.0      0.000      0.000
REMARK SMILES O=C(NCCCNC(=O)[C@@]1([NH2+]C2CC2)CCC[C@@H](n2cncn2)C1)c1ccc(-c2c3nc(c(-c4ccc(S(=O)(=O)[O-])cc4)c4ccc([nH]4)c(-c4ccc(S(=O)(=O)[O-])cc4)c4nc(c(-c5ccc(S(=O)(=O)[O-])cc5)c5ccc2[nH]5)C=C4)C=C3)cc1
REMARK SMILES IDX 4 1 3 2 1 3 2 4 25 6 26 7 84 8 27 9 83 10 28 11 29 12 30 13
REMARK SMILES IDX 77 14 31 15 82 16 76 17 78 18 32 19 81 20 75 21 74 22 33 24
REMARK SMILES IDX 63 25 44 26 62 27 45 28 48 29 61 30 79 31 46 32 47 33 60 35
REMARK SMILES IDX 80 36 49 37 34 38 35 39 43 40 36 41 42 42 37 43 38 44 39 45
REMARK SMILES IDX 40 46 41 47 64 48 65 49 73 50 66 51 72 52 67 53 68 54 69 55
REMARK SMILES IDX 70 56 71 57 50 58 51 59 59 60 52 61 58 62 53 63 54 64 55 65
REMARK SMILES IDX 56 66 57 67 5 68 6 69 7 70 8 71 9 73 10 74 15 75 24 76 16 77
REMARK SMILES IDX 18 78 17 79 11 80 12 83 13 84 14 85 19 86 20 87 23 88 21 89
REMARK SMILES IDX 22 90
REMARK H PARENT 3 5 78 23 48 34 7 72 11 81 11 82
REMARK Flexibility Score: inf
ROOT
ATOM      1  C   UNL A   1      32.961  29.254  27.303  1.00  0.00     0.118 C 
ENDROOT
BRANCH   1   2
ATOM      2  N   UNL A   1      33.069  30.687  27.503  1.00  0.00    -0.352 N 
ATOM      3  O   UNL A   1      33.750  32.745  27.864  1.00  0.00    -0.269 OA
ATOM      4  C   UNL A   1      34.079  31.555  27.812  1.00  0.00     0.251 C 
ATOM      5  H   UNL A   1      32.205  31.145  27.390  1.00  0.00     0.163 HD
BRANCH   4   6
ATOM      6  C   UNL A   1      35.492  31.187  28.112  1.00  0.00     0.039 A 
ATOM      7  C   UNL A   1      36.472  32.033  28.635  1.00  0.00     0.014 A 
ATOM      8  C   UNL A   1      35.847  29.852  27.831  1.00  0.00     0.014 A 
ATOM      9  C   UNL A   1      37.777  31.573  28.829  1.00  0.00     0.010 A 
ATOM     10  C   UNL A   1      37.143  29.386  28.032  1.00  0.00     0.010 A 
ATOM     11  C   UNL A   1      38.118  30.256  28.512  1.00  0.00    -0.014 A 
BRANCH  11  12
ATOM     12  C   UNL A   1      39.468  29.783  28.827  1.00  0.00     0.031 A 
ATOM     13  C   UNL A   1      39.819  29.753  30.278  1.00  0.00     0.074 A 
ATOM     14  C   UNL A   1      40.296  29.220  27.923  1.00  0.00     0.049 A 
ATOM     15  N   UNL A   1      40.780  30.363  30.893  1.00  0.00    -0.248 NA
ATOM     16  C   UNL A   1      38.925  28.997  31.173  1.00  0.00     0.031 C 
ATOM     17  C   UNL A   1      39.992  28.867  26.533  1.00  0.00     0.029 A 
ATOM     18  N   UNL A   1      41.556  28.724  28.100  1.00  0.00    -0.354 N 
ATOM     19  C   UNL A   1      40.736  29.924  32.217  1.00  0.00     0.074 A 
ATOM     20  C   UNL A   1      39.499  29.199  32.359  1.00  0.00     0.031 C 
ATOM     21  C   UNL A   1      40.939  28.018  26.074  1.00  0.00     0.029 A 
ATOM     22  C   UNL A   1      41.977  27.876  27.081  1.00  0.00     0.049 A 
ATOM     23  H   UNL A   1      42.116  28.948  28.878  1.00  0.00     0.167 HD
ATOM     24  C   UNL A   1      41.810  30.005  33.053  1.00  0.00     0.031 A 
ATOM     25  C   UNL A   1      43.061  27.059  27.091  1.00  0.00     0.031 A 
ATOM     26  C   UNL A   1      42.810  30.917  32.567  1.00  0.00     0.049 A 
ATOM     27  C   UNL A   1      43.988  27.549  28.136  1.00  0.00     0.074 A 
ATOM     28  C   UNL A   1      42.844  32.263  32.259  1.00  0.00     0.029 A 
ATOM     29  N   UNL A   1      43.940  30.375  32.004  1.00  0.00    -0.354 N 
ATOM     30  N   UNL A   1      44.625  28.683  28.068  1.00  0.00    -0.248 NA
ATOM     31  C   UNL A   1      43.917  26.954  29.461  1.00  0.00     0.031 C 
ATOM     32  C   UNL A   1      43.720  32.362  31.139  1.00  0.00     0.029 A 
ATOM     33  C   UNL A   1      44.201  31.081  30.861  1.00  0.00     0.049 A 
ATOM     34  H   UNL A   1      44.464  29.620  32.357  1.00  0.00     0.167 HD
ATOM     35  C   UNL A   1      44.666  29.149  29.372  1.00  0.00     0.074 A 
ATOM     36  C   UNL A   1      44.319  27.994  30.196  1.00  0.00     0.031 C 
ATOM     37  C   UNL A   1      44.711  30.488  29.644  1.00  0.00     0.031 A 
BRANCH  24  38
ATOM     38  C   UNL A   1      42.134  28.965  34.107  1.00  0.00    -0.014 A 
ATOM     39  C   UNL A   1      42.488  27.662  33.691  1.00  0.00     0.010 A 
ATOM     40  C   UNL A   1      41.807  29.128  35.468  1.00  0.00     0.010 A 
ATOM     41  C   UNL A   1      42.402  26.569  34.564  1.00  0.00     0.020 A 
ATOM     42  C   UNL A   1      41.766  28.052  36.358  1.00  0.00     0.020 A 
ATOM     43  C   UNL A   1      42.014  26.771  35.888  1.00  0.00     0.054 A 
BRANCH  43  44
ATOM     44  S   UNL A   1      41.739  25.341  36.962  1.00  0.00     0.124 S 
ATOM     45  O   UNL A   1      40.568  25.762  37.722  1.00  0.00    -0.237 OA
ATOM     46  O   UNL A   1      41.520  24.267  35.999  1.00  0.00    -0.237 OA
ATOM     47  O   UNL A   1      42.983  25.244  37.724  1.00  0.00    -0.744 OA
ENDBRANCH  43  44
ENDBRANCH  24  38
BRANCH  25  48
ATOM     48  C   UNL A   1      43.199  25.720  26.465  1.00  0.00    -0.014 A 
ATOM     49  C   UNL A   1      43.996  25.526  25.320  1.00  0.00     0.010 A 
ATOM     50  C   UNL A   1      42.764  24.573  27.160  1.00  0.00     0.010 A 
ATOM     51  C   UNL A   1      44.387  24.235  24.921  1.00  0.00     0.020 A 
ATOM     52  C   UNL A   1      43.141  23.285  26.764  1.00  0.00     0.020 A 
ATOM     53  C   UNL A   1      43.971  23.123  25.658  1.00  0.00     0.054 A 
BRANCH  53  54
ATOM     54  S   UNL A   1      44.618  21.476  25.244  1.00  0.00     0.124 S 
ATOM     55  O   UNL A   1      45.964  21.520  25.808  1.00  0.00    -0.237 OA
ATOM     56  O   UNL A   1      43.679  20.585  25.918  1.00  0.00    -0.237 OA
ATOM     57  O   UNL A   1      44.560  21.440  23.783  1.00  0.00    -0.744 OA
ENDBRANCH  53  54
ENDBRANCH  25  48
BRANCH  37  58
ATOM     58  C   UNL A   1      45.051  31.443  28.526  1.00  0.00    -0.014 A 
ATOM     59  C   UNL A   1      44.117  31.896  27.574  1.00  0.00     0.010 A 
ATOM     60  C   UNL A   1      46.333  32.023  28.535  1.00  0.00     0.010 A 
ATOM     61  C   UNL A   1      44.464  32.886  26.644  1.00  0.00     0.020 A 
ATOM     62  C   UNL A   1      46.679  33.024  27.625  1.00  0.00     0.020 A 
ATOM     63  C   UNL A   1      45.745  33.447  26.677  1.00  0.00     0.054 A 
BRANCH  63  64
ATOM     64  S   UNL A   1      46.176  34.771  25.514  1.00  0.00     0.124 S 
ATOM     65  O   UNL A   1      45.307  34.484  24.371  1.00  0.00    -0.237 OA
ATOM     66  O   UNL A   1      45.844  35.984  26.265  1.00  0.00    -0.237 OA
ATOM     67  O   UNL A   1      47.598  34.576  25.271  1.00  0.00    -0.744 OA
ENDBRANCH  63  64
ENDBRANCH  37  58
ENDBRANCH  11  12
ENDBRANCH   4   6
ENDBRANCH   1   2
BRANCH   1  68
ATOM     68  C   UNL A   1      32.845  28.849  25.831  1.00  0.00     0.042 C 
BRANCH  68  69
ATOM     69  C   UNL A   1      33.921  27.843  25.394  1.00  0.00     0.118 C 
BRANCH  69  70
ATOM     70  N   UNL A   1      33.667  27.318  24.058  1.00  0.00    -0.351 N 
ATOM     71  C   UNL A   1      33.622  26.081  23.489  1.00  0.00     0.281 C 
ATOM     72  H   UNL A   1      33.482  28.033  23.408  1.00  0.00     0.163 HD
ATOM     73  O   UNL A   1      33.538  26.101  22.250  1.00  0.00    -0.268 OA
BRANCH  71  74
ATOM     74  C   UNL A   1      33.634  24.708  24.256  1.00  0.00     0.177 C 
ATOM     75  C   UNL A   1      33.331  23.587  23.225  1.00  0.00     0.079 C 
ATOM     76  C   UNL A   1      35.036  24.404  24.838  1.00  0.00     0.106 C 
ATOM     77  C   UNL A   1      33.494  22.170  23.761  1.00  0.00     0.009 C 
ATOM     78  C   UNL A   1      35.329  22.962  25.292  1.00  0.00     0.116 C 
ATOM     79  C   UNL A   1      34.924  21.940  24.226  1.00  0.00     0.028 C 
BRANCH  74  80
ATOM     80  N   UNL A   1      32.704  24.728  25.418  1.00  0.00    -0.331 N 
ATOM     81  H   UNL A   1      32.971  25.552  25.957  1.00  0.00     0.347 HD
ATOM     82  H   UNL A   1      32.835  23.775  25.758  1.00  0.00     0.347 HD
BRANCH  80  83
ATOM     83  C   UNL A   1      31.237  24.769  25.359  1.00  0.00     0.183 C 
ATOM     84  C   UNL A   1      30.418  26.021  25.429  1.00  0.00     0.071 C 
ATOM     85  C   UNL A   1      30.376  25.159  24.199  1.00  0.00     0.071 C 
ENDBRANCH  80  83
ENDBRANCH  74  80
BRANCH  78  86
ATOM     86  N   UNL A   1      36.728  22.865  25.705  1.00  0.00    -0.250 N 
ATOM     87  C   UNL A   1      37.502  23.872  26.203  1.00  0.00     0.220 A 
ATOM     88  N   UNL A   1      37.453  21.746  25.536  1.00  0.00    -0.160 NA
ATOM     89  N   UNL A   1      38.731  23.450  26.348  1.00  0.00    -0.224 NA
ATOM     90  C   UNL A   1      38.658  22.141  25.966  1.00  0.00     0.246 A 
ENDBRANCH  78  86
ENDBRANCH  71  74
ENDBRANCH  69  70
ENDBRANCH  68  69
ENDBRANCH   1  68
TORSDOF 16
ENDMDL
MODEL 2
REMARK VINA RESULT:     -12.0      1.556      2.437
REMARK SMILES O=C(NCCCNC(=O)[C@@]1([NH2+]C2CC2)CCC[C@@H](n2cncn2)C1)c1ccc(-c2c3nc(c(-c4ccc(S(=O)(=O)[O-])cc4)c4ccc([nH]4)c(-c4ccc(S(=O)(=O)[O-])cc4)c4nc(c(-c5ccc(S(=O)(=O)[O-])cc5)c5ccc2[nH]5)C=C4)C=C3)cc1
REMARK SMILES IDX 4 1 3 2 1 3 2 4 25 6 26 7 84 8 27 9 83 10 28 11 29 12 30 13
REMARK SMILES IDX 77 14 31 15 82 16 76 17 78 18 32 19 81 20 75 21 74 22 33 24
REMARK SMILES IDX 63 25 44 26 62 27 45 28 48 29 61 30 79 31 46 32 47 33 60 35
REMARK SMILES IDX 80 36 49 37 34 38 35 39 43 40 36 41 42 42 37 43 38 44 39 45
REMARK SMILES IDX 40 46 41 47 64 48 65 49 73 50 66 51 72 52 67 53 68 54 69 55
REMARK SMILES IDX 70 56 71 57 50 58 51 59 59 60 52 61 58 62 53 63 54 64 55 65
REMARK SMILES IDX 56 66 57 67 5 68 6 69 7 70 8 71 9 73 10 74 15 75 24 76 16 77
REMARK SMILES IDX 18 78 17 79 11 80 12 83 13 84 14 85 19 86 20 87 23 88 21 89
REMARK SMILES IDX 22 90
REMARK H PARENT 3 5 78 23 48 34 7 72 11 81 11 82
REMARK Flexibility Score: inf
ROOT
ATOM      1  C   UNL A   1      33.189  29.554  26.290  1.00  0.00     0.118 C 
ENDROOT
BRANCH   1   2
ATOM      2  N   UNL A   1      33.305  30.783  27.052  1.00  0.00    -0.352 N 
ATOM      3  O   UNL A   1      33.984  32.479  28.274  1.00  0.00    -0.269 OA
ATOM      4  C   UNL A   1      34.285  31.381  27.793  1.00  0.00     0.251 C 
ATOM      5  H   UNL A   1      32.477  31.315  27.030  1.00  0.00     0.163 HD
BRANCH   4   6
ATOM      6  C   UNL A   1      35.634  30.817  28.085  1.00  0.00     0.039 A 
ATOM      7  C   UNL A   1      36.029  29.489  27.908  1.00  0.00     0.014 A 
ATOM      8  C   UNL A   1      36.582  31.732  28.587  1.00  0.00     0.014 A 
ATOM      9  C   UNL A   1      37.317  29.079  28.264  1.00  0.00     0.010 A 
ATOM     10  C   UNL A   1      37.868  31.330  28.934  1.00  0.00     0.010 A 
ATOM     11  C   UNL A   1      38.231  29.993  28.793  1.00  0.00    -0.014 A 
BRANCH  11  12
ATOM     12  C   UNL A   1      39.601  29.547  29.056  1.00  0.00     0.031 A 
ATOM     13  C   UNL A   1      39.945  29.333  30.493  1.00  0.00     0.074 A 
ATOM     14  C   UNL A   1      40.460  29.157  28.092  1.00  0.00     0.049 A 
ATOM     15  N   UNL A   1      40.872  29.897  31.198  1.00  0.00    -0.248 NA
ATOM     16  C   UNL A   1      39.086  28.417  31.263  1.00  0.00     0.031 C 
ATOM     17  C   UNL A   1      40.182  28.987  26.664  1.00  0.00     0.029 A 
ATOM     18  N   UNL A   1      41.743  28.703  28.213  1.00  0.00    -0.354 N 
ATOM     19  C   UNL A   1      40.843  29.276  32.447  1.00  0.00     0.074 A 
ATOM     20  C   UNL A   1      39.643  28.479  32.472  1.00  0.00     0.031 C 
ATOM     21  C   UNL A   1      41.172  28.257  26.102  1.00  0.00     0.029 A 
ATOM     22  C   UNL A   1      42.211  28.027  27.092  1.00  0.00     0.049 A 
ATOM     23  H   UNL A   1      42.287  28.843  29.022  1.00  0.00     0.167 HD
ATOM     24  C   UNL A   1      41.907  29.292  33.300  1.00  0.00     0.031 A 
ATOM     25  C   UNL A   1      43.334  27.271  27.001  1.00  0.00     0.031 A 
ATOM     26  C   UNL A   1      42.862  30.311  32.957  1.00  0.00     0.049 A 
ATOM     27  C   UNL A   1      44.230  27.655  28.115  1.00  0.00     0.074 A 
ATOM     28  C   UNL A   1      42.831  31.686  32.839  1.00  0.00     0.029 A 
ATOM     29  N   UNL A   1      44.022  29.908  32.338  1.00  0.00    -0.354 N 
ATOM     30  N   UNL A   1      44.810  28.817  28.213  1.00  0.00    -0.248 NA
ATOM     31  C   UNL A   1      44.183  26.878  29.344  1.00  0.00     0.031 C 
ATOM     32  C   UNL A   1      43.707  31.983  31.754  1.00  0.00     0.029 A 
ATOM     33  C   UNL A   1      44.253  30.779  31.307  1.00  0.00     0.049 A 
ATOM     34  H   UNL A   1      44.581  29.138  32.589  1.00  0.00     0.167 HD
ATOM     35  C   UNL A   1      44.821  29.098  29.570  1.00  0.00     0.074 A 
ATOM     36  C   UNL A   1      44.528  27.824  30.221  1.00  0.00     0.031 C 
ATOM     37  C   UNL A   1      44.797  30.386  30.026  1.00  0.00     0.031 A 
BRANCH  24  38
ATOM     38  C   UNL A   1      42.278  28.132  34.202  1.00  0.00    -0.014 A 
ATOM     39  C   UNL A   1      42.228  28.316  35.602  1.00  0.00     0.010 A 
ATOM     40  C   UNL A   1      42.959  26.989  33.737  1.00  0.00     0.010 A 
ATOM     41  C   UNL A   1      42.924  27.467  36.474  1.00  0.00     0.020 A 
ATOM     42  C   UNL A   1      43.614  26.110  34.602  1.00  0.00     0.020 A 
ATOM     43  C   UNL A   1      43.636  26.384  35.962  1.00  0.00     0.054 A 
BRANCH  43  44
ATOM     44  S   UNL A   1      44.669  25.395  37.070  1.00  0.00     0.124 S 
ATOM     45  O   UNL A   1      46.002  25.909  36.772  1.00  0.00    -0.237 OA
ATOM     46  O   UNL A   1      44.135  25.740  38.384  1.00  0.00    -0.237 OA
ATOM     47  O   UNL A   1      44.413  24.021  36.640  1.00  0.00    -0.744 OA
ENDBRANCH  43  44
ENDBRANCH  24  38
BRANCH  25  48
ATOM     48  C   UNL A   1      43.543  26.040  26.197  1.00  0.00    -0.014 A 
ATOM     49  C   UNL A   1      44.753  25.807  25.516  1.00  0.00     0.010 A 
ATOM     50  C   UNL A   1      42.647  24.959  26.325  1.00  0.00     0.010 A 
ATOM     51  C   UNL A   1      45.076  24.527  25.031  1.00  0.00     0.020 A 
ATOM     52  C   UNL A   1      42.956  23.685  25.837  1.00  0.00     0.020 A 
ATOM     53  C   UNL A   1      44.181  23.469  25.212  1.00  0.00     0.054 A 
BRANCH  53  54
ATOM     54  S   UNL A   1      44.674  21.784  24.741  1.00  0.00     0.124 S 
ATOM     55  O   UNL A   1      45.983  21.654  25.374  1.00  0.00    -0.237 OA
ATOM     56  O   UNL A   1      43.609  20.967  25.317  1.00  0.00    -0.237 OA
ATOM     57  O   UNL A   1      44.695  21.826  23.280  1.00  0.00    -0.744 OA
ENDBRANCH  53  54
ENDBRANCH  25  48
BRANCH  37  58
ATOM     58  C   UNL A   1      45.096  31.504  29.055  1.00  0.00    -0.014 A 
ATOM     59  C   UNL A   1      46.389  32.009  28.820  1.00  0.00     0.010 A 
ATOM     60  C   UNL A   1      44.043  31.951  28.237  1.00  0.00     0.010 A 
ATOM     61  C   UNL A   1      46.617  32.954  27.809  1.00  0.00     0.020 A 
ATOM     62  C   UNL A   1      44.266  32.876  27.215  1.00  0.00     0.020 A 
ATOM     63  C   UNL A   1      45.552  33.380  27.009  1.00  0.00     0.054 A 
BRANCH  63  64
ATOM     64  S   UNL A   1      45.855  34.556  25.661  1.00  0.00     0.124 S 
ATOM     65  O   UNL A   1      47.286  34.380  25.405  1.00  0.00    -0.237 OA
ATOM     66  O   UNL A   1      44.966  34.073  24.603  1.00  0.00    -0.237 OA
ATOM     67  O   UNL A   1      45.484  35.844  26.228  1.00  0.00    -0.744 OA
ENDBRANCH  63  64
ENDBRANCH  37  58
ENDBRANCH  11  12
ENDBRANCH   4   6
ENDBRANCH   1   2
BRANCH   1  68
ATOM     68  C   UNL A   1      32.569  28.400  27.083  1.00  0.00     0.042 C 
BRANCH  68  69
ATOM     69  C   UNL A   1      31.526  27.607  26.281  1.00  0.00     0.118 C 
BRANCH  69  70
ATOM     70  N   UNL A   1      31.298  26.281  26.843  1.00  0.00    -0.351 N 
ATOM     71  C   UNL A   1      31.624  25.004  26.495  1.00  0.00     0.281 C 
ATOM     72  H   UNL A   1      30.781  26.317  27.680  1.00  0.00     0.163 HD
ATOM     73  O   UNL A   1      31.065  24.137  27.187  1.00  0.00    -0.268 OA
BRANCH  71  74
ATOM     74  C   UNL A   1      32.632  24.583  25.364  1.00  0.00     0.177 C 
ATOM     75  C   UNL A   1      34.070  24.856  25.886  1.00  0.00     0.079 C 
ATOM     76  C   UNL A   1      32.549  23.064  25.078  1.00  0.00     0.106 C 
ATOM     77  C   UNL A   1      35.182  24.324  24.991  1.00  0.00     0.009 C 
ATOM     78  C   UNL A   1      33.698  22.418  24.282  1.00  0.00     0.116 C 
ATOM     79  C   UNL A   1      35.067  22.815  24.842  1.00  0.00     0.028 C 
BRANCH  74  80
ATOM     80  N   UNL A   1      32.318  25.261  24.077  1.00  0.00    -0.331 N 
ATOM     81  H   UNL A   1      31.604  25.951  24.308  1.00  0.00     0.347 HD
ATOM     82  H   UNL A   1      32.135  24.444  23.495  1.00  0.00     0.347 HD
BRANCH  80  83
ATOM     83  C   UNL A   1      33.269  25.971  23.211  1.00  0.00     0.183 C 
ATOM     84  C   UNL A   1      32.879  26.879  22.086  1.00  0.00     0.071 C 
ATOM     85  C   UNL A   1      33.648  27.417  23.259  1.00  0.00     0.071 C 
ENDBRANCH  80  83
ENDBRANCH  74  80
BRANCH  78  86
ATOM     86  N   UNL A   1      33.481  20.974  24.214  1.00  0.00    -0.250 N 
ATOM     87  C   UNL A   1      32.418  20.335  23.645  1.00  0.00     0.220 A 
ATOM     88  N   UNL A   1      34.297  20.093  24.819  1.00  0.00    -0.160 NA
ATOM     89  N   UNL A   1      32.501  19.051  23.879  1.00  0.00    -0.224 NA
ATOM     90  C   UNL A   1      33.675  18.935  24.566  1.00  0.00     0.246 A 
ENDBRANCH  78  86
ENDBRANCH  71  74
ENDBRANCH  69  70
ENDBRANCH  68  69
ENDBRANCH   1  68
TORSDOF 16
ENDMDL
MODEL 3
REMARK VINA RESULT:     -11.7      2.531      9.291
REMARK SMILES O=C(NCCCNC(=O)[C@@]1([NH2+]C2CC2)CCC[C@@H](n2cncn2)C1)c1ccc(-c2c3nc(c(-c4ccc(S(=O)(=O)[O-])cc4)c4ccc([nH]4)c(-c4ccc(S(=O)(=O)[O-])cc4)c4nc(c(-c5ccc(S(=O)(=O)[O-])cc5)c5ccc2[nH]5)C=C4)C=C3)cc1
REMARK SMILES IDX 4 1 3 2 1 3 2 4 25 6 26 7 84 8 27 9 83 10 28 11 29 12 30 13
REMARK SMILES IDX 77 14 31 15 82 16 76 17 78 18 32 19 81 20 75 21 74 22 33 24
REMARK SMILES IDX 63 25 44 26 62 27 45 28 48 29 61 30 79 31 46 32 47 33 60 35
REMARK SMILES IDX 80 36 49 37 34 38 35 39 43 40 36 41 42 42 37 43 38 44 39 45
REMARK SMILES IDX 40 46 41 47 64 48 65 49 73 50 66 51 72 52 67 53 68 54 69 55
REMARK SMILES IDX 70 56 71 57 50 58 51 59 59 60 52 61 58 62 53 63 54 64 55 65
REMARK SMILES IDX 56 66 57 67 5 68 6 69 7 70 8 71 9 73 10 74 15 75 24 76 16 77
REMARK SMILES IDX 18 78 17 79 11 80 12 83 13 84 14 85 19 86 20 87 23 88 21 89
REMARK SMILES IDX 22 90
REMARK H PARENT 3 5 78 23 48 34 7 72 11 81 11 82
REMARK Flexibility Score: inf
ROOT
ATOM      1  C   UNL A   1      37.329  22.233  24.637  1.00  0.00     0.118 C 
ENDROOT
BRANCH   1   2
ATOM      2  N   UNL A   1      38.348  21.460  25.322  1.00  0.00    -0.352 N 
ATOM      3  O   UNL A   1      39.984  20.751  26.607  1.00  0.00    -0.269 OA
ATOM      4  C   UNL A   1      39.318  21.727  26.247  1.00  0.00     0.251 C 
ATOM      5  H   UNL A   1      38.339  20.513  25.054  1.00  0.00     0.163 HD
BRANCH   4   6
ATOM      6  C   UNL A   1      39.647  23.067  26.813  1.00  0.00     0.039 A 
ATOM      7  C   UNL A   1      38.871  24.223  26.701  1.00  0.00     0.014 A 
ATOM      8  C   UNL A   1      40.862  23.147  27.522  1.00  0.00     0.014 A 
ATOM      9  C   UNL A   1      39.316  25.431  27.243  1.00  0.00     0.010 A 
ATOM     10  C   UNL A   1      41.306  24.347  28.071  1.00  0.00     0.010 A 
ATOM     11  C   UNL A   1      40.541  25.499  27.912  1.00  0.00    -0.014 A 
BRANCH  11  12
ATOM     12  C   UNL A   1      40.923  26.758  28.555  1.00  0.00     0.031 A 
ATOM     13  C   UNL A   1      42.129  27.431  27.988  1.00  0.00     0.074 A 
ATOM     14  C   UNL A   1      40.159  27.399  29.464  1.00  0.00     0.049 A 
ATOM     15  N   UNL A   1      43.235  27.748  28.581  1.00  0.00    -0.248 NA
ATOM     16  C   UNL A   1      42.124  27.721  26.544  1.00  0.00     0.031 C 
ATOM     17  C   UNL A   1      38.799  27.055  29.888  1.00  0.00     0.029 A 
ATOM     18  N   UNL A   1      40.395  28.579  30.110  1.00  0.00    -0.354 N 
ATOM     19  C   UNL A   1      43.994  28.447  27.640  1.00  0.00     0.074 A 
ATOM     20  C   UNL A   1      43.323  28.278  26.377  1.00  0.00     0.031 C 
ATOM     21  C   UNL A   1      38.253  28.113  30.528  1.00  0.00     0.029 A 
ATOM     22  C   UNL A   1      39.260  29.150  30.675  1.00  0.00     0.049 A 
ATOM     23  H   UNL A   1      41.289  28.988  30.170  1.00  0.00     0.167 HD
ATOM     24  C   UNL A   1      45.007  29.289  27.994  1.00  0.00     0.031 A 
ATOM     25  C   UNL A   1      39.134  30.409  31.165  1.00  0.00     0.031 A 
ATOM     26  C   UNL A   1      45.446  29.072  29.346  1.00  0.00     0.049 A 
ATOM     27  C   UNL A   1      40.494  30.924  31.446  1.00  0.00     0.074 A 
ATOM     28  C   UNL A   1      45.976  28.007  30.047  1.00  0.00     0.029 A 
ATOM     29  N   UNL A   1      45.048  29.984  30.295  1.00  0.00    -0.354 N 
ATOM     30  N   UNL A   1      41.271  30.452  32.378  1.00  0.00    -0.248 NA
ATOM     31  C   UNL A   1      41.158  31.722  30.427  1.00  0.00     0.031 C 
ATOM     32  C   UNL A   1      45.433  28.124  31.360  1.00  0.00     0.029 A 
ATOM     33  C   UNL A   1      44.643  29.274  31.393  1.00  0.00     0.049 A 
ATOM     34  H   UNL A   1      45.053  30.964  30.201  1.00  0.00     0.167 HD
ATOM     35  C   UNL A   1      42.550  30.528  31.851  1.00  0.00     0.074 A 
ATOM     36  C   UNL A   1      42.430  31.420  30.700  1.00  0.00     0.031 C 
ATOM     37  C   UNL A   1      43.526  29.651  32.231  1.00  0.00     0.031 A 
BRANCH  24  38
ATOM     38  C   UNL A   1      45.330  30.571  27.253  1.00  0.00    -0.014 A 
ATOM     39  C   UNL A   1      46.672  30.829  26.894  1.00  0.00     0.010 A 
ATOM     40  C   UNL A   1      44.433  31.655  27.175  1.00  0.00     0.010 A 
ATOM     41  C   UNL A   1      47.108  32.126  26.590  1.00  0.00     0.020 A 
ATOM     42  C   UNL A   1      44.849  32.942  26.825  1.00  0.00     0.020 A 
ATOM     43  C   UNL A   1      46.194  33.179  26.585  1.00  0.00     0.054 A 
BRANCH  43  44
ATOM     44  S   UNL A   1      46.791  34.873  26.361  1.00  0.00     0.124 S 
ATOM     45  O   UNL A   1      47.629  34.738  25.175  1.00  0.00    -0.237 OA
ATOM     46  O   UNL A   1      45.549  35.618  26.179  1.00  0.00    -0.237 OA
ATOM     47  O   UNL A   1      47.503  35.151  27.607  1.00  0.00    -0.744 OA
ENDBRANCH  43  44
ENDBRANCH  24  38
BRANCH  25  48
ATOM     48  C   UNL A   1      37.941  31.291  31.118  1.00  0.00    -0.014 A 
ATOM     49  C   UNL A   1      36.656  30.799  31.417  1.00  0.00     0.010 A 
ATOM     50  C   UNL A   1      38.104  32.689  31.047  1.00  0.00     0.010 A 
ATOM     51  C   UNL A   1      35.590  31.676  31.688  1.00  0.00     0.020 A 
ATOM     52  C   UNL A   1      37.047  33.568  31.305  1.00  0.00     0.020 A 
ATOM     53  C   UNL A   1      35.798  33.057  31.648  1.00  0.00     0.054 A 
BRANCH  53  54
ATOM     54  S   UNL A   1      34.469  34.183  32.167  1.00  0.00     0.124 S 
ATOM     55  O   UNL A   1      35.213  35.297  32.745  1.00  0.00    -0.237 OA
ATOM     56  O   UNL A   1      33.781  34.465  30.910  1.00  0.00    -0.237 OA
ATOM     57  O   UNL A   1      33.700  33.389  33.125  1.00  0.00    -0.744 OA
ENDBRANCH  53  54
ENDBRANCH  25  48
BRANCH  37  58
ATOM     58  C   UNL A   1      43.305  28.813  33.467  1.00  0.00    -0.014 A 
ATOM     59  C   UNL A   1      43.617  29.247  34.770  1.00  0.00     0.010 A 
ATOM     60  C   UNL A   1      42.610  27.600  33.313  1.00  0.00     0.010 A 
ATOM     61  C   UNL A   1      43.263  28.475  35.887  1.00  0.00     0.020 A 
ATOM     62  C   UNL A   1      42.236  26.837  34.422  1.00  0.00     0.020 A 
ATOM     63  C   UNL A   1      42.570  27.274  35.705  1.00  0.00     0.054 A 
BRANCH  63  64
ATOM     64  S   UNL A   1      42.058  26.305  37.151  1.00  0.00     0.124 S 
ATOM     65  O   UNL A   1      40.730  26.850  37.442  1.00  0.00    -0.237 OA
ATOM     66  O   UNL A   1      42.073  24.932  36.643  1.00  0.00    -0.237 OA
ATOM     67  O   UNL A   1      43.077  26.597  38.149  1.00  0.00    -0.744 OA
ENDBRANCH  63  64
ENDBRANCH  37  58
ENDBRANCH  11  12
ENDBRANCH   4   6
ENDBRANCH   1   2
BRANCH   1  68
ATOM     68  C   UNL A   1      35.922  22.029  25.206  1.00  0.00     0.042 C 
BRANCH  68  69
ATOM     69  C   UNL A   1      35.406  23.245  25.991  1.00  0.00     0.118 C 
BRANCH  69  70
ATOM     70  N   UNL A   1      34.123  22.977  26.631  1.00  0.00    -0.351 N 
ATOM     71  C   UNL A   1      32.906  23.587  26.670  1.00  0.00     0.281 C 
ATOM     72  H   UNL A   1      34.142  22.151  27.166  1.00  0.00     0.163 HD
ATOM     73  O   UNL A   1      32.124  23.095  27.500  1.00  0.00    -0.268 OA
BRANCH  71  74
ATOM     74  C   UNL A   1      32.442  24.783  25.761  1.00  0.00     0.177 C 
ATOM     75  C   UNL A   1      30.905  24.935  25.927  1.00  0.00     0.079 C 
ATOM     76  C   UNL A   1      33.068  26.119  26.230  1.00  0.00     0.106 C 
ATOM     77  C   UNL A   1      30.312  26.172  25.264  1.00  0.00     0.009 C 
ATOM     78  C   UNL A   1      32.450  27.427  25.703  1.00  0.00     0.116 C 
ATOM     79  C   UNL A   1      30.927  27.434  25.852  1.00  0.00     0.028 C 
BRANCH  74  80
ATOM     80  N   UNL A   1      32.882  24.597  24.351  1.00  0.00    -0.331 N 
ATOM     81  H   UNL A   1      33.868  24.344  24.413  1.00  0.00     0.347 HD
ATOM     82  H   UNL A   1      32.557  25.478  23.953  1.00  0.00     0.347 HD
BRANCH  80  83
ATOM     83  C   UNL A   1      32.308  23.660  23.376  1.00  0.00     0.183 C 
ATOM     84  C   UNL A   1      33.111  22.741  22.508  1.00  0.00     0.071 C 
ATOM     85  C   UNL A   1      32.146  22.179  23.513  1.00  0.00     0.071 C 
ENDBRANCH  80  83
ENDBRANCH  74  80
BRANCH  78  86
ATOM     86  N   UNL A   1      33.114  28.562  26.344  1.00  0.00    -0.250 N 
ATOM     87  C   UNL A   1      32.746  29.873  26.263  1.00  0.00     0.220 A 
ATOM     88  N   UNL A   1      34.262  28.431  27.031  1.00  0.00    -0.160 NA
ATOM     89  N   UNL A   1      33.638  30.617  26.864  1.00  0.00    -0.224 NA
ATOM     90  C   UNL A   1      34.529  29.704  27.350  1.00  0.00     0.246 A 
ENDBRANCH  78  86
ENDBRANCH  71  74
ENDBRANCH  69  70
ENDBRANCH  68  69
ENDBRANCH   1  68
TORSDOF 16
ENDMDL
