MODEL 1
REMARK VINA RESULT:     -11.6      0.000      0.000
REMARK SMILES Cc1cc(C)c2c(c1)C=C(C(=O)NCCCNC(=O)c1ccc(-c3c4nc(c(-c5ccc(S(=O)(=O)[O-])cc5)c5ccc([nH]5)c(-c5ccc(S(=O)(=O)[O-])cc5)c5nc(c(-c6ccc(S(=O)(=O)[O-])cc6)c6ccc3[nH]6)C=C5)C=C4)cc1)[C@@H](C(F)(F)F)O2
REMARK SMILES IDX 16 1 15 2 14 3 13 4 11 5 12 6 10 8 1 9 2 10 3 11 8 12 4 13
REMARK SMILES IDX 7 14 5 15 6 16 9 17 85 18 80 19 81 20 82 21 83 22 84 23
REMARK SMILES IDX 17 24 18 25 19 27 20 28 21 29 79 30 22 31 78 32 23 33 24 34
REMARK SMILES IDX 25 35 72 36 26 37 77 38 71 39 73 40 27 41 76 42 70 43 69 44
REMARK SMILES IDX 28 46 58 47 39 48 57 49 40 50 43 51 56 52 74 53 41 54 42 55
REMARK SMILES IDX 55 57 75 58 44 59 29 60 30 61 38 62 31 63 37 64 32 65 33 66
REMARK SMILES IDX 34 67 35 68 36 69 59 70 60 71 68 72 61 73 67 74 62 75 63 76
REMARK SMILES IDX 64 77 65 78 66 79 45 80 46 81 54 82 47 83 53 84 48 85 49 86
REMARK SMILES IDX 50 87 51 88 52 89
REMARK H PARENT 13 7 17 26 73 45 43 56
REMARK Flexibility Score: inf
ROOT
ATOM      1  C   UNL A   1      33.724  28.285  26.976  1.00  0.00     0.118 C 
ENDROOT
BRANCH   1   2
ATOM      2  C   UNL A   1      34.046  28.103  25.500  1.00  0.00     0.042 C 
BRANCH   2   3
ATOM      3  C   UNL A   1      32.860  27.558  24.719  1.00  0.00     0.118 C 
BRANCH   3   4
ATOM      4  N   UNL A   1      31.894  26.895  25.584  1.00  0.00    -0.352 N 
ATOM      5  C   UNL A   1      31.685  25.647  26.063  1.00  0.00     0.251 C 
ATOM      6  O   UNL A   1      30.712  25.527  26.816  1.00  0.00    -0.270 OA
ATOM      7  H   UNL A   1      31.209  27.525  25.907  1.00  0.00     0.163 HD
BRANCH   5   8
ATOM      8  C   UNL A   1      32.529  24.458  25.750  1.00  0.00     0.067 C 
ATOM      9  C   UNL A   1      38.396  22.498  25.931  1.00  0.00     0.044 C 
ATOM     10  C   UNL A   1      36.915  22.413  25.710  1.00  0.00    -0.050 A 
ATOM     11  C   UNL A   1      36.339  21.203  25.295  1.00  0.00     0.010 A 
ATOM     12  C   UNL A   1      36.087  23.512  25.981  1.00  0.00     0.015 A 
ATOM     13  C   UNL A   1      34.955  21.087  25.130  1.00  0.00    -0.008 A 
ATOM     14  C   UNL A   1      34.704  23.414  25.812  1.00  0.00     0.018 A 
ATOM     15  C   UNL A   1      34.338  19.793  24.680  1.00  0.00     0.048 C 
ATOM     16  C   UNL A   1      34.151  22.204  25.386  1.00  0.00     0.130 A 
ATOM     17  C   UNL A   1      33.823  24.537  26.112  1.00  0.00     0.025 C 
ATOM     18  O   UNL A   1      32.801  22.034  25.251  1.00  0.00    -0.475 OA
ATOM     19  C   UNL A   1      32.020  23.235  25.044  1.00  0.00     0.314 C 
BRANCH  19  20
ATOM     20  C   UNL A   1      31.827  23.461  23.532  1.00  0.00     0.429 C 
ATOM     21  F   UNL A   1      32.667  24.429  23.086  1.00  0.00    -0.167 F 
ATOM     22  F   UNL A   1      32.097  22.355  22.800  1.00  0.00    -0.167 F 
ATOM     23  F   UNL A   1      30.569  23.839  23.212  1.00  0.00    -0.167 F 
ENDBRANCH  19  20
ENDBRANCH   5   8
ENDBRANCH   3   4
ENDBRANCH   2   3
ENDBRANCH   1   2
BRANCH   1  24
ATOM     24  N   UNL A   1      33.622  29.698  27.337  1.00  0.00    -0.352 N 
ATOM     25  C   UNL A   1      34.475  30.488  28.063  1.00  0.00     0.251 C 
ATOM     26  H   UNL A   1      32.815  30.154  27.007  1.00  0.00     0.163 HD
ATOM     27  O   UNL A   1      34.076  31.562  28.510  1.00  0.00    -0.269 OA
BRANCH  25  28
ATOM     28  C   UNL A   1      35.862  30.051  28.305  1.00  0.00     0.039 A 
ATOM     29  C   UNL A   1      36.802  30.136  27.275  1.00  0.00     0.014 A 
ATOM     30  C   UNL A   1      36.227  29.527  29.548  1.00  0.00     0.014 A 
ATOM     31  C   UNL A   1      38.121  29.754  27.515  1.00  0.00     0.010 A 
ATOM     32  C   UNL A   1      37.558  29.243  29.815  1.00  0.00     0.010 A 
ATOM     33  C   UNL A   1      38.516  29.334  28.797  1.00  0.00    -0.014 A 
BRANCH  33  34
ATOM     34  C   UNL A   1      39.918  28.954  29.090  1.00  0.00     0.031 A 
ATOM     35  C   UNL A   1      40.852  29.966  29.697  1.00  0.00     0.074 A 
ATOM     36  C   UNL A   1      40.360  27.726  28.754  1.00  0.00     0.049 A 
ATOM     37  N   UNL A   1      42.128  29.852  29.960  1.00  0.00    -0.248 NA
ATOM     38  C   UNL A   1      40.292  31.290  30.024  1.00  0.00     0.031 C 
ATOM     39  C   UNL A   1      39.556  26.679  28.118  1.00  0.00     0.029 A 
ATOM     40  N   UNL A   1      41.598  27.151  28.895  1.00  0.00    -0.354 N 
ATOM     41  C   UNL A   1      42.520  31.086  30.464  1.00  0.00     0.074 A 
ATOM     42  C   UNL A   1      41.368  31.954  30.421  1.00  0.00     0.031 C 
ATOM     43  C   UNL A   1      40.312  25.582  27.952  1.00  0.00     0.029 A 
ATOM     44  C   UNL A   1      41.663  25.859  28.428  1.00  0.00     0.049 A 
ATOM     45  H   UNL A   1      42.366  27.618  29.294  1.00  0.00     0.167 HD
ATOM     46  C   UNL A   1      43.730  31.454  30.944  1.00  0.00     0.031 A 
ATOM     47  C   UNL A   1      42.698  24.997  28.380  1.00  0.00     0.031 A 
ATOM     48  C   UNL A   1      44.864  30.574  31.019  1.00  0.00     0.049 A 
ATOM     49  C   UNL A   1      44.032  25.434  28.925  1.00  0.00     0.074 A 
ATOM     50  C   UNL A   1      46.113  30.830  31.555  1.00  0.00     0.029 A 
ATOM     51  N   UNL A   1      44.884  29.269  30.550  1.00  0.00    -0.354 N 
ATOM     52  N   UNL A   1      44.363  26.584  29.463  1.00  0.00    -0.248 NA
ATOM     53  C   UNL A   1      45.128  24.458  28.864  1.00  0.00     0.031 C 
ATOM     54  C   UNL A   1      46.908  29.698  31.359  1.00  0.00     0.029 A 
ATOM     55  C   UNL A   1      46.135  28.716  30.759  1.00  0.00     0.049 A 
ATOM     56  H   UNL A   1      44.123  28.806  30.132  1.00  0.00     0.167 HD
ATOM     57  C   UNL A   1      45.701  26.461  29.823  1.00  0.00     0.074 A 
ATOM     58  C   UNL A   1      46.110  25.118  29.463  1.00  0.00     0.031 C 
ATOM     59  C   UNL A   1      46.518  27.377  30.395  1.00  0.00     0.031 A 
BRANCH  46  60
ATOM     60  C   UNL A   1      43.898  32.862  31.449  1.00  0.00    -0.014 A 
ATOM     61  C   UNL A   1      44.276  33.900  30.580  1.00  0.00     0.010 A 
ATOM     62  C   UNL A   1      43.571  33.167  32.783  1.00  0.00     0.010 A 
ATOM     63  C   UNL A   1      44.330  35.219  31.037  1.00  0.00     0.020 A 
ATOM     64  C   UNL A   1      43.600  34.489  33.237  1.00  0.00     0.020 A 
ATOM     65  C   UNL A   1      43.982  35.506  32.361  1.00  0.00     0.054 A 
BRANCH  65  66
ATOM     66  S   UNL A   1      43.979  37.239  32.897  1.00  0.00     0.124 S 
ATOM     67  O   UNL A   1      42.826  37.276  33.794  1.00  0.00    -0.237 OA
ATOM     68  O   UNL A   1      45.283  37.373  33.542  1.00  0.00    -0.237 OA
ATOM     69  O   UNL A   1      43.822  37.988  31.653  1.00  0.00    -0.744 OA
ENDBRANCH  65  66
ENDBRANCH  46  60
BRANCH  47  70
ATOM     70  C   UNL A   1      42.515  23.638  27.799  1.00  0.00    -0.014 A 
ATOM     71  C   UNL A   1      42.154  22.552  28.616  1.00  0.00     0.010 A 
ATOM     72  C   UNL A   1      42.701  23.423  26.421  1.00  0.00     0.010 A 
ATOM     73  C   UNL A   1      42.010  21.272  28.070  1.00  0.00     0.020 A 
ATOM     74  C   UNL A   1      42.528  22.152  25.866  1.00  0.00     0.020 A 
ATOM     75  C   UNL A   1      42.197  21.081  26.698  1.00  0.00     0.054 A 
BRANCH  75  76
ATOM     76  S   UNL A   1      41.975  19.417  26.008  1.00  0.00     0.124 S 
ATOM     77  O   UNL A   1      42.811  19.470  24.813  1.00  0.00    -0.237 OA
ATOM     78  O   UNL A   1      42.466  18.563  27.087  1.00  0.00    -0.237 OA
ATOM     79  O   UNL A   1      40.537  19.336  25.765  1.00  0.00    -0.744 OA
ENDBRANCH  75  76
ENDBRANCH  47  70
BRANCH  59  80
ATOM     80  C   UNL A   1      47.934  26.963  30.689  1.00  0.00    -0.014 A 
ATOM     81  C   UNL A   1      48.980  27.284  29.807  1.00  0.00     0.010 A 
ATOM     82  C   UNL A   1      48.233  26.324  31.907  1.00  0.00     0.010 A 
ATOM     83  C   UNL A   1      50.298  26.954  30.129  1.00  0.00     0.020 A 
ATOM     84  C   UNL A   1      49.553  26.021  32.246  1.00  0.00     0.020 A 
ATOM     85  C   UNL A   1      50.577  26.330  31.349  1.00  0.00     0.054 A 
BRANCH  85  86
ATOM     86  S   UNL A   1      52.305  25.970  31.765  1.00  0.00     0.124 S 
ATOM     87  O   UNL A   1      52.953  26.040  30.458  1.00  0.00    -0.237 OA
ATOM     88  O   UNL A   1      52.640  27.048  32.692  1.00  0.00    -0.237 OA
ATOM     89  O   UNL A   1      52.248  24.637  32.361  1.00  0.00    -0.744 OA
ENDBRANCH  85  86
ENDBRANCH  59  80
ENDBRANCH  33  34
ENDBRANCH  25  28
ENDBRANCH   1  24
TORSDOF 14
ENDMDL
MODEL 2
REMARK VINA RESULT:     -11.4      2.641      9.234
REMARK SMILES Cc1cc(C)c2c(c1)C=C(C(=O)NCCCNC(=O)c1ccc(-c3c4nc(c(-c5ccc(S(=O)(=O)[O-])cc5)c5ccc([nH]5)c(-c5ccc(S(=O)(=O)[O-])cc5)c5nc(c(-c6ccc(S(=O)(=O)[O-])cc6)c6ccc3[nH]6)C=C5)C=C4)cc1)[C@@H](C(F)(F)F)O2
REMARK SMILES IDX 16 1 15 2 14 3 13 4 11 5 12 6 10 8 1 9 2 10 3 11 8 12 4 13
REMARK SMILES IDX 7 14 5 15 6 16 9 17 85 18 80 19 81 20 82 21 83 22 84 23
REMARK SMILES IDX 17 24 18 25 19 27 20 28 21 29 79 30 22 31 78 32 23 33 24 34
REMARK SMILES IDX 25 35 72 36 26 37 77 38 71 39 73 40 27 41 76 42 70 43 69 44
REMARK SMILES IDX 28 46 58 47 39 48 57 49 40 50 43 51 56 52 74 53 41 54 42 55
REMARK SMILES IDX 55 57 75 58 44 59 29 60 30 61 38 62 31 63 37 64 32 65 33 66
REMARK SMILES IDX 34 67 35 68 36 69 59 70 60 71 68 72 61 73 67 74 62 75 63 76
REMARK SMILES IDX 64 77 65 78 66 79 45 80 46 81 54 82 47 83 53 84 48 85 49 86
REMARK SMILES IDX 50 87 51 88 52 89
REMARK H PARENT 13 7 17 26 73 45 43 56
REMARK Flexibility Score: inf
ROOT
ATOM      1  C   UNL A   1      36.667  23.726  25.235  1.00  0.00     0.118 C 
ENDROOT
BRANCH   1   2
ATOM      2  C   UNL A   1      35.463  23.703  26.166  1.00  0.00     0.042 C 
BRANCH   2   3
ATOM      3  C   UNL A   1      34.237  23.098  25.501  1.00  0.00     0.118 C 
BRANCH   3   4
ATOM      4  N   UNL A   1      34.230  23.320  24.062  1.00  0.00    -0.352 N 
ATOM      5  C   UNL A   1      33.825  24.290  23.210  1.00  0.00     0.251 C 
ATOM      6  O   UNL A   1      34.037  24.066  22.014  1.00  0.00    -0.270 OA
ATOM      7  H   UNL A   1      34.627  22.559  23.579  1.00  0.00     0.163 HD
BRANCH   5   8
ATOM      8  C   UNL A   1      33.165  25.565  23.618  1.00  0.00     0.067 C 
ATOM      9  C   UNL A   1      33.967  30.472  27.301  1.00  0.00     0.044 C 
ATOM     10  C   UNL A   1      33.301  29.610  26.270  1.00  0.00    -0.050 A 
ATOM     11  C   UNL A   1      32.123  30.049  25.648  1.00  0.00     0.010 A 
ATOM     12  C   UNL A   1      33.881  28.398  25.868  1.00  0.00     0.015 A 
ATOM     13  C   UNL A   1      31.512  29.284  24.649  1.00  0.00    -0.008 A 
ATOM     14  C   UNL A   1      33.278  27.620  24.877  1.00  0.00     0.018 A 
ATOM     15  C   UNL A   1      30.247  29.751  23.986  1.00  0.00     0.048 C 
ATOM     16  C   UNL A   1      32.098  28.068  24.279  1.00  0.00     0.130 A 
ATOM     17  C   UNL A   1      33.879  26.370  24.427  1.00  0.00     0.025 C 
ATOM     18  O   UNL A   1      31.491  27.374  23.270  1.00  0.00    -0.475 OA
ATOM     19  C   UNL A   1      31.777  25.956  23.202  1.00  0.00     0.314 C 
BRANCH  19  20
ATOM     20  C   UNL A   1      30.688  25.181  23.970  1.00  0.00     0.429 C 
ATOM     21  F   UNL A   1      31.125  24.855  25.213  1.00  0.00    -0.167 F 
ATOM     22  F   UNL A   1      29.556  25.903  24.142  1.00  0.00    -0.167 F 
ATOM     23  F   UNL A   1      30.326  24.034  23.355  1.00  0.00    -0.167 F 
ENDBRANCH  19  20
ENDBRANCH   5   8
ENDBRANCH   3   4
ENDBRANCH   2   3
ENDBRANCH   1   2
BRANCH   1  24
ATOM     24  N   UNL A   1      37.657  22.718  25.605  1.00  0.00    -0.352 N 
ATOM     25  C   UNL A   1      38.899  22.863  26.166  1.00  0.00     0.251 C 
ATOM     26  H   UNL A   1      37.391  21.788  25.424  1.00  0.00     0.163 HD
ATOM     27  O   UNL A   1      39.697  21.928  26.128  1.00  0.00    -0.269 OA
BRANCH  25  28
ATOM     28  C   UNL A   1      39.274  24.135  26.813  1.00  0.00     0.039 A 
ATOM     29  C   UNL A   1      38.878  24.382  28.129  1.00  0.00     0.014 A 
ATOM     30  C   UNL A   1      39.996  25.097  26.103  1.00  0.00     0.014 A 
ATOM     31  C   UNL A   1      39.261  25.570  28.750  1.00  0.00     0.010 A 
ATOM     32  C   UNL A   1      40.462  26.231  26.753  1.00  0.00     0.010 A 
ATOM     33  C   UNL A   1      40.083  26.489  28.076  1.00  0.00    -0.014 A 
BRANCH  33  34
ATOM     34  C   UNL A   1      40.534  27.744  28.723  1.00  0.00     0.031 A 
ATOM     35  C   UNL A   1      41.914  27.820  29.320  1.00  0.00     0.074 A 
ATOM     36  C   UNL A   1      39.684  28.785  28.825  1.00  0.00     0.049 A 
ATOM     37  N   UNL A   1      42.467  28.798  29.988  1.00  0.00    -0.248 NA
ATOM     38  C   UNL A   1      42.778  26.634  29.174  1.00  0.00     0.031 C 
ATOM     39  C   UNL A   1      38.307  28.808  28.325  1.00  0.00     0.029 A 
ATOM     40  N   UNL A   1      39.850  30.024  29.390  1.00  0.00    -0.354 N 
ATOM     41  C   UNL A   1      43.727  28.339  30.355  1.00  0.00     0.074 A 
ATOM     42  C   UNL A   1      43.842  26.979  29.884  1.00  0.00     0.031 C 
ATOM     43  C   UNL A   1      37.766  30.010  28.578  1.00  0.00     0.029 A 
ATOM     44  C   UNL A   1      38.738  30.828  29.295  1.00  0.00     0.049 A 
ATOM     45  H   UNL A   1      40.687  30.312  29.821  1.00  0.00     0.167 HD
ATOM     46  C   UNL A   1      44.710  29.004  31.003  1.00  0.00     0.031 A 
ATOM     47  C   UNL A   1      38.523  32.080  29.744  1.00  0.00     0.031 A 
ATOM     48  C   UNL A   1      44.603  30.370  31.435  1.00  0.00     0.049 A 
ATOM     49  C   UNL A   1      39.637  32.796  30.460  1.00  0.00     0.074 A 
ATOM     50  C   UNL A   1      45.569  31.156  32.037  1.00  0.00     0.029 A 
ATOM     51  N   UNL A   1      43.466  31.154  31.307  1.00  0.00    -0.354 N 
ATOM     52  N   UNL A   1      40.847  32.368  30.734  1.00  0.00    -0.248 NA
ATOM     53  C   UNL A   1      39.362  34.164  30.921  1.00  0.00     0.031 C 
ATOM     54  C   UNL A   1      44.998  32.399  32.325  1.00  0.00     0.029 A 
ATOM     55  C   UNL A   1      43.698  32.407  31.844  1.00  0.00     0.049 A 
ATOM     56  H   UNL A   1      42.621  30.862  30.894  1.00  0.00     0.167 HD
ATOM     57  C   UNL A   1      41.483  33.421  31.380  1.00  0.00     0.074 A 
ATOM     58  C   UNL A   1      40.533  34.514  31.436  1.00  0.00     0.031 C 
ATOM     59  C   UNL A   1      42.739  33.479  31.886  1.00  0.00     0.031 A 
BRANCH  46  60
ATOM     60  C   UNL A   1      46.002  28.279  31.272  1.00  0.00    -0.014 A 
ATOM     61  C   UNL A   1      46.186  27.552  32.462  1.00  0.00     0.010 A 
ATOM     62  C   UNL A   1      46.998  28.240  30.281  1.00  0.00     0.010 A 
ATOM     63  C   UNL A   1      47.348  26.802  32.656  1.00  0.00     0.020 A 
ATOM     64  C   UNL A   1      48.151  27.469  30.462  1.00  0.00     0.020 A 
ATOM     65  C   UNL A   1      48.318  26.757  31.650  1.00  0.00     0.054 A 
BRANCH  65  66
ATOM     66  S   UNL A   1      49.774  25.703  31.900  1.00  0.00     0.124 S 
ATOM     67  O   UNL A   1      50.780  26.674  32.324  1.00  0.00    -0.237 OA
ATOM     68  O   UNL A   1      49.320  24.776  32.933  1.00  0.00    -0.237 OA
ATOM     69  O   UNL A   1      50.001  25.106  30.586  1.00  0.00    -0.744 OA
ENDBRANCH  65  66
ENDBRANCH  46  60
BRANCH  47  70
ATOM     70  C   UNL A   1      37.203  32.737  29.530  1.00  0.00    -0.014 A 
ATOM     71  C   UNL A   1      36.211  32.694  30.526  1.00  0.00     0.010 A 
ATOM     72  C   UNL A   1      36.932  33.411  28.326  1.00  0.00     0.010 A 
ATOM     73  C   UNL A   1      34.964  33.290  30.310  1.00  0.00     0.020 A 
ATOM     74  C   UNL A   1      35.698  34.034  28.117  1.00  0.00     0.020 A 
ATOM     75  C   UNL A   1      34.716  33.957  29.106  1.00  0.00     0.054 A 
BRANCH  75  76
ATOM     76  S   UNL A   1      33.101  34.748  28.861  1.00  0.00     0.124 S 
ATOM     77  O   UNL A   1      32.470  33.855  27.895  1.00  0.00    -0.237 OA
ATOM     78  O   UNL A   1      32.535  34.727  30.207  1.00  0.00    -0.237 OA
ATOM     79  O   UNL A   1      33.443  36.076  28.358  1.00  0.00    -0.744 OA
ENDBRANCH  75  76
ENDBRANCH  47  70
BRANCH  59  80
ATOM     80  C   UNL A   1      43.174  34.767  32.530  1.00  0.00    -0.014 A 
ATOM     81  C   UNL A   1      43.823  35.766  31.784  1.00  0.00     0.010 A 
ATOM     82  C   UNL A   1      42.848  35.017  33.876  1.00  0.00     0.010 A 
ATOM     83  C   UNL A   1      44.157  36.984  32.379  1.00  0.00     0.020 A 
ATOM     84  C   UNL A   1      43.152  36.245  34.466  1.00  0.00     0.020 A 
ATOM     85  C   UNL A   1      43.814  37.218  33.715  1.00  0.00     0.054 A 
BRANCH  85  86
ATOM     86  S   UNL A   1      44.207  38.832  34.441  1.00  0.00     0.124 S 
ATOM     87  O   UNL A   1      44.242  38.524  35.868  1.00  0.00    -0.237 OA
ATOM     88  O   UNL A   1      45.498  39.148  33.835  1.00  0.00    -0.237 OA
ATOM     89  O   UNL A   1      43.099  39.684  34.015  1.00  0.00    -0.744 OA
ENDBRANCH  85  86
ENDBRANCH  59  80
ENDBRANCH  33  34
ENDBRANCH  25  28
ENDBRANCH   1  24
TORSDOF 14
ENDMDL
MODEL 3
REMARK VINA RESULT:     -11.3      4.810     10.357
REMARK SMILES Cc1cc(C)c2c(c1)C=C(C(=O)NCCCNC(=O)c1ccc(-c3c4nc(c(-c5ccc(S(=O)(=O)[O-])cc5)c5ccc([nH]5)c(-c5ccc(S(=O)(=O)[O-])cc5)c5nc(c(-c6ccc(S(=O)(=O)[O-])cc6)c6ccc3[nH]6)C=C5)C=C4)cc1)[C@@H](C(F)(F)F)O2
REMARK SMILES IDX 16 1 15 2 14 3 13 4 11 5 12 6 10 8 1 9 2 10 3 11 8 12 4 13
REMARK SMILES IDX 7 14 5 15 6 16 9 17 85 18 80 19 81 20 82 21 83 22 84 23
REMARK SMILES IDX 17 24 18 25 19 27 20 28 21 29 79 30 22 31 78 32 23 33 24 34
REMARK SMILES IDX 25 35 72 36 26 37 77 38 71 39 73 40 27 41 76 42 70 43 69 44
REMARK SMILES IDX 28 46 58 47 39 48 57 49 40 50 43 51 56 52 74 53 41 54 42 55
REMARK SMILES IDX 55 57 75 58 44 59 29 60 30 61 38 62 31 63 37 64 32 65 33 66
REMARK SMILES IDX 34 67 35 68 36 69 59 70 60 71 68 72 61 73 67 74 62 75 63 76
REMARK SMILES IDX 64 77 65 78 66 79 45 80 46 81 54 82 47 83 53 84 48 85 49 86
REMARK SMILES IDX 50 87 51 88 52 89
REMARK H PARENT 13 7 17 26 73 45 43 56
REMARK Flexibility Score: inf
ROOT
ATOM      1  C   UNL A   1      39.519  23.717  26.973  1.00  0.00     0.118 C 
ENDROOT
BRANCH   1   2
ATOM      2  C   UNL A   1      38.168  23.714  26.271  1.00  0.00     0.042 C 
BRANCH   2   3
ATOM      3  C   UNL A   1      37.868  22.376  25.614  1.00  0.00     0.118 C 
BRANCH   3   4
ATOM      4  N   UNL A   1      37.383  22.533  24.250  1.00  0.00    -0.352 N 
ATOM      5  C   UNL A   1      36.253  22.963  23.642  1.00  0.00     0.251 C 
ATOM      6  O   UNL A   1      36.278  22.946  22.407  1.00  0.00    -0.270 OA
ATOM      7  H   UNL A   1      38.060  22.252  23.593  1.00  0.00     0.163 HD
BRANCH   5   8
ATOM      8  C   UNL A   1      35.029  23.439  24.350  1.00  0.00     0.067 C 
ATOM      9  C   UNL A   1      32.588  28.507  26.928  1.00  0.00     0.044 C 
ATOM     10  C   UNL A   1      32.644  27.085  26.456  1.00  0.00    -0.050 A 
ATOM     11  C   UNL A   1      31.524  26.254  26.611  1.00  0.00     0.010 A 
ATOM     12  C   UNL A   1      33.780  26.594  25.797  1.00  0.00     0.015 A 
ATOM     13  C   UNL A   1      31.536  24.939  26.134  1.00  0.00    -0.008 A 
ATOM     14  C   UNL A   1      33.809  25.281  25.322  1.00  0.00     0.018 A 
ATOM     15  C   UNL A   1      30.340  24.047  26.304  1.00  0.00     0.048 C 
ATOM     16  C   UNL A   1      32.689  24.464  25.498  1.00  0.00     0.130 A 
ATOM     17  C   UNL A   1      34.971  24.759  24.612  1.00  0.00     0.025 C 
ATOM     18  O   UNL A   1      32.642  23.188  25.011  1.00  0.00    -0.475 OA
ATOM     19  C   UNL A   1      33.917  22.535  24.794  1.00  0.00     0.314 C 
BRANCH  19  20
ATOM     20  C   UNL A   1      34.285  21.712  26.044  1.00  0.00     0.429 C 
ATOM     21  F   UNL A   1      33.168  21.202  26.622  1.00  0.00    -0.167 F 
ATOM     22  F   UNL A   1      35.082  20.656  25.758  1.00  0.00    -0.167 F 
ATOM     23  F   UNL A   1      34.929  22.440  26.983  1.00  0.00    -0.167 F 
ENDBRANCH  19  20
ENDBRANCH   5   8
ENDBRANCH   3   4
ENDBRANCH   2   3
ENDBRANCH   1   2
BRANCH   1  24
ATOM     24  N   UNL A   1      40.570  24.268  26.120  1.00  0.00    -0.352 N 
ATOM     25  C   UNL A   1      41.105  25.530  26.080  1.00  0.00     0.251 C 
ATOM     26  H   UNL A   1      40.954  23.635  25.472  1.00  0.00     0.163 HD
ATOM     27  O   UNL A   1      41.763  25.880  25.102  1.00  0.00    -0.269 OA
BRANCH  25  28
ATOM     28  C   UNL A   1      40.892  26.458  27.206  1.00  0.00     0.039 A 
ATOM     29  C   UNL A   1      39.987  26.122  28.216  1.00  0.00     0.014 A 
ATOM     30  C   UNL A   1      41.570  27.679  27.247  1.00  0.00     0.014 A 
ATOM     31  C   UNL A   1      39.812  26.985  29.296  1.00  0.00     0.010 A 
ATOM     32  C   UNL A   1      41.471  28.488  28.370  1.00  0.00     0.010 A 
ATOM     33  C   UNL A   1      40.577  28.159  29.397  1.00  0.00    -0.014 A 
BRANCH  33  34
ATOM     34  C   UNL A   1      40.437  29.079  30.551  1.00  0.00     0.031 A 
ATOM     35  C   UNL A   1      41.302  28.885  31.767  1.00  0.00     0.074 A 
ATOM     36  C   UNL A   1      39.494  30.042  30.526  1.00  0.00     0.049 A 
ATOM     37  N   UNL A   1      41.282  29.535  32.902  1.00  0.00    -0.248 NA
ATOM     38  C   UNL A   1      42.301  27.802  31.718  1.00  0.00     0.031 C 
ATOM     39  C   UNL A   1      38.567  30.293  29.419  1.00  0.00     0.029 A 
ATOM     40  N   UNL A   1      39.154  30.987  31.461  1.00  0.00    -0.354 N 
ATOM     41  C   UNL A   1      42.246  28.930  33.699  1.00  0.00     0.074 A 
ATOM     42  C   UNL A   1      42.797  27.829  32.946  1.00  0.00     0.031 C 
ATOM     43  C   UNL A   1      37.786  31.341  29.727  1.00  0.00     0.029 A 
ATOM     44  C   UNL A   1      38.125  31.809  31.067  1.00  0.00     0.049 A 
ATOM     45  H   UNL A   1      39.605  31.069  32.332  1.00  0.00     0.167 HD
ATOM     46  C   UNL A   1      42.653  29.280  34.940  1.00  0.00     0.031 A 
ATOM     47  C   UNL A   1      37.516  32.821  31.716  1.00  0.00     0.031 A 
ATOM     48  C   UNL A   1      42.127  30.400  35.670  1.00  0.00     0.049 A 
ATOM     49  C   UNL A   1      37.992  33.189  33.096  1.00  0.00     0.074 A 
ATOM     50  C   UNL A   1      42.522  30.881  36.905  1.00  0.00     0.029 A 
ATOM     51  N   UNL A   1      41.096  31.217  35.230  1.00  0.00    -0.354 N 
ATOM     52  N   UNL A   1      38.955  32.648  33.804  1.00  0.00    -0.248 NA
ATOM     53  C   UNL A   1      37.308  34.307  33.761  1.00  0.00     0.031 C 
ATOM     54  C   UNL A   1      41.693  31.955  37.238  1.00  0.00     0.029 A 
ATOM     55  C   UNL A   1      40.824  32.182  36.183  1.00  0.00     0.049 A 
ATOM     56  H   UNL A   1      40.630  31.125  34.368  1.00  0.00     0.167 HD
ATOM     57  C   UNL A   1      39.006  33.374  34.989  1.00  0.00     0.074 A 
ATOM     58  C   UNL A   1      37.992  34.405  34.893  1.00  0.00     0.031 C 
ATOM     59  C   UNL A   1      39.813  33.200  36.063  1.00  0.00     0.031 A 
BRANCH  46  60
ATOM     60  C   UNL A   1      43.736  28.461  35.592  1.00  0.00    -0.014 A 
ATOM     61  C   UNL A   1      45.093  28.769  35.390  1.00  0.00     0.010 A 
ATOM     62  C   UNL A   1      43.389  27.442  36.497  1.00  0.00     0.010 A 
ATOM     63  C   UNL A   1      46.085  28.067  36.078  1.00  0.00     0.020 A 
ATOM     64  C   UNL A   1      44.379  26.755  37.206  1.00  0.00     0.020 A 
ATOM     65  C   UNL A   1      45.721  27.072  36.990  1.00  0.00     0.054 A 
BRANCH  65  66
ATOM     66  S   UNL A   1      47.031  26.240  37.931  1.00  0.00     0.124 S 
ATOM     67  O   UNL A   1      47.006  24.896  37.360  1.00  0.00    -0.237 OA
ATOM     68  O   UNL A   1      48.210  27.039  37.606  1.00  0.00    -0.237 OA
ATOM     69  O   UNL A   1      46.579  26.336  39.316  1.00  0.00    -0.744 OA
ENDBRANCH  65  66
ENDBRANCH  46  60
BRANCH  47  70
ATOM     70  C   UNL A   1      36.393  33.557  31.071  1.00  0.00    -0.014 A 
ATOM     71  C   UNL A   1      36.427  33.857  29.698  1.00  0.00     0.010 A 
ATOM     72  C   UNL A   1      35.280  33.963  31.830  1.00  0.00     0.010 A 
ATOM     73  C   UNL A   1      35.383  34.571  29.102  1.00  0.00     0.020 A 
ATOM     74  C   UNL A   1      34.220  34.651  31.233  1.00  0.00     0.020 A 
ATOM     75  C   UNL A   1      34.285  34.963  29.874  1.00  0.00     0.054 A 
BRANCH  75  76
ATOM     76  S   UNL A   1      32.929  35.864  29.073  1.00  0.00     0.124 S 
ATOM     77  O   UNL A   1      33.637  36.957  28.415  1.00  0.00    -0.237 OA
ATOM     78  O   UNL A   1      32.362  34.851  28.185  1.00  0.00    -0.237 OA
ATOM     79  O   UNL A   1      32.070  36.253  30.188  1.00  0.00    -0.744 OA
ENDBRANCH  75  76
ENDBRANCH  47  70
BRANCH  59  80
ATOM     80  C   UNL A   1      39.655  34.152  37.217  1.00  0.00    -0.014 A 
ATOM     81  C   UNL A   1      38.919  33.790  38.358  1.00  0.00     0.010 A 
ATOM     82  C   UNL A   1      40.328  35.388  37.196  1.00  0.00     0.010 A 
ATOM     83  C   UNL A   1      38.841  34.657  39.450  1.00  0.00     0.020 A 
ATOM     84  C   UNL A   1      40.279  36.244  38.299  1.00  0.00     0.020 A 
ATOM     85  C   UNL A   1      39.527  35.875  39.416  1.00  0.00     0.054 A 
BRANCH  85  86
ATOM     86  S   UNL A   1      39.455  36.952  40.873  1.00  0.00     0.124 S 
ATOM     87  O   UNL A   1      40.870  37.190  41.145  1.00  0.00    -0.237 OA
ATOM     88  O   UNL A   1      38.707  38.106  40.380  1.00  0.00    -0.237 OA
ATOM     89  O   UNL A   1      38.757  36.143  41.869  1.00  0.00    -0.744 OA
ENDBRANCH  85  86
ENDBRANCH  59  80
ENDBRANCH  33  34
ENDBRANCH  25  28
ENDBRANCH   1  24
TORSDOF 14
ENDMDL
