MODEL 1
REMARK VINA RESULT:     -11.7      0.000      0.000
REMARK SMILES O=C(NCCCNC(=O)c1sccc1S(=O)(=O)Nc1ccccc1N1CCCCC1)c1ccc(-c2c3nc(c(-c4ccc(S(=O)(=O)[O-])cc4)c4ccc([nH]4)c(-c4ccc(S(=O)(=O)[O-])cc4)c4nc(c(-c5ccc(S(=O)(=O)[O-])cc5)c5ccc2[nH]5)C=C4)C=C3)cc1
REMARK SMILES IDX 5 1 4 2 3 3 1 4 2 5 31 7 32 8 90 9 33 10 89 11 34 12 35 13
REMARK SMILES IDX 36 14 83 15 37 16 88 17 82 18 84 19 38 20 87 21 81 22 80 23
REMARK SMILES IDX 39 25 69 26 50 27 68 28 51 29 54 30 67 31 85 32 52 33 53 34
REMARK SMILES IDX 66 36 86 37 55 38 40 39 41 40 49 41 42 42 48 43 43 44 44 45
REMARK SMILES IDX 45 46 46 47 47 48 70 49 71 50 79 51 72 52 78 53 73 54 74 55
REMARK SMILES IDX 75 56 76 57 77 58 56 59 57 60 65 61 58 62 64 63 59 64 60 65
REMARK SMILES IDX 61 66 62 67 63 68 6 69 7 70 8 71 9 73 10 74 11 75 14 76
REMARK SMILES IDX 12 77 13 78 15 79 16 80 17 81 18 82 19 84 20 85 24 86 21 87
REMARK SMILES IDX 23 88 22 89 25 90 26 91 30 92 27 93 29 94 28 95
REMARK H PARENT 3 6 84 24 54 35 7 72 18 83
REMARK Flexibility Score: inf
ROOT
ATOM      1  C   UNL A   1      37.594  22.976  25.706  1.00  0.00     0.042 C 
ENDROOT
BRANCH   1   2
ATOM      2  C   UNL A   1      38.447  24.069  26.339  1.00  0.00     0.118 C 
BRANCH   2   3
ATOM      3  N   UNL A   1      39.875  23.894  26.093  1.00  0.00    -0.352 N 
ATOM      4  O   UNL A   1      42.072  24.410  26.121  1.00  0.00    -0.269 OA
ATOM      5  C   UNL A   1      40.941  24.644  26.528  1.00  0.00     0.251 C 
ATOM      6  H   UNL A   1      40.109  23.122  25.529  1.00  0.00     0.163 HD
BRANCH   5   7
ATOM      7  C   UNL A   1      40.683  25.767  27.445  1.00  0.00     0.039 A 
ATOM      8  C   UNL A   1      41.405  26.952  27.310  1.00  0.00     0.014 A 
ATOM      9  C   UNL A   1      39.793  25.588  28.504  1.00  0.00     0.014 A 
ATOM     10  C   UNL A   1      41.411  27.862  28.355  1.00  0.00     0.010 A 
ATOM     11  C   UNL A   1      39.703  26.570  29.489  1.00  0.00     0.010 A 
ATOM     12  C   UNL A   1      40.549  27.690  29.449  1.00  0.00    -0.014 A 
BRANCH  12  13
ATOM     13  C   UNL A   1      40.512  28.715  30.520  1.00  0.00     0.031 A 
ATOM     14  C   UNL A   1      41.475  28.664  31.675  1.00  0.00     0.074 A 
ATOM     15  C   UNL A   1      39.595  29.696  30.437  1.00  0.00     0.049 A 
ATOM     16  N   UNL A   1      41.520  29.423  32.738  1.00  0.00    -0.248 NA
ATOM     17  C   UNL A   1      42.514  27.622  31.638  1.00  0.00     0.031 C 
ATOM     18  C   UNL A   1      38.623  29.853  29.350  1.00  0.00     0.029 A 
ATOM     19  N   UNL A   1      39.330  30.750  31.272  1.00  0.00    -0.354 N 
ATOM     20  C   UNL A   1      42.559  28.927  33.519  1.00  0.00     0.074 A 
ATOM     21  C   UNL A   1      43.113  27.795  32.808  1.00  0.00     0.031 C 
ATOM     22  C   UNL A   1      37.896  30.957  29.564  1.00  0.00     0.029 A 
ATOM     23  C   UNL A   1      38.285  31.532  30.844  1.00  0.00     0.049 A 
ATOM     24  H   UNL A   1      39.838  30.928  32.096  1.00  0.00     0.167 HD
ATOM     25  C   UNL A   1      43.001  29.374  34.719  1.00  0.00     0.031 A 
ATOM     26  C   UNL A   1      37.671  32.574  31.433  1.00  0.00     0.031 A 
ATOM     27  C   UNL A   1      42.437  30.507  35.409  1.00  0.00     0.049 A 
ATOM     28  C   UNL A   1      38.155  33.030  32.774  1.00  0.00     0.074 A 
ATOM     29  C   UNL A   1      42.820  31.056  36.621  1.00  0.00     0.029 A 
ATOM     30  N   UNL A   1      41.367  31.261  34.949  1.00  0.00    -0.354 N 
ATOM     31  N   UNL A   1      39.135  32.546  33.499  1.00  0.00    -0.248 NA
ATOM     32  C   UNL A   1      37.454  34.168  33.379  1.00  0.00     0.031 C 
ATOM     33  C   UNL A   1      41.951  32.112  36.915  1.00  0.00     0.029 A 
ATOM     34  C   UNL A   1      41.064  32.260  35.860  1.00  0.00     0.049 A 
ATOM     35  H   UNL A   1      40.893  31.110  34.100  1.00  0.00     0.167 HD
ATOM     36  C   UNL A   1      39.183  33.334  34.640  1.00  0.00     0.074 A 
ATOM     37  C   UNL A   1      38.139  34.331  34.504  1.00  0.00     0.031 C 
ATOM     38  C   UNL A   1      40.019  33.241  35.703  1.00  0.00     0.031 A 
BRANCH  25  39
ATOM     39  C   UNL A   1      44.113  28.605  35.385  1.00  0.00    -0.014 A 
ATOM     40  C   UNL A   1      43.849  27.549  36.276  1.00  0.00     0.010 A 
ATOM     41  C   UNL A   1      45.451  28.935  35.099  1.00  0.00     0.010 A 
ATOM     42  C   UNL A   1      44.900  26.877  36.911  1.00  0.00     0.020 A 
ATOM     43  C   UNL A   1      46.505  28.248  35.710  1.00  0.00     0.020 A 
ATOM     44  C   UNL A   1      46.221  27.238  36.631  1.00  0.00     0.054 A 
BRANCH  44  45
ATOM     45  S   UNL A   1      47.566  26.363  37.478  1.00  0.00     0.124 S 
ATOM     46  O   UNL A   1      48.648  27.343  37.413  1.00  0.00    -0.237 OA
ATOM     47  O   UNL A   1      47.011  26.132  38.809  1.00  0.00    -0.237 OA
ATOM     48  O   UNL A   1      47.762  25.162  36.671  1.00  0.00    -0.744 OA
ENDBRANCH  44  45
ENDBRANCH  25  39
BRANCH  26  49
ATOM     49  C   UNL A   1      36.520  33.214  30.745  1.00  0.00    -0.014 A 
ATOM     50  C   UNL A   1      35.227  33.123  31.283  1.00  0.00     0.010 A 
ATOM     51  C   UNL A   1      36.734  34.004  29.599  1.00  0.00     0.010 A 
ATOM     52  C   UNL A   1      34.167  33.819  30.694  1.00  0.00     0.020 A 
ATOM     53  C   UNL A   1      35.684  34.722  29.024  1.00  0.00     0.020 A 
ATOM     54  C   UNL A   1      34.405  34.622  29.573  1.00  0.00     0.054 A 
BRANCH  54  55
ATOM     55  S   UNL A   1      33.036  35.592  28.886  1.00  0.00     0.124 S 
ATOM     56  O   UNL A   1      33.742  36.642  28.160  1.00  0.00    -0.237 OA
ATOM     57  O   UNL A   1      32.336  34.611  28.059  1.00  0.00    -0.237 OA
ATOM     58  O   UNL A   1      32.301  36.031  30.070  1.00  0.00    -0.744 OA
ENDBRANCH  54  55
ENDBRANCH  26  49
BRANCH  38  59
ATOM     59  C   UNL A   1      39.867  34.273  36.786  1.00  0.00    -0.014 A 
ATOM     60  C   UNL A   1      39.080  34.026  37.923  1.00  0.00     0.010 A 
ATOM     61  C   UNL A   1      40.580  35.482  36.689  1.00  0.00     0.010 A 
ATOM     62  C   UNL A   1      38.993  34.982  38.939  1.00  0.00     0.020 A 
ATOM     63  C   UNL A   1      40.515  36.429  37.711  1.00  0.00     0.020 A 
ATOM     64  C   UNL A   1      39.713  36.176  38.827  1.00  0.00     0.054 A 
BRANCH  64  65
ATOM     65  S   UNL A   1      39.636  37.374  40.187  1.00  0.00     0.124 S 
ATOM     66  O   UNL A   1      40.727  38.284  39.850  1.00  0.00    -0.237 OA
ATOM     67  O   UNL A   1      38.291  37.928  40.051  1.00  0.00    -0.237 OA
ATOM     68  O   UNL A   1      39.850  36.557  41.379  1.00  0.00    -0.744 OA
ENDBRANCH  64  65
ENDBRANCH  38  59
ENDBRANCH  12  13
ENDBRANCH   5   7
ENDBRANCH   2   3
ENDBRANCH   1   2
BRANCH   1  69
ATOM     69  C   UNL A   1      36.116  23.306  25.788  1.00  0.00     0.118 C 
BRANCH  69  70
ATOM     70  N   UNL A   1      35.439  22.494  26.774  1.00  0.00    -0.351 N 
ATOM     71  C   UNL A   1      34.176  21.979  26.769  1.00  0.00     0.262 C 
ATOM     72  H   UNL A   1      35.971  22.280  27.574  1.00  0.00     0.163 HD
ATOM     73  O   UNL A   1      33.802  21.444  27.815  1.00  0.00    -0.268 OA
BRANCH  71  74
ATOM     74  C   UNL A   1      33.322  22.150  25.621  1.00  0.00     0.112 A 
ATOM     75  S   UNL A   1      33.360  20.810  24.521  1.00  0.00    -0.137 S 
ATOM     76  C   UNL A   1      32.508  23.167  25.147  1.00  0.00     0.111 A 
ATOM     77  C   UNL A   1      32.256  21.539  23.461  1.00  0.00     0.067 A 
ATOM     78  C   UNL A   1      31.871  22.777  23.908  1.00  0.00     0.035 A 
BRANCH  76  79
ATOM     79  S   UNL A   1      32.095  24.704  25.841  1.00  0.00     0.263 S 
ATOM     80  O   UNL A   1      30.982  24.386  26.718  1.00  0.00    -0.201 OA
ATOM     81  O   UNL A   1      33.339  25.110  26.465  1.00  0.00    -0.201 OA
BRANCH  79  82
ATOM     82  N   UNL A   1      31.593  26.023  24.945  1.00  0.00    -0.277 N 
ATOM     83  H   UNL A   1      30.663  26.324  25.064  1.00  0.00     0.180 HD
BRANCH  82  84
ATOM     84  C   UNL A   1      32.402  26.746  24.021  1.00  0.00     0.072 A 
ATOM     85  C   UNL A   1      32.648  26.132  22.782  1.00  0.00     0.029 A 
ATOM     86  C   UNL A   1      32.996  27.985  24.340  1.00  0.00     0.061 A 
ATOM     87  C   UNL A   1      33.402  26.773  21.805  1.00  0.00     0.002 A 
ATOM     88  C   UNL A   1      33.739  28.617  23.325  1.00  0.00     0.028 A 
ATOM     89  C   UNL A   1      33.933  28.028  22.071  1.00  0.00     0.002 A 
BRANCH  86  90
ATOM     90  N   UNL A   1      32.932  28.555  25.600  1.00  0.00    -0.370 N 
ATOM     91  C   UNL A   1      31.771  29.331  26.025  1.00  0.00     0.116 C 
ATOM     92  C   UNL A   1      34.062  28.415  26.517  1.00  0.00     0.116 C 
ATOM     93  C   UNL A   1      32.194  30.685  26.580  1.00  0.00     0.021 C 
ATOM     94  C   UNL A   1      34.481  29.785  27.044  1.00  0.00     0.021 C 
ATOM     95  C   UNL A   1      33.286  30.528  27.634  1.00  0.00     0.004 C 
ENDBRANCH  86  90
ENDBRANCH  82  84
ENDBRANCH  79  82
ENDBRANCH  76  79
ENDBRANCH  71  74
ENDBRANCH  69  70
ENDBRANCH   1  69
TORSDOF 17
ENDMDL
MODEL 2
REMARK VINA RESULT:     -11.7      3.140      4.001
REMARK SMILES O=C(NCCCNC(=O)c1sccc1S(=O)(=O)Nc1ccccc1N1CCCCC1)c1ccc(-c2c3nc(c(-c4ccc(S(=O)(=O)[O-])cc4)c4ccc([nH]4)c(-c4ccc(S(=O)(=O)[O-])cc4)c4nc(c(-c5ccc(S(=O)(=O)[O-])cc5)c5ccc2[nH]5)C=C4)C=C3)cc1
REMARK SMILES IDX 5 1 4 2 3 3 1 4 2 5 31 7 32 8 90 9 33 10 89 11 34 12 35 13
REMARK SMILES IDX 36 14 83 15 37 16 88 17 82 18 84 19 38 20 87 21 81 22 80 23
REMARK SMILES IDX 39 25 69 26 50 27 68 28 51 29 54 30 67 31 85 32 52 33 53 34
REMARK SMILES IDX 66 36 86 37 55 38 40 39 41 40 49 41 42 42 48 43 43 44 44 45
REMARK SMILES IDX 45 46 46 47 47 48 70 49 71 50 79 51 72 52 78 53 73 54 74 55
REMARK SMILES IDX 75 56 76 57 77 58 56 59 57 60 65 61 58 62 64 63 59 64 60 65
REMARK SMILES IDX 61 66 62 67 63 68 6 69 7 70 8 71 9 73 10 74 11 75 14 76
REMARK SMILES IDX 12 77 13 78 15 79 16 80 17 81 18 82 19 84 20 85 24 86 21 87
REMARK SMILES IDX 23 88 22 89 25 90 26 91 30 92 27 93 29 94 28 95
REMARK H PARENT 3 6 84 24 54 35 7 72 18 83
REMARK Flexibility Score: inf
ROOT
ATOM      1  C   UNL A   1      36.365  23.266  23.659  1.00  0.00     0.042 C 
ENDROOT
BRANCH   1   2
ATOM      2  C   UNL A   1      37.008  23.627  24.993  1.00  0.00     0.118 C 
BRANCH   2   3
ATOM      3  N   UNL A   1      38.040  22.681  25.404  1.00  0.00    -0.352 N 
ATOM      4  O   UNL A   1      39.980  21.984  26.324  1.00  0.00    -0.269 OA
ATOM      5  C   UNL A   1      39.158  22.880  26.178  1.00  0.00     0.251 C 
ATOM      6  H   UNL A   1      37.916  21.760  25.077  1.00  0.00     0.163 HD
BRANCH   5   7
ATOM      7  C   UNL A   1      39.371  24.209  26.777  1.00  0.00     0.039 A 
ATOM      8  C   UNL A   1      40.105  25.171  26.084  1.00  0.00     0.014 A 
ATOM      9  C   UNL A   1      38.927  24.446  28.077  1.00  0.00     0.014 A 
ATOM     10  C   UNL A   1      40.588  26.274  26.769  1.00  0.00     0.010 A 
ATOM     11  C   UNL A   1      39.307  25.624  28.720  1.00  0.00     0.010 A 
ATOM     12  C   UNL A   1      40.182  26.522  28.089  1.00  0.00    -0.014 A 
BRANCH  12  13
ATOM     13  C   UNL A   1      40.648  27.748  28.780  1.00  0.00     0.031 A 
ATOM     14  C   UNL A   1      42.032  27.833  29.362  1.00  0.00     0.074 A 
ATOM     15  C   UNL A   1      39.801  28.791  28.876  1.00  0.00     0.049 A 
ATOM     16  N   UNL A   1      42.565  28.791  30.074  1.00  0.00    -0.248 NA
ATOM     17  C   UNL A   1      42.931  26.692  29.123  1.00  0.00     0.031 C 
ATOM     18  C   UNL A   1      38.440  28.824  28.331  1.00  0.00     0.029 A 
ATOM     19  N   UNL A   1      39.955  30.022  29.456  1.00  0.00    -0.354 N 
ATOM     20  C   UNL A   1      43.842  28.355  30.408  1.00  0.00     0.074 A 
ATOM     21  C   UNL A   1      44.002  27.040  29.825  1.00  0.00     0.031 C 
ATOM     22  C   UNL A   1      37.899  30.026  28.568  1.00  0.00     0.029 A 
ATOM     23  C   UNL A   1      38.835  30.812  29.360  1.00  0.00     0.049 A 
ATOM     24  H   UNL A   1      40.785  30.311  29.899  1.00  0.00     0.167 HD
ATOM     25  C   UNL A   1      44.789  28.993  31.139  1.00  0.00     0.031 A 
ATOM     26  C   UNL A   1      38.567  32.020  29.886  1.00  0.00     0.031 A 
ATOM     27  C   UNL A   1      44.611  30.304  31.708  1.00  0.00     0.049 A 
ATOM     28  C   UNL A   1      39.615  32.692  30.717  1.00  0.00     0.074 A 
ATOM     29  C   UNL A   1      45.510  31.051  32.450  1.00  0.00     0.029 A 
ATOM     30  N   UNL A   1      43.454  31.064  31.602  1.00  0.00    -0.354 N 
ATOM     31  N   UNL A   1      40.815  32.263  31.026  1.00  0.00    -0.248 NA
ATOM     32  C   UNL A   1      39.276  34.007  31.273  1.00  0.00     0.031 C 
ATOM     33  C   UNL A   1      44.881  32.240  32.831  1.00  0.00     0.029 A 
ATOM     34  C   UNL A   1      43.610  32.262  32.278  1.00  0.00     0.049 A 
ATOM     35  H   UNL A   1      42.643  30.792  31.115  1.00  0.00     0.167 HD
ATOM     36  C   UNL A   1      41.386  33.264  31.798  1.00  0.00     0.074 A 
ATOM     37  C   UNL A   1      40.402  34.325  31.900  1.00  0.00     0.031 C 
ATOM     38  C   UNL A   1      42.616  33.304  32.367  1.00  0.00     0.031 A 
BRANCH  25  39
ATOM     39  C   UNL A   1      46.077  28.258  31.407  1.00  0.00    -0.014 A 
ATOM     40  C   UNL A   1      46.240  27.447  32.545  1.00  0.00     0.010 A 
ATOM     41  C   UNL A   1      47.141  28.369  30.493  1.00  0.00     0.010 A 
ATOM     42  C   UNL A   1      47.460  26.807  32.791  1.00  0.00     0.020 A 
ATOM     43  C   UNL A   1      48.353  27.709  30.721  1.00  0.00     0.020 A 
ATOM     44  C   UNL A   1      48.512  26.951  31.881  1.00  0.00     0.054 A 
BRANCH  44  45
ATOM     45  S   UNL A   1      50.090  26.125  32.230  1.00  0.00     0.124 S 
ATOM     46  O   UNL A   1      50.692  27.031  33.207  1.00  0.00    -0.237 OA
ATOM     47  O   UNL A   1      49.667  24.830  32.757  1.00  0.00    -0.237 OA
ATOM     48  O   UNL A   1      50.754  26.080  30.930  1.00  0.00    -0.744 OA
ENDBRANCH  44  45
ENDBRANCH  25  39
BRANCH  26  49
ATOM     49  C   UNL A   1      37.233  32.629  29.647  1.00  0.00    -0.014 A 
ATOM     50  C   UNL A   1      36.196  32.464  30.578  1.00  0.00     0.010 A 
ATOM     51  C   UNL A   1      37.029  33.463  28.531  1.00  0.00     0.010 A 
ATOM     52  C   UNL A   1      34.979  33.130  30.404  1.00  0.00     0.020 A 
ATOM     53  C   UNL A   1      35.825  34.151  28.368  1.00  0.00     0.020 A 
ATOM     54  C   UNL A   1      34.805  33.977  29.304  1.00  0.00     0.054 A 
BRANCH  54  55
ATOM     55  S   UNL A   1      33.255  34.906  29.153  1.00  0.00     0.124 S 
ATOM     56  O   UNL A   1      32.769  34.912  30.528  1.00  0.00    -0.237 OA
ATOM     57  O   UNL A   1      33.709  36.196  28.635  1.00  0.00    -0.237 OA
ATOM     58  O   UNL A   1      32.470  34.111  28.212  1.00  0.00    -0.744 OA
ENDBRANCH  54  55
ENDBRANCH  26  49
BRANCH  38  59
ATOM     59  C   UNL A   1      42.984  34.553  33.117  1.00  0.00    -0.014 A 
ATOM     60  C   UNL A   1      42.699  34.692  34.486  1.00  0.00     0.010 A 
ATOM     61  C   UNL A   1      43.685  35.574  32.450  1.00  0.00     0.010 A 
ATOM     62  C   UNL A   1      43.095  35.844  35.172  1.00  0.00     0.020 A 
ATOM     63  C   UNL A   1      44.103  36.714  33.137  1.00  0.00     0.020 A 
ATOM     64  C   UNL A   1      43.796  36.846  34.493  1.00  0.00     0.054 A 
BRANCH  64  65
ATOM     65  S   UNL A   1      44.355  38.302  35.419  1.00  0.00     0.124 S 
ATOM     66  O   UNL A   1      43.726  39.392  34.678  1.00  0.00    -0.237 OA
ATOM     67  O   UNL A   1      43.818  38.058  36.756  1.00  0.00    -0.237 OA
ATOM     68  O   UNL A   1      45.811  38.237  35.318  1.00  0.00    -0.744 OA
ENDBRANCH  64  65
ENDBRANCH  38  59
ENDBRANCH  12  13
ENDBRANCH   5   7
ENDBRANCH   2   3
ENDBRANCH   1   2
BRANCH   1  69
ATOM     69  C   UNL A   1      34.995  23.900  23.513  1.00  0.00     0.118 C 
BRANCH  69  70
ATOM     70  N   UNL A   1      34.034  22.977  22.950  1.00  0.00    -0.351 N 
ATOM     71  C   UNL A   1      32.912  22.434  23.503  1.00  0.00     0.262 C 
ATOM     72  H   UNL A   1      34.218  22.696  22.025  1.00  0.00     0.163 HD
ATOM     73  O   UNL A   1      32.353  21.553  22.847  1.00  0.00    -0.268 OA
BRANCH  71  74
ATOM     74  C   UNL A   1      32.484  22.826  24.822  1.00  0.00     0.112 A 
ATOM     75  S   UNL A   1      33.075  21.791  26.081  1.00  0.00    -0.137 S 
ATOM     76  C   UNL A   1      31.653  23.813  25.330  1.00  0.00     0.111 A 
ATOM     77  C   UNL A   1      32.296  22.681  27.296  1.00  0.00     0.067 A 
ATOM     78  C   UNL A   1      31.585  23.732  26.773  1.00  0.00     0.035 A 
BRANCH  76  79
ATOM     79  S   UNL A   1      30.817  25.111  24.535  1.00  0.00     0.263 S 
ATOM     80  O   UNL A   1      30.273  24.477  23.346  1.00  0.00    -0.201 OA
ATOM     81  O   UNL A   1      29.875  25.544  25.548  1.00  0.00    -0.201 OA
BRANCH  79  82
ATOM     82  N   UNL A   1      31.566  26.504  23.995  1.00  0.00    -0.277 N 
ATOM     83  H   UNL A   1      31.976  26.479  23.100  1.00  0.00     0.180 HD
BRANCH  82  84
ATOM     84  C   UNL A   1      31.658  27.724  24.725  1.00  0.00     0.072 A 
ATOM     85  C   UNL A   1      32.402  27.691  25.917  1.00  0.00     0.029 A 
ATOM     86  C   UNL A   1      30.988  28.899  24.328  1.00  0.00     0.061 A 
ATOM     87  C   UNL A   1      32.573  28.840  26.683  1.00  0.00     0.002 A 
ATOM     88  C   UNL A   1      31.194  30.049  25.113  1.00  0.00     0.028 A 
ATOM     89  C   UNL A   1      31.983  30.027  26.269  1.00  0.00     0.002 A 
BRANCH  86  90
ATOM     90  N   UNL A   1      30.105  28.945  23.262  1.00  0.00    -0.370 N 
ATOM     91  C   UNL A   1      30.431  29.668  22.036  1.00  0.00     0.116 C 
ATOM     92  C   UNL A   1      28.801  28.294  23.372  1.00  0.00     0.116 C 
ATOM     93  C   UNL A   1      29.309  30.624  21.652  1.00  0.00     0.021 C 
ATOM     94  C   UNL A   1      27.693  29.276  23.002  1.00  0.00     0.021 C 
ATOM     95  C   UNL A   1      27.961  29.910  21.641  1.00  0.00     0.004 C 
ENDBRANCH  86  90
ENDBRANCH  82  84
ENDBRANCH  79  82
ENDBRANCH  76  79
ENDBRANCH  71  74
ENDBRANCH  69  70
ENDBRANCH   1  69
TORSDOF 17
ENDMDL
MODEL 3
REMARK VINA RESULT:     -11.7      2.912      3.629
REMARK SMILES O=C(NCCCNC(=O)c1sccc1S(=O)(=O)Nc1ccccc1N1CCCCC1)c1ccc(-c2c3nc(c(-c4ccc(S(=O)(=O)[O-])cc4)c4ccc([nH]4)c(-c4ccc(S(=O)(=O)[O-])cc4)c4nc(c(-c5ccc(S(=O)(=O)[O-])cc5)c5ccc2[nH]5)C=C4)C=C3)cc1
REMARK SMILES IDX 5 1 4 2 3 3 1 4 2 5 31 7 32 8 90 9 33 10 89 11 34 12 35 13
REMARK SMILES IDX 36 14 83 15 37 16 88 17 82 18 84 19 38 20 87 21 81 22 80 23
REMARK SMILES IDX 39 25 69 26 50 27 68 28 51 29 54 30 67 31 85 32 52 33 53 34
REMARK SMILES IDX 66 36 86 37 55 38 40 39 41 40 49 41 42 42 48 43 43 44 44 45
REMARK SMILES IDX 45 46 46 47 47 48 70 49 71 50 79 51 72 52 78 53 73 54 74 55
REMARK SMILES IDX 75 56 76 57 77 58 56 59 57 60 65 61 58 62 64 63 59 64 60 65
REMARK SMILES IDX 61 66 62 67 63 68 6 69 7 70 8 71 9 73 10 74 11 75 14 76
REMARK SMILES IDX 12 77 13 78 15 79 16 80 17 81 18 82 19 84 20 85 24 86 21 87
REMARK SMILES IDX 23 88 22 89 25 90 26 91 30 92 27 93 29 94 28 95
REMARK H PARENT 3 6 84 24 54 35 7 72 18 83
REMARK Flexibility Score: inf
ROOT
ATOM      1  C   UNL A   1      36.413  23.229  23.645  1.00  0.00     0.042 C 
ENDROOT
BRANCH   1   2
ATOM      2  C   UNL A   1      37.056  23.581  24.981  1.00  0.00     0.118 C 
BRANCH   2   3
ATOM      3  N   UNL A   1      38.109  22.648  25.372  1.00  0.00    -0.352 N 
ATOM      4  O   UNL A   1      40.072  21.976  26.260  1.00  0.00    -0.269 OA
ATOM      5  C   UNL A   1      39.235  22.860  26.131  1.00  0.00     0.251 C 
ATOM      6  H   UNL A   1      37.994  21.728  25.042  1.00  0.00     0.163 HD
BRANCH   5   7
ATOM      7  C   UNL A   1      39.437  24.189  26.733  1.00  0.00     0.039 A 
ATOM      8  C   UNL A   1      40.130  25.172  26.028  1.00  0.00     0.014 A 
ATOM      9  C   UNL A   1      39.023  24.408  28.047  1.00  0.00     0.014 A 
ATOM     10  C   UNL A   1      40.609  26.280  26.708  1.00  0.00     0.010 A 
ATOM     11  C   UNL A   1      39.396  25.589  28.688  1.00  0.00     0.010 A 
ATOM     12  C   UNL A   1      40.235  26.509  28.041  1.00  0.00    -0.014 A 
BRANCH  12  13
ATOM     13  C   UNL A   1      40.694  27.741  28.728  1.00  0.00     0.031 A 
ATOM     14  C   UNL A   1      42.080  27.837  29.304  1.00  0.00     0.074 A 
ATOM     15  C   UNL A   1      39.839  28.777  28.825  1.00  0.00     0.049 A 
ATOM     16  N   UNL A   1      42.607  28.800  30.013  1.00  0.00    -0.248 NA
ATOM     17  C   UNL A   1      42.987  26.703  29.063  1.00  0.00     0.031 C 
ATOM     18  C   UNL A   1      38.475  28.799  28.286  1.00  0.00     0.029 A 
ATOM     19  N   UNL A   1      39.986  30.010  29.403  1.00  0.00    -0.354 N 
ATOM     20  C   UNL A   1      43.890  28.375  30.342  1.00  0.00     0.074 A 
ATOM     21  C   UNL A   1      44.057  27.060  29.760  1.00  0.00     0.031 C 
ATOM     22  C   UNL A   1      37.926  29.997  28.524  1.00  0.00     0.029 A 
ATOM     23  C   UNL A   1      38.859  30.791  29.310  1.00  0.00     0.049 A 
ATOM     24  H   UNL A   1      40.815  30.306  29.842  1.00  0.00     0.167 HD
ATOM     25  C   UNL A   1      44.834  29.021  31.068  1.00  0.00     0.031 A 
ATOM     26  C   UNL A   1      38.584  31.998  29.836  1.00  0.00     0.031 A 
ATOM     27  C   UNL A   1      44.649  30.332  31.636  1.00  0.00     0.049 A 
ATOM     28  C   UNL A   1      39.630  32.679  30.662  1.00  0.00     0.074 A 
ATOM     29  C   UNL A   1      45.545  31.087  32.373  1.00  0.00     0.029 A 
ATOM     30  N   UNL A   1      43.485  31.083  31.533  1.00  0.00    -0.354 N 
ATOM     31  N   UNL A   1      40.835  32.260  30.967  1.00  0.00    -0.248 NA
ATOM     32  C   UNL A   1      39.283  33.992  31.217  1.00  0.00     0.031 C 
ATOM     33  C   UNL A   1      44.908  32.271  32.755  1.00  0.00     0.029 A 
ATOM     34  C   UNL A   1      43.634  32.283  32.207  1.00  0.00     0.049 A 
ATOM     35  H   UNL A   1      42.674  30.803  31.050  1.00  0.00     0.167 HD
ATOM     36  C   UNL A   1      41.401  33.267  31.735  1.00  0.00     0.074 A 
ATOM     37  C   UNL A   1      40.409  34.320  31.839  1.00  0.00     0.031 C 
ATOM     38  C   UNL A   1      42.632  33.317  32.298  1.00  0.00     0.031 A 
BRANCH  25  39
ATOM     39  C   UNL A   1      46.129  28.296  31.332  1.00  0.00    -0.014 A 
ATOM     40  C   UNL A   1      47.242  28.442  30.485  1.00  0.00     0.010 A 
ATOM     41  C   UNL A   1      46.239  27.464  32.463  1.00  0.00     0.010 A 
ATOM     42  C   UNL A   1      48.420  27.728  30.731  1.00  0.00     0.020 A 
ATOM     43  C   UNL A   1      47.423  26.770  32.728  1.00  0.00     0.020 A 
ATOM     44  C   UNL A   1      48.499  26.888  31.846  1.00  0.00     0.054 A 
BRANCH  44  45
ATOM     45  S   UNL A   1      50.030  25.959  32.135  1.00  0.00     0.124 S 
ATOM     46  O   UNL A   1      50.141  25.175  30.907  1.00  0.00    -0.237 OA
ATOM     47  O   UNL A   1      51.024  27.017  32.294  1.00  0.00    -0.237 OA
ATOM     48  O   UNL A   1      49.747  25.188  33.343  1.00  0.00    -0.744 OA
ENDBRANCH  44  45
ENDBRANCH  25  39
BRANCH  26  49
ATOM     49  C   UNL A   1      37.244  32.596  29.601  1.00  0.00    -0.014 A 
ATOM     50  C   UNL A   1      36.257  32.548  30.598  1.00  0.00     0.010 A 
ATOM     51  C   UNL A   1      36.988  33.306  28.412  1.00  0.00     0.010 A 
ATOM     52  C   UNL A   1      35.038  33.208  30.415  1.00  0.00     0.020 A 
ATOM     53  C   UNL A   1      35.783  33.989  28.238  1.00  0.00     0.020 A 
ATOM     54  C   UNL A   1      34.813  33.933  29.239  1.00  0.00     0.054 A 
BRANCH  54  55
ATOM     55  S   UNL A   1      33.265  34.862  29.068  1.00  0.00     0.124 S 
ATOM     56  O   UNL A   1      32.541  34.066  28.083  1.00  0.00    -0.237 OA
ATOM     57  O   UNL A   1      32.726  34.832  30.426  1.00  0.00    -0.237 OA
ATOM     58  O   UNL A   1      33.705  36.178  28.612  1.00  0.00    -0.744 OA
ENDBRANCH  54  55
ENDBRANCH  26  49
BRANCH  38  59
ATOM     59  C   UNL A   1      42.994  34.570  33.045  1.00  0.00    -0.014 A 
ATOM     60  C   UNL A   1      42.729  34.703  34.419  1.00  0.00     0.010 A 
ATOM     61  C   UNL A   1      43.669  35.602  32.369  1.00  0.00     0.010 A 
ATOM     62  C   UNL A   1      43.118  35.858  35.101  1.00  0.00     0.020 A 
ATOM     63  C   UNL A   1      44.081  36.747  33.052  1.00  0.00     0.020 A 
ATOM     64  C   UNL A   1      43.793  36.873  34.413  1.00  0.00     0.054 A 
BRANCH  64  65
ATOM     65  S   UNL A   1      44.346  38.334  35.333  1.00  0.00     0.124 S 
ATOM     66  O   UNL A   1      43.875  38.038  36.683  1.00  0.00    -0.237 OA
ATOM     67  O   UNL A   1      45.795  38.300  35.150  1.00  0.00    -0.237 OA
ATOM     68  O   UNL A   1      43.666  39.441  34.664  1.00  0.00    -0.744 OA
ENDBRANCH  64  65
ENDBRANCH  38  59
ENDBRANCH  12  13
ENDBRANCH   5   7
ENDBRANCH   2   3
ENDBRANCH   1   2
BRANCH   1  69
ATOM     69  C   UNL A   1      35.026  23.829  23.520  1.00  0.00     0.118 C 
BRANCH  69  70
ATOM     70  N   UNL A   1      34.047  22.839  23.132  1.00  0.00    -0.351 N 
ATOM     71  C   UNL A   1      33.224  22.070  23.901  1.00  0.00     0.262 C 
ATOM     72  H   UNL A   1      33.960  22.696  22.162  1.00  0.00     0.163 HD
ATOM     73  O   UNL A   1      32.588  21.194  23.312  1.00  0.00    -0.268 OA
BRANCH  71  74
ATOM     74  C   UNL A   1      33.192  22.240  25.332  1.00  0.00     0.112 A 
ATOM     75  S   UNL A   1      34.360  21.273  26.173  1.00  0.00    -0.137 S 
ATOM     76  C   UNL A   1      32.402  22.958  26.217  1.00  0.00     0.111 A 
ATOM     77  C   UNL A   1      33.872  21.851  27.690  1.00  0.00     0.067 A 
ATOM     78  C   UNL A   1      32.836  22.744  27.579  1.00  0.00     0.035 A 
BRANCH  76  79
ATOM     79  S   UNL A   1      31.112  24.083  25.927  1.00  0.00     0.263 S 
ATOM     80  O   UNL A   1      30.545  23.624  24.671  1.00  0.00    -0.201 OA
ATOM     81  O   UNL A   1      30.297  23.939  27.118  1.00  0.00    -0.201 OA
BRANCH  79  82
ATOM     82  N   UNL A   1      31.340  25.728  25.737  1.00  0.00    -0.277 N 
ATOM     83  H   UNL A   1      31.030  26.315  26.465  1.00  0.00     0.180 HD
BRANCH  82  84
ATOM     84  C   UNL A   1      31.945  26.350  24.607  1.00  0.00     0.072 A 
ATOM     85  C   UNL A   1      31.938  25.621  23.406  1.00  0.00     0.029 A 
ATOM     86  C   UNL A   1      32.589  27.602  24.683  1.00  0.00     0.061 A 
ATOM     87  C   UNL A   1      32.479  26.157  22.242  1.00  0.00     0.002 A 
ATOM     88  C   UNL A   1      33.111  28.127  23.486  1.00  0.00     0.028 A 
ATOM     89  C   UNL A   1      33.051  27.422  22.279  1.00  0.00     0.002 A 
BRANCH  86  90
ATOM     90  N   UNL A   1      32.778  28.286  25.872  1.00  0.00    -0.370 N 
ATOM     91  C   UNL A   1      31.819  29.283  26.338  1.00  0.00     0.116 C 
ATOM     92  C   UNL A   1      33.982  28.041  26.666  1.00  0.00     0.116 C 
ATOM     93  C   UNL A   1      32.517  30.591  26.689  1.00  0.00     0.021 C 
ATOM     94  C   UNL A   1      34.675  29.362  26.987  1.00  0.00     0.021 C 
ATOM     95  C   UNL A   1      33.698  30.346  27.623  1.00  0.00     0.004 C 
ENDBRANCH  86  90
ENDBRANCH  82  84
ENDBRANCH  79  82
ENDBRANCH  76  79
ENDBRANCH  71  74
ENDBRANCH  69  70
ENDBRANCH   1  69
TORSDOF 17
ENDMDL
