MODEL 1
REMARK VINA RESULT:     -10.7      0.000      0.000
REMARK SMILES CC(C)C[C@H](Nc1ncnc2scc(-c3ccccc3)c12)C(=O)NCCCNC(=O)c1ccc(-c2c3nc(c(-c4ccc(S(=O)(=O)[O-])cc4)c4ccc([nH]4)c(-c4ccc(S(=O)(=O)[O-])cc4)c4nc(c(-c5ccc(S(=O)(=O)[O-])cc5)c5ccc2[nH]5)C=C4)C=C3)cc1
REMARK SMILES IDX 26 1 25 2 24 3 22 4 23 5 5 7 4 8 2 9 1 10 3 11 6 12 7 14
REMARK SMILES IDX 8 15 21 16 9 17 11 18 14 19 10 20 12 21 13 22 15 23 16 24
REMARK SMILES IDX 20 25 17 26 19 27 18 28 27 29 28 30 29 31 30 33 31 34 32 35
REMARK SMILES IDX 90 36 33 37 89 38 34 39 35 40 36 41 83 42 37 43 88 44 82 45
REMARK SMILES IDX 84 46 38 47 87 48 81 49 80 50 39 52 69 53 50 54 68 55 51 56
REMARK SMILES IDX 54 57 67 58 85 59 52 60 53 61 66 63 86 64 55 65 40 66 41 67
REMARK SMILES IDX 49 68 42 69 48 70 43 71 44 72 45 73 46 74 47 75 70 76 71 77
REMARK SMILES IDX 79 78 72 79 78 80 73 81 74 82 75 83 76 84 77 85 56 86 57 87
REMARK SMILES IDX 65 88 58 89 64 90 59 91 60 92 61 93 62 94 63 95
REMARK H PARENT 24 6 6 13 28 32 84 51 54 62
REMARK Flexibility Score: inf
ROOT
ATOM      1  C   UNL A   1      35.554  23.656  24.665  1.00  0.00     0.042 C 
ENDROOT
BRANCH   1   2
ATOM      2  C   UNL A   1      34.761  24.874  24.207  1.00  0.00     0.117 C 
BRANCH   2   3
ATOM      3  N   UNL A   1      34.305  24.834  22.824  1.00  0.00    -0.354 N 
ATOM      4  C   UNL A   1      33.062  24.706  22.270  1.00  0.00     0.242 C 
ATOM      5  O   UNL A   1      33.005  24.752  21.035  1.00  0.00    -0.273 OA
ATOM      6  H   UNL A   1      35.029  24.915  22.162  1.00  0.00     0.163 HD
BRANCH   4   7
ATOM      7  C   UNL A   1      31.781  24.409  23.098  1.00  0.00     0.170 C 
BRANCH   7   8
ATOM      8  C   UNL A   1      31.299  22.945  23.047  1.00  0.00     0.038 C 
BRANCH   8   9
ATOM      9  C   UNL A   1      32.388  21.874  22.799  1.00  0.00    -0.015 C 
ATOM     10  C   UNL A   1      32.880  21.213  24.084  1.00  0.00     0.007 C 
ATOM     11  C   UNL A   1      31.874  20.819  21.816  1.00  0.00     0.007 C 
ENDBRANCH   8   9
ENDBRANCH   7   8
BRANCH   7  12
ATOM     12  N   UNL A   1      30.792  25.456  22.772  1.00  0.00    -0.358 N 
ATOM     13  H   UNL A   1      30.026  25.181  22.219  1.00  0.00     0.162 HD
BRANCH  12  14
ATOM     14  C   UNL A   1      30.826  26.770  23.153  1.00  0.00     0.139 A 
ATOM     15  N   UNL A   1      30.560  27.671  22.179  1.00  0.00    -0.219 NA
ATOM     16  C   UNL A   1      31.124  27.230  24.473  1.00  0.00     0.062 A 
ATOM     17  C   UNL A   1      30.598  28.974  22.454  1.00  0.00     0.225 A 
ATOM     18  C   UNL A   1      31.200  28.624  24.563  1.00  0.00     0.129 A 
ATOM     19  C   UNL A   1      31.418  26.626  25.802  1.00  0.00     0.006 A 
ATOM     20  N   UNL A   1      30.937  29.527  23.605  1.00  0.00    -0.225 NA
ATOM     21  S   UNL A   1      31.736  29.194  26.065  1.00  0.00    -0.123 S 
ATOM     22  C   UNL A   1      31.858  27.618  26.672  1.00  0.00     0.076 A 
BRANCH  19  23
ATOM     23  C   UNL A   1      31.407  25.227  26.324  1.00  0.00    -0.017 A 
ATOM     24  C   UNL A   1      32.592  24.587  26.736  1.00  0.00     0.009 A 
ATOM     25  C   UNL A   1      30.256  24.445  26.372  1.00  0.00     0.009 A 
ATOM     26  C   UNL A   1      32.614  23.238  27.125  1.00  0.00     0.001 A 
ATOM     27  C   UNL A   1      30.251  23.110  26.793  1.00  0.00     0.001 A 
ATOM     28  C   UNL A   1      31.439  22.498  27.156  1.00  0.00     0.000 A 
ENDBRANCH  19  23
ENDBRANCH  12  14
ENDBRANCH   7  12
ENDBRANCH   4   7
ENDBRANCH   2   3
ENDBRANCH   1   2
BRANCH   1  29
ATOM     29  C   UNL A   1      36.498  23.885  25.835  1.00  0.00     0.118 C 
BRANCH  29  30
ATOM     30  N   UNL A   1      37.550  22.881  25.888  1.00  0.00    -0.352 N 
ATOM     31  C   UNL A   1      38.856  23.044  26.277  1.00  0.00     0.251 C 
ATOM     32  H   UNL A   1      37.293  21.971  25.611  1.00  0.00     0.163 HD
ATOM     33  O   UNL A   1      39.680  22.155  26.043  1.00  0.00    -0.269 OA
BRANCH  31  34
ATOM     34  C   UNL A   1      39.282  24.286  26.959  1.00  0.00     0.039 A 
ATOM     35  C   UNL A   1      38.917  24.496  28.292  1.00  0.00     0.014 A 
ATOM     36  C   UNL A   1      40.022  25.257  26.277  1.00  0.00     0.014 A 
ATOM     37  C   UNL A   1      39.326  25.659  28.952  1.00  0.00     0.010 A 
ATOM     38  C   UNL A   1      40.480  26.386  26.953  1.00  0.00     0.010 A 
ATOM     39  C   UNL A   1      40.125  26.607  28.293  1.00  0.00    -0.014 A 
BRANCH  39  40
ATOM     40  C   UNL A   1      40.563  27.859  28.964  1.00  0.00     0.031 A 
ATOM     41  C   UNL A   1      41.929  27.927  29.596  1.00  0.00     0.074 A 
ATOM     42  C   UNL A   1      39.723  28.907  29.065  1.00  0.00     0.049 A 
ATOM     43  N   UNL A   1      42.458  28.880  30.319  1.00  0.00    -0.248 NA
ATOM     44  C   UNL A   1      42.804  26.759  29.409  1.00  0.00     0.031 C 
ATOM     45  C   UNL A   1      38.370  28.968  28.510  1.00  0.00     0.029 A 
ATOM     46  N   UNL A   1      39.884  30.124  29.681  1.00  0.00    -0.354 N 
ATOM     47  C   UNL A   1      43.713  28.418  30.696  1.00  0.00     0.074 A 
ATOM     48  C   UNL A   1      43.853  27.085  30.151  1.00  0.00     0.031 C 
ATOM     49  C   UNL A   1      37.831  30.164  28.798  1.00  0.00     0.029 A 
ATOM     50  C   UNL A   1      38.780  30.939  29.592  1.00  0.00     0.049 A 
ATOM     51  H   UNL A   1      40.712  30.387  30.144  1.00  0.00     0.167 HD
ATOM     52  C   UNL A   1      44.670  29.048  31.418  1.00  0.00     0.031 A 
ATOM     53  C   UNL A   1      38.554  32.167  30.100  1.00  0.00     0.031 A 
ATOM     54  C   UNL A   1      44.543  30.381  31.941  1.00  0.00     0.049 A 
ATOM     55  C   UNL A   1      39.630  32.848  30.902  1.00  0.00     0.074 A 
ATOM     56  C   UNL A   1      45.475  31.120  32.650  1.00  0.00     0.029 A 
ATOM     57  N   UNL A   1      43.418  31.179  31.808  1.00  0.00    -0.354 N 
ATOM     58  N   UNL A   1      40.824  32.406  31.219  1.00  0.00    -0.248 NA
ATOM     59  C   UNL A   1      39.333  34.196  31.407  1.00  0.00     0.031 C 
ATOM     60  C   UNL A   1      44.897  32.351  32.979  1.00  0.00     0.029 A 
ATOM     61  C   UNL A   1      43.625  32.397  32.431  1.00  0.00     0.049 A 
ATOM     62  H   UNL A   1      42.592  30.917  31.339  1.00  0.00     0.167 HD
ATOM     63  C   UNL A   1      41.432  33.435  31.930  1.00  0.00     0.074 A 
ATOM     64  C   UNL A   1      40.476  34.521  31.996  1.00  0.00     0.031 C 
ATOM     65  C   UNL A   1      42.672  33.477  32.475  1.00  0.00     0.031 A 
BRANCH  52  66
ATOM     66  C   UNL A   1      45.943  28.291  31.694  1.00  0.00    -0.014 A 
ATOM     67  C   UNL A   1      47.043  28.376  30.822  1.00  0.00     0.010 A 
ATOM     68  C   UNL A   1      46.051  27.509  32.858  1.00  0.00     0.010 A 
ATOM     69  C   UNL A   1      48.211  27.657  31.084  1.00  0.00     0.020 A 
ATOM     70  C   UNL A   1      47.228  26.810  33.138  1.00  0.00     0.020 A 
ATOM     71  C   UNL A   1      48.294  26.873  32.239  1.00  0.00     0.054 A 
BRANCH  71  72
ATOM     72  S   UNL A   1      49.826  25.957  32.562  1.00  0.00     0.124 S 
ATOM     73  O   UNL A   1      50.782  27.041  32.779  1.00  0.00    -0.237 OA
ATOM     74  O   UNL A   1      49.489  25.171  33.747  1.00  0.00    -0.237 OA
ATOM     75  O   UNL A   1      50.031  25.181  31.341  1.00  0.00    -0.744 OA
ENDBRANCH  71  72
ENDBRANCH  52  66
BRANCH  53  76
ATOM     76  C   UNL A   1      37.251  32.841  29.855  1.00  0.00    -0.014 A 
ATOM     77  C   UNL A   1      37.041  33.577  28.676  1.00  0.00     0.010 A 
ATOM     78  C   UNL A   1      36.207  32.738  30.792  1.00  0.00     0.010 A 
ATOM     79  C   UNL A   1      35.817  34.213  28.446  1.00  0.00     0.020 A 
ATOM     80  C   UNL A   1      34.974  33.351  30.555  1.00  0.00     0.020 A 
ATOM     81  C   UNL A   1      34.791  34.094  29.387  1.00  0.00     0.054 A 
BRANCH  81  82
ATOM     82  S   UNL A   1      33.192  34.881  29.044  1.00  0.00     0.124 S 
ATOM     83  O   UNL A   1      32.551  34.847  30.354  1.00  0.00    -0.237 OA
ATOM     84  O   UNL A   1      33.587  36.204  28.565  1.00  0.00    -0.237 OA
ATOM     85  O   UNL A   1      32.597  34.011  28.031  1.00  0.00    -0.744 OA
ENDBRANCH  81  82
ENDBRANCH  53  76
BRANCH  65  86
ATOM     86  C   UNL A   1      43.101  34.752  33.148  1.00  0.00    -0.014 A 
ATOM     87  C   UNL A   1      42.967  34.928  34.535  1.00  0.00     0.010 A 
ATOM     88  C   UNL A   1      43.724  35.757  32.384  1.00  0.00     0.010 A 
ATOM     89  C   UNL A   1      43.437  36.094  35.147  1.00  0.00     0.020 A 
ATOM     90  C   UNL A   1      44.214  36.913  32.995  1.00  0.00     0.020 A 
ATOM     91  C   UNL A   1      44.059  37.079  34.373  1.00  0.00     0.054 A 
BRANCH  91  92
ATOM     92  S   UNL A   1      44.722  38.552  35.198  1.00  0.00     0.124 S 
ATOM     93  O   UNL A   1      44.208  39.629  34.357  1.00  0.00    -0.237 OA
ATOM     94  O   UNL A   1      44.136  38.464  36.534  1.00  0.00    -0.237 OA
ATOM     95  O   UNL A   1      46.169  38.356  35.147  1.00  0.00    -0.744 OA
ENDBRANCH  91  92
ENDBRANCH  65  86
ENDBRANCH  39  40
ENDBRANCH  31  34
ENDBRANCH  29  30
ENDBRANCH   1  29
TORSDOF 18
ENDMDL
MODEL 2
REMARK VINA RESULT:     -10.6      3.059      3.877
REMARK SMILES CC(C)C[C@H](Nc1ncnc2scc(-c3ccccc3)c12)C(=O)NCCCNC(=O)c1ccc(-c2c3nc(c(-c4ccc(S(=O)(=O)[O-])cc4)c4ccc([nH]4)c(-c4ccc(S(=O)(=O)[O-])cc4)c4nc(c(-c5ccc(S(=O)(=O)[O-])cc5)c5ccc2[nH]5)C=C4)C=C3)cc1
REMARK SMILES IDX 26 1 25 2 24 3 22 4 23 5 5 7 4 8 2 9 1 10 3 11 6 12 7 14
REMARK SMILES IDX 8 15 21 16 9 17 11 18 14 19 10 20 12 21 13 22 15 23 16 24
REMARK SMILES IDX 20 25 17 26 19 27 18 28 27 29 28 30 29 31 30 33 31 34 32 35
REMARK SMILES IDX 90 36 33 37 89 38 34 39 35 40 36 41 83 42 37 43 88 44 82 45
REMARK SMILES IDX 84 46 38 47 87 48 81 49 80 50 39 52 69 53 50 54 68 55 51 56
REMARK SMILES IDX 54 57 67 58 85 59 52 60 53 61 66 63 86 64 55 65 40 66 41 67
REMARK SMILES IDX 49 68 42 69 48 70 43 71 44 72 45 73 46 74 47 75 70 76 71 77
REMARK SMILES IDX 79 78 72 79 78 80 73 81 74 82 75 83 76 84 77 85 56 86 57 87
REMARK SMILES IDX 65 88 58 89 64 90 59 91 60 92 61 93 62 94 63 95
REMARK H PARENT 24 6 6 13 28 32 84 51 54 62
REMARK Flexibility Score: inf
ROOT
ATOM      1  C   UNL A   1      37.887  24.030  26.298  1.00  0.00     0.042 C 
ENDROOT
BRANCH   1   2
ATOM      2  C   UNL A   1      37.387  22.768  25.607  1.00  0.00     0.117 C 
BRANCH   2   3
ATOM      3  N   UNL A   1      37.277  22.857  24.156  1.00  0.00    -0.354 N 
ATOM      4  C   UNL A   1      36.202  22.992  23.324  1.00  0.00     0.242 C 
ATOM      5  O   UNL A   1      36.452  23.082  22.115  1.00  0.00    -0.273 OA
ATOM      6  H   UNL A   1      38.141  22.810  23.687  1.00  0.00     0.163 HD
BRANCH   4   7
ATOM      7  C   UNL A   1      34.727  22.934  23.810  1.00  0.00     0.170 C 
BRANCH   7   8
ATOM      8  C   UNL A   1      34.204  21.518  24.129  1.00  0.00     0.038 C 
BRANCH   8   9
ATOM      9  C   UNL A   1      32.670  21.327  24.074  1.00  0.00    -0.015 C 
ATOM     10  C   UNL A   1      32.144  21.106  22.657  1.00  0.00     0.007 C 
ATOM     11  C   UNL A   1      32.251  20.172  24.986  1.00  0.00     0.007 C 
ENDBRANCH   8   9
ENDBRANCH   7   8
BRANCH   7  12
ATOM     12  N   UNL A   1      33.923  23.757  22.884  1.00  0.00    -0.358 N 
ATOM     13  H   UNL A   1      33.453  23.277  22.165  1.00  0.00     0.162 HD
BRANCH  12  14
ATOM     14  C   UNL A   1      33.763  25.115  22.917  1.00  0.00     0.139 A 
ATOM     15  N   UNL A   1      33.843  25.745  21.722  1.00  0.00    -0.219 NA
ATOM     16  C   UNL A   1      33.531  25.882  24.100  1.00  0.00     0.062 A 
ATOM     17  C   UNL A   1      33.726  27.070  21.662  1.00  0.00     0.225 A 
ATOM     18  C   UNL A   1      33.513  27.261  23.864  1.00  0.00     0.129 A 
ATOM     19  C   UNL A   1      33.332  25.620  25.553  1.00  0.00     0.006 A 
ATOM     20  N   UNL A   1      33.591  27.896  22.684  1.00  0.00    -0.225 NA
ATOM     21  S   UNL A   1      33.430  28.204  25.269  1.00  0.00    -0.123 S 
ATOM     22  C   UNL A   1      33.378  26.824  26.249  1.00  0.00     0.076 A 
BRANCH  19  23
ATOM     23  C   UNL A   1      33.182  24.377  26.365  1.00  0.00    -0.017 A 
ATOM     24  C   UNL A   1      31.913  23.851  26.677  1.00  0.00     0.009 A 
ATOM     25  C   UNL A   1      34.264  23.700  26.921  1.00  0.00     0.009 A 
ATOM     26  C   UNL A   1      31.754  22.746  27.529  1.00  0.00     0.001 A 
ATOM     27  C   UNL A   1      34.127  22.574  27.742  1.00  0.00     0.001 A 
ATOM     28  C   UNL A   1      32.864  22.104  28.061  1.00  0.00     0.000 A 
ENDBRANCH  19  23
ENDBRANCH  12  14
ENDBRANCH   7  12
ENDBRANCH   4   7
ENDBRANCH   2   3
ENDBRANCH   1   2
BRANCH   1  29
ATOM     29  C   UNL A   1      39.259  23.927  26.948  1.00  0.00     0.118 C 
BRANCH  29  30
ATOM     30  N   UNL A   1      40.321  24.340  26.043  1.00  0.00    -0.352 N 
ATOM     31  C   UNL A   1      41.005  25.529  26.029  1.00  0.00     0.251 C 
ATOM     32  H   UNL A   1      40.581  23.683  25.356  1.00  0.00     0.163 HD
ATOM     33  O   UNL A   1      41.709  25.818  25.057  1.00  0.00    -0.269 OA
BRANCH  31  34
ATOM     34  C   UNL A   1      40.888  26.471  27.163  1.00  0.00     0.039 A 
ATOM     35  C   UNL A   1      40.063  26.144  28.244  1.00  0.00     0.014 A 
ATOM     36  C   UNL A   1      41.573  27.690  27.153  1.00  0.00     0.014 A 
ATOM     37  C   UNL A   1      39.956  27.019  29.329  1.00  0.00     0.010 A 
ATOM     38  C   UNL A   1      41.513  28.533  28.261  1.00  0.00     0.010 A 
ATOM     39  C   UNL A   1      40.692  28.214  29.355  1.00  0.00    -0.014 A 
BRANCH  39  40
ATOM     40  C   UNL A   1      40.588  29.170  30.487  1.00  0.00     0.031 A 
ATOM     41  C   UNL A   1      41.496  29.016  31.679  1.00  0.00     0.074 A 
ATOM     42  C   UNL A   1      39.645  30.133  30.482  1.00  0.00     0.049 A 
ATOM     43  N   UNL A   1      41.494  29.673  32.811  1.00  0.00    -0.248 NA
ATOM     44  C   UNL A   1      42.528  27.970  31.595  1.00  0.00     0.031 C 
ATOM     45  C   UNL A   1      38.693  30.382  29.398  1.00  0.00     0.029 A 
ATOM     46  N   UNL A   1      39.326  31.076  31.428  1.00  0.00    -0.354 N 
ATOM     47  C   UNL A   1      42.500  29.104  33.582  1.00  0.00     0.074 A 
ATOM     48  C   UNL A   1      43.069  28.025  32.803  1.00  0.00     0.031 C 
ATOM     49  C   UNL A   1      37.908  31.420  29.734  1.00  0.00     0.029 A 
ATOM     50  C   UNL A   1      38.271  31.882  31.071  1.00  0.00     0.049 A 
ATOM     51  H   UNL A   1      39.808  31.165  32.282  1.00  0.00     0.167 HD
ATOM     52  C   UNL A   1      42.924  29.453  34.819  1.00  0.00     0.031 A 
ATOM     53  C   UNL A   1      37.658  32.874  31.747  1.00  0.00     0.031 A 
ATOM     54  C   UNL A   1      42.376  30.539  35.586  1.00  0.00     0.049 A 
ATOM     55  C   UNL A   1      38.143  33.244  33.123  1.00  0.00     0.074 A 
ATOM     56  C   UNL A   1      42.766  30.995  36.833  1.00  0.00     0.029 A 
ATOM     57  N   UNL A   1      41.324  31.343  35.177  1.00  0.00    -0.354 N 
ATOM     58  N   UNL A   1      39.118  32.714  33.822  1.00  0.00    -0.248 NA
ATOM     59  C   UNL A   1      37.452  34.351  33.798  1.00  0.00     0.031 C 
ATOM     60  C   UNL A   1      41.924  32.052  37.196  1.00  0.00     0.029 A 
ATOM     61  C   UNL A   1      41.043  32.286  36.152  1.00  0.00     0.049 A 
ATOM     62  H   UNL A   1      40.846  31.256  34.320  1.00  0.00     0.167 HD
ATOM     63  C   UNL A   1      39.180  33.445  35.003  1.00  0.00     0.074 A 
ATOM     64  C   UNL A   1      38.145  34.456  34.924  1.00  0.00     0.031 C 
ATOM     65  C   UNL A   1      40.021  33.296  36.054  1.00  0.00     0.031 A 
BRANCH  52  66
ATOM     66  C   UNL A   1      44.035  28.639  35.429  1.00  0.00    -0.014 A 
ATOM     67  C   UNL A   1      45.382  29.001  35.252  1.00  0.00     0.010 A 
ATOM     68  C   UNL A   1      43.725  27.514  36.214  1.00  0.00     0.010 A 
ATOM     69  C   UNL A   1      46.402  28.227  35.812  1.00  0.00     0.020 A 
ATOM     70  C   UNL A   1      44.742  26.753  36.799  1.00  0.00     0.020 A 
ATOM     71  C   UNL A   1      46.074  27.104  36.577  1.00  0.00     0.054 A 
BRANCH  71  72
ATOM     72  S   UNL A   1      47.417  26.122  37.302  1.00  0.00     0.124 S 
ATOM     73  O   UNL A   1      47.131  26.233  38.731  1.00  0.00    -0.237 OA
ATOM     74  O   UNL A   1      47.201  24.800  36.719  1.00  0.00    -0.237 OA
ATOM     75  O   UNL A   1      48.628  26.807  36.854  1.00  0.00    -0.744 OA
ENDBRANCH  71  72
ENDBRANCH  52  66
BRANCH  53  76
ATOM     76  C   UNL A   1      36.519  33.600  31.125  1.00  0.00    -0.014 A 
ATOM     77  C   UNL A   1      36.536  33.911  29.754  1.00  0.00     0.010 A 
ATOM     78  C   UNL A   1      35.404  33.973  31.897  1.00  0.00     0.010 A 
ATOM     79  C   UNL A   1      35.467  34.596  29.169  1.00  0.00     0.020 A 
ATOM     80  C   UNL A   1      34.322  34.636  31.311  1.00  0.00     0.020 A 
ATOM     81  C   UNL A   1      34.365  34.952  29.951  1.00  0.00     0.054 A 
BRANCH  81  82
ATOM     82  S   UNL A   1      32.964  35.792  29.161  1.00  0.00     0.124 S 
ATOM     83  O   UNL A   1      33.624  36.890  28.463  1.00  0.00    -0.237 OA
ATOM     84  O   UNL A   1      32.407  34.743  28.309  1.00  0.00    -0.237 OA
ATOM     85  O   UNL A   1      32.122  36.180  30.290  1.00  0.00    -0.744 OA
ENDBRANCH  81  82
ENDBRANCH  53  76
BRANCH  65  86
ATOM     86  C   UNL A   1      39.904  34.274  37.191  1.00  0.00    -0.014 A 
ATOM     87  C   UNL A   1      40.596  35.497  37.179  1.00  0.00     0.010 A 
ATOM     88  C   UNL A   1      39.018  33.996  38.250  1.00  0.00     0.010 A 
ATOM     89  C   UNL A   1      40.416  36.420  38.214  1.00  0.00     0.020 A 
ATOM     90  C   UNL A   1      38.820  34.924  39.274  1.00  0.00     0.020 A 
ATOM     91  C   UNL A   1      39.527  36.128  39.255  1.00  0.00     0.054 A 
BRANCH  91  92
ATOM     92  S   UNL A   1      39.259  37.369  40.550  1.00  0.00     0.124 S 
ATOM     93  O   UNL A   1      38.187  38.179  39.978  1.00  0.00    -0.237 OA
ATOM     94  O   UNL A   1      38.884  36.555  41.704  1.00  0.00    -0.237 OA
ATOM     95  O   UNL A   1      40.554  38.036  40.663  1.00  0.00    -0.744 OA
ENDBRANCH  91  92
ENDBRANCH  65  86
ENDBRANCH  39  40
ENDBRANCH  31  34
ENDBRANCH  29  30
ENDBRANCH   1  29
TORSDOF 18
ENDMDL
MODEL 3
REMARK VINA RESULT:     -10.6      1.356      2.527
REMARK SMILES CC(C)C[C@H](Nc1ncnc2scc(-c3ccccc3)c12)C(=O)NCCCNC(=O)c1ccc(-c2c3nc(c(-c4ccc(S(=O)(=O)[O-])cc4)c4ccc([nH]4)c(-c4ccc(S(=O)(=O)[O-])cc4)c4nc(c(-c5ccc(S(=O)(=O)[O-])cc5)c5ccc2[nH]5)C=C4)C=C3)cc1
REMARK SMILES IDX 26 1 25 2 24 3 22 4 23 5 5 7 4 8 2 9 1 10 3 11 6 12 7 14
REMARK SMILES IDX 8 15 21 16 9 17 11 18 14 19 10 20 12 21 13 22 15 23 16 24
REMARK SMILES IDX 20 25 17 26 19 27 18 28 27 29 28 30 29 31 30 33 31 34 32 35
REMARK SMILES IDX 90 36 33 37 89 38 34 39 35 40 36 41 83 42 37 43 88 44 82 45
REMARK SMILES IDX 84 46 38 47 87 48 81 49 80 50 39 52 69 53 50 54 68 55 51 56
REMARK SMILES IDX 54 57 67 58 85 59 52 60 53 61 66 63 86 64 55 65 40 66 41 67
REMARK SMILES IDX 49 68 42 69 48 70 43 71 44 72 45 73 46 74 47 75 70 76 71 77
REMARK SMILES IDX 79 78 72 79 78 80 73 81 74 82 75 83 76 84 77 85 56 86 57 87
REMARK SMILES IDX 65 88 58 89 64 90 59 91 60 92 61 93 62 94 63 95
REMARK H PARENT 24 6 6 13 28 32 84 51 54 62
REMARK Flexibility Score: inf
ROOT
ATOM      1  C   UNL A   1      35.358  23.629  25.456  1.00  0.00     0.042 C 
ENDROOT
BRANCH   1   2
ATOM      2  C   UNL A   1      34.318  24.675  25.072  1.00  0.00     0.117 C 
BRANCH   2   3
ATOM      3  N   UNL A   1      34.300  25.043  23.663  1.00  0.00    -0.354 N 
ATOM      4  C   UNL A   1      33.470  25.850  22.935  1.00  0.00     0.242 C 
ATOM      5  O   UNL A   1      33.754  25.993  21.740  1.00  0.00    -0.273 OA
ATOM      6  H   UNL A   1      35.022  24.634  23.134  1.00  0.00     0.163 HD
BRANCH   4   7
ATOM      7  C   UNL A   1      32.171  26.484  23.508  1.00  0.00     0.170 C 
BRANCH   7   8
ATOM      8  C   UNL A   1      30.895  25.640  23.309  1.00  0.00     0.038 C 
BRANCH   8   9
ATOM      9  C   UNL A   1      29.918  25.585  24.508  1.00  0.00    -0.015 C 
ATOM     10  C   UNL A   1      30.511  26.164  25.790  1.00  0.00     0.007 C 
ATOM     11  C   UNL A   1      28.610  26.296  24.154  1.00  0.00     0.007 C 
ENDBRANCH   8   9
ENDBRANCH   7   8
BRANCH   7  12
ATOM     12  N   UNL A   1      32.129  27.888  23.054  1.00  0.00    -0.358 N 
ATOM     13  H   UNL A   1      32.982  28.282  22.760  1.00  0.00     0.162 HD
BRANCH  12  14
ATOM     14  C   UNL A   1      31.031  28.703  23.000  1.00  0.00     0.139 A 
ATOM     15  N   UNL A   1      30.177  28.470  21.976  1.00  0.00    -0.219 NA
ATOM     16  C   UNL A   1      30.748  29.755  23.924  1.00  0.00     0.062 A 
ATOM     17  C   UNL A   1      29.096  29.233  21.828  1.00  0.00     0.225 A 
ATOM     18  C   UNL A   1      29.619  30.503  23.573  1.00  0.00     0.129 A 
ATOM     19  C   UNL A   1      31.351  30.313  25.167  1.00  0.00     0.006 A 
ATOM     20  N   UNL A   1      28.764  30.280  22.561  1.00  0.00    -0.225 NA
ATOM     21  S   UNL A   1      29.365  31.870  24.540  1.00  0.00    -0.123 S 
ATOM     22  C   UNL A   1      30.721  31.511  25.488  1.00  0.00     0.076 A 
BRANCH  19  23
ATOM     23  C   UNL A   1      32.491  29.896  26.036  1.00  0.00    -0.017 A 
ATOM     24  C   UNL A   1      33.144  30.813  26.882  1.00  0.00     0.009 A 
ATOM     25  C   UNL A   1      33.025  28.610  26.019  1.00  0.00     0.009 A 
ATOM     26  C   UNL A   1      34.285  30.461  27.622  1.00  0.00     0.001 A 
ATOM     27  C   UNL A   1      34.139  28.231  26.778  1.00  0.00     0.001 A 
ATOM     28  C   UNL A   1      34.782  29.166  27.572  1.00  0.00     0.000 A 
ENDBRANCH  19  23
ENDBRANCH  12  14
ENDBRANCH   7  12
ENDBRANCH   4   7
ENDBRANCH   2   3
ENDBRANCH   1   2
BRANCH   1  29
ATOM     29  C   UNL A   1      36.805  24.003  25.174  1.00  0.00     0.118 C 
BRANCH  29  30
ATOM     30  N   UNL A   1      37.714  22.901  25.450  1.00  0.00    -0.352 N 
ATOM     31  C   UNL A   1      38.935  22.947  26.074  1.00  0.00     0.251 C 
ATOM     32  H   UNL A   1      37.415  22.011  25.152  1.00  0.00     0.163 HD
ATOM     33  O   UNL A   1      39.687  21.969  26.023  1.00  0.00    -0.269 OA
BRANCH  31  34
ATOM     34  C   UNL A   1      39.360  24.169  26.792  1.00  0.00     0.039 A 
ATOM     35  C   UNL A   1      40.155  25.111  26.132  1.00  0.00     0.014 A 
ATOM     36  C   UNL A   1      38.995  24.375  28.127  1.00  0.00     0.014 A 
ATOM     37  C   UNL A   1      40.550  26.276  26.796  1.00  0.00     0.010 A 
ATOM     38  C   UNL A   1      39.339  25.565  28.767  1.00  0.00     0.010 A 
ATOM     39  C   UNL A   1      40.132  26.522  28.114  1.00  0.00    -0.014 A 
BRANCH  39  40
ATOM     40  C   UNL A   1      40.548  27.744  28.849  1.00  0.00     0.031 A 
ATOM     41  C   UNL A   1      41.890  27.781  29.535  1.00  0.00     0.074 A 
ATOM     42  C   UNL A   1      39.709  28.792  28.959  1.00  0.00     0.049 A 
ATOM     43  N   UNL A   1      42.394  28.703  30.314  1.00  0.00    -0.248 NA
ATOM     44  C   UNL A   1      42.768  26.617  29.335  1.00  0.00     0.031 C 
ATOM     45  C   UNL A   1      38.378  28.880  28.357  1.00  0.00     0.029 A 
ATOM     46  N   UNL A   1      39.850  29.983  29.628  1.00  0.00    -0.354 N 
ATOM     47  C   UNL A   1      43.633  28.221  30.718  1.00  0.00     0.074 A 
ATOM     48  C   UNL A   1      43.789  26.909  30.127  1.00  0.00     0.031 C 
ATOM     49  C   UNL A   1      37.832  30.067  28.671  1.00  0.00     0.029 A 
ATOM     50  C   UNL A   1      38.753  30.806  29.530  1.00  0.00     0.049 A 
ATOM     51  H   UNL A   1      40.661  30.224  30.132  1.00  0.00     0.167 HD
ATOM     52  C   UNL A   1      44.564  28.818  31.500  1.00  0.00     0.031 A 
ATOM     53  C   UNL A   1      38.512  32.014  30.077  1.00  0.00     0.031 A 
ATOM     54  C   UNL A   1      44.422  30.130  32.069  1.00  0.00     0.049 A 
ATOM     55  C   UNL A   1      39.559  32.658  30.944  1.00  0.00     0.074 A 
ATOM     56  C   UNL A   1      45.328  30.836  32.841  1.00  0.00     0.029 A 
ATOM     57  N   UNL A   1      43.305  30.938  31.925  1.00  0.00    -0.354 N 
ATOM     58  N   UNL A   1      40.739  32.199  31.289  1.00  0.00    -0.248 NA
ATOM     59  C   UNL A   1      39.248  33.987  31.490  1.00  0.00     0.031 C 
ATOM     60  C   UNL A   1      44.743  32.057  33.196  1.00  0.00     0.029 A 
ATOM     61  C   UNL A   1      43.493  32.130  32.603  1.00  0.00     0.049 A 
ATOM     62  H   UNL A   1      42.496  30.698  31.417  1.00  0.00     0.167 HD
ATOM     63  C   UNL A   1      41.323  33.196  32.061  1.00  0.00     0.074 A 
ATOM     64  C   UNL A   1      40.369  34.284  32.133  1.00  0.00     0.031 C 
ATOM     65  C   UNL A   1      42.542  33.211  32.653  1.00  0.00     0.031 A 
BRANCH  52  66
ATOM     66  C   UNL A   1      45.823  28.045  31.793  1.00  0.00    -0.014 A 
ATOM     67  C   UNL A   1      45.900  27.172  32.893  1.00  0.00     0.010 A 
ATOM     68  C   UNL A   1      46.935  28.171  30.940  1.00  0.00     0.010 A 
ATOM     69  C   UNL A   1      47.079  26.473  33.161  1.00  0.00     0.020 A 
ATOM     70  C   UNL A   1      48.107  27.452  31.189  1.00  0.00     0.020 A 
ATOM     71  C   UNL A   1      48.178  26.623  32.310  1.00  0.00     0.054 A 
BRANCH  71  72
ATOM     72  S   UNL A   1      49.695  25.697  32.673  1.00  0.00     0.124 S 
ATOM     73  O   UNL A   1      49.927  24.996  31.412  1.00  0.00    -0.237 OA
ATOM     74  O   UNL A   1      50.652  26.754  32.989  1.00  0.00    -0.237 OA
ATOM     75  O   UNL A   1      49.319  24.844  33.799  1.00  0.00    -0.744 OA
ENDBRANCH  71  72
ENDBRANCH  52  66
BRANCH  53  76
ATOM     76  C   UNL A   1      37.221  32.703  29.809  1.00  0.00    -0.014 A 
ATOM     77  C   UNL A   1      36.133  32.542  30.684  1.00  0.00     0.010 A 
ATOM     78  C   UNL A   1      37.078  33.536  28.684  1.00  0.00     0.010 A 
ATOM     79  C   UNL A   1      34.918  33.187  30.431  1.00  0.00     0.020 A 
ATOM     80  C   UNL A   1      35.873  34.202  28.441  1.00  0.00     0.020 A 
ATOM     81  C   UNL A   1      34.798  34.015  29.311  1.00  0.00     0.054 A 
BRANCH  81  82
ATOM     82  S   UNL A   1      33.231  34.887  29.031  1.00  0.00     0.124 S 
ATOM     83  O   UNL A   1      33.689  36.195  28.575  1.00  0.00    -0.237 OA
ATOM     84  O   UNL A   1      32.582  34.054  28.020  1.00  0.00    -0.237 OA
ATOM     85  O   UNL A   1      32.594  34.868  30.346  1.00  0.00    -0.744 OA
ENDBRANCH  81  82
ENDBRANCH  53  76
BRANCH  65  86
ATOM     86  C   UNL A   1      42.949  34.458  33.391  1.00  0.00    -0.014 A 
ATOM     87  C   UNL A   1      42.757  34.582  34.777  1.00  0.00     0.010 A 
ATOM     88  C   UNL A   1      43.610  35.486  32.693  1.00  0.00     0.010 A 
ATOM     89  C   UNL A   1      43.208  35.721  35.452  1.00  0.00     0.020 A 
ATOM     90  C   UNL A   1      44.081  36.615  33.366  1.00  0.00     0.020 A 
ATOM     91  C   UNL A   1      43.868  36.730  34.742  1.00  0.00     0.054 A 
BRANCH  91  92
ATOM     92  S   UNL A   1      44.503  38.167  35.649  1.00  0.00     0.124 S 
ATOM     93  O   UNL A   1      45.941  37.910  35.659  1.00  0.00    -0.237 OA
ATOM     94  O   UNL A   1      44.071  39.289  34.820  1.00  0.00    -0.237 OA
ATOM     95  O   UNL A   1      43.844  38.073  36.950  1.00  0.00    -0.744 OA
ENDBRANCH  91  92
ENDBRANCH  65  86
ENDBRANCH  39  40
ENDBRANCH  31  34
ENDBRANCH  29  30
ENDBRANCH   1  29
TORSDOF 18
ENDMDL
