MODEL 1
REMARK VINA RESULT:     -10.6      0.000      0.000
REMARK SMILES CCCCCn1c(SCC(=O)NCCCNC(=O)c2ccc(-c3c4nc(c(-c5ccc(S(=O)(=O)[O-])cc5)c5ccc([nH]5)c(-c5ccc(S(=O)(=O)[O-])cc5)c5nc(c(-c6ccc(S(=O)(=O)[O-])cc6)c6ccc3[nH]6)C=C5)C=C4)cc2)nc2ccccc2c1=O
REMARK SMILES IDX 10 1 11 2 12 3 9 5 8 6 7 7 6 8 86 9 79 10 85 11 87 12 80 13
REMARK SMILES IDX 84 14 81 15 83 16 82 17 5 18 4 19 3 20 2 21 1 22 13 23 14 24
REMARK SMILES IDX 15 25 16 26 17 27 18 29 19 30 20 31 78 32 21 33 77 34 22 35
REMARK SMILES IDX 23 36 24 37 71 38 25 39 76 40 70 41 72 42 26 43 75 44 69 45
REMARK SMILES IDX 68 46 27 48 57 49 38 50 56 51 39 52 42 53 55 54 73 55 40 56
REMARK SMILES IDX 41 57 54 59 74 60 43 61 28 62 29 63 37 64 30 65 36 66 31 67
REMARK SMILES IDX 32 68 33 69 34 70 35 71 58 72 59 73 67 74 60 75 66 76 61 77
REMARK SMILES IDX 62 78 63 79 64 80 65 81 44 82 45 83 53 84 46 85 52 86 47 87
REMARK SMILES IDX 48 88 49 89 50 90 51 91
REMARK H PARENT 12 4 16 28 72 47 42 58
REMARK Flexibility Score: inf
ROOT
ATOM      1  C   UNL A   1      33.137  26.674  22.502  1.00  0.00     0.230 C 
ATOM      2  O   UNL A   1      33.653  26.542  21.391  1.00  0.00    -0.274 OA
ATOM      3  N   UNL A   1      32.941  27.934  22.977  1.00  0.00    -0.355 N 
ATOM      4  H   UNL A   1      33.020  28.659  22.316  1.00  0.00     0.163 HD
ENDROOT
BRANCH   1   5
ATOM      5  C   UNL A   1      32.625  25.500  23.294  1.00  0.00     0.178 C 
BRANCH   5   6
ATOM      6  S   UNL A   1      33.040  23.895  22.665  1.00  0.00    -0.078 SA
BRANCH   6   7
ATOM      7  C   UNL A   1      33.093  22.587  23.819  1.00  0.00     0.171 A 
ATOM      8  N   UNL A   1      33.530  22.625  25.135  1.00  0.00    -0.287 N 
ATOM      9  C   UNL A   1      33.424  21.471  25.937  1.00  0.00     0.262 A 
ATOM     10  N   UNL A   1      32.715  21.490  23.241  1.00  0.00    -0.224 NA
ATOM     11  C   UNL A   1      32.986  20.225  25.291  1.00  0.00     0.066 A 
ATOM     12  O   UNL A   1      33.705  21.435  27.136  1.00  0.00    -0.269 OA
ATOM     13  C   UNL A   1      32.712  20.284  23.936  1.00  0.00     0.079 A 
ATOM     14  C   UNL A   1      32.903  19.014  25.992  1.00  0.00     0.016 A 
ATOM     15  C   UNL A   1      32.416  19.100  23.253  1.00  0.00     0.029 A 
ATOM     16  C   UNL A   1      32.584  17.840  25.308  1.00  0.00     0.001 A 
ATOM     17  C   UNL A   1      32.359  17.881  23.933  1.00  0.00     0.002 A 
BRANCH   8  18
ATOM     18  C   UNL A   1      34.105  23.772  25.828  1.00  0.00     0.128 C 
BRANCH  18  19
ATOM     19  C   UNL A   1      35.490  24.220  25.332  1.00  0.00     0.022 C 
BRANCH  19  20
ATOM     20  C   UNL A   1      36.761  23.710  26.027  1.00  0.00     0.002 C 
BRANCH  20  21
ATOM     21  C   UNL A   1      37.391  22.376  25.609  1.00  0.00    -0.003 C 
ATOM     22  C   UNL A   1      38.829  22.134  26.036  1.00  0.00     0.004 C 
ENDBRANCH  20  21
ENDBRANCH  19  20
ENDBRANCH  18  19
ENDBRANCH   8  18
ENDBRANCH   6   7
ENDBRANCH   5   6
ENDBRANCH   1   5
BRANCH   3  23
ATOM     23  C   UNL A   1      32.629  28.347  24.334  1.00  0.00     0.117 C 
BRANCH  23  24
ATOM     24  C   UNL A   1      33.892  28.464  25.177  1.00  0.00     0.042 C 
BRANCH  24  25
ATOM     25  C   UNL A   1      33.604  28.613  26.664  1.00  0.00     0.118 C 
BRANCH  25  26
ATOM     26  N   UNL A   1      33.589  30.010  27.087  1.00  0.00    -0.352 N 
ATOM     27  C   UNL A   1      34.515  30.696  27.831  1.00  0.00     0.251 C 
ATOM     28  H   UNL A   1      32.806  30.532  26.798  1.00  0.00     0.163 HD
ATOM     29  O   UNL A   1      34.247  31.803  28.290  1.00  0.00    -0.269 OA
BRANCH  27  30
ATOM     30  C   UNL A   1      35.820  30.063  28.093  1.00  0.00     0.039 A 
ATOM     31  C   UNL A   1      36.047  29.432  29.317  1.00  0.00     0.014 A 
ATOM     32  C   UNL A   1      36.840  30.167  27.145  1.00  0.00     0.014 A 
ATOM     33  C   UNL A   1      37.340  29.081  29.671  1.00  0.00     0.010 A 
ATOM     34  C   UNL A   1      38.119  29.708  27.465  1.00  0.00     0.010 A 
ATOM     35  C   UNL A   1      38.390  29.208  28.748  1.00  0.00    -0.014 A 
BRANCH  35  36
ATOM     36  C   UNL A   1      39.759  28.792  29.146  1.00  0.00     0.031 A 
ATOM     37  C   UNL A   1      40.311  27.456  28.729  1.00  0.00     0.074 A 
ATOM     38  C   UNL A   1      40.519  29.655  29.850  1.00  0.00     0.049 A 
ATOM     39  N   UNL A   1      41.475  26.930  29.011  1.00  0.00    -0.248 NA
ATOM     40  C   UNL A   1      39.455  26.594  27.896  1.00  0.00     0.031 C 
ATOM     41  C   UNL A   1      40.092  30.987  30.286  1.00  0.00     0.029 A 
ATOM     42  N   UNL A   1      41.812  29.560  30.297  1.00  0.00    -0.354 N 
ATOM     43  C   UNL A   1      41.482  25.673  28.418  1.00  0.00     0.074 A 
ATOM     44  C   UNL A   1      40.199  25.502  27.774  1.00  0.00     0.031 C 
ATOM     45  C   UNL A   1      41.118  31.606  30.882  1.00  0.00     0.029 A 
ATOM     46  C   UNL A   1      42.249  30.687  30.952  1.00  0.00     0.049 A 
ATOM     47  H   UNL A   1      42.373  28.762  30.162  1.00  0.00     0.167 HD
ATOM     48  C   UNL A   1      42.475  24.755  28.408  1.00  0.00     0.031 A 
ATOM     49  C   UNL A   1      43.418  30.953  31.568  1.00  0.00     0.031 A 
ATOM     50  C   UNL A   1      43.761  24.956  29.023  1.00  0.00     0.049 A 
ATOM     51  C   UNL A   1      44.491  29.905  31.566  1.00  0.00     0.074 A 
ATOM     52  C   UNL A   1      44.843  24.093  29.039  1.00  0.00     0.029 A 
ATOM     53  N   UNL A   1      44.146  26.093  29.719  1.00  0.00    -0.354 N 
ATOM     54  N   UNL A   1      44.476  28.721  31.001  1.00  0.00    -0.248 NA
ATOM     55  C   UNL A   1      45.733  30.217  32.285  1.00  0.00     0.031 C 
ATOM     56  C   UNL A   1      45.857  24.680  29.798  1.00  0.00     0.029 A 
ATOM     57  C   UNL A   1      45.437  25.940  30.193  1.00  0.00     0.049 A 
ATOM     58  H   UNL A   1      43.584  26.890  29.854  1.00  0.00     0.167 HD
ATOM     59  C   UNL A   1      45.706  28.147  31.293  1.00  0.00     0.074 A 
ATOM     60  C   UNL A   1      46.452  29.123  32.062  1.00  0.00     0.031 C 
ATOM     61  C   UNL A   1      46.168  26.919  30.960  1.00  0.00     0.031 A 
BRANCH  48  62
ATOM     62  C   UNL A   1      42.241  23.436  27.717  1.00  0.00    -0.014 A 
ATOM     63  C   UNL A   1      41.736  22.348  28.454  1.00  0.00     0.010 A 
ATOM     64  C   UNL A   1      42.666  23.225  26.393  1.00  0.00     0.010 A 
ATOM     65  C   UNL A   1      41.704  21.065  27.899  1.00  0.00     0.020 A 
ATOM     66  C   UNL A   1      42.610  21.949  25.824  1.00  0.00     0.020 A 
ATOM     67  C   UNL A   1      42.156  20.872  26.591  1.00  0.00     0.054 A 
BRANCH  67  68
ATOM     68  S   UNL A   1      42.163  19.191  25.909  1.00  0.00     0.124 S 
ATOM     69  O   UNL A   1      42.708  18.411  27.015  1.00  0.00    -0.237 OA
ATOM     70  O   UNL A   1      40.751  18.962  25.609  1.00  0.00    -0.237 OA
ATOM     71  O   UNL A   1      43.028  19.303  24.736  1.00  0.00    -0.744 OA
ENDBRANCH  67  68
ENDBRANCH  48  62
BRANCH  49  72
ATOM     72  C   UNL A   1      43.596  32.271  32.236  1.00  0.00    -0.014 A 
ATOM     73  C   UNL A   1      44.171  33.347  31.532  1.00  0.00     0.010 A 
ATOM     74  C   UNL A   1      43.298  32.430  33.600  1.00  0.00     0.010 A 
ATOM     75  C   UNL A   1      44.508  34.530  32.190  1.00  0.00     0.020 A 
ATOM     76  C   UNL A   1      43.602  33.628  34.256  1.00  0.00     0.020 A 
ATOM     77  C   UNL A   1      44.236  34.657  33.553  1.00  0.00     0.054 A 
BRANCH  77  78
ATOM     78  S   UNL A   1      44.735  36.180  34.403  1.00  0.00     0.124 S 
ATOM     79  O   UNL A   1      43.883  37.175  33.758  1.00  0.00    -0.237 OA
ATOM     80  O   UNL A   1      44.415  35.889  35.799  1.00  0.00    -0.237 OA
ATOM     81  O   UNL A   1      46.160  36.286  34.102  1.00  0.00    -0.744 OA
ENDBRANCH  77  78
ENDBRANCH  49  72
BRANCH  61  82
ATOM     82  C   UNL A   1      47.546  26.529  31.421  1.00  0.00    -0.014 A 
ATOM     83  C   UNL A   1      48.645  26.704  30.560  1.00  0.00     0.010 A 
ATOM     84  C   UNL A   1      47.727  25.851  32.638  1.00  0.00     0.010 A 
ATOM     85  C   UNL A   1      49.892  26.167  30.886  1.00  0.00     0.020 A 
ATOM     86  C   UNL A   1      48.981  25.337  32.982  1.00  0.00     0.020 A 
ATOM     87  C   UNL A   1      50.047  25.474  32.089  1.00  0.00     0.054 A 
BRANCH  87  88
ATOM     88  S   UNL A   1      51.659  24.736  32.470  1.00  0.00     0.124 S 
ATOM     89  O   UNL A   1      51.403  23.314  32.261  1.00  0.00    -0.237 OA
ATOM     90  O   UNL A   1      52.541  25.369  31.491  1.00  0.00    -0.237 OA
ATOM     91  O   UNL A   1      51.897  25.132  33.857  1.00  0.00    -0.744 OA
ENDBRANCH  87  88
ENDBRANCH  61  82
ENDBRANCH  35  36
ENDBRANCH  27  30
ENDBRANCH  25  26
ENDBRANCH  24  25
ENDBRANCH  23  24
ENDBRANCH   3  23
TORSDOF 19
ENDMDL
MODEL 2
REMARK VINA RESULT:     -10.0      1.984      8.081
REMARK SMILES CCCCCn1c(SCC(=O)NCCCNC(=O)c2ccc(-c3c4nc(c(-c5ccc(S(=O)(=O)[O-])cc5)c5ccc([nH]5)c(-c5ccc(S(=O)(=O)[O-])cc5)c5nc(c(-c6ccc(S(=O)(=O)[O-])cc6)c6ccc3[nH]6)C=C5)C=C4)cc2)nc2ccccc2c1=O
REMARK SMILES IDX 10 1 11 2 12 3 9 5 8 6 7 7 6 8 86 9 79 10 85 11 87 12 80 13
REMARK SMILES IDX 84 14 81 15 83 16 82 17 5 18 4 19 3 20 2 21 1 22 13 23 14 24
REMARK SMILES IDX 15 25 16 26 17 27 18 29 19 30 20 31 78 32 21 33 77 34 22 35
REMARK SMILES IDX 23 36 24 37 71 38 25 39 76 40 70 41 72 42 26 43 75 44 69 45
REMARK SMILES IDX 68 46 27 48 57 49 38 50 56 51 39 52 42 53 55 54 73 55 40 56
REMARK SMILES IDX 41 57 54 59 74 60 43 61 28 62 29 63 37 64 30 65 36 66 31 67
REMARK SMILES IDX 32 68 33 69 34 70 35 71 58 72 59 73 67 74 60 75 66 76 61 77
REMARK SMILES IDX 62 78 63 79 64 80 65 81 44 82 45 83 53 84 46 85 52 86 47 87
REMARK SMILES IDX 48 88 49 89 50 90 51 91
REMARK H PARENT 12 4 16 28 72 47 42 58
REMARK Flexibility Score: inf
ROOT
ATOM      1  C   UNL A   1      33.072  26.354  22.485  1.00  0.00     0.230 C 
ATOM      2  O   UNL A   1      33.643  26.399  21.394  1.00  0.00    -0.274 OA
ATOM      3  N   UNL A   1      32.965  27.503  23.206  1.00  0.00    -0.355 N 
ATOM      4  H   UNL A   1      33.154  28.336  22.717  1.00  0.00     0.163 HD
ENDROOT
BRANCH   1   5
ATOM      5  C   UNL A   1      32.400  25.104  22.989  1.00  0.00     0.178 C 
BRANCH   5   6
ATOM      6  S   UNL A   1      33.189  23.573  22.564  1.00  0.00    -0.078 SA
BRANCH   6   7
ATOM      7  C   UNL A   1      33.212  22.332  23.792  1.00  0.00     0.171 A 
ATOM      8  N   UNL A   1      33.637  22.440  25.108  1.00  0.00    -0.287 N 
ATOM      9  C   UNL A   1      33.507  21.336  25.975  1.00  0.00     0.262 A 
ATOM     10  N   UNL A   1      32.823  21.209  23.275  1.00  0.00    -0.224 NA
ATOM     11  C   UNL A   1      33.056  20.062  25.397  1.00  0.00     0.066 A 
ATOM     12  O   UNL A   1      33.776  21.365  27.176  1.00  0.00    -0.269 OA
ATOM     13  C   UNL A   1      32.795  20.046  24.039  1.00  0.00     0.079 A 
ATOM     14  C   UNL A   1      32.949  18.895  26.166  1.00  0.00     0.016 A 
ATOM     15  C   UNL A   1      32.488  18.829  23.422  1.00  0.00     0.029 A 
ATOM     16  C   UNL A   1      32.618  17.687  25.548  1.00  0.00     0.001 A 
ATOM     17  C   UNL A   1      32.406  17.652  24.171  1.00  0.00     0.002 A 
BRANCH   8  18
ATOM     18  C   UNL A   1      34.224  23.617  25.740  1.00  0.00     0.128 C 
BRANCH  18  19
ATOM     19  C   UNL A   1      35.559  24.093  25.144  1.00  0.00     0.022 C 
BRANCH  19  20
ATOM     20  C   UNL A   1      36.816  23.220  25.272  1.00  0.00     0.002 C 
BRANCH  20  21
ATOM     21  C   UNL A   1      37.040  22.039  24.319  1.00  0.00    -0.003 C 
ATOM     22  C   UNL A   1      36.826  20.648  24.890  1.00  0.00     0.004 C 
ENDBRANCH  20  21
ENDBRANCH  19  20
ENDBRANCH  18  19
ENDBRANCH   8  18
ENDBRANCH   6   7
ENDBRANCH   5   6
ENDBRANCH   1   5
BRANCH   3  23
ATOM     23  C   UNL A   1      32.606  27.659  24.604  1.00  0.00     0.117 C 
BRANCH  23  24
ATOM     24  C   UNL A   1      33.845  27.811  25.476  1.00  0.00     0.042 C 
BRANCH  24  25
ATOM     25  C   UNL A   1      33.533  28.336  26.871  1.00  0.00     0.118 C 
BRANCH  25  26
ATOM     26  N   UNL A   1      33.511  29.794  26.920  1.00  0.00    -0.352 N 
ATOM     27  C   UNL A   1      34.386  30.649  27.542  1.00  0.00     0.251 C 
ATOM     28  H   UNL A   1      32.766  30.223  26.441  1.00  0.00     0.163 HD
ATOM     29  O   UNL A   1      34.103  31.836  27.679  1.00  0.00    -0.269 OA
BRANCH  27  30
ATOM     30  C   UNL A   1      35.651  30.106  28.068  1.00  0.00     0.039 A 
ATOM     31  C   UNL A   1      35.708  29.641  29.382  1.00  0.00     0.014 A 
ATOM     32  C   UNL A   1      36.797  30.133  27.271  1.00  0.00     0.014 A 
ATOM     33  C   UNL A   1      36.941  29.388  29.960  1.00  0.00     0.010 A 
ATOM     34  C   UNL A   1      38.024  29.769  27.828  1.00  0.00     0.010 A 
ATOM     35  C   UNL A   1      38.114  29.442  29.190  1.00  0.00    -0.014 A 
BRANCH  35  36
ATOM     36  C   UNL A   1      39.417  29.134  29.831  1.00  0.00     0.031 A 
ATOM     37  C   UNL A   1      39.856  29.858  31.074  1.00  0.00     0.074 A 
ATOM     38  C   UNL A   1      40.181  28.156  29.305  1.00  0.00     0.049 A 
ATOM     39  N   UNL A   1      40.971  29.726  31.744  1.00  0.00    -0.248 NA
ATOM     40  C   UNL A   1      38.937  30.861  31.639  1.00  0.00     0.031 C 
ATOM     41  C   UNL A   1      39.840  27.372  28.114  1.00  0.00     0.029 A 
ATOM     42  N   UNL A   1      41.382  27.632  29.712  1.00  0.00    -0.354 N 
ATOM     43  C   UNL A   1      40.902  30.641  32.788  1.00  0.00     0.074 A 
ATOM     44  C   UNL A   1      39.644  31.340  32.656  1.00  0.00     0.031 C 
ATOM     45  C   UNL A   1      40.775  26.432  27.923  1.00  0.00     0.029 A 
ATOM     46  C   UNL A   1      41.826  26.600  28.920  1.00  0.00     0.049 A 
ATOM     47  H   UNL A   1      41.878  27.964  30.495  1.00  0.00     0.167 HD
ATOM     48  C   UNL A   1      41.806  30.866  33.769  1.00  0.00     0.031 A 
ATOM     49  C   UNL A   1      42.964  25.879  28.966  1.00  0.00     0.031 A 
ATOM     50  C   UNL A   1      43.039  30.136  33.907  1.00  0.00     0.049 A 
ATOM     51  C   UNL A   1      43.962  26.169  30.046  1.00  0.00     0.074 A 
ATOM     52  C   UNL A   1      44.006  30.273  34.888  1.00  0.00     0.029 A 
ATOM     53  N   UNL A   1      43.474  29.131  33.055  1.00  0.00    -0.354 N 
ATOM     54  N   UNL A   1      43.878  27.041  31.023  1.00  0.00    -0.248 NA
ATOM     55  C   UNL A   1      45.207  25.391  30.035  1.00  0.00     0.031 C 
ATOM     56  C   UNL A   1      45.053  29.398  34.594  1.00  0.00     0.029 A 
ATOM     57  C   UNL A   1      44.707  28.662  33.472  1.00  0.00     0.049 A 
ATOM     58  H   UNL A   1      42.977  28.800  32.272  1.00  0.00     0.167 HD
ATOM     59  C   UNL A   1      45.057  26.916  31.744  1.00  0.00     0.074 A 
ATOM     60  C   UNL A   1      45.827  25.866  31.109  1.00  0.00     0.031 C 
ATOM     61  C   UNL A   1      45.465  27.616  32.829  1.00  0.00     0.031 A 
BRANCH  48  62
ATOM     62  C   UNL A   1      41.525  31.941  34.787  1.00  0.00    -0.014 A 
ATOM     63  C   UNL A   1      40.768  31.628  35.933  1.00  0.00     0.010 A 
ATOM     64  C   UNL A   1      41.864  33.283  34.539  1.00  0.00     0.010 A 
ATOM     65  C   UNL A   1      40.317  32.639  36.787  1.00  0.00     0.020 A 
ATOM     66  C   UNL A   1      41.437  34.295  35.405  1.00  0.00     0.020 A 
ATOM     67  C   UNL A   1      40.642  33.969  36.508  1.00  0.00     0.054 A 
BRANCH  67  68
ATOM     68  S   UNL A   1      39.996  35.272  37.592  1.00  0.00     0.124 S 
ATOM     69  O   UNL A   1      38.750  34.685  38.072  1.00  0.00    -0.237 OA
ATOM     70  O   UNL A   1      41.055  35.412  38.589  1.00  0.00    -0.237 OA
ATOM     71  O   UNL A   1      39.844  36.416  36.696  1.00  0.00    -0.744 OA
ENDBRANCH  67  68
ENDBRANCH  48  62
BRANCH  49  72
ATOM     72  C   UNL A   1      43.192  24.829  27.935  1.00  0.00    -0.014 A 
ATOM     73  C   UNL A   1      42.736  23.514  28.154  1.00  0.00     0.010 A 
ATOM     74  C   UNL A   1      43.955  25.104  26.788  1.00  0.00     0.010 A 
ATOM     75  C   UNL A   1      43.095  22.483  27.286  1.00  0.00     0.020 A 
ATOM     76  C   UNL A   1      44.287  24.078  25.895  1.00  0.00     0.020 A 
ATOM     77  C   UNL A   1      43.882  22.769  26.169  1.00  0.00     0.054 A 
BRANCH  77  78
ATOM     78  S   UNL A   1      44.386  21.404  25.086  1.00  0.00     0.124 S 
ATOM     79  O   UNL A   1      44.284  22.018  23.765  1.00  0.00    -0.237 OA
ATOM     80  O   UNL A   1      45.744  21.116  25.542  1.00  0.00    -0.237 OA
ATOM     81  O   UNL A   1      43.402  20.363  25.370  1.00  0.00    -0.744 OA
ENDBRANCH  77  78
ENDBRANCH  49  72
BRANCH  61  82
ATOM     82  C   UNL A   1      46.811  27.293  33.418  1.00  0.00    -0.014 A 
ATOM     83  C   UNL A   1      47.961  27.938  32.926  1.00  0.00     0.010 A 
ATOM     84  C   UNL A   1      46.953  26.245  34.343  1.00  0.00     0.010 A 
ATOM     85  C   UNL A   1      49.233  27.511  33.314  1.00  0.00     0.020 A 
ATOM     86  C   UNL A   1      48.224  25.833  34.756  1.00  0.00     0.020 A 
ATOM     87  C   UNL A   1      49.355  26.450  34.216  1.00  0.00     0.054 A 
BRANCH  87  88
ATOM     88  S   UNL A   1      51.015  25.873  34.665  1.00  0.00     0.124 S 
ATOM     89  O   UNL A   1      51.306  26.671  35.852  1.00  0.00    -0.237 OA
ATOM     90  O   UNL A   1      50.805  24.446  34.900  1.00  0.00    -0.237 OA
ATOM     91  O   UNL A   1      51.818  26.191  33.486  1.00  0.00    -0.744 OA
ENDBRANCH  87  88
ENDBRANCH  61  82
ENDBRANCH  35  36
ENDBRANCH  27  30
ENDBRANCH  25  26
ENDBRANCH  24  25
ENDBRANCH  23  24
ENDBRANCH   3  23
TORSDOF 19
ENDMDL
MODEL 3
REMARK VINA RESULT:      -9.8      4.329     10.069
REMARK SMILES CCCCCn1c(SCC(=O)NCCCNC(=O)c2ccc(-c3c4nc(c(-c5ccc(S(=O)(=O)[O-])cc5)c5ccc([nH]5)c(-c5ccc(S(=O)(=O)[O-])cc5)c5nc(c(-c6ccc(S(=O)(=O)[O-])cc6)c6ccc3[nH]6)C=C5)C=C4)cc2)nc2ccccc2c1=O
REMARK SMILES IDX 10 1 11 2 12 3 9 5 8 6 7 7 6 8 86 9 79 10 85 11 87 12 80 13
REMARK SMILES IDX 84 14 81 15 83 16 82 17 5 18 4 19 3 20 2 21 1 22 13 23 14 24
REMARK SMILES IDX 15 25 16 26 17 27 18 29 19 30 20 31 78 32 21 33 77 34 22 35
REMARK SMILES IDX 23 36 24 37 71 38 25 39 76 40 70 41 72 42 26 43 75 44 69 45
REMARK SMILES IDX 68 46 27 48 57 49 38 50 56 51 39 52 42 53 55 54 73 55 40 56
REMARK SMILES IDX 41 57 54 59 74 60 43 61 28 62 29 63 37 64 30 65 36 66 31 67
REMARK SMILES IDX 32 68 33 69 34 70 35 71 58 72 59 73 67 74 60 75 66 76 61 77
REMARK SMILES IDX 62 78 63 79 64 80 65 81 44 82 45 83 53 84 46 85 52 86 47 87
REMARK SMILES IDX 48 88 49 89 50 90 51 91
REMARK H PARENT 12 4 16 28 72 47 42 58
REMARK Flexibility Score: inf
ROOT
ATOM      1  C   UNL A   1      34.236  29.177  26.787  1.00  0.00     0.230 C 
ATOM      2  O   UNL A   1      35.421  29.237  27.118  1.00  0.00    -0.274 OA
ATOM      3  N   UNL A   1      33.567  30.341  26.570  1.00  0.00    -0.355 N 
ATOM      4  H   UNL A   1      34.125  31.146  26.477  1.00  0.00     0.163 HD
ENDROOT
BRANCH   1   5
ATOM      5  C   UNL A   1      33.544  27.867  26.513  1.00  0.00     0.178 C 
BRANCH   5   6
ATOM      6  S   UNL A   1      33.248  27.486  24.806  1.00  0.00    -0.078 SA
BRANCH   6   7
ATOM      7  C   UNL A   1      31.605  27.643  24.239  1.00  0.00     0.171 A 
ATOM      8  N   UNL A   1      30.594  26.694  24.274  1.00  0.00    -0.287 N 
ATOM      9  C   UNL A   1      29.300  27.037  23.831  1.00  0.00     0.262 A 
ATOM     10  N   UNL A   1      31.451  28.804  23.684  1.00  0.00    -0.224 NA
ATOM     11  C   UNL A   1      29.117  28.357  23.210  1.00  0.00     0.066 A 
ATOM     12  O   UNL A   1      28.324  26.290  23.905  1.00  0.00    -0.269 OA
ATOM     13  C   UNL A   1      30.237  29.163  23.106  1.00  0.00     0.079 A 
ATOM     14  C   UNL A   1      27.882  28.768  22.690  1.00  0.00     0.016 A 
ATOM     15  C   UNL A   1      30.140  30.371  22.410  1.00  0.00     0.029 A 
ATOM     16  C   UNL A   1      27.787  29.987  22.015  1.00  0.00     0.001 A 
ATOM     17  C   UNL A   1      28.921  30.780  21.859  1.00  0.00     0.002 A 
BRANCH   8  18
ATOM     18  C   UNL A   1      30.707  25.318  24.743  1.00  0.00     0.128 C 
BRANCH  18  19
ATOM     19  C   UNL A   1      31.244  24.308  23.714  1.00  0.00     0.022 C 
BRANCH  19  20
ATOM     20  C   UNL A   1      31.782  22.947  24.178  1.00  0.00     0.002 C 
BRANCH  20  21
ATOM     21  C   UNL A   1      33.292  22.721  24.325  1.00  0.00    -0.003 C 
ATOM     22  C   UNL A   1      34.052  23.715  25.187  1.00  0.00     0.004 C 
ENDBRANCH  20  21
ENDBRANCH  19  20
ENDBRANCH  18  19
ENDBRANCH   8  18
ENDBRANCH   6   7
ENDBRANCH   5   6
ENDBRANCH   1   5
BRANCH   3  23
ATOM     23  C   UNL A   1      32.134  30.548  26.455  1.00  0.00     0.117 C 
BRANCH  23  24
ATOM     24  C   UNL A   1      31.755  31.979  26.817  1.00  0.00     0.042 C 
BRANCH  24  25
ATOM     25  C   UNL A   1      32.860  32.720  27.556  1.00  0.00     0.118 C 
BRANCH  25  26
ATOM     26  N   UNL A   1      32.551  34.135  27.736  1.00  0.00    -0.352 N 
ATOM     27  C   UNL A   1      33.036  35.011  28.674  1.00  0.00     0.251 C 
ATOM     28  H   UNL A   1      31.905  34.512  27.096  1.00  0.00     0.163 HD
ATOM     29  O   UNL A   1      32.508  36.108  28.832  1.00  0.00    -0.269 OA
BRANCH  27  30
ATOM     30  C   UNL A   1      34.178  34.594  29.506  1.00  0.00     0.039 A 
ATOM     31  C   UNL A   1      35.466  34.612  28.968  1.00  0.00     0.014 A 
ATOM     32  C   UNL A   1      33.953  34.113  30.797  1.00  0.00     0.014 A 
ATOM     33  C   UNL A   1      36.494  33.972  29.641  1.00  0.00     0.010 A 
ATOM     34  C   UNL A   1      35.017  33.570  31.519  1.00  0.00     0.010 A 
ATOM     35  C   UNL A   1      36.285  33.449  30.927  1.00  0.00    -0.014 A 
BRANCH  35  36
ATOM     36  C   UNL A   1      37.415  32.798  31.637  1.00  0.00     0.031 A 
ATOM     37  C   UNL A   1      37.813  33.238  33.020  1.00  0.00     0.074 A 
ATOM     38  C   UNL A   1      38.049  31.770  31.039  1.00  0.00     0.049 A 
ATOM     39  N   UNL A   1      38.789  32.792  33.768  1.00  0.00    -0.248 NA
ATOM     40  C   UNL A   1      37.027  34.316  33.645  1.00  0.00     0.031 C 
ATOM     41  C   UNL A   1      37.728  31.245  29.709  1.00  0.00     0.029 A 
ATOM     42  N   UNL A   1      39.070  30.964  31.475  1.00  0.00    -0.354 N 
ATOM     43  C   UNL A   1      38.753  33.548  34.935  1.00  0.00     0.074 A 
ATOM     44  C   UNL A   1      37.672  34.496  34.792  1.00  0.00     0.031 C 
ATOM     45  C   UNL A   1      38.491  30.173  29.463  1.00  0.00     0.029 A 
ATOM     46  C   UNL A   1      39.417  29.984  30.574  1.00  0.00     0.049 A 
ATOM     47  H   UNL A   1      39.512  31.076  32.347  1.00  0.00     0.167 HD
ATOM     48  C   UNL A   1      39.547  33.447  36.025  1.00  0.00     0.031 A 
ATOM     49  C   UNL A   1      40.387  29.050  30.616  1.00  0.00     0.031 A 
ATOM     50  C   UNL A   1      40.597  32.472  36.166  1.00  0.00     0.049 A 
ATOM     51  C   UNL A   1      41.272  28.980  31.824  1.00  0.00     0.074 A 
ATOM     52  C   UNL A   1      41.436  32.273  37.249  1.00  0.00     0.029 A 
ATOM     53  N   UNL A   1      40.947  31.529  35.210  1.00  0.00    -0.354 N 
ATOM     54  N   UNL A   1      41.223  29.706  32.916  1.00  0.00    -0.248 NA
ATOM     55  C   UNL A   1      42.345  27.977  31.813  1.00  0.00     0.031 C 
ATOM     56  C   UNL A   1      42.335  31.256  36.923  1.00  0.00     0.029 A 
ATOM     57  C   UNL A   1      42.009  30.768  35.667  1.00  0.00     0.049 A 
ATOM     58  H   UNL A   1      40.505  31.418  34.338  1.00  0.00     0.167 HD
ATOM     59  C   UNL A   1      42.255  29.247  33.723  1.00  0.00     0.074 A 
ATOM     60  C   UNL A   1      42.896  28.163  33.006  1.00  0.00     0.031 C 
ATOM     61  C   UNL A   1      42.640  29.692  34.942  1.00  0.00     0.031 A 
BRANCH  48  62
ATOM     62  C   UNL A   1      39.337  34.403  37.170  1.00  0.00    -0.014 A 
ATOM     63  C   UNL A   1      39.944  35.674  37.132  1.00  0.00     0.010 A 
ATOM     64  C   UNL A   1      38.682  33.995  38.346  1.00  0.00     0.010 A 
ATOM     65  C   UNL A   1      39.941  36.499  38.260  1.00  0.00     0.020 A 
ATOM     66  C   UNL A   1      38.653  34.829  39.468  1.00  0.00     0.020 A 
ATOM     67  C   UNL A   1      39.308  36.064  39.427  1.00  0.00     0.054 A 
BRANCH  67  68
ATOM     68  S   UNL A   1      39.367  37.122  40.899  1.00  0.00     0.124 S 
ATOM     69  O   UNL A   1      40.800  37.343  41.064  1.00  0.00    -0.237 OA
ATOM     70  O   UNL A   1      38.590  38.288  40.486  1.00  0.00    -0.237 OA
ATOM     71  O   UNL A   1      38.738  36.303  41.933  1.00  0.00    -0.744 OA
ENDBRANCH  67  68
ENDBRANCH  48  62
BRANCH  49  72
ATOM     72  C   UNL A   1      40.551  28.131  29.457  1.00  0.00    -0.014 A 
ATOM     73  C   UNL A   1      39.823  26.926  29.403  1.00  0.00     0.010 A 
ATOM     74  C   UNL A   1      41.508  28.395  28.462  1.00  0.00     0.010 A 
ATOM     75  C   UNL A   1      40.095  25.974  28.420  1.00  0.00     0.020 A 
ATOM     76  C   UNL A   1      41.758  27.457  27.454  1.00  0.00     0.020 A 
ATOM     77  C   UNL A   1      41.073  26.239  27.460  1.00  0.00     0.054 A 
BRANCH  77  78
ATOM     78  S   UNL A   1      41.451  24.964  26.227  1.00  0.00     0.124 S 
ATOM     79  O   UNL A   1      42.666  24.368  26.776  1.00  0.00    -0.237 OA
ATOM     80  O   UNL A   1      40.261  24.116  26.266  1.00  0.00    -0.237 OA
ATOM     81  O   UNL A   1      41.629  25.725  24.993  1.00  0.00    -0.744 OA
ENDBRANCH  77  78
ENDBRANCH  49  72
BRANCH  61  82
ATOM     82  C   UNL A   1      43.816  29.026  35.603  1.00  0.00    -0.014 A 
ATOM     83  C   UNL A   1      45.118  29.289  35.140  1.00  0.00     0.010 A 
ATOM     84  C   UNL A   1      43.619  28.027  36.573  1.00  0.00     0.010 A 
ATOM     85  C   UNL A   1      46.199  28.535  35.600  1.00  0.00     0.020 A 
ATOM     86  C   UNL A   1      44.703  27.290  37.058  1.00  0.00     0.020 A 
ATOM     87  C   UNL A   1      45.981  27.529  36.546  1.00  0.00     0.054 A 
BRANCH  87  88
ATOM     88  S   UNL A   1      47.388  26.524  37.091  1.00  0.00     0.124 S 
ATOM     89  O   UNL A   1      48.198  27.497  37.817  1.00  0.00    -0.237 OA
ATOM     90  O   UNL A   1      46.749  25.498  37.914  1.00  0.00    -0.237 OA
ATOM     91  O   UNL A   1      47.966  26.037  35.840  1.00  0.00    -0.744 OA
ENDBRANCH  87  88
ENDBRANCH  61  82
ENDBRANCH  35  36
ENDBRANCH  27  30
ENDBRANCH  25  26
ENDBRANCH  24  25
ENDBRANCH  23  24
ENDBRANCH   3  23
TORSDOF 19
ENDMDL
