MODEL 1
REMARK VINA RESULT:     -10.2      0.000      0.000
REMARK SMILES O=C(/C=C/c1ccc(O)c(O)c1)NCCCNC(=O)c1ccc(-c2c3nc(c(-c4ccc(S(=O)(=O)[O-])cc4)c4ccc([nH]4)c(-c4ccc(S(=O)(=O)[O-])cc4)c4nc(c(-c5ccc(S(=O)(=O)[O-])cc5)c5ccc2[nH]5)C=C4)C=C3)cc1
REMARK SMILES IDX 15 1 14 2 13 3 1 4 2 5 3 7 4 8 5 9 6 10 12 11 7 12 10 13
REMARK SMILES IDX 8 14 11 15 9 17 16 19 17 20 18 21 19 23 20 24 21 25 79 26
REMARK SMILES IDX 22 27 78 28 23 29 24 30 25 31 72 32 26 33 77 34 71 35 73 36
REMARK SMILES IDX 27 37 76 38 70 39 69 40 28 42 58 43 39 44 57 45 40 46 43 47
REMARK SMILES IDX 56 48 74 49 41 50 42 51 55 53 75 54 44 55 29 56 30 57 38 58
REMARK SMILES IDX 31 59 37 60 32 61 33 62 34 63 35 64 36 65 59 66 60 67 68 68
REMARK SMILES IDX 61 69 67 70 62 71 63 72 64 73 65 74 66 75 45 76 46 77 54 78
REMARK SMILES IDX 47 79 53 80 48 81 49 82 50 83 51 84 52 85
REMARK H PARENT 13 6 11 16 9 18 17 22 73 41 43 52
REMARK Flexibility Score: inf
ROOT
ATOM      1  C   UNL A   1      31.811  28.186  27.626  1.00  0.00     0.042 C 
ENDROOT
BRANCH   1   2
ATOM      2  C   UNL A   1      31.390  27.252  26.497  1.00  0.00     0.118 C 
BRANCH   2   3
ATOM      3  N   UNL A   1      32.212  26.059  26.419  1.00  0.00    -0.352 N 
ATOM      4  O   UNL A   1      33.459  26.733  24.613  1.00  0.00    -0.270 OA
ATOM      5  C   UNL A   1      33.175  25.893  25.459  1.00  0.00     0.244 C 
ATOM      6  H   UNL A   1      32.073  25.342  27.080  1.00  0.00     0.163 HD
BRANCH   5   7
ATOM      7  C   UNL A   1      33.948  24.624  25.507  1.00  0.00     0.072 C 
ATOM      8  C   UNL A   1      34.879  24.222  24.628  1.00  0.00     0.014 C 
BRANCH   8   9
ATOM      9  C   UNL A   1      35.638  22.970  24.772  1.00  0.00    -0.022 A 
ATOM     10  C   UNL A   1      35.040  21.706  24.618  1.00  0.00     0.012 A 
ATOM     11  C   UNL A   1      37.014  23.044  25.020  1.00  0.00     0.058 A 
ATOM     12  C   UNL A   1      35.796  20.533  24.741  1.00  0.00     0.051 A 
ATOM     13  C   UNL A   1      37.757  21.876  25.141  1.00  0.00     0.157 A 
ATOM     14  C   UNL A   1      37.156  20.628  25.006  1.00  0.00     0.157 A 
BRANCH  13  15
ATOM     15  O   UNL A   1      39.095  21.964  25.395  1.00  0.00    -0.504 OA
ATOM     16  H   UNL A   1      39.621  21.189  25.415  1.00  0.00     0.293 HD
ENDBRANCH  13  15
BRANCH  14  17
ATOM     17  O   UNL A   1      37.946  19.522  25.140  1.00  0.00    -0.504 OA
ATOM     18  H   UNL A   1      37.942  18.859  24.478  1.00  0.00     0.293 HD
ENDBRANCH  14  17
ENDBRANCH   8   9
ENDBRANCH   5   7
ENDBRANCH   2   3
ENDBRANCH   1   2
BRANCH   1  19
ATOM     19  C   UNL A   1      33.248  28.696  27.536  1.00  0.00     0.118 C 
BRANCH  19  20
ATOM     20  N   UNL A   1      33.354  30.147  27.624  1.00  0.00    -0.352 N 
ATOM     21  C   UNL A   1      34.408  30.941  28.011  1.00  0.00     0.251 C 
ATOM     22  H   UNL A   1      32.541  30.638  27.366  1.00  0.00     0.163 HD
ATOM     23  O   UNL A   1      34.236  32.153  28.129  1.00  0.00    -0.269 OA
BRANCH  21  24
ATOM     24  C   UNL A   1      35.731  30.351  28.320  1.00  0.00     0.039 A 
ATOM     25  C   UNL A   1      36.679  30.262  27.296  1.00  0.00     0.014 A 
ATOM     26  C   UNL A   1      36.040  29.879  29.598  1.00  0.00     0.014 A 
ATOM     27  C   UNL A   1      37.963  29.787  27.575  1.00  0.00     0.010 A 
ATOM     28  C   UNL A   1      37.339  29.463  29.889  1.00  0.00     0.010 A 
ATOM     29  C   UNL A   1      38.319  29.429  28.884  1.00  0.00    -0.014 A 
BRANCH  29  30
ATOM     30  C   UNL A   1      39.719  29.069  29.234  1.00  0.00     0.031 A 
ATOM     31  C   UNL A   1      40.639  30.081  29.859  1.00  0.00     0.074 A 
ATOM     32  C   UNL A   1      40.187  27.846  28.913  1.00  0.00     0.049 A 
ATOM     33  N   UNL A   1      41.912  29.969  30.147  1.00  0.00    -0.248 NA
ATOM     34  C   UNL A   1      40.061  31.394  30.184  1.00  0.00     0.031 C 
ATOM     35  C   UNL A   1      39.408  26.782  28.273  1.00  0.00     0.029 A 
ATOM     36  N   UNL A   1      41.435  27.294  29.066  1.00  0.00    -0.354 N 
ATOM     37  C   UNL A   1      42.291  31.199  30.672  1.00  0.00     0.074 A 
ATOM     38  C   UNL A   1      41.123  32.054  30.628  1.00  0.00     0.031 C 
ATOM     39  C   UNL A   1      40.190  25.704  28.105  1.00  0.00     0.029 A 
ATOM     40  C   UNL A   1      41.535  26.011  28.580  1.00  0.00     0.049 A 
ATOM     41  H   UNL A   1      42.188  27.772  29.483  1.00  0.00     0.167 HD
ATOM     42  C   UNL A   1      43.498  31.580  31.158  1.00  0.00     0.031 A 
ATOM     43  C   UNL A   1      42.591  25.178  28.507  1.00  0.00     0.031 A 
ATOM     44  C   UNL A   1      44.659  30.729  31.205  1.00  0.00     0.049 A 
ATOM     45  C   UNL A   1      43.926  25.633  29.026  1.00  0.00     0.074 A 
ATOM     46  C   UNL A   1      45.909  31.009  31.729  1.00  0.00     0.029 A 
ATOM     47  N   UNL A   1      44.717  29.437  30.704  1.00  0.00    -0.354 N 
ATOM     48  N   UNL A   1      44.249  26.780  29.575  1.00  0.00    -0.248 NA
ATOM     49  C   UNL A   1      45.040  24.679  28.921  1.00  0.00     0.031 C 
ATOM     50  C   UNL A   1      46.738  29.906  31.500  1.00  0.00     0.029 A 
ATOM     51  C   UNL A   1      45.990  28.918  30.881  1.00  0.00     0.049 A 
ATOM     52  H   UNL A   1      43.966  28.960  30.284  1.00  0.00     0.167 HD
ATOM     53  C   UNL A   1      45.598  26.678  29.897  1.00  0.00     0.074 A 
ATOM     54  C   UNL A   1      46.025  25.353  29.498  1.00  0.00     0.031 C 
ATOM     55  C   UNL A   1      46.407  27.601  30.472  1.00  0.00     0.031 A 
BRANCH  42  56
ATOM     56  C   UNL A   1      43.628  32.990  31.671  1.00  0.00    -0.014 A 
ATOM     57  C   UNL A   1      44.113  34.021  30.846  1.00  0.00     0.010 A 
ATOM     58  C   UNL A   1      43.221  33.296  32.982  1.00  0.00     0.010 A 
ATOM     59  C   UNL A   1      44.228  35.324  31.337  1.00  0.00     0.020 A 
ATOM     60  C   UNL A   1      43.309  34.604  33.468  1.00  0.00     0.020 A 
ATOM     61  C   UNL A   1      43.830  35.606  32.647  1.00  0.00     0.054 A 
BRANCH  61  62
ATOM     62  S   UNL A   1      43.975  37.311  33.252  1.00  0.00     0.124 S 
ATOM     63  O   UNL A   1      45.310  37.306  33.847  1.00  0.00    -0.237 OA
ATOM     64  O   UNL A   1      43.837  38.099  32.030  1.00  0.00    -0.237 OA
ATOM     65  O   UNL A   1      42.871  37.438  34.201  1.00  0.00    -0.744 OA
ENDBRANCH  61  62
ENDBRANCH  42  56
BRANCH  43  66
ATOM     66  C   UNL A   1      42.427  23.823  27.914  1.00  0.00    -0.014 A 
ATOM     67  C   UNL A   1      42.730  23.597  26.560  1.00  0.00     0.010 A 
ATOM     68  C   UNL A   1      41.979  22.749  28.704  1.00  0.00     0.010 A 
ATOM     69  C   UNL A   1      42.575  22.324  26.002  1.00  0.00     0.020 A 
ATOM     70  C   UNL A   1      41.849  21.470  28.157  1.00  0.00     0.020 A 
ATOM     71  C   UNL A   1      42.137  21.268  26.806  1.00  0.00     0.054 A 
BRANCH  71  72
ATOM     72  S   UNL A   1      41.997  19.612  26.075  1.00  0.00     0.124 S 
ATOM     73  O   UNL A   1      42.911  19.704  24.941  1.00  0.00    -0.237 OA
ATOM     74  O   UNL A   1      42.429  18.746  27.169  1.00  0.00    -0.237 OA
ATOM     75  O   UNL A   1      40.580  19.510  25.733  1.00  0.00    -0.744 OA
ENDBRANCH  71  72
ENDBRANCH  43  66
BRANCH  55  76
ATOM     76  C   UNL A   1      47.838  27.204  30.725  1.00  0.00    -0.014 A 
ATOM     77  C   UNL A   1      48.847  27.489  29.789  1.00  0.00     0.010 A 
ATOM     78  C   UNL A   1      48.184  26.587  31.942  1.00  0.00     0.010 A 
ATOM     79  C   UNL A   1      50.174  27.139  30.052  1.00  0.00     0.020 A 
ATOM     80  C   UNL A   1      49.514  26.259  32.219  1.00  0.00     0.020 A 
ATOM     81  C   UNL A   1      50.500  26.526  31.267  1.00  0.00     0.054 A 
BRANCH  81  82
ATOM     82  S   UNL A   1      52.237  26.126  31.605  1.00  0.00     0.124 S 
ATOM     83  O   UNL A   1      52.590  27.129  32.604  1.00  0.00    -0.237 OA
ATOM     84  O   UNL A   1      52.160  24.751  32.093  1.00  0.00    -0.237 OA
ATOM     85  O   UNL A   1      52.887  26.284  30.306  1.00  0.00    -0.744 OA
ENDBRANCH  81  82
ENDBRANCH  55  76
ENDBRANCH  29  30
ENDBRANCH  21  24
ENDBRANCH  19  20
ENDBRANCH   1  19
TORSDOF 16
ENDMDL
MODEL 2
REMARK VINA RESULT:     -10.1      3.095      9.417
REMARK SMILES O=C(/C=C/c1ccc(O)c(O)c1)NCCCNC(=O)c1ccc(-c2c3nc(c(-c4ccc(S(=O)(=O)[O-])cc4)c4ccc([nH]4)c(-c4ccc(S(=O)(=O)[O-])cc4)c4nc(c(-c5ccc(S(=O)(=O)[O-])cc5)c5ccc2[nH]5)C=C4)C=C3)cc1
REMARK SMILES IDX 15 1 14 2 13 3 1 4 2 5 3 7 4 8 5 9 6 10 12 11 7 12 10 13
REMARK SMILES IDX 8 14 11 15 9 17 16 19 17 20 18 21 19 23 20 24 21 25 79 26
REMARK SMILES IDX 22 27 78 28 23 29 24 30 25 31 72 32 26 33 77 34 71 35 73 36
REMARK SMILES IDX 27 37 76 38 70 39 69 40 28 42 58 43 39 44 57 45 40 46 43 47
REMARK SMILES IDX 56 48 74 49 41 50 42 51 55 53 75 54 44 55 29 56 30 57 38 58
REMARK SMILES IDX 31 59 37 60 32 61 33 62 34 63 35 64 36 65 59 66 60 67 68 68
REMARK SMILES IDX 61 69 67 70 62 71 63 72 64 73 65 74 66 75 45 76 46 77 54 78
REMARK SMILES IDX 47 79 53 80 48 81 49 82 50 83 51 84 52 85
REMARK H PARENT 13 6 11 16 9 18 17 22 73 41 43 52
REMARK Flexibility Score: inf
ROOT
ATOM      1  C   UNL A   1      36.099  24.231  25.831  1.00  0.00     0.042 C 
ENDROOT
BRANCH   1   2
ATOM      2  C   UNL A   1      34.654  23.817  25.571  1.00  0.00     0.118 C 
BRANCH   2   3
ATOM      3  N   UNL A   1      34.433  22.397  25.770  1.00  0.00    -0.352 N 
ATOM      4  O   UNL A   1      33.534  21.991  23.697  1.00  0.00    -0.270 OA
ATOM      5  C   UNL A   1      33.867  21.600  24.810  1.00  0.00     0.244 C 
ATOM      6  H   UNL A   1      34.699  21.989  26.627  1.00  0.00     0.163 HD
BRANCH   5   7
ATOM      7  C   UNL A   1      33.710  20.161  25.148  1.00  0.00     0.072 C 
ATOM      8  C   UNL A   1      33.456  19.162  24.289  1.00  0.00     0.014 C 
BRANCH   8   9
ATOM      9  C   UNL A   1      33.363  17.751  24.697  1.00  0.00    -0.022 A 
ATOM     10  C   UNL A   1      32.139  17.142  25.026  1.00  0.00     0.012 A 
ATOM     11  C   UNL A   1      34.530  16.978  24.708  1.00  0.00     0.058 A 
ATOM     12  C   UNL A   1      32.083  15.791  25.391  1.00  0.00     0.051 A 
ATOM     13  C   UNL A   1      34.467  15.638  25.070  1.00  0.00     0.157 A 
ATOM     14  C   UNL A   1      33.254  15.046  25.413  1.00  0.00     0.157 A 
BRANCH  13  15
ATOM     15  O   UNL A   1      35.615  14.900  25.088  1.00  0.00    -0.504 OA
ATOM     16  H   UNL A   1      36.260  15.021  24.420  1.00  0.00     0.293 HD
ENDBRANCH  13  15
BRANCH  14  17
ATOM     17  O   UNL A   1      33.266  13.725  25.762  1.00  0.00    -0.504 OA
ATOM     18  H   UNL A   1      33.022  13.072  25.136  1.00  0.00     0.293 HD
ENDBRANCH  14  17
ENDBRANCH   8   9
ENDBRANCH   5   7
ENDBRANCH   2   3
ENDBRANCH   1   2
BRANCH   1  19
ATOM     19  C   UNL A   1      37.107  23.728  24.799  1.00  0.00     0.118 C 
BRANCH  19  20
ATOM     20  N   UNL A   1      38.047  22.753  25.336  1.00  0.00    -0.352 N 
ATOM     21  C   UNL A   1      39.114  22.919  26.187  1.00  0.00     0.251 C 
ATOM     22  H   UNL A   1      37.894  21.826  25.042  1.00  0.00     0.163 HD
ATOM     23  O   UNL A   1      39.855  21.964  26.415  1.00  0.00    -0.269 OA
BRANCH  21  24
ATOM     24  C   UNL A   1      39.399  24.235  26.801  1.00  0.00     0.039 A 
ATOM     25  C   UNL A   1      38.926  24.488  28.092  1.00  0.00     0.014 A 
ATOM     26  C   UNL A   1      40.114  25.221  26.117  1.00  0.00     0.014 A 
ATOM     27  C   UNL A   1      39.248  25.690  28.730  1.00  0.00     0.010 A 
ATOM     28  C   UNL A   1      40.487  26.392  26.775  1.00  0.00     0.010 A 
ATOM     29  C   UNL A   1      40.072  26.631  28.096  1.00  0.00    -0.014 A 
BRANCH  29  30
ATOM     30  C   UNL A   1      40.555  27.842  28.810  1.00  0.00     0.031 A 
ATOM     31  C   UNL A   1      41.915  27.866  29.452  1.00  0.00     0.074 A 
ATOM     32  C   UNL A   1      39.730  28.900  28.950  1.00  0.00     0.049 A 
ATOM     33  N   UNL A   1      42.462  28.799  30.190  1.00  0.00    -0.248 NA
ATOM     34  C   UNL A   1      42.762  26.679  29.258  1.00  0.00     0.031 C 
ATOM     35  C   UNL A   1      38.373  28.994  28.405  1.00  0.00     0.029 A 
ATOM     36  N   UNL A   1      39.905  30.094  29.607  1.00  0.00    -0.354 N 
ATOM     37  C   UNL A   1      43.709  28.309  30.560  1.00  0.00     0.074 A 
ATOM     38  C   UNL A   1      43.822  26.980  29.997  1.00  0.00     0.031 C 
ATOM     39  C   UNL A   1      37.847  30.184  28.734  1.00  0.00     0.029 A 
ATOM     40  C   UNL A   1      38.807  30.921  29.551  1.00  0.00     0.049 A 
ATOM     41  H   UNL A   1      40.737  30.335  30.073  1.00  0.00     0.167 HD
ATOM     42  C   UNL A   1      44.676  28.913  31.292  1.00  0.00     0.031 A 
ATOM     43  C   UNL A   1      38.585  32.127  30.107  1.00  0.00     0.031 A 
ATOM     44  C   UNL A   1      44.565  30.236  31.849  1.00  0.00     0.049 A 
ATOM     45  C   UNL A   1      39.663  32.765  30.938  1.00  0.00     0.074 A 
ATOM     46  C   UNL A   1      45.514  30.953  32.558  1.00  0.00     0.029 A 
ATOM     47  N   UNL A   1      43.437  31.040  31.769  1.00  0.00    -0.354 N 
ATOM     48  N   UNL A   1      40.859  32.310  31.226  1.00  0.00    -0.248 NA
ATOM     49  C   UNL A   1      39.363  34.083  31.517  1.00  0.00     0.031 C 
ATOM     50  C   UNL A   1      44.944  32.168  32.950  1.00  0.00     0.029 A 
ATOM     51  C   UNL A   1      43.657  32.232  32.440  1.00  0.00     0.049 A 
ATOM     52  H   UNL A   1      42.604  30.798  31.305  1.00  0.00     0.167 HD
ATOM     53  C   UNL A   1      41.461  33.293  32.002  1.00  0.00     0.074 A 
ATOM     54  C   UNL A   1      40.505  34.374  32.125  1.00  0.00     0.031 C 
ATOM     55  C   UNL A   1      42.696  33.298  32.563  1.00  0.00     0.031 A 
BRANCH  42  56
ATOM     56  C   UNL A   1      45.944  28.140  31.543  1.00  0.00    -0.014 A 
ATOM     57  C   UNL A   1      47.044  28.249  30.673  1.00  0.00     0.010 A 
ATOM     58  C   UNL A   1      46.053  27.327  32.685  1.00  0.00     0.010 A 
ATOM     59  C   UNL A   1      48.214  27.525  30.918  1.00  0.00     0.020 A 
ATOM     60  C   UNL A   1      47.231  26.622  32.949  1.00  0.00     0.020 A 
ATOM     61  C   UNL A   1      48.298  26.712  32.052  1.00  0.00     0.054 A 
BRANCH  61  62
ATOM     62  S   UNL A   1      49.835  25.797  32.354  1.00  0.00     0.124 S 
ATOM     63  O   UNL A   1      49.535  25.109  33.607  1.00  0.00    -0.237 OA
ATOM     64  O   UNL A   1      49.935  24.939  31.176  1.00  0.00    -0.237 OA
ATOM     65  O   UNL A   1      50.850  26.844  32.446  1.00  0.00    -0.744 OA
ENDBRANCH  61  62
ENDBRANCH  42  56
BRANCH  43  66
ATOM     66  C   UNL A   1      37.281  32.813  29.895  1.00  0.00    -0.014 A 
ATOM     67  C   UNL A   1      36.283  32.764  30.883  1.00  0.00     0.010 A 
ATOM     68  C   UNL A   1      37.037  33.530  28.710  1.00  0.00     0.010 A 
ATOM     69  C   UNL A   1      35.058  33.408  30.685  1.00  0.00     0.020 A 
ATOM     70  C   UNL A   1      35.825  34.197  28.519  1.00  0.00     0.020 A 
ATOM     71  C   UNL A   1      34.837  34.122  29.503  1.00  0.00     0.054 A 
BRANCH  71  72
ATOM     72  S   UNL A   1      33.261  34.996  29.291  1.00  0.00     0.124 S 
ATOM     73  O   UNL A   1      32.681  34.902  30.627  1.00  0.00    -0.237 OA
ATOM     74  O   UNL A   1      33.692  36.330  28.880  1.00  0.00    -0.237 OA
ATOM     75  O   UNL A   1      32.580  34.223  28.254  1.00  0.00    -0.744 OA
ENDBRANCH  71  72
ENDBRANCH  43  66
BRANCH  55  76
ATOM     76  C   UNL A   1      43.095  34.521  33.346  1.00  0.00    -0.014 A 
ATOM     77  C   UNL A   1      43.022  34.540  34.749  1.00  0.00     0.010 A 
ATOM     78  C   UNL A   1      43.601  35.646  32.669  1.00  0.00     0.010 A 
ATOM     79  C   UNL A   1      43.423  35.674  35.462  1.00  0.00     0.020 A 
ATOM     80  C   UNL A   1      44.027  36.772  33.380  1.00  0.00     0.020 A 
ATOM     81  C   UNL A   1      43.924  36.783  34.772  1.00  0.00     0.054 A 
BRANCH  81  82
ATOM     82  S   UNL A   1      44.484  38.223  35.722  1.00  0.00     0.124 S 
ATOM     83  O   UNL A   1      44.104  39.330  34.850  1.00  0.00    -0.237 OA
ATOM     84  O   UNL A   1      43.720  38.107  36.962  1.00  0.00    -0.237 OA
ATOM     85  O   UNL A   1      45.923  38.006  35.863  1.00  0.00    -0.744 OA
ENDBRANCH  81  82
ENDBRANCH  55  76
ENDBRANCH  29  30
ENDBRANCH  21  24
ENDBRANCH  19  20
ENDBRANCH   1  19
TORSDOF 16
ENDMDL
MODEL 3
REMARK VINA RESULT:     -10.0      2.364      5.069
REMARK SMILES O=C(/C=C/c1ccc(O)c(O)c1)NCCCNC(=O)c1ccc(-c2c3nc(c(-c4ccc(S(=O)(=O)[O-])cc4)c4ccc([nH]4)c(-c4ccc(S(=O)(=O)[O-])cc4)c4nc(c(-c5ccc(S(=O)(=O)[O-])cc5)c5ccc2[nH]5)C=C4)C=C3)cc1
REMARK SMILES IDX 15 1 14 2 13 3 1 4 2 5 3 7 4 8 5 9 6 10 12 11 7 12 10 13
REMARK SMILES IDX 8 14 11 15 9 17 16 19 17 20 18 21 19 23 20 24 21 25 79 26
REMARK SMILES IDX 22 27 78 28 23 29 24 30 25 31 72 32 26 33 77 34 71 35 73 36
REMARK SMILES IDX 27 37 76 38 70 39 69 40 28 42 58 43 39 44 57 45 40 46 43 47
REMARK SMILES IDX 56 48 74 49 41 50 42 51 55 53 75 54 44 55 29 56 30 57 38 58
REMARK SMILES IDX 31 59 37 60 32 61 33 62 34 63 35 64 36 65 59 66 60 67 68 68
REMARK SMILES IDX 61 69 67 70 62 71 63 72 64 73 65 74 66 75 45 76 46 77 54 78
REMARK SMILES IDX 47 79 53 80 48 81 49 82 50 83 51 84 52 85
REMARK H PARENT 13 6 11 16 9 18 17 22 73 41 43 52
REMARK Flexibility Score: inf
ROOT
ATOM      1  C   UNL A   1      33.360  33.572  28.476  1.00  0.00     0.042 C 
ENDROOT
BRANCH   1   2
ATOM      2  C   UNL A   1      33.808  34.338  29.717  1.00  0.00     0.118 C 
BRANCH   2   3
ATOM      3  N   UNL A   1      35.033  33.812  30.290  1.00  0.00    -0.352 N 
ATOM      4  O   UNL A   1      34.028  32.633  31.984  1.00  0.00    -0.270 OA
ATOM      5  C   UNL A   1      35.037  33.009  31.400  1.00  0.00     0.244 C 
ATOM      6  H   UNL A   1      35.892  34.040  29.866  1.00  0.00     0.163 HD
BRANCH   5   7
ATOM      7  C   UNL A   1      36.365  32.535  31.871  1.00  0.00     0.072 C 
ATOM      8  C   UNL A   1      36.597  31.682  32.880  1.00  0.00     0.014 C 
BRANCH   8   9
ATOM      9  C   UNL A   1      37.944  31.222  33.255  1.00  0.00    -0.022 A 
ATOM     10  C   UNL A   1      38.904  32.083  33.816  1.00  0.00     0.012 A 
ATOM     11  C   UNL A   1      38.259  29.867  33.093  1.00  0.00     0.058 A 
ATOM     12  C   UNL A   1      40.170  31.608  34.181  1.00  0.00     0.051 A 
ATOM     13  C   UNL A   1      39.517  29.403  33.457  1.00  0.00     0.157 A 
ATOM     14  C   UNL A   1      40.469  30.265  33.995  1.00  0.00     0.157 A 
BRANCH  13  15
ATOM     15  O   UNL A   1      39.814  28.083  33.282  1.00  0.00    -0.504 OA
ATOM     16  H   UNL A   1      40.356  27.637  33.903  1.00  0.00     0.293 HD
ENDBRANCH  13  15
BRANCH  14  17
ATOM     17  O   UNL A   1      41.686  29.741  34.328  1.00  0.00    -0.504 OA
ATOM     18  H   UNL A   1      42.280  30.236  34.858  1.00  0.00     0.293 HD
ENDBRANCH  14  17
ENDBRANCH   8   9
ENDBRANCH   5   7
ENDBRANCH   2   3
ENDBRANCH   1   2
BRANCH   1  19
ATOM     19  C   UNL A   1      34.394  32.598  27.915  1.00  0.00     0.118 C 
BRANCH  19  20
ATOM     20  N   UNL A   1      33.855  31.271  27.649  1.00  0.00    -0.352 N 
ATOM     21  C   UNL A   1      34.471  30.041  27.663  1.00  0.00     0.251 C 
ATOM     22  H   UNL A   1      32.898  31.250  27.423  1.00  0.00     0.163 HD
ATOM     23  O   UNL A   1      33.846  29.052  27.284  1.00  0.00    -0.269 OA
BRANCH  21  24
ATOM     24  C   UNL A   1      35.880  29.900  28.095  1.00  0.00     0.039 A 
ATOM     25  C   UNL A   1      36.142  29.606  29.437  1.00  0.00     0.014 A 
ATOM     26  C   UNL A   1      36.938  30.065  27.199  1.00  0.00     0.014 A 
ATOM     27  C   UNL A   1      37.457  29.387  29.858  1.00  0.00     0.010 A 
ATOM     28  C   UNL A   1      38.243  29.785  27.605  1.00  0.00     0.010 A 
ATOM     29  C   UNL A   1      38.514  29.426  28.936  1.00  0.00    -0.014 A 
BRANCH  29  30
ATOM     30  C   UNL A   1      39.896  29.045  29.327  1.00  0.00     0.031 A 
ATOM     31  C   UNL A   1      40.805  30.033  30.005  1.00  0.00     0.074 A 
ATOM     32  C   UNL A   1      40.363  27.823  28.997  1.00  0.00     0.049 A 
ATOM     33  N   UNL A   1      42.065  29.902  30.334  1.00  0.00    -0.248 NA
ATOM     34  C   UNL A   1      40.229  31.346  30.337  1.00  0.00     0.031 C 
ATOM     35  C   UNL A   1      39.597  26.780  28.309  1.00  0.00     0.029 A 
ATOM     36  N   UNL A   1      41.600  27.255  29.182  1.00  0.00    -0.354 N 
ATOM     37  C   UNL A   1      42.438  31.117  30.898  1.00  0.00     0.074 A 
ATOM     38  C   UNL A   1      41.282  31.985  30.831  1.00  0.00     0.031 C 
ATOM     39  C   UNL A   1      40.373  25.698  28.146  1.00  0.00     0.029 A 
ATOM     40  C   UNL A   1      41.704  25.981  28.673  1.00  0.00     0.049 A 
ATOM     41  H   UNL A   1      42.342  27.716  29.635  1.00  0.00     0.167 HD
ATOM     42  C   UNL A   1      43.632  31.474  31.433  1.00  0.00     0.031 A 
ATOM     43  C   UNL A   1      42.753  25.138  28.619  1.00  0.00     0.031 A 
ATOM     44  C   UNL A   1      44.781  30.610  31.502  1.00  0.00     0.049 A 
ATOM     45  C   UNL A   1      44.074  25.568  29.195  1.00  0.00     0.074 A 
ATOM     46  C   UNL A   1      46.015  30.866  32.076  1.00  0.00     0.029 A 
ATOM     47  N   UNL A   1      44.844  29.328  30.977  1.00  0.00    -0.354 N 
ATOM     48  N   UNL A   1      44.389  26.700  29.777  1.00  0.00    -0.248 NA
ATOM     49  C   UNL A   1      45.181  24.605  29.108  1.00  0.00     0.031 C 
ATOM     50  C   UNL A   1      46.841  29.759  31.853  1.00  0.00     0.029 A 
ATOM     51  C   UNL A   1      46.105  28.792  31.187  1.00  0.00     0.049 A 
ATOM     52  H   UNL A   1      44.103  28.868  30.521  1.00  0.00     0.167 HD
ATOM     53  C   UNL A   1      45.724  26.576  30.144  1.00  0.00     0.074 A 
ATOM     54  C   UNL A   1      46.152  25.256  29.733  1.00  0.00     0.031 C 
ATOM     55  C   UNL A   1      46.523  27.479  30.767  1.00  0.00     0.031 A 
BRANCH  42  56
ATOM     56  C   UNL A   1      43.758  32.872  31.980  1.00  0.00    -0.014 A 
ATOM     57  C   UNL A   1      44.187  33.935  31.164  1.00  0.00     0.010 A 
ATOM     58  C   UNL A   1      43.403  33.134  33.315  1.00  0.00     0.010 A 
ATOM     59  C   UNL A   1      44.299  35.226  31.685  1.00  0.00     0.020 A 
ATOM     60  C   UNL A   1      43.487  34.430  33.833  1.00  0.00     0.020 A 
ATOM     61  C   UNL A   1      43.953  35.464  33.019  1.00  0.00     0.054 A 
BRANCH  61  62
ATOM     62  S   UNL A   1      44.093  37.154  33.665  1.00  0.00     0.124 S 
ATOM     63  O   UNL A   1      42.938  37.233  34.555  1.00  0.00    -0.237 OA
ATOM     64  O   UNL A   1      45.395  37.139  34.327  1.00  0.00    -0.237 OA
ATOM     65  O   UNL A   1      44.016  37.990  32.469  1.00  0.00    -0.744 OA
ENDBRANCH  61  62
ENDBRANCH  42  56
BRANCH  43  66
ATOM     66  C   UNL A   1      42.596  23.797  27.993  1.00  0.00    -0.014 A 
ATOM     67  C   UNL A   1      42.846  23.619  26.621  1.00  0.00     0.010 A 
ATOM     68  C   UNL A   1      42.209  22.689  28.768  1.00  0.00     0.010 A 
ATOM     69  C   UNL A   1      42.698  22.359  26.032  1.00  0.00     0.020 A 
ATOM     70  C   UNL A   1      42.086  21.424  28.189  1.00  0.00     0.020 A 
ATOM     71  C   UNL A   1      42.320  21.269  26.821  1.00  0.00     0.054 A 
BRANCH  71  72
ATOM     72  S   UNL A   1      42.188  19.633  26.047  1.00  0.00     0.124 S 
ATOM     73  O   UNL A   1      40.768  19.568  25.717  1.00  0.00    -0.237 OA
ATOM     74  O   UNL A   1      43.098  19.747  24.910  1.00  0.00    -0.237 OA
ATOM     75  O   UNL A   1      42.631  18.721  27.100  1.00  0.00    -0.744 OA
ENDBRANCH  71  72
ENDBRANCH  43  66
BRANCH  55  76
ATOM     76  C   UNL A   1      47.939  27.062  31.061  1.00  0.00    -0.014 A 
ATOM     77  C   UNL A   1      48.248  26.291  32.195  1.00  0.00     0.010 A 
ATOM     78  C   UNL A   1      48.966  27.401  30.161  1.00  0.00     0.010 A 
ATOM     79  C   UNL A   1      49.565  25.889  32.439  1.00  0.00     0.020 A 
ATOM     80  C   UNL A   1      50.279  26.978  30.387  1.00  0.00     0.020 A 
ATOM     81  C   UNL A   1      50.572  26.235  31.532  1.00  0.00     0.054 A 
BRANCH  81  82
ATOM     82  S   UNL A   1      52.264  25.659  31.845  1.00  0.00     0.124 S 
ATOM     83  O   UNL A   1      52.671  26.504  32.962  1.00  0.00    -0.237 OA
ATOM     84  O   UNL A   1      52.069  24.246  32.162  1.00  0.00    -0.237 OA
ATOM     85  O   UNL A   1      52.956  25.917  30.583  1.00  0.00    -0.744 OA
ENDBRANCH  81  82
ENDBRANCH  55  76
ENDBRANCH  29  30
ENDBRANCH  21  24
ENDBRANCH  19  20
ENDBRANCH   1  19
TORSDOF 16
ENDMDL
