MODEL 1
REMARK VINA RESULT:     -11.3      0.000      0.000
REMARK SMILES O=C(CCC(=O)N1CCc2sccc2C1)NC1(C(=O)NCCCNC(=O)c2ccc(-c3c4nc(c(-c5ccc(S(=O)(=O)[O-])cc5)c5ccc([nH]5)c(-c5ccc(S(=O)(=O)[O-])cc5)c5nc(c(-c6ccc(S(=O)(=O)[O-])cc6)c6ccc3[nH]6)C=C5)C=C4)cc2)CCCCC1
REMARK SMILES IDX 21 1 20 2 18 3 19 4 17 6 87 7 91 8 88 9 90 10 89 11 16 12
REMARK SMILES IDX 1 13 2 14 3 16 4 17 5 18 6 19 7 20 8 21 15 22 9 23 14 24
REMARK SMILES IDX 10 25 13 26 11 27 12 28 22 29 23 30 24 31 25 32 26 34 27 35
REMARK SMILES IDX 28 36 86 37 29 38 85 39 30 40 31 41 32 42 79 43 33 44 84 45
REMARK SMILES IDX 78 46 80 47 34 48 83 49 77 50 76 51 35 53 65 54 46 55 64 56
REMARK SMILES IDX 47 57 50 58 63 59 81 60 48 61 49 62 62 64 82 65 51 66 36 67
REMARK SMILES IDX 37 68 45 69 38 70 44 71 39 72 40 73 41 74 42 75 43 76 66 77
REMARK SMILES IDX 67 78 75 79 68 80 74 81 69 82 70 83 71 84 72 85 73 86 52 87
REMARK SMILES IDX 53 88 61 89 54 90 60 91 55 92 56 93 57 94 58 95 59 96
REMARK H PARENT 20 5 16 15 24 33 80 52 50 63
REMARK Flexibility Score: inf
ROOT
ATOM      1  C   UNL A   1      33.995  26.278  25.626  1.00  0.00     0.117 C 
ENDROOT
BRANCH   1   2
ATOM      2  N   UNL A   1      33.385  25.015  25.970  1.00  0.00    -0.354 N 
ATOM      3  C   UNL A   1      33.797  23.735  25.734  1.00  0.00     0.245 C 
ATOM      4  O   UNL A   1      33.290  22.872  26.460  1.00  0.00    -0.272 OA
ATOM      5  H   UNL A   1      32.530  25.090  26.454  1.00  0.00     0.163 HD
BRANCH   3   6
ATOM      6  C   UNL A   1      34.906  23.380  24.679  1.00  0.00     0.119 C 
ATOM      7  C   UNL A   1      34.938  21.855  24.381  1.00  0.00     0.038 C 
ATOM      8  C   UNL A   1      36.288  23.939  25.076  1.00  0.00     0.038 C 
ATOM      9  C   UNL A   1      36.018  20.982  25.024  1.00  0.00     0.003 C 
ATOM     10  C   UNL A   1      37.385  23.055  25.658  1.00  0.00     0.003 C 
ATOM     11  C   UNL A   1      37.388  21.628  25.141  1.00  0.00     0.000 C 
BRANCH   6  12
ATOM     12  N   UNL A   1      34.471  24.033  23.352  1.00  0.00    -0.342 N 
ATOM     13  O   UNL A   1      32.692  22.699  22.759  1.00  0.00    -0.275 OA
ATOM     14  C   UNL A   1      33.353  23.707  22.590  1.00  0.00     0.221 C 
ATOM     15  H   UNL A   1      35.043  24.757  23.008  1.00  0.00     0.164 HD
BRANCH  14  16
ATOM     16  C   UNL A   1      32.899  24.856  21.636  1.00  0.00     0.110 C 
BRANCH  16  17
ATOM     17  C   UNL A   1      32.350  26.109  22.379  1.00  0.00     0.110 C 
BRANCH  17  18
ATOM     18  C   UNL A   1      30.931  26.157  23.057  1.00  0.00     0.223 C 
ATOM     19  O   UNL A   1      30.424  25.106  23.461  1.00  0.00    -0.275 OA
BRANCH  18  20
ATOM     20  N   UNL A   1      30.313  27.369  23.308  1.00  0.00    -0.338 N 
ATOM     21  C   UNL A   1      31.056  28.584  23.357  1.00  0.00     0.125 C 
ATOM     22  C   UNL A   1      28.844  27.587  23.362  1.00  0.00     0.156 C 
ATOM     23  C   UNL A   1      30.835  29.348  22.041  1.00  0.00     0.068 C 
ATOM     24  C   UNL A   1      28.513  29.023  22.899  1.00  0.00    -0.015 A 
ATOM     25  C   UNL A   1      29.425  29.788  22.182  1.00  0.00     0.011 A 
ATOM     26  C   UNL A   1      27.447  29.875  23.338  1.00  0.00     0.017 A 
ATOM     27  S   UNL A   1      28.906  31.351  21.812  1.00  0.00    -0.149 S 
ATOM     28  C   UNL A   1      27.553  31.161  22.840  1.00  0.00     0.065 A 
ENDBRANCH  18  20
ENDBRANCH  17  18
ENDBRANCH  16  17
ENDBRANCH  14  16
ENDBRANCH   6  12
ENDBRANCH   3   6
ENDBRANCH   1   2
BRANCH   1  29
ATOM     29  C   UNL A   1      33.153  27.492  25.973  1.00  0.00     0.042 C 
BRANCH  29  30
ATOM     30  C   UNL A   1      33.531  28.095  27.311  1.00  0.00     0.118 C 
BRANCH  30  31
ATOM     31  N   UNL A   1      33.440  29.550  27.281  1.00  0.00    -0.352 N 
ATOM     32  C   UNL A   1      34.253  30.502  27.848  1.00  0.00     0.251 C 
ATOM     33  H   UNL A   1      32.674  29.906  26.776  1.00  0.00     0.163 HD
ATOM     34  O   UNL A   1      33.819  31.637  28.026  1.00  0.00    -0.269 OA
BRANCH  32  35
ATOM     35  C   UNL A   1      35.639  30.162  28.229  1.00  0.00     0.039 A 
ATOM     36  C   UNL A   1      35.907  29.665  29.506  1.00  0.00     0.014 A 
ATOM     37  C   UNL A   1      36.684  30.378  27.333  1.00  0.00     0.014 A 
ATOM     38  C   UNL A   1      37.219  29.333  29.856  1.00  0.00     0.010 A 
ATOM     39  C   UNL A   1      37.960  29.929  27.632  1.00  0.00     0.010 A 
ATOM     40  C   UNL A   1      38.249  29.432  28.908  1.00  0.00    -0.014 A 
BRANCH  40  41
ATOM     41  C   UNL A   1      39.653  29.076  29.221  1.00  0.00     0.031 A 
ATOM     42  C   UNL A   1      40.562  30.112  29.831  1.00  0.00     0.074 A 
ATOM     43  C   UNL A   1      40.130  27.867  28.868  1.00  0.00     0.049 A 
ATOM     44  N   UNL A   1      41.850  30.054  30.054  1.00  0.00    -0.248 NA
ATOM     45  C   UNL A   1      39.952  31.403  30.197  1.00  0.00     0.031 C 
ATOM     46  C   UNL A   1      39.357  26.803  28.222  1.00  0.00     0.029 A 
ATOM     47  N   UNL A   1      41.387  27.334  28.992  1.00  0.00    -0.354 N 
ATOM     48  C   UNL A   1      42.204  31.304  30.546  1.00  0.00     0.074 A 
ATOM     49  C   UNL A   1      41.012  32.121  30.536  1.00  0.00     0.031 C 
ATOM     50  C   UNL A   1      40.149  25.735  28.035  1.00  0.00     0.029 A 
ATOM     51  C   UNL A   1      41.493  26.053  28.502  1.00  0.00     0.049 A 
ATOM     52  H   UNL A   1      42.142  27.822  29.392  1.00  0.00     0.167 HD
ATOM     53  C   UNL A   1      43.409  31.729  30.994  1.00  0.00     0.031 A 
ATOM     54  C   UNL A   1      42.558  25.233  28.431  1.00  0.00     0.031 A 
ATOM     55  C   UNL A   1      44.578  30.895  31.038  1.00  0.00     0.049 A 
ATOM     56  C   UNL A   1      43.881  25.716  28.955  1.00  0.00     0.074 A 
ATOM     57  C   UNL A   1      45.831  31.195  31.541  1.00  0.00     0.029 A 
ATOM     58  N   UNL A   1      44.635  29.593  30.565  1.00  0.00    -0.354 N 
ATOM     59  N   UNL A   1      44.183  26.882  29.479  1.00  0.00    -0.248 NA
ATOM     60  C   UNL A   1      45.005  24.773  28.889  1.00  0.00     0.031 C 
ATOM     61  C   UNL A   1      46.660  30.087  31.331  1.00  0.00     0.029 A 
ATOM     62  C   UNL A   1      45.907  29.080  30.746  1.00  0.00     0.049 A 
ATOM     63  H   UNL A   1      43.882  29.104  30.161  1.00  0.00     0.167 HD
ATOM     64  C   UNL A   1      45.528  26.805  29.821  1.00  0.00     0.074 A 
ATOM     65  C   UNL A   1      45.973  25.473  29.465  1.00  0.00     0.031 C 
ATOM     66  C   UNL A   1      46.324  27.750  30.378  1.00  0.00     0.031 A 
BRANCH  53  67
ATOM     67  C   UNL A   1      43.513  33.152  31.476  1.00  0.00    -0.014 A 
ATOM     68  C   UNL A   1      43.837  34.198  30.593  1.00  0.00     0.010 A 
ATOM     69  C   UNL A   1      43.257  33.454  32.826  1.00  0.00     0.010 A 
ATOM     70  C   UNL A   1      43.951  35.511  31.058  1.00  0.00     0.020 A 
ATOM     71  C   UNL A   1      43.340  34.771  33.291  1.00  0.00     0.020 A 
ATOM     72  C   UNL A   1      43.705  35.788  32.406  1.00  0.00     0.054 A 
BRANCH  72  73
ATOM     73  S   UNL A   1      43.839  37.504  32.978  1.00  0.00     0.124 S 
ATOM     74  O   UNL A   1      42.675  37.621  33.853  1.00  0.00    -0.237 OA
ATOM     75  O   UNL A   1      45.135  37.517  33.654  1.00  0.00    -0.237 OA
ATOM     76  O   UNL A   1      43.775  38.286  31.747  1.00  0.00    -0.744 OA
ENDBRANCH  72  73
ENDBRANCH  53  67
BRANCH  54  77
ATOM     77  C   UNL A   1      42.406  23.867  27.861  1.00  0.00    -0.014 A 
ATOM     78  C   UNL A   1      42.255  22.755  28.707  1.00  0.00     0.010 A 
ATOM     79  C   UNL A   1      42.385  23.673  26.467  1.00  0.00     0.010 A 
ATOM     80  C   UNL A   1      42.101  21.473  28.173  1.00  0.00     0.020 A 
ATOM     81  C   UNL A   1      42.204  22.396  25.928  1.00  0.00     0.020 A 
ATOM     82  C   UNL A   1      42.074  21.301  26.786  1.00  0.00     0.054 A 
BRANCH  82  83
ATOM     83  S   UNL A   1      41.816  19.635  26.115  1.00  0.00     0.124 S 
ATOM     84  O   UNL A   1      42.711  19.630  24.964  1.00  0.00    -0.237 OA
ATOM     85  O   UNL A   1      42.213  18.780  27.232  1.00  0.00    -0.237 OA
ATOM     86  O   UNL A   1      40.388  19.610  25.802  1.00  0.00    -0.744 OA
ENDBRANCH  82  83
ENDBRANCH  54  77
BRANCH  66  87
ATOM     87  C   UNL A   1      47.751  27.369  30.656  1.00  0.00    -0.014 A 
ATOM     88  C   UNL A   1      48.097  26.648  31.812  1.00  0.00     0.010 A 
ATOM     89  C   UNL A   1      48.750  27.688  29.719  1.00  0.00     0.010 A 
ATOM     90  C   UNL A   1      49.424  26.279  32.041  1.00  0.00     0.020 A 
ATOM     91  C   UNL A   1      50.073  27.296  29.930  1.00  0.00     0.020 A 
ATOM     92  C   UNL A   1      50.404  26.606  31.098  1.00  0.00     0.054 A 
BRANCH  92  93
ATOM     93  S   UNL A   1      52.111  26.076  31.397  1.00  0.00     0.124 S 
ATOM     94  O   UNL A   1      52.592  27.104  32.317  1.00  0.00    -0.237 OA
ATOM     95  O   UNL A   1      51.939  24.746  31.975  1.00  0.00    -0.237 OA
ATOM     96  O   UNL A   1      52.718  26.097  30.068  1.00  0.00    -0.744 OA
ENDBRANCH  92  93
ENDBRANCH  66  87
ENDBRANCH  40  41
ENDBRANCH  32  35
ENDBRANCH  30  31
ENDBRANCH  29  30
ENDBRANCH   1  29
TORSDOF 18
ENDMDL
MODEL 2
REMARK VINA RESULT:     -11.2      4.491      9.796
REMARK SMILES O=C(CCC(=O)N1CCc2sccc2C1)NC1(C(=O)NCCCNC(=O)c2ccc(-c3c4nc(c(-c5ccc(S(=O)(=O)[O-])cc5)c5ccc([nH]5)c(-c5ccc(S(=O)(=O)[O-])cc5)c5nc(c(-c6ccc(S(=O)(=O)[O-])cc6)c6ccc3[nH]6)C=C5)C=C4)cc2)CCCCC1
REMARK SMILES IDX 21 1 20 2 18 3 19 4 17 6 87 7 91 8 88 9 90 10 89 11 16 12
REMARK SMILES IDX 1 13 2 14 3 16 4 17 5 18 6 19 7 20 8 21 15 22 9 23 14 24
REMARK SMILES IDX 10 25 13 26 11 27 12 28 22 29 23 30 24 31 25 32 26 34 27 35
REMARK SMILES IDX 28 36 86 37 29 38 85 39 30 40 31 41 32 42 79 43 33 44 84 45
REMARK SMILES IDX 78 46 80 47 34 48 83 49 77 50 76 51 35 53 65 54 46 55 64 56
REMARK SMILES IDX 47 57 50 58 63 59 81 60 48 61 49 62 62 64 82 65 51 66 36 67
REMARK SMILES IDX 37 68 45 69 38 70 44 71 39 72 40 73 41 74 42 75 43 76 66 77
REMARK SMILES IDX 67 78 75 79 68 80 74 81 69 82 70 83 71 84 72 85 73 86 52 87
REMARK SMILES IDX 53 88 61 89 54 90 60 91 55 92 56 93 57 94 58 95 59 96
REMARK H PARENT 20 5 16 15 24 33 80 52 50 63
REMARK Flexibility Score: inf
ROOT
ATOM      1  C   UNL A   1      36.892  22.184  25.789  1.00  0.00     0.117 C 
ENDROOT
BRANCH   1   2
ATOM      2  N   UNL A   1      35.671  22.085  26.553  1.00  0.00    -0.354 N 
ATOM      3  C   UNL A   1      34.571  21.296  26.374  1.00  0.00     0.245 C 
ATOM      4  O   UNL A   1      33.859  21.144  27.373  1.00  0.00    -0.272 OA
ATOM      5  H   UNL A   1      35.623  22.686  27.332  1.00  0.00     0.163 HD
BRANCH   3   6
ATOM      6  C   UNL A   1      34.270  20.553  25.023  1.00  0.00     0.119 C 
ATOM      7  C   UNL A   1      32.846  19.930  25.023  1.00  0.00     0.038 C 
ATOM      8  C   UNL A   1      35.368  19.530  24.662  1.00  0.00     0.038 C 
ATOM      9  C   UNL A   1      32.678  18.430  25.272  1.00  0.00     0.003 C 
ATOM     10  C   UNL A   1      35.173  18.030  24.853  1.00  0.00     0.003 C 
ATOM     11  C   UNL A   1      33.749  17.546  24.656  1.00  0.00     0.000 C 
BRANCH   6  12
ATOM     12  N   UNL A   1      34.227  21.637  23.928  1.00  0.00    -0.342 N 
ATOM     13  O   UNL A   1      32.544  22.998  24.713  1.00  0.00    -0.275 OA
ATOM     14  C   UNL A   1      33.460  22.800  23.936  1.00  0.00     0.221 C 
ATOM     15  H   UNL A   1      34.802  21.494  23.142  1.00  0.00     0.164 HD
BRANCH  14  16
ATOM     16  C   UNL A   1      34.018  23.914  22.996  1.00  0.00     0.110 C 
BRANCH  16  17
ATOM     17  C   UNL A   1      32.940  24.557  22.076  1.00  0.00     0.110 C 
BRANCH  17  18
ATOM     18  C   UNL A   1      32.292  25.963  22.359  1.00  0.00     0.223 C 
ATOM     19  O   UNL A   1      31.495  26.430  21.540  1.00  0.00    -0.275 OA
BRANCH  18  20
ATOM     20  N   UNL A   1      32.516  26.610  23.561  1.00  0.00    -0.338 N 
ATOM     21  C   UNL A   1      33.490  27.643  23.678  1.00  0.00     0.125 C 
ATOM     22  C   UNL A   1      31.680  26.463  24.781  1.00  0.00     0.156 C 
ATOM     23  C   UNL A   1      32.767  29.000  23.690  1.00  0.00     0.068 C 
ATOM     24  C   UNL A   1      31.703  27.779  25.590  1.00  0.00    -0.015 A 
ATOM     25  C   UNL A   1      32.112  28.979  25.021  1.00  0.00     0.011 A 
ATOM     26  C   UNL A   1      31.623  27.950  27.011  1.00  0.00     0.017 A 
ATOM     27  S   UNL A   1      32.123  30.297  26.076  1.00  0.00    -0.149 S 
ATOM     28  C   UNL A   1      31.850  29.257  27.404  1.00  0.00     0.065 A 
ENDBRANCH  18  20
ENDBRANCH  17  18
ENDBRANCH  16  17
ENDBRANCH  14  16
ENDBRANCH   6  12
ENDBRANCH   3   6
ENDBRANCH   1   2
BRANCH   1  29
ATOM     29  C   UNL A   1      37.316  23.607  25.473  1.00  0.00     0.042 C 
BRANCH  29  30
ATOM     30  C   UNL A   1      38.166  24.214  26.572  1.00  0.00     0.118 C 
BRANCH  30  31
ATOM     31  N   UNL A   1      39.588  24.033  26.303  1.00  0.00    -0.352 N 
ATOM     32  C   UNL A   1      40.658  24.844  26.598  1.00  0.00     0.251 C 
ATOM     33  H   UNL A   1      39.817  23.197  25.835  1.00  0.00     0.163 HD
ATOM     34  O   UNL A   1      41.709  24.705  25.978  1.00  0.00    -0.269 OA
BRANCH  32  35
ATOM     35  C   UNL A   1      40.543  25.865  27.659  1.00  0.00     0.039 A 
ATOM     36  C   UNL A   1      39.560  25.739  28.643  1.00  0.00     0.014 A 
ATOM     37  C   UNL A   1      41.385  26.976  27.654  1.00  0.00     0.014 A 
ATOM     38  C   UNL A   1      39.464  26.703  29.650  1.00  0.00     0.010 A 
ATOM     39  C   UNL A   1      41.376  27.859  28.721  1.00  0.00     0.010 A 
ATOM     40  C   UNL A   1      40.396  27.752  29.714  1.00  0.00    -0.014 A 
BRANCH  40  41
ATOM     41  C   UNL A   1      40.351  28.789  30.772  1.00  0.00     0.031 A 
ATOM     42  C   UNL A   1      41.257  28.663  31.971  1.00  0.00     0.074 A 
ATOM     43  C   UNL A   1      39.438  29.775  30.703  1.00  0.00     0.049 A 
ATOM     44  N   UNL A   1      41.281  29.376  33.067  1.00  0.00    -0.248 NA
ATOM     45  C   UNL A   1      42.234  27.559  31.956  1.00  0.00     0.031 C 
ATOM     46  C   UNL A   1      38.472  29.966  29.618  1.00  0.00     0.029 A 
ATOM     47  N   UNL A   1      39.162  30.798  31.574  1.00  0.00    -0.354 N 
ATOM     48  C   UNL A   1      42.242  28.786  33.879  1.00  0.00     0.074 A 
ATOM     49  C   UNL A   1      42.739  27.625  33.179  1.00  0.00     0.031 C 
ATOM     50  C   UNL A   1      37.733  31.057  29.873  1.00  0.00     0.029 A 
ATOM     51  C   UNL A   1      38.138  31.615  31.158  1.00  0.00     0.049 A 
ATOM     52  H   UNL A   1      39.652  30.934  32.417  1.00  0.00     0.167 HD
ATOM     53  C   UNL A   1      42.693  29.192  35.090  1.00  0.00     0.031 A 
ATOM     54  C   UNL A   1      37.581  32.687  31.752  1.00  0.00     0.031 A 
ATOM     55  C   UNL A   1      42.221  30.372  35.759  1.00  0.00     0.049 A 
ATOM     56  C   UNL A   1      38.114  33.133  33.085  1.00  0.00     0.074 A 
ATOM     57  C   UNL A   1      42.660  30.920  36.951  1.00  0.00     0.029 A 
ATOM     58  N   UNL A   1      41.207  31.192  35.288  1.00  0.00    -0.354 N 
ATOM     59  N   UNL A   1      39.070  32.601  33.810  1.00  0.00    -0.248 NA
ATOM     60  C   UNL A   1      37.500  34.329  33.678  1.00  0.00     0.031 C 
ATOM     61  C   UNL A   1      41.878  32.048  37.223  1.00  0.00     0.029 A 
ATOM     62  C   UNL A   1      40.991  32.232  36.174  1.00  0.00     0.049 A 
ATOM     63  H   UNL A   1      40.714  31.055  34.447  1.00  0.00     0.167 HD
ATOM     64  C   UNL A   1      39.185  33.408  34.936  1.00  0.00     0.074 A 
ATOM     65  C   UNL A   1      38.216  34.474  34.784  1.00  0.00     0.031 C 
ATOM     66  C   UNL A   1      40.015  33.279  36.000  1.00  0.00     0.031 A 
BRANCH  53  67
ATOM     67  C   UNL A   1      43.753  28.353  35.756  1.00  0.00    -0.014 A 
ATOM     68  C   UNL A   1      45.121  28.598  35.535  1.00  0.00     0.010 A 
ATOM     69  C   UNL A   1      43.379  27.322  36.636  1.00  0.00     0.010 A 
ATOM     70  C   UNL A   1      46.093  27.799  36.142  1.00  0.00     0.020 A 
ATOM     71  C   UNL A   1      44.348  26.538  37.271  1.00  0.00     0.020 A 
ATOM     72  C   UNL A   1      45.699  26.771  37.004  1.00  0.00     0.054 A 
BRANCH  72  73
ATOM     73  S   UNL A   1      46.983  25.763  37.796  1.00  0.00     0.124 S 
ATOM     74  O   UNL A   1      47.965  26.774  38.179  1.00  0.00    -0.237 OA
ATOM     75  O   UNL A   1      46.262  25.138  38.903  1.00  0.00    -0.237 OA
ATOM     76  O   UNL A   1      47.408  24.849  36.739  1.00  0.00    -0.744 OA
ENDBRANCH  72  73
ENDBRANCH  53  67
BRANCH  54  77
ATOM     77  C   UNL A   1      36.476  33.420  31.079  1.00  0.00    -0.014 A 
ATOM     78  C   UNL A   1      36.638  33.907  29.770  1.00  0.00     0.010 A 
ATOM     79  C   UNL A   1      35.244  33.612  31.731  1.00  0.00     0.010 A 
ATOM     80  C   UNL A   1      35.597  34.586  29.132  1.00  0.00     0.020 A 
ATOM     81  C   UNL A   1      34.190  34.266  31.086  1.00  0.00     0.020 A 
ATOM     82  C   UNL A   1      34.378  34.759  29.793  1.00  0.00     0.054 A 
BRANCH  82  83
ATOM     83  S   UNL A   1      33.021  35.593  28.923  1.00  0.00     0.124 S 
ATOM     84  O   UNL A   1      32.211  36.089  30.029  1.00  0.00    -0.237 OA
ATOM     85  O   UNL A   1      33.723  36.611  28.144  1.00  0.00    -0.237 OA
ATOM     86  O   UNL A   1      32.416  34.524  28.130  1.00  0.00    -0.744 OA
ENDBRANCH  82  83
ENDBRANCH  54  77
BRANCH  66  87
ATOM     87  C   UNL A   1      39.926  34.329  37.072  1.00  0.00    -0.014 A 
ATOM     88  C   UNL A   1      40.606  35.553  36.946  1.00  0.00     0.010 A 
ATOM     89  C   UNL A   1      39.104  34.109  38.192  1.00  0.00     0.010 A 
ATOM     90  C   UNL A   1      40.491  36.527  37.939  1.00  0.00     0.020 A 
ATOM     91  C   UNL A   1      38.964  35.092  39.173  1.00  0.00     0.020 A 
ATOM     92  C   UNL A   1      39.670  36.291  39.046  1.00  0.00     0.054 A 
BRANCH  92  93
ATOM     93  S   UNL A   1      39.501  37.590  40.299  1.00  0.00     0.124 S 
ATOM     94  O   UNL A   1      38.594  38.528  39.643  1.00  0.00    -0.237 OA
ATOM     95  O   UNL A   1      38.942  36.867  41.439  1.00  0.00    -0.237 OA
ATOM     96  O   UNL A   1      40.868  38.072  40.485  1.00  0.00    -0.744 OA
ENDBRANCH  92  93
ENDBRANCH  66  87
ENDBRANCH  40  41
ENDBRANCH  32  35
ENDBRANCH  30  31
ENDBRANCH  29  30
ENDBRANCH   1  29
TORSDOF 18
ENDMDL
MODEL 3
REMARK VINA RESULT:     -11.2      2.729      9.442
REMARK SMILES O=C(CCC(=O)N1CCc2sccc2C1)NC1(C(=O)NCCCNC(=O)c2ccc(-c3c4nc(c(-c5ccc(S(=O)(=O)[O-])cc5)c5ccc([nH]5)c(-c5ccc(S(=O)(=O)[O-])cc5)c5nc(c(-c6ccc(S(=O)(=O)[O-])cc6)c6ccc3[nH]6)C=C5)C=C4)cc2)CCCCC1
REMARK SMILES IDX 21 1 20 2 18 3 19 4 17 6 87 7 91 8 88 9 90 10 89 11 16 12
REMARK SMILES IDX 1 13 2 14 3 16 4 17 5 18 6 19 7 20 8 21 15 22 9 23 14 24
REMARK SMILES IDX 10 25 13 26 11 27 12 28 22 29 23 30 24 31 25 32 26 34 27 35
REMARK SMILES IDX 28 36 86 37 29 38 85 39 30 40 31 41 32 42 79 43 33 44 84 45
REMARK SMILES IDX 78 46 80 47 34 48 83 49 77 50 76 51 35 53 65 54 46 55 64 56
REMARK SMILES IDX 47 57 50 58 63 59 81 60 48 61 49 62 62 64 82 65 51 66 36 67
REMARK SMILES IDX 37 68 45 69 38 70 44 71 39 72 40 73 41 74 42 75 43 76 66 77
REMARK SMILES IDX 67 78 75 79 68 80 74 81 69 82 70 83 71 84 72 85 73 86 52 87
REMARK SMILES IDX 53 88 61 89 54 90 60 91 55 92 56 93 57 94 58 95 59 96
REMARK H PARENT 20 5 16 15 24 33 80 52 50 63
REMARK Flexibility Score: inf
ROOT
ATOM      1  C   UNL A   1      34.329  24.607  24.993  1.00  0.00     0.117 C 
ENDROOT
BRANCH   1   2
ATOM      2  N   UNL A   1      34.326  25.724  24.078  1.00  0.00    -0.354 N 
ATOM      3  C   UNL A   1      33.617  26.891  24.102  1.00  0.00     0.245 C 
ATOM      4  O   UNL A   1      34.086  27.810  23.422  1.00  0.00    -0.272 OA
ATOM      5  H   UNL A   1      34.935  25.629  23.310  1.00  0.00     0.163 HD
BRANCH   3   6
ATOM      6  C   UNL A   1      32.344  27.093  25.000  1.00  0.00     0.119 C 
ATOM      7  C   UNL A   1      31.583  28.394  24.622  1.00  0.00     0.038 C 
ATOM      8  C   UNL A   1      32.673  27.011  26.506  1.00  0.00     0.038 C 
ATOM      9  C   UNL A   1      31.744  29.643  25.492  1.00  0.00     0.003 C 
ATOM     10  C   UNL A   1      32.770  28.253  27.384  1.00  0.00     0.003 C 
ATOM     11  C   UNL A   1      31.841  29.384  26.986  1.00  0.00     0.000 C 
BRANCH   6  12
ATOM     12  N   UNL A   1      31.373  25.950  24.645  1.00  0.00    -0.342 N 
ATOM     13  O   UNL A   1      31.099  26.284  22.384  1.00  0.00    -0.275 OA
ATOM     14  C   UNL A   1      30.940  25.589  23.372  1.00  0.00     0.221 C 
ATOM     15  H   UNL A   1      31.022  25.419  25.396  1.00  0.00     0.164 HD
BRANCH  14  16
ATOM     16  C   UNL A   1      30.422  24.120  23.288  1.00  0.00     0.110 C 
BRANCH  16  17
ATOM     17  C   UNL A   1      31.555  23.054  23.268  1.00  0.00     0.110 C 
BRANCH  17  18
ATOM     18  C   UNL A   1      31.861  22.095  24.479  1.00  0.00     0.223 C 
ATOM     19  O   UNL A   1      31.358  22.341  25.578  1.00  0.00    -0.275 OA
BRANCH  18  20
ATOM     20  N   UNL A   1      32.582  20.930  24.286  1.00  0.00    -0.338 N 
ATOM     21  C   UNL A   1      33.527  20.474  25.249  1.00  0.00     0.125 C 
ATOM     22  C   UNL A   1      32.339  19.943  23.202  1.00  0.00     0.156 C 
ATOM     23  C   UNL A   1      32.896  19.324  26.051  1.00  0.00     0.068 C 
ATOM     24  C   UNL A   1      32.720  18.528  23.691  1.00  0.00    -0.015 A 
ATOM     25  C   UNL A   1      32.865  18.236  25.042  1.00  0.00     0.011 A 
ATOM     26  C   UNL A   1      33.251  17.437  22.927  1.00  0.00     0.017 A 
ATOM     27  S   UNL A   1      33.339  16.652  25.379  1.00  0.00    -0.149 S 
ATOM     28  C   UNL A   1      33.641  16.372  23.720  1.00  0.00     0.065 A 
ENDBRANCH  18  20
ENDBRANCH  17  18
ENDBRANCH  16  17
ENDBRANCH  14  16
ENDBRANCH   6  12
ENDBRANCH   3   6
ENDBRANCH   1   2
BRANCH   1  29
ATOM     29  C   UNL A   1      35.571  23.738  24.911  1.00  0.00     0.042 C 
BRANCH  29  30
ATOM     30  C   UNL A   1      36.247  23.567  26.256  1.00  0.00     0.118 C 
BRANCH  30  31
ATOM     31  N   UNL A   1      37.425  22.714  26.153  1.00  0.00    -0.352 N 
ATOM     32  C   UNL A   1      38.760  23.028  26.242  1.00  0.00     0.251 C 
ATOM     33  H   UNL A   1      37.233  21.761  25.995  1.00  0.00     0.163 HD
ATOM     34  O   UNL A   1      39.594  22.260  25.769  1.00  0.00    -0.269 OA
BRANCH  32  35
ATOM     35  C   UNL A   1      39.185  24.276  26.909  1.00  0.00     0.039 A 
ATOM     36  C   UNL A   1      38.874  24.487  28.254  1.00  0.00     0.014 A 
ATOM     37  C   UNL A   1      39.855  25.262  26.186  1.00  0.00     0.014 A 
ATOM     38  C   UNL A   1      39.289  25.665  28.881  1.00  0.00     0.010 A 
ATOM     39  C   UNL A   1      40.379  26.366  26.838  1.00  0.00     0.010 A 
ATOM     40  C   UNL A   1      40.074  26.597  28.185  1.00  0.00    -0.014 A 
BRANCH  40  41
ATOM     41  C   UNL A   1      40.557  27.852  28.808  1.00  0.00     0.031 A 
ATOM     42  C   UNL A   1      41.953  27.908  29.374  1.00  0.00     0.074 A 
ATOM     43  C   UNL A   1      39.714  28.892  28.954  1.00  0.00     0.049 A 
ATOM     44  N   UNL A   1      42.521  28.852  30.080  1.00  0.00    -0.248 NA
ATOM     45  C   UNL A   1      42.809  26.728  29.158  1.00  0.00     0.031 C 
ATOM     46  C   UNL A   1      38.324  28.932  28.495  1.00  0.00     0.029 A 
ATOM     47  N   UNL A   1      39.903  30.116  29.543  1.00  0.00    -0.354 N 
ATOM     48  C   UNL A   1      43.778  28.364  30.419  1.00  0.00     0.074 A 
ATOM     49  C   UNL A   1      43.870  27.021  29.895  1.00  0.00     0.031 C 
ATOM     50  C   UNL A   1      37.796  30.130  28.793  1.00  0.00     0.029 A 
ATOM     51  C   UNL A   1      38.791  30.924  29.503  1.00  0.00     0.049 A 
ATOM     52  H   UNL A   1      40.754  30.389  29.957  1.00  0.00     0.167 HD
ATOM     53  C   UNL A   1      44.778  28.988  31.084  1.00  0.00     0.031 A 
ATOM     54  C   UNL A   1      38.595  32.162  29.993  1.00  0.00     0.031 A 
ATOM     55  C   UNL A   1      44.690  30.339  31.565  1.00  0.00     0.049 A 
ATOM     56  C   UNL A   1      39.727  32.845  30.708  1.00  0.00     0.074 A 
ATOM     57  C   UNL A   1      45.667  31.098  32.184  1.00  0.00     0.029 A 
ATOM     58  N   UNL A   1      43.559  31.136  31.473  1.00  0.00    -0.354 N 
ATOM     59  N   UNL A   1      40.933  32.393  30.963  1.00  0.00    -0.248 NA
ATOM     60  C   UNL A   1      39.478  34.209  31.193  1.00  0.00     0.031 C 
ATOM     61  C   UNL A   1      45.110  32.341  32.507  1.00  0.00     0.029 A 
ATOM     62  C   UNL A   1      43.805  32.373  32.041  1.00  0.00     0.049 A 
ATOM     63  H   UNL A   1      42.706  30.863  31.063  1.00  0.00     0.167 HD
ATOM     64  C   UNL A   1      41.592  33.423  31.622  1.00  0.00     0.074 A 
ATOM     65  C   UNL A   1      40.658  34.528  31.707  1.00  0.00     0.031 C 
ATOM     66  C   UNL A   1      42.854  33.454  32.115  1.00  0.00     0.031 A 
BRANCH  53  67
ATOM     67  C   UNL A   1      46.049  28.214  31.319  1.00  0.00    -0.014 A 
ATOM     68  C   UNL A   1      47.105  28.250  30.390  1.00  0.00     0.010 A 
ATOM     69  C   UNL A   1      46.203  27.461  32.497  1.00  0.00     0.010 A 
ATOM     70  C   UNL A   1      48.270  27.510  30.610  1.00  0.00     0.020 A 
ATOM     71  C   UNL A   1      47.379  26.743  32.737  1.00  0.00     0.020 A 
ATOM     72  C   UNL A   1      48.397  26.758  31.781  1.00  0.00     0.054 A 
BRANCH  72  73
ATOM     73  S   UNL A   1      49.929  25.825  32.051  1.00  0.00     0.124 S 
ATOM     74  O   UNL A   1      50.790  26.832  32.666  1.00  0.00    -0.237 OA
ATOM     75  O   UNL A   1      49.495  24.746  32.936  1.00  0.00    -0.237 OA
ATOM     76  O   UNL A   1      50.320  25.405  30.708  1.00  0.00    -0.744 OA
ENDBRANCH  72  73
ENDBRANCH  53  67
BRANCH  54  77
ATOM     77  C   UNL A   1      37.284  32.838  29.803  1.00  0.00    -0.014 A 
ATOM     78  C   UNL A   1      36.356  32.902  30.857  1.00  0.00     0.010 A 
ATOM     79  C   UNL A   1      36.964  33.445  28.574  1.00  0.00     0.010 A 
ATOM     80  C   UNL A   1      35.129  33.546  30.684  1.00  0.00     0.020 A 
ATOM     81  C   UNL A   1      35.748  34.114  28.405  1.00  0.00     0.020 A 
ATOM     82  C   UNL A   1      34.833  34.151  29.459  1.00  0.00     0.054 A 
BRANCH  82  83
ATOM     83  S   UNL A   1      33.257  35.031  29.275  1.00  0.00     0.124 S 
ATOM     84  O   UNL A   1      32.717  34.974  30.629  1.00  0.00    -0.237 OA
ATOM     85  O   UNL A   1      33.684  36.351  28.817  1.00  0.00    -0.237 OA
ATOM     86  O   UNL A   1      32.538  34.239  28.278  1.00  0.00    -0.744 OA
ENDBRANCH  82  83
ENDBRANCH  54  77
BRANCH  66  87
ATOM     87  C   UNL A   1      43.305  34.730  32.770  1.00  0.00    -0.014 A 
ATOM     88  C   UNL A   1      43.175  34.918  34.158  1.00  0.00     0.010 A 
ATOM     89  C   UNL A   1      43.918  35.730  31.994  1.00  0.00     0.010 A 
ATOM     90  C   UNL A   1      43.623  36.098  34.753  1.00  0.00     0.020 A 
ATOM     91  C   UNL A   1      44.393  36.899  32.591  1.00  0.00     0.020 A 
ATOM     92  C   UNL A   1      44.229  37.081  33.966  1.00  0.00     0.054 A 
BRANCH  92  93
ATOM     93  S   UNL A   1      44.844  38.585  34.770  1.00  0.00     0.124 S 
ATOM     94  O   UNL A   1      44.361  39.630  33.869  1.00  0.00    -0.237 OA
ATOM     95  O   UNL A   1      44.199  38.537  36.079  1.00  0.00    -0.237 OA
ATOM     96  O   UNL A   1      46.293  38.401  34.788  1.00  0.00    -0.744 OA
ENDBRANCH  92  93
ENDBRANCH  66  87
ENDBRANCH  40  41
ENDBRANCH  32  35
ENDBRANCH  30  31
ENDBRANCH  29  30
ENDBRANCH   1  29
TORSDOF 18
ENDMDL
