MODEL 1
REMARK VINA RESULT:     -10.3      0.000      0.000
REMARK SMILES CCC(CC)(NC(=O)N[C@H](C)C1CC1)C(=O)NCCCNC(=O)c1ccc(-c2c3nc(c(-c4ccc(S(=O)(=O)[O-])cc4)c4ccc([nH]4)c(-c4ccc(S(=O)(=O)[O-])cc4)c4nc(c(-c5ccc(S(=O)(=O)[O-])cc5)c5ccc2[nH]5)C=C4)C=C3)cc1
REMARK SMILES IDX 19 1 18 2 17 3 15 4 16 5 3 7 2 8 1 9 4 10 5 11 6 12 7 13
REMARK SMILES IDX 8 15 9 16 10 18 11 19 12 20 13 21 14 22 20 23 21 24 22 25
REMARK SMILES IDX 23 27 24 28 25 29 83 30 26 31 82 32 27 33 28 34 29 35 76 36
REMARK SMILES IDX 30 37 81 38 75 39 77 40 31 41 80 42 74 43 73 44 32 46 62 47
REMARK SMILES IDX 43 48 61 49 44 50 47 51 60 52 78 53 45 54 46 55 59 57 79 58
REMARK SMILES IDX 48 59 33 60 34 61 42 62 35 63 41 64 36 65 37 66 38 67 39 68
REMARK SMILES IDX 40 69 63 70 64 71 72 72 65 73 71 74 66 75 67 76 68 77 69 78
REMARK SMILES IDX 70 79 49 80 50 81 58 82 51 83 57 84 52 85 53 86 54 87 55 88
REMARK SMILES IDX 56 89
REMARK H PARENT 17 6 6 14 9 17 21 26 77 45 47 56
REMARK Flexibility Score: inf
ROOT
ATOM      1  C   UNL A   1      37.370  23.348  25.898  1.00  0.00     0.042 C 
ENDROOT
BRANCH   1   2
ATOM      2  C   UNL A   1      35.911  23.750  25.671  1.00  0.00     0.117 C 
BRANCH   2   3
ATOM      3  N   UNL A   1      35.458  23.943  24.295  1.00  0.00    -0.354 N 
ATOM      4  C   UNL A   1      34.253  24.337  23.754  1.00  0.00     0.245 C 
ATOM      5  O   UNL A   1      34.304  24.801  22.609  1.00  0.00    -0.272 OA
ATOM      6  H   UNL A   1      36.149  23.754  23.620  1.00  0.00     0.163 HD
BRANCH   4   7
ATOM      7  C   UNL A   1      32.962  24.431  24.608  1.00  0.00     0.120 C 
BRANCH   7   8
ATOM      8  C   UNL A   1      32.470  23.190  25.393  1.00  0.00     0.035 C 
ATOM      9  C   UNL A   1      32.373  23.261  26.903  1.00  0.00     0.007 C 
ENDBRANCH   7   8
BRANCH   7  10
ATOM     10  C   UNL A   1      31.890  24.794  23.508  1.00  0.00     0.035 C 
ATOM     11  C   UNL A   1      30.428  24.926  23.912  1.00  0.00     0.007 C 
ENDBRANCH   7  10
BRANCH   7  12
ATOM     12  N   UNL A   1      33.155  25.511  25.587  1.00  0.00    -0.324 N 
ATOM     13  C   UNL A   1      33.299  26.830  25.547  1.00  0.00     0.315 C 
ATOM     14  H   UNL A   1      33.184  25.168  26.508  1.00  0.00     0.166 HD
ATOM     15  O   UNL A   1      33.609  27.347  26.630  1.00  0.00    -0.249 OA
ATOM     16  N   UNL A   1      33.102  27.695  24.566  1.00  0.00    -0.335 N 
ATOM     17  H   UNL A   1      33.061  28.573  25.010  1.00  0.00     0.165 HD
BRANCH  16  18
ATOM     18  C   UNL A   1      32.913  27.989  23.131  1.00  0.00     0.083 C 
ATOM     19  C   UNL A   1      34.076  28.284  22.196  1.00  0.00     0.031 C 
BRANCH  18  20
ATOM     20  C   UNL A   1      31.742  28.892  22.842  1.00  0.00     0.011 C 
ATOM     21  C   UNL A   1      30.413  28.288  22.445  1.00  0.00     0.006 C 
ATOM     22  C   UNL A   1      30.532  29.058  23.725  1.00  0.00     0.006 C 
ENDBRANCH  18  20
ENDBRANCH  16  18
ENDBRANCH   7  12
ENDBRANCH   4   7
ENDBRANCH   2   3
ENDBRANCH   1   2
BRANCH   1  23
ATOM     23  C   UNL A   1      38.373  24.449  26.190  1.00  0.00     0.118 C 
BRANCH  23  24
ATOM     24  N   UNL A   1      39.751  23.994  26.159  1.00  0.00    -0.352 N 
ATOM     25  C   UNL A   1      40.866  24.509  26.770  1.00  0.00     0.251 C 
ATOM     26  H   UNL A   1      39.910  23.190  25.615  1.00  0.00     0.163 HD
ATOM     27  O   UNL A   1      41.973  24.064  26.467  1.00  0.00    -0.269 OA
BRANCH  25  28
ATOM     28  C   UNL A   1      40.760  25.603  27.762  1.00  0.00     0.039 A 
ATOM     29  C   UNL A   1      39.661  25.617  28.625  1.00  0.00     0.014 A 
ATOM     30  C   UNL A   1      41.703  26.633  27.822  1.00  0.00     0.014 A 
ATOM     31  C   UNL A   1      39.539  26.625  29.586  1.00  0.00     0.010 A 
ATOM     32  C   UNL A   1      41.616  27.601  28.825  1.00  0.00     0.010 A 
ATOM     33  C   UNL A   1      40.532  27.609  29.718  1.00  0.00    -0.014 A 
BRANCH  33  34
ATOM     34  C   UNL A   1      40.454  28.646  30.784  1.00  0.00     0.031 A 
ATOM     35  C   UNL A   1      41.340  28.560  31.999  1.00  0.00     0.074 A 
ATOM     36  C   UNL A   1      39.546  29.637  30.688  1.00  0.00     0.049 A 
ATOM     37  N   UNL A   1      41.361  29.327  33.061  1.00  0.00    -0.248 NA
ATOM     38  C   UNL A   1      42.314  27.458  32.036  1.00  0.00     0.031 C 
ATOM     39  C   UNL A   1      38.609  29.825  29.577  1.00  0.00     0.029 A 
ATOM     40  N   UNL A   1      39.254  30.671  31.544  1.00  0.00    -0.354 N 
ATOM     41  C   UNL A   1      42.333  28.791  33.897  1.00  0.00     0.074 A 
ATOM     42  C   UNL A   1      42.850  27.611  33.239  1.00  0.00     0.031 C 
ATOM     43  C   UNL A   1      37.862  30.916  29.811  1.00  0.00     0.029 A 
ATOM     44  C   UNL A   1      38.232  31.482  31.105  1.00  0.00     0.049 A 
ATOM     45  H   UNL A   1      39.730  30.819  32.393  1.00  0.00     0.167 HD
ATOM     46  C   UNL A   1      42.767  29.246  35.098  1.00  0.00     0.031 A 
ATOM     47  C   UNL A   1      37.647  32.550  31.680  1.00  0.00     0.031 A 
ATOM     48  C   UNL A   1      42.261  30.425  35.751  1.00  0.00     0.049 A 
ATOM     49  C   UNL A   1      38.133  33.025  33.023  1.00  0.00     0.074 A 
ATOM     50  C   UNL A   1      42.673  30.991  36.946  1.00  0.00     0.029 A 
ATOM     51  N   UNL A   1      41.231  31.219  35.268  1.00  0.00    -0.354 N 
ATOM     52  N   UNL A   1      39.090  32.534  33.774  1.00  0.00    -0.248 NA
ATOM     53  C   UNL A   1      37.465  34.205  33.592  1.00  0.00     0.031 C 
ATOM     54  C   UNL A   1      41.859  32.097  37.211  1.00  0.00     0.029 A 
ATOM     55  C   UNL A   1      40.979  32.256  36.152  1.00  0.00     0.049 A 
ATOM     56  H   UNL A   1      40.750  31.068  34.423  1.00  0.00     0.167 HD
ATOM     57  C   UNL A   1      39.158  33.362  34.889  1.00  0.00     0.074 A 
ATOM     58  C   UNL A   1      38.155  34.391  34.709  1.00  0.00     0.031 C 
ATOM     59  C   UNL A   1      39.981  33.278  35.963  1.00  0.00     0.031 A 
BRANCH  46  60
ATOM     60  C   UNL A   1      43.844  28.453  35.795  1.00  0.00    -0.014 A 
ATOM     61  C   UNL A   1      45.206  28.735  35.585  1.00  0.00     0.010 A 
ATOM     62  C   UNL A   1      43.489  27.441  36.705  1.00  0.00     0.010 A 
ATOM     63  C   UNL A   1      46.192  27.988  36.235  1.00  0.00     0.020 A 
ATOM     64  C   UNL A   1      44.472  26.711  37.380  1.00  0.00     0.020 A 
ATOM     65  C   UNL A   1      45.819  26.977  37.125  1.00  0.00     0.054 A 
BRANCH  65  66
ATOM     66  S   UNL A   1      47.120  26.033  37.964  1.00  0.00     0.124 S 
ATOM     67  O   UNL A   1      46.341  25.166  38.845  1.00  0.00    -0.237 OA
ATOM     68  O   UNL A   1      47.793  25.359  36.857  1.00  0.00    -0.237 OA
ATOM     69  O   UNL A   1      47.912  27.058  38.640  1.00  0.00    -0.744 OA
ENDBRANCH  65  66
ENDBRANCH  46  60
BRANCH  47  70
ATOM     70  C   UNL A   1      36.536  33.253  30.982  1.00  0.00    -0.014 A 
ATOM     71  C   UNL A   1      35.241  33.263  31.532  1.00  0.00     0.010 A 
ATOM     72  C   UNL A   1      36.767  33.925  29.767  1.00  0.00     0.010 A 
ATOM     73  C   UNL A   1      34.196  33.915  30.871  1.00  0.00     0.020 A 
ATOM     74  C   UNL A   1      35.731  34.602  29.119  1.00  0.00     0.020 A 
ATOM     75  C   UNL A   1      34.448  34.583  29.669  1.00  0.00     0.054 A 
BRANCH  75  76
ATOM     76  S   UNL A   1      33.088  35.466  28.857  1.00  0.00     0.124 S 
ATOM     77  O   UNL A   1      32.330  35.970  29.998  1.00  0.00    -0.237 OA
ATOM     78  O   UNL A   1      33.791  36.474  28.068  1.00  0.00    -0.237 OA
ATOM     79  O   UNL A   1      32.424  34.426  28.074  1.00  0.00    -0.744 OA
ENDBRANCH  75  76
ENDBRANCH  47  70
BRANCH  59  80
ATOM     80  C   UNL A   1      39.864  34.349  37.016  1.00  0.00    -0.014 A 
ATOM     81  C   UNL A   1      40.533  35.579  36.886  1.00  0.00     0.010 A 
ATOM     82  C   UNL A   1      39.023  34.140  38.125  1.00  0.00     0.010 A 
ATOM     83  C   UNL A   1      40.386  36.569  37.862  1.00  0.00     0.020 A 
ATOM     84  C   UNL A   1      38.852  35.137  39.089  1.00  0.00     0.020 A 
ATOM     85  C   UNL A   1      39.546  36.342  38.958  1.00  0.00     0.054 A 
BRANCH  85  86
ATOM     86  S   UNL A   1      39.335  37.660  40.186  1.00  0.00     0.124 S 
ATOM     87  O   UNL A   1      39.003  36.904  41.390  1.00  0.00    -0.237 OA
ATOM     88  O   UNL A   1      40.645  38.307  40.192  1.00  0.00    -0.237 OA
ATOM     89  O   UNL A   1      38.249  38.472  39.641  1.00  0.00    -0.744 OA
ENDBRANCH  85  86
ENDBRANCH  59  80
ENDBRANCH  33  34
ENDBRANCH  25  28
ENDBRANCH  23  24
ENDBRANCH   1  23
TORSDOF 18
ENDMDL
MODEL 2
REMARK VINA RESULT:     -10.2      4.447     10.333
REMARK SMILES CCC(CC)(NC(=O)N[C@H](C)C1CC1)C(=O)NCCCNC(=O)c1ccc(-c2c3nc(c(-c4ccc(S(=O)(=O)[O-])cc4)c4ccc([nH]4)c(-c4ccc(S(=O)(=O)[O-])cc4)c4nc(c(-c5ccc(S(=O)(=O)[O-])cc5)c5ccc2[nH]5)C=C4)C=C3)cc1
REMARK SMILES IDX 19 1 18 2 17 3 15 4 16 5 3 7 2 8 1 9 4 10 5 11 6 12 7 13
REMARK SMILES IDX 8 15 9 16 10 18 11 19 12 20 13 21 14 22 20 23 21 24 22 25
REMARK SMILES IDX 23 27 24 28 25 29 83 30 26 31 82 32 27 33 28 34 29 35 76 36
REMARK SMILES IDX 30 37 81 38 75 39 77 40 31 41 80 42 74 43 73 44 32 46 62 47
REMARK SMILES IDX 43 48 61 49 44 50 47 51 60 52 78 53 45 54 46 55 59 57 79 58
REMARK SMILES IDX 48 59 33 60 34 61 42 62 35 63 41 64 36 65 37 66 38 67 39 68
REMARK SMILES IDX 40 69 63 70 64 71 72 72 65 73 71 74 66 75 67 76 68 77 69 78
REMARK SMILES IDX 70 79 49 80 50 81 58 82 51 83 57 84 52 85 53 86 54 87 55 88
REMARK SMILES IDX 56 89
REMARK H PARENT 17 6 6 14 9 17 21 26 77 45 47 56
REMARK Flexibility Score: inf
ROOT
ATOM      1  C   UNL A   1      31.956  27.659  27.129  1.00  0.00     0.042 C 
ENDROOT
BRANCH   1   2
ATOM      2  C   UNL A   1      31.184  27.909  25.832  1.00  0.00     0.117 C 
BRANCH   2   3
ATOM      3  N   UNL A   1      30.609  26.756  25.142  1.00  0.00    -0.354 N 
ATOM      4  C   UNL A   1      30.836  26.199  23.902  1.00  0.00     0.245 C 
ATOM      5  O   UNL A   1      30.507  25.013  23.777  1.00  0.00    -0.272 OA
ATOM      6  H   UNL A   1      29.922  26.284  25.666  1.00  0.00     0.163 HD
BRANCH   4   7
ATOM      7  C   UNL A   1      31.675  26.924  22.818  1.00  0.00     0.120 C 
BRANCH   7   8
ATOM      8  C   UNL A   1      32.891  27.786  23.239  1.00  0.00     0.035 C 
ATOM      9  C   UNL A   1      33.908  28.191  22.192  1.00  0.00     0.007 C 
ENDBRANCH   7   8
BRANCH   7  10
ATOM     10  C   UNL A   1      30.589  27.864  22.165  1.00  0.00     0.035 C 
ATOM     11  C   UNL A   1      30.555  29.337  22.548  1.00  0.00     0.007 C 
ENDBRANCH   7  10
BRANCH   7  12
ATOM     12  N   UNL A   1      32.173  25.904  21.885  1.00  0.00    -0.324 N 
ATOM     13  C   UNL A   1      32.958  24.835  21.958  1.00  0.00     0.315 C 
ATOM     14  H   UNL A   1      31.839  26.050  20.971  1.00  0.00     0.166 HD
ATOM     15  O   UNL A   1      33.254  24.339  20.862  1.00  0.00    -0.249 OA
ATOM     16  N   UNL A   1      33.421  24.170  23.002  1.00  0.00    -0.335 N 
ATOM     17  H   UNL A   1      33.732  23.311  22.634  1.00  0.00     0.165 HD
BRANCH  16  18
ATOM     18  C   UNL A   1      33.701  24.084  24.450  1.00  0.00     0.083 C 
ATOM     19  C   UNL A   1      34.789  24.907  25.124  1.00  0.00     0.031 C 
BRANCH  18  20
ATOM     20  C   UNL A   1      33.667  22.680  24.996  1.00  0.00     0.011 C 
ATOM     21  C   UNL A   1      32.342  22.061  25.383  1.00  0.00     0.006 C 
ATOM     22  C   UNL A   1      33.142  21.473  24.262  1.00  0.00     0.006 C 
ENDBRANCH  18  20
ENDBRANCH  16  18
ENDBRANCH   7  12
ENDBRANCH   4   7
ENDBRANCH   2   3
ENDBRANCH   1   2
BRANCH   1  23
ATOM     23  C   UNL A   1      33.332  28.286  27.269  1.00  0.00     0.118 C 
BRANCH  23  24
ATOM     24  N   UNL A   1      33.295  29.732  27.389  1.00  0.00    -0.352 N 
ATOM     25  C   UNL A   1      34.236  30.603  27.876  1.00  0.00     0.251 C 
ATOM     26  H   UNL A   1      32.465  30.154  27.070  1.00  0.00     0.163 HD
ATOM     27  O   UNL A   1      33.927  31.783  28.046  1.00  0.00    -0.269 OA
BRANCH  25  28
ATOM     28  C   UNL A   1      35.600  30.142  28.224  1.00  0.00     0.039 A 
ATOM     29  C   UNL A   1      36.577  30.138  27.225  1.00  0.00     0.014 A 
ATOM     30  C   UNL A   1      35.914  29.677  29.503  1.00  0.00     0.014 A 
ATOM     31  C   UNL A   1      37.880  29.727  27.522  1.00  0.00     0.010 A 
ATOM     32  C   UNL A   1      37.231  29.331  29.816  1.00  0.00     0.010 A 
ATOM     33  C   UNL A   1      38.228  29.351  28.829  1.00  0.00    -0.014 A 
BRANCH  33  34
ATOM     34  C   UNL A   1      39.628  28.982  29.178  1.00  0.00     0.031 A 
ATOM     35  C   UNL A   1      40.543  29.986  29.829  1.00  0.00     0.074 A 
ATOM     36  C   UNL A   1      40.097  27.759  28.859  1.00  0.00     0.049 A 
ATOM     37  N   UNL A   1      41.810  29.869  30.137  1.00  0.00    -0.248 NA
ATOM     38  C   UNL A   1      39.964  31.299  30.158  1.00  0.00     0.031 C 
ATOM     39  C   UNL A   1      39.326  26.700  28.204  1.00  0.00     0.029 A 
ATOM     40  N   UNL A   1      41.340  27.203  29.033  1.00  0.00    -0.354 N 
ATOM     41  C   UNL A   1      42.185  31.094  30.678  1.00  0.00     0.074 A 
ATOM     42  C   UNL A   1      41.022  31.953  30.616  1.00  0.00     0.031 C 
ATOM     43  C   UNL A   1      40.107  25.618  28.051  1.00  0.00     0.029 A 
ATOM     44  C   UNL A   1      41.444  25.918  28.553  1.00  0.00     0.049 A 
ATOM     45  H   UNL A   1      42.088  27.678  29.462  1.00  0.00     0.167 HD
ATOM     46  C   UNL A   1      43.383  31.467  31.190  1.00  0.00     0.031 A 
ATOM     47  C   UNL A   1      42.496  25.078  28.507  1.00  0.00     0.031 A 
ATOM     48  C   UNL A   1      44.538  30.612  31.260  1.00  0.00     0.049 A 
ATOM     49  C   UNL A   1      43.822  25.522  29.065  1.00  0.00     0.074 A 
ATOM     50  C   UNL A   1      45.780  30.887  31.806  1.00  0.00     0.029 A 
ATOM     51  N   UNL A   1      44.597  29.316  30.767  1.00  0.00    -0.354 N 
ATOM     52  N   UNL A   1      44.141  26.667  29.618  1.00  0.00    -0.248 NA
ATOM     53  C   UNL A   1      44.928  24.555  28.999  1.00  0.00     0.031 C 
ATOM     54  C   UNL A   1      46.606  29.777  31.599  1.00  0.00     0.029 A 
ATOM     55  C   UNL A   1      45.861  28.788  30.977  1.00  0.00     0.049 A 
ATOM     56  H   UNL A   1      43.852  28.843  30.333  1.00  0.00     0.167 HD
ATOM     57  C   UNL A   1      45.475  26.548  29.993  1.00  0.00     0.074 A 
ATOM     58  C   UNL A   1      45.899  25.216  29.615  1.00  0.00     0.031 C 
ATOM     59  C   UNL A   1      46.273  27.460  30.600  1.00  0.00     0.031 A 
BRANCH  46  60
ATOM     60  C   UNL A   1      43.509  32.877  31.709  1.00  0.00    -0.014 A 
ATOM     61  C   UNL A   1      43.267  33.178  33.062  1.00  0.00     0.010 A 
ATOM     62  C   UNL A   1      43.915  33.908  30.843  1.00  0.00     0.010 A 
ATOM     63  C   UNL A   1      43.383  34.491  33.527  1.00  0.00     0.020 A 
ATOM     64  C   UNL A   1      44.062  35.217  31.311  1.00  0.00     0.020 A 
ATOM     65  C   UNL A   1      43.775  35.504  32.647  1.00  0.00     0.054 A 
BRANCH  65  66
ATOM     66  S   UNL A   1      43.931  37.196  33.281  1.00  0.00     0.124 S 
ATOM     67  O   UNL A   1      43.953  37.978  32.047  1.00  0.00    -0.237 OA
ATOM     68  O   UNL A   1      42.728  37.345  34.097  1.00  0.00    -0.237 OA
ATOM     69  O   UNL A   1      45.187  37.173  34.027  1.00  0.00    -0.744 OA
ENDBRANCH  65  66
ENDBRANCH  46  60
BRANCH  47  70
ATOM     70  C   UNL A   1      42.338  23.721  27.915  1.00  0.00    -0.014 A 
ATOM     71  C   UNL A   1      42.502  23.522  26.532  1.00  0.00     0.010 A 
ATOM     72  C   UNL A   1      42.029  22.617  28.731  1.00  0.00     0.010 A 
ATOM     73  C   UNL A   1      42.343  22.250  25.976  1.00  0.00     0.020 A 
ATOM     74  C   UNL A   1      41.898  21.339  28.182  1.00  0.00     0.020 A 
ATOM     75  C   UNL A   1      42.044  21.165  26.804  1.00  0.00     0.054 A 
BRANCH  75  76
ATOM     76  S   UNL A   1      41.895  19.515  26.066  1.00  0.00     0.124 S 
ATOM     77  O   UNL A   1      42.791  19.614  24.919  1.00  0.00    -0.237 OA
ATOM     78  O   UNL A   1      42.345  18.643  27.148  1.00  0.00    -0.237 OA
ATOM     79  O   UNL A   1      40.473  19.412  25.745  1.00  0.00    -0.744 OA
ENDBRANCH  75  76
ENDBRANCH  47  70
BRANCH  59  80
ATOM     80  C   UNL A   1      47.682  27.040  30.932  1.00  0.00    -0.014 A 
ATOM     81  C   UNL A   1      47.991  26.419  32.155  1.00  0.00     0.010 A 
ATOM     82  C   UNL A   1      48.701  27.221  29.978  1.00  0.00     0.010 A 
ATOM     83  C   UNL A   1      49.300  26.013  32.429  1.00  0.00     0.020 A 
ATOM     84  C   UNL A   1      50.005  26.792  30.237  1.00  0.00     0.020 A 
ATOM     85  C   UNL A   1      50.299  26.202  31.468  1.00  0.00     0.054 A 
BRANCH  85  86
ATOM     86  S   UNL A   1      51.980  25.622  31.829  1.00  0.00     0.124 S 
ATOM     87  O   UNL A   1      51.775  24.188  32.010  1.00  0.00    -0.237 OA
ATOM     88  O   UNL A   1      52.717  26.004  30.626  1.00  0.00    -0.237 OA
ATOM     89  O   UNL A   1      52.349  26.357  33.037  1.00  0.00    -0.744 OA
ENDBRANCH  85  86
ENDBRANCH  59  80
ENDBRANCH  33  34
ENDBRANCH  25  28
ENDBRANCH  23  24
ENDBRANCH   1  23
TORSDOF 18
ENDMDL
MODEL 3
REMARK VINA RESULT:     -10.1      6.258      8.330
REMARK SMILES CCC(CC)(NC(=O)N[C@H](C)C1CC1)C(=O)NCCCNC(=O)c1ccc(-c2c3nc(c(-c4ccc(S(=O)(=O)[O-])cc4)c4ccc([nH]4)c(-c4ccc(S(=O)(=O)[O-])cc4)c4nc(c(-c5ccc(S(=O)(=O)[O-])cc5)c5ccc2[nH]5)C=C4)C=C3)cc1
REMARK SMILES IDX 19 1 18 2 17 3 15 4 16 5 3 7 2 8 1 9 4 10 5 11 6 12 7 13
REMARK SMILES IDX 8 15 9 16 10 18 11 19 12 20 13 21 14 22 20 23 21 24 22 25
REMARK SMILES IDX 23 27 24 28 25 29 83 30 26 31 82 32 27 33 28 34 29 35 76 36
REMARK SMILES IDX 30 37 81 38 75 39 77 40 31 41 80 42 74 43 73 44 32 46 62 47
REMARK SMILES IDX 43 48 61 49 44 50 47 51 60 52 78 53 45 54 46 55 59 57 79 58
REMARK SMILES IDX 48 59 33 60 34 61 42 62 35 63 41 64 36 65 37 66 38 67 39 68
REMARK SMILES IDX 40 69 63 70 64 71 72 72 65 73 71 74 66 75 67 76 68 77 69 78
REMARK SMILES IDX 70 79 49 80 50 81 58 82 51 83 57 84 52 85 53 86 54 87 55 88
REMARK SMILES IDX 56 89
REMARK H PARENT 17 6 6 14 9 17 21 26 77 45 47 56
REMARK Flexibility Score: inf
ROOT
ATOM      1  C   UNL A   1      38.160  19.951  25.006  1.00  0.00     0.042 C 
ENDROOT
BRANCH   1   2
ATOM      2  C   UNL A   1      36.792  20.635  24.985  1.00  0.00     0.117 C 
BRANCH   2   3
ATOM      3  N   UNL A   1      35.601  19.796  25.102  1.00  0.00    -0.354 N 
ATOM      4  C   UNL A   1      34.253  20.068  25.015  1.00  0.00     0.245 C 
ATOM      5  O   UNL A   1      33.527  19.104  24.744  1.00  0.00    -0.272 OA
ATOM      6  H   UNL A   1      35.802  18.848  25.278  1.00  0.00     0.163 HD
BRANCH   4   7
ATOM      7  C   UNL A   1      33.708  21.520  25.005  1.00  0.00     0.120 C 
BRANCH   7   8
ATOM      8  C   UNL A   1      34.001  22.457  26.202  1.00  0.00     0.035 C 
ATOM      9  C   UNL A   1      34.109  21.868  27.594  1.00  0.00     0.007 C 
ENDBRANCH   7   8
BRANCH   7  10
ATOM     10  C   UNL A   1      32.153  21.265  24.928  1.00  0.00     0.035 C 
ATOM     11  C   UNL A   1      31.222  22.090  25.805  1.00  0.00     0.007 C 
ENDBRANCH   7  10
BRANCH   7  12
ATOM     12  N   UNL A   1      34.232  22.182  23.802  1.00  0.00    -0.324 N 
ATOM     13  C   UNL A   1      33.912  23.245  23.073  1.00  0.00     0.315 C 
ATOM     14  H   UNL A   1      35.025  21.720  23.446  1.00  0.00     0.166 HD
ATOM     15  O   UNL A   1      34.545  23.351  22.013  1.00  0.00    -0.249 OA
ATOM     16  N   UNL A   1      33.082  24.245  23.315  1.00  0.00    -0.335 N 
ATOM     17  H   UNL A   1      33.329  24.940  22.663  1.00  0.00     0.165 HD
BRANCH  16  18
ATOM     18  C   UNL A   1      31.965  24.830  24.086  1.00  0.00     0.083 C 
ATOM     19  C   UNL A   1      30.572  25.006  23.502  1.00  0.00     0.031 C 
BRANCH  18  20
ATOM     20  C   UNL A   1      32.359  26.021  24.921  1.00  0.00     0.011 C 
ATOM     21  C   UNL A   1      32.333  25.917  26.429  1.00  0.00     0.006 C 
ATOM     22  C   UNL A   1      33.632  26.144  25.718  1.00  0.00     0.006 C 
ENDBRANCH  18  20
ENDBRANCH  16  18
ENDBRANCH   7  12
ENDBRANCH   4   7
ENDBRANCH   2   3
ENDBRANCH   1   2
BRANCH   1  23
ATOM     23  C   UNL A   1      39.192  20.455  25.998  1.00  0.00     0.118 C 
BRANCH  23  24
ATOM     24  N   UNL A   1      40.349  19.586  26.116  1.00  0.00    -0.352 N 
ATOM     25  C   UNL A   1      41.677  19.898  26.263  1.00  0.00     0.251 C 
ATOM     26  H   UNL A   1      40.150  18.623  26.086  1.00  0.00     0.163 HD
ATOM     27  O   UNL A   1      42.515  19.001  26.168  1.00  0.00    -0.269 OA
BRANCH  25  28
ATOM     28  C   UNL A   1      42.115  21.291  26.506  1.00  0.00     0.039 A 
ATOM     29  C   UNL A   1      42.375  21.689  27.820  1.00  0.00     0.014 A 
ATOM     30  C   UNL A   1      42.232  22.216  25.465  1.00  0.00     0.014 A 
ATOM     31  C   UNL A   1      42.809  22.991  28.084  1.00  0.00     0.010 A 
ATOM     32  C   UNL A   1      42.729  23.496  25.722  1.00  0.00     0.010 A 
ATOM     33  C   UNL A   1      43.022  23.898  27.034  1.00  0.00    -0.014 A 
BRANCH  33  34
ATOM     34  C   UNL A   1      43.554  25.265  27.291  1.00  0.00     0.031 A 
ATOM     35  C   UNL A   1      45.005  25.580  27.039  1.00  0.00     0.074 A 
ATOM     36  C   UNL A   1      42.745  26.212  27.807  1.00  0.00     0.049 A 
ATOM     37  N   UNL A   1      45.662  26.689  27.273  1.00  0.00    -0.248 NA
ATOM     38  C   UNL A   1      45.830  24.504  26.467  1.00  0.00     0.031 C 
ATOM     39  C   UNL A   1      41.326  26.034  28.123  1.00  0.00     0.029 A 
ATOM     40  N   UNL A   1      43.003  27.512  28.166  1.00  0.00    -0.354 N 
ATOM     41  C   UNL A   1      46.976  26.439  26.896  1.00  0.00     0.074 A 
ATOM     42  C   UNL A   1      47.033  25.061  26.458  1.00  0.00     0.031 C 
ATOM     43  C   UNL A   1      40.836  27.186  28.610  1.00  0.00     0.029 A 
ATOM     44  C   UNL A   1      41.911  28.171  28.683  1.00  0.00     0.049 A 
ATOM     45  H   UNL A   1      43.886  27.935  28.064  1.00  0.00     0.167 HD
ATOM     46  C   UNL A   1      48.039  27.281  26.902  1.00  0.00     0.031 A 
ATOM     47  C   UNL A   1      41.787  29.419  29.174  1.00  0.00     0.031 A 
ATOM     48  C   UNL A   1      47.983  28.655  27.330  1.00  0.00     0.049 A 
ATOM     49  C   UNL A   1      42.985  30.330  29.189  1.00  0.00     0.074 A 
ATOM     50  C   UNL A   1      48.995  29.599  27.325  1.00  0.00     0.029 A 
ATOM     51  N   UNL A   1      46.856  29.282  27.840  1.00  0.00    -0.354 N 
ATOM     52  N   UNL A   1      44.208  30.090  28.780  1.00  0.00    -0.248 NA
ATOM     53  C   UNL A   1      42.783  31.685  29.723  1.00  0.00     0.031 C 
ATOM     54  C   UNL A   1      48.495  30.781  27.880  1.00  0.00     0.029 A 
ATOM     55  C   UNL A   1      47.155  30.593  28.175  1.00  0.00     0.049 A 
ATOM     56  H   UNL A   1      45.975  28.858  27.949  1.00  0.00     0.167 HD
ATOM     57  C   UNL A   1      44.913  31.272  28.980  1.00  0.00     0.074 A 
ATOM     58  C   UNL A   1      43.978  32.229  29.534  1.00  0.00     0.031 C 
ATOM     59  C   UNL A   1      46.217  31.539  28.723  1.00  0.00     0.031 A 
BRANCH  46  60
ATOM     60  C   UNL A   1      49.365  26.733  26.440  1.00  0.00    -0.014 A 
ATOM     61  C   UNL A   1      49.808  26.922  25.118  1.00  0.00     0.010 A 
ATOM     62  C   UNL A   1      50.197  26.056  27.349  1.00  0.00     0.010 A 
ATOM     63  C   UNL A   1      51.038  26.404  24.702  1.00  0.00     0.020 A 
ATOM     64  C   UNL A   1      51.442  25.562  26.945  1.00  0.00     0.020 A 
ATOM     65  C   UNL A   1      51.845  25.723  25.619  1.00  0.00     0.054 A 
BRANCH  65  66
ATOM     66  S   UNL A   1      53.442  25.072  25.055  1.00  0.00     0.124 S 
ATOM     67  O   UNL A   1      53.466  25.503  23.659  1.00  0.00    -0.237 OA
ATOM     68  O   UNL A   1      54.392  25.746  25.936  1.00  0.00    -0.237 OA
ATOM     69  O   UNL A   1      53.322  23.631  25.260  1.00  0.00    -0.744 OA
ENDBRANCH  65  66
ENDBRANCH  46  60
BRANCH  47  70
ATOM     70  C   UNL A   1      40.470  29.887  29.689  1.00  0.00    -0.014 A 
ATOM     71  C   UNL A   1      40.257  30.034  31.072  1.00  0.00     0.010 A 
ATOM     72  C   UNL A   1      39.425  30.196  28.800  1.00  0.00     0.010 A 
ATOM     73  C   UNL A   1      39.017  30.464  31.555  1.00  0.00     0.020 A 
ATOM     74  C   UNL A   1      38.195  30.654  29.278  1.00  0.00     0.020 A 
ATOM     75  C   UNL A   1      37.994  30.774  30.654  1.00  0.00     0.054 A 
BRANCH  75  76
ATOM     76  S   UNL A   1      36.412  31.380  31.303  1.00  0.00     0.124 S 
ATOM     77  O   UNL A   1      36.032  30.313  32.222  1.00  0.00    -0.237 OA
ATOM     78  O   UNL A   1      36.790  32.648  31.924  1.00  0.00    -0.237 OA
ATOM     79  O   UNL A   1      35.580  31.506  30.108  1.00  0.00    -0.744 OA
ENDBRANCH  75  76
ENDBRANCH  47  70
BRANCH  59  80
ATOM     80  C   UNL A   1      46.709  32.936  29.001  1.00  0.00    -0.014 A 
ATOM     81  C   UNL A   1      46.621  33.950  28.031  1.00  0.00     0.010 A 
ATOM     82  C   UNL A   1      47.216  33.250  30.276  1.00  0.00     0.010 A 
ATOM     83  C   UNL A   1      47.057  35.245  28.321  1.00  0.00     0.020 A 
ATOM     84  C   UNL A   1      47.628  34.550  30.579  1.00  0.00     0.020 A 
ATOM     85  C   UNL A   1      47.559  35.538  29.594  1.00  0.00     0.054 A 
BRANCH  85  86
ATOM     86  S   UNL A   1      48.075  37.237  29.962  1.00  0.00     0.124 S 
ATOM     87  O   UNL A   1      47.491  37.980  28.848  1.00  0.00    -0.237 OA
ATOM     88  O   UNL A   1      47.467  37.483  31.268  1.00  0.00    -0.237 OA
ATOM     89  O   UNL A   1      49.535  37.164  29.965  1.00  0.00    -0.744 OA
ENDBRANCH  85  86
ENDBRANCH  59  80
ENDBRANCH  33  34
ENDBRANCH  25  28
ENDBRANCH  23  24
ENDBRANCH   1  23
TORSDOF 18
ENDMDL
