MODEL 1
REMARK VINA RESULT:     -10.7      0.000      0.000
REMARK SMILES CC[C@@H](C)[C@H](NC(=O)CCc1ccc(F)c(F)c1)C(=O)NCCCNC(=O)c1ccc(-c2c3nc(c(-c4ccc(S(=O)(=O)[O-])cc4)c4ccc([nH]4)c(-c4ccc(S(=O)(=O)[O-])cc4)c4nc(c(-c5ccc(S(=O)(=O)[O-])cc5)c5ccc2[nH]5)C=C4)C=C3)cc1
REMARK SMILES IDX 22 1 21 2 19 3 20 4 5 6 3 7 4 8 2 9 1 10 6 11 7 12 8 14 9 15
REMARK SMILES IDX 10 16 11 17 12 18 18 19 13 20 16 21 14 22 17 23 15 24 23 25
REMARK SMILES IDX 24 26 25 27 26 28 27 30 28 31 29 32 87 33 30 34 86 35 31 36
REMARK SMILES IDX 32 37 33 38 80 39 34 40 85 41 79 42 81 43 35 44 84 45 78 46
REMARK SMILES IDX 77 47 36 49 66 50 47 51 65 52 48 53 51 54 64 55 82 56 49 57
REMARK SMILES IDX 50 58 63 60 83 61 52 62 37 63 38 64 46 65 39 66 45 67 40 68
REMARK SMILES IDX 41 69 42 70 43 71 44 72 67 73 68 74 76 75 69 76 75 77 70 78
REMARK SMILES IDX 71 79 72 80 73 81 74 82 53 83 54 84 62 85 55 86 61 87 56 88
REMARK SMILES IDX 57 89 58 90 59 91 60 92
REMARK H PARENT 21 5 6 13 25 29 81 48 51 59
REMARK Flexibility Score: inf
ROOT
ATOM      1  C   UNL A   1      37.231  21.292  24.659  1.00  0.00     0.117 C 
ENDROOT
BRANCH   1   2
ATOM      2  N   UNL A   1      37.611  22.547  25.262  1.00  0.00    -0.354 N 
ATOM      3  C   UNL A   1      36.848  23.563  25.728  1.00  0.00     0.242 C 
ATOM      4  O   UNL A   1      37.433  24.432  26.384  1.00  0.00    -0.273 OA
ATOM      5  H   UNL A   1      38.582  22.687  25.348  1.00  0.00     0.163 HD
BRANCH   3   6
ATOM      6  C   UNL A   1      35.314  23.590  25.580  1.00  0.00     0.174 C 
BRANCH   6   7
ATOM      7  C   UNL A   1      34.810  24.795  24.702  1.00  0.00     0.018 C 
ATOM      8  C   UNL A   1      33.975  25.802  25.505  1.00  0.00     0.010 C 
BRANCH   7   9
ATOM      9  C   UNL A   1      34.173  24.454  23.329  1.00  0.00     0.002 C 
ATOM     10  C   UNL A   1      34.197  22.993  22.888  1.00  0.00     0.004 C 
ENDBRANCH   7   9
ENDBRANCH   6   7
BRANCH   6  11
ATOM     11  N   UNL A   1      34.496  23.405  26.795  1.00  0.00    -0.344 N 
ATOM     12  C   UNL A   1      33.438  22.562  26.989  1.00  0.00     0.220 C 
ATOM     13  H   UNL A   1      34.746  23.963  27.568  1.00  0.00     0.164 HD
ATOM     14  O   UNL A   1      32.478  22.982  27.638  1.00  0.00    -0.275 OA
BRANCH  12  15
ATOM     15  C   UNL A   1      33.481  21.123  26.515  1.00  0.00     0.105 C 
BRANCH  15  16
ATOM     16  C   UNL A   1      32.618  20.822  25.294  1.00  0.00     0.045 C 
BRANCH  16  17
ATOM     17  C   UNL A   1      33.087  19.606  24.537  1.00  0.00    -0.044 A 
ATOM     18  C   UNL A   1      32.336  19.084  23.472  1.00  0.00     0.007 A 
ATOM     19  C   UNL A   1      34.254  18.941  24.943  1.00  0.00     0.046 A 
ATOM     20  C   UNL A   1      32.728  17.896  22.848  1.00  0.00     0.043 A 
ATOM     21  C   UNL A   1      34.623  17.750  24.330  1.00  0.00     0.159 A 
ATOM     22  C   UNL A   1      33.863  17.227  23.293  1.00  0.00     0.158 A 
ATOM     23  F   UNL A   1      35.700  17.091  24.779  1.00  0.00    -0.204 F 
ATOM     24  F   UNL A   1      34.211  16.065  22.723  1.00  0.00    -0.204 F 
ENDBRANCH  16  17
ENDBRANCH  15  16
ENDBRANCH  12  15
ENDBRANCH   6  11
ENDBRANCH   3   6
ENDBRANCH   1   2
BRANCH   1  25
ATOM     25  C   UNL A   1      38.106  20.118  25.049  1.00  0.00     0.042 C 
BRANCH  25  26
ATOM     26  C   UNL A   1      39.265  20.513  25.942  1.00  0.00     0.118 C 
BRANCH  26  27
ATOM     27  N   UNL A   1      40.301  19.486  25.964  1.00  0.00    -0.352 N 
ATOM     28  C   UNL A   1      41.664  19.646  26.026  1.00  0.00     0.251 C 
ATOM     29  H   UNL A   1      39.980  18.556  25.929  1.00  0.00     0.163 HD
ATOM     30  O   UNL A   1      42.410  18.722  25.708  1.00  0.00    -0.269 OA
BRANCH  28  31
ATOM     31  C   UNL A   1      42.211  20.942  26.464  1.00  0.00     0.039 A 
ATOM     32  C   UNL A   1      42.389  21.208  27.824  1.00  0.00     0.014 A 
ATOM     33  C   UNL A   1      42.561  21.892  25.506  1.00  0.00     0.014 A 
ATOM     34  C   UNL A   1      42.976  22.414  28.215  1.00  0.00     0.010 A 
ATOM     35  C   UNL A   1      43.254  23.027  25.887  1.00  0.00     0.010 A 
ATOM     36  C   UNL A   1      43.437  23.320  27.246  1.00  0.00    -0.014 A 
BRANCH  36  37
ATOM     37  C   UNL A   1      44.038  24.631  27.588  1.00  0.00     0.031 A 
ATOM     38  C   UNL A   1      43.126  25.753  28.010  1.00  0.00     0.074 A 
ATOM     39  C   UNL A   1      45.352  24.854  27.397  1.00  0.00     0.049 A 
ATOM     40  N   UNL A   1      43.380  27.030  28.130  1.00  0.00    -0.248 NA
ATOM     41  C   UNL A   1      41.721  25.393  28.272  1.00  0.00     0.031 C 
ATOM     42  C   UNL A   1      46.330  23.858  26.958  1.00  0.00     0.029 A 
ATOM     43  N   UNL A   1      46.084  26.008  27.523  1.00  0.00    -0.354 N 
ATOM     44  C   UNL A   1      42.160  27.626  28.426  1.00  0.00     0.074 A 
ATOM     45  C   UNL A   1      41.159  26.584  28.405  1.00  0.00     0.031 C 
ATOM     46  C   UNL A   1      47.536  24.440  26.863  1.00  0.00     0.029 A 
ATOM     47  C   UNL A   1      47.408  25.859  27.183  1.00  0.00     0.049 A 
ATOM     48  H   UNL A   1      45.698  26.860  27.828  1.00  0.00     0.167 HD
ATOM     49  C   UNL A   1      41.897  28.924  28.708  1.00  0.00     0.031 A 
ATOM     50  C   UNL A   1      48.399  26.769  27.117  1.00  0.00     0.031 A 
ATOM     51  C   UNL A   1      42.908  29.942  28.763  1.00  0.00     0.049 A 
ATOM     52  C   UNL A   1      48.100  28.201  27.466  1.00  0.00     0.074 A 
ATOM     53  C   UNL A   1      42.772  31.275  29.106  1.00  0.00     0.029 A 
ATOM     54  N   UNL A   1      44.250  29.735  28.475  1.00  0.00    -0.354 N 
ATOM     55  N   UNL A   1      46.950  28.746  27.787  1.00  0.00    -0.248 NA
ATOM     56  C   UNL A   1      49.229  29.140  27.457  1.00  0.00     0.031 C 
ATOM     57  C   UNL A   1      44.025  31.883  28.985  1.00  0.00     0.029 A 
ATOM     58  C   UNL A   1      44.952  30.917  28.624  1.00  0.00     0.049 A 
ATOM     59  H   UNL A   1      44.643  28.874  28.205  1.00  0.00     0.167 HD
ATOM     60  C   UNL A   1      47.223  30.083  28.054  1.00  0.00     0.074 A 
ATOM     61  C   UNL A   1      48.648  30.264  27.855  1.00  0.00     0.031 C 
ATOM     62  C   UNL A   1      46.374  31.068  28.436  1.00  0.00     0.031 A 
BRANCH  49  63
ATOM     63  C   UNL A   1      40.460  29.298  28.964  1.00  0.00    -0.014 A 
ATOM     64  C   UNL A   1      39.508  29.303  27.928  1.00  0.00     0.010 A 
ATOM     65  C   UNL A   1      40.057  29.670  30.260  1.00  0.00     0.010 A 
ATOM     66  C   UNL A   1      38.204  29.746  28.163  1.00  0.00     0.020 A 
ATOM     67  C   UNL A   1      38.743  30.078  30.508  1.00  0.00     0.020 A 
ATOM     68  C   UNL A   1      37.833  30.141  29.452  1.00  0.00     0.054 A 
BRANCH  68  69
ATOM     69  S   UNL A   1      36.141  30.733  29.727  1.00  0.00     0.124 S 
ATOM     70  O   UNL A   1      35.611  29.714  30.629  1.00  0.00    -0.237 OA
ATOM     71  O   UNL A   1      36.354  32.049  30.325  1.00  0.00    -0.237 OA
ATOM     72  O   UNL A   1      35.556  30.747  28.389  1.00  0.00    -0.744 OA
ENDBRANCH  68  69
ENDBRANCH  49  63
BRANCH  50  73
ATOM     73  C   UNL A   1      49.769  26.331  26.733  1.00  0.00    -0.014 A 
ATOM     74  C   UNL A   1      50.174  26.368  25.387  1.00  0.00     0.010 A 
ATOM     75  C   UNL A   1      50.697  25.939  27.716  1.00  0.00     0.010 A 
ATOM     76  C   UNL A   1      51.481  26.022  25.030  1.00  0.00     0.020 A 
ATOM     77  C   UNL A   1      52.012  25.617  27.365  1.00  0.00     0.020 A 
ATOM     78  C   UNL A   1      52.395  25.658  26.023  1.00  0.00     0.054 A 
BRANCH  78  79
ATOM     79  S   UNL A   1      54.109  25.305  25.544  1.00  0.00     0.124 S 
ATOM     80  O   UNL A   1      54.522  26.567  24.940  1.00  0.00    -0.237 OA
ATOM     81  O   UNL A   1      54.733  24.981  26.824  1.00  0.00    -0.237 OA
ATOM     82  O   UNL A   1      53.980  24.180  24.620  1.00  0.00    -0.744 OA
ENDBRANCH  78  79
ENDBRANCH  50  73
BRANCH  62  83
ATOM     83  C   UNL A   1      46.958  32.423  28.727  1.00  0.00    -0.014 A 
ATOM     84  C   UNL A   1      47.477  32.742  29.993  1.00  0.00     0.010 A 
ATOM     85  C   UNL A   1      47.087  33.351  27.676  1.00  0.00     0.010 A 
ATOM     86  C   UNL A   1      48.108  33.970  30.205  1.00  0.00     0.020 A 
ATOM     87  C   UNL A   1      47.740  34.569  27.878  1.00  0.00     0.020 A 
ATOM     88  C   UNL A   1      48.242  34.873  29.144  1.00  0.00     0.054 A 
BRANCH  88  89
ATOM     89  S   UNL A   1      49.140  36.423  29.424  1.00  0.00     0.124 S 
ATOM     90  O   UNL A   1      48.268  37.400  28.780  1.00  0.00    -0.237 OA
ATOM     91  O   UNL A   1      49.202  36.498  30.881  1.00  0.00    -0.237 OA
ATOM     92  O   UNL A   1      50.425  36.203  28.764  1.00  0.00    -0.744 OA
ENDBRANCH  88  89
ENDBRANCH  62  83
ENDBRANCH  36  37
ENDBRANCH  28  31
ENDBRANCH  26  27
ENDBRANCH  25  26
ENDBRANCH   1  25
TORSDOF 19
ENDMDL
MODEL 2
REMARK VINA RESULT:     -10.6      4.459      9.966
REMARK SMILES CC[C@@H](C)[C@H](NC(=O)CCc1ccc(F)c(F)c1)C(=O)NCCCNC(=O)c1ccc(-c2c3nc(c(-c4ccc(S(=O)(=O)[O-])cc4)c4ccc([nH]4)c(-c4ccc(S(=O)(=O)[O-])cc4)c4nc(c(-c5ccc(S(=O)(=O)[O-])cc5)c5ccc2[nH]5)C=C4)C=C3)cc1
REMARK SMILES IDX 22 1 21 2 19 3 20 4 5 6 3 7 4 8 2 9 1 10 6 11 7 12 8 14 9 15
REMARK SMILES IDX 10 16 11 17 12 18 18 19 13 20 16 21 14 22 17 23 15 24 23 25
REMARK SMILES IDX 24 26 25 27 26 28 27 30 28 31 29 32 87 33 30 34 86 35 31 36
REMARK SMILES IDX 32 37 33 38 80 39 34 40 85 41 79 42 81 43 35 44 84 45 78 46
REMARK SMILES IDX 77 47 36 49 66 50 47 51 65 52 48 53 51 54 64 55 82 56 49 57
REMARK SMILES IDX 50 58 63 60 83 61 52 62 37 63 38 64 46 65 39 66 45 67 40 68
REMARK SMILES IDX 41 69 42 70 43 71 44 72 67 73 68 74 76 75 69 76 75 77 70 78
REMARK SMILES IDX 71 79 72 80 73 81 74 82 53 83 54 84 62 85 55 86 61 87 56 88
REMARK SMILES IDX 57 89 58 90 59 91 60 92
REMARK H PARENT 21 5 6 13 25 29 81 48 51 59
REMARK Flexibility Score: inf
ROOT
ATOM      1  C   UNL A   1      35.459  22.385  24.526  1.00  0.00     0.117 C 
ENDROOT
BRANCH   1   2
ATOM      2  N   UNL A   1      34.427  22.612  23.543  1.00  0.00    -0.354 N 
ATOM      3  C   UNL A   1      33.087  22.440  23.622  1.00  0.00     0.242 C 
ATOM      4  O   UNL A   1      32.418  22.910  22.695  1.00  0.00    -0.273 OA
ATOM      5  H   UNL A   1      34.750  22.946  22.674  1.00  0.00     0.163 HD
BRANCH   3   6
ATOM      6  C   UNL A   1      32.398  21.819  24.851  1.00  0.00     0.174 C 
BRANCH   6   7
ATOM      7  C   UNL A   1      32.148  20.273  24.691  1.00  0.00     0.018 C 
ATOM      8  C   UNL A   1      32.952  19.437  25.697  1.00  0.00     0.010 C 
BRANCH   7   9
ATOM      9  C   UNL A   1      32.207  19.691  23.253  1.00  0.00     0.002 C 
ATOM     10  C   UNL A   1      32.579  18.217  23.108  1.00  0.00     0.004 C 
ENDBRANCH   7   9
ENDBRANCH   6   7
BRANCH   6  11
ATOM     11  N   UNL A   1      31.226  22.516  25.417  1.00  0.00    -0.344 N 
ATOM     12  C   UNL A   1      31.172  23.351  26.498  1.00  0.00     0.220 C 
ATOM     13  H   UNL A   1      30.371  22.359  24.956  1.00  0.00     0.164 HD
ATOM     14  O   UNL A   1      30.203  23.255  27.253  1.00  0.00    -0.275 OA
BRANCH  12  15
ATOM     15  C   UNL A   1      32.213  24.432  26.710  1.00  0.00     0.105 C 
BRANCH  15  16
ATOM     16  C   UNL A   1      31.707  25.858  26.524  1.00  0.00     0.045 C 
BRANCH  16  17
ATOM     17  C   UNL A   1      32.500  26.628  25.499  1.00  0.00    -0.044 A 
ATOM     18  C   UNL A   1      32.693  28.013  25.625  1.00  0.00     0.007 A 
ATOM     19  C   UNL A   1      32.994  25.968  24.364  1.00  0.00     0.046 A 
ATOM     20  C   UNL A   1      33.339  28.730  24.614  1.00  0.00     0.043 A 
ATOM     21  C   UNL A   1      33.617  26.694  23.355  1.00  0.00     0.159 A 
ATOM     22  C   UNL A   1      33.784  28.066  23.476  1.00  0.00     0.158 A 
ATOM     23  F   UNL A   1      34.019  26.058  22.246  1.00  0.00    -0.204 F 
ATOM     24  F   UNL A   1      34.363  28.763  22.489  1.00  0.00    -0.204 F 
ENDBRANCH  16  17
ENDBRANCH  15  16
ENDBRANCH  12  15
ENDBRANCH   6  11
ENDBRANCH   3   6
ENDBRANCH   1   2
BRANCH   1  25
ATOM     25  C   UNL A   1      35.538  23.440  25.610  1.00  0.00     0.042 C 
BRANCH  25  26
ATOM     26  C   UNL A   1      36.936  23.998  25.794  1.00  0.00     0.118 C 
BRANCH  26  27
ATOM     27  N   UNL A   1      37.911  22.938  26.023  1.00  0.00    -0.352 N 
ATOM     28  C   UNL A   1      39.225  23.051  26.409  1.00  0.00     0.251 C 
ATOM     29  H   UNL A   1      37.585  22.020  25.882  1.00  0.00     0.163 HD
ATOM     30  O   UNL A   1      40.002  22.113  26.244  1.00  0.00    -0.269 OA
BRANCH  28  31
ATOM     31  C   UNL A   1      39.685  24.316  27.009  1.00  0.00     0.039 A 
ATOM     32  C   UNL A   1      40.376  25.253  26.237  1.00  0.00     0.014 A 
ATOM     33  C   UNL A   1      39.409  24.573  28.351  1.00  0.00     0.014 A 
ATOM     34  C   UNL A   1      40.740  26.476  26.806  1.00  0.00     0.010 A 
ATOM     35  C   UNL A   1      39.658  25.828  28.875  1.00  0.00     0.010 A 
ATOM     36  C   UNL A   1      40.359  26.781  28.122  1.00  0.00    -0.014 A 
BRANCH  36  37
ATOM     37  C   UNL A   1      40.738  28.045  28.800  1.00  0.00     0.031 A 
ATOM     38  C   UNL A   1      42.074  28.117  29.492  1.00  0.00     0.074 A 
ATOM     39  C   UNL A   1      39.856  29.055  28.910  1.00  0.00     0.049 A 
ATOM     40  N   UNL A   1      42.526  29.007  30.335  1.00  0.00    -0.248 NA
ATOM     41  C   UNL A   1      43.002  26.998  29.244  1.00  0.00     0.031 C 
ATOM     42  C   UNL A   1      38.519  29.089  28.315  1.00  0.00     0.029 A 
ATOM     43  N   UNL A   1      39.948  30.242  29.592  1.00  0.00    -0.354 N 
ATOM     44  C   UNL A   1      43.761  28.527  30.757  1.00  0.00     0.074 A 
ATOM     45  C   UNL A   1      43.958  27.243  30.127  1.00  0.00     0.031 C 
ATOM     46  C   UNL A   1      37.921  30.244  28.648  1.00  0.00     0.029 A 
ATOM     47  C   UNL A   1      38.808  31.007  29.520  1.00  0.00     0.049 A 
ATOM     48  H   UNL A   1      40.753  30.519  30.086  1.00  0.00     0.167 HD
ATOM     49  C   UNL A   1      44.660  29.113  31.582  1.00  0.00     0.031 A 
ATOM     50  C   UNL A   1      38.506  32.182  30.109  1.00  0.00     0.031 A 
ATOM     51  C   UNL A   1      44.468  30.409  32.170  1.00  0.00     0.049 A 
ATOM     52  C   UNL A   1      39.528  32.837  30.996  1.00  0.00     0.074 A 
ATOM     53  C   UNL A   1      45.337  31.133  32.965  1.00  0.00     0.029 A 
ATOM     54  N   UNL A   1      43.324  31.181  32.018  1.00  0.00    -0.354 N 
ATOM     55  N   UNL A   1      40.711  32.394  31.354  1.00  0.00    -0.248 NA
ATOM     56  C   UNL A   1      39.185  34.153  31.550  1.00  0.00     0.031 C 
ATOM     57  C   UNL A   1      44.703  32.325  33.327  1.00  0.00     0.029 A 
ATOM     58  C   UNL A   1      43.461  32.370  32.710  1.00  0.00     0.049 A 
ATOM     59  H   UNL A   1      42.532  30.920  31.494  1.00  0.00     0.167 HD
ATOM     60  C   UNL A   1      41.268  33.393  32.144  1.00  0.00     0.074 A 
ATOM     61  C   UNL A   1      40.292  34.463  32.214  1.00  0.00     0.031 C 
ATOM     62  C   UNL A   1      42.480  33.426  32.751  1.00  0.00     0.031 A 
BRANCH  49  63
ATOM     63  C   UNL A   1      45.917  28.342  31.893  1.00  0.00    -0.014 A 
ATOM     64  C   UNL A   1      47.073  28.475  31.102  1.00  0.00     0.010 A 
ATOM     65  C   UNL A   1      45.938  27.455  32.985  1.00  0.00     0.010 A 
ATOM     66  C   UNL A   1      48.196  27.681  31.347  1.00  0.00     0.020 A 
ATOM     67  C   UNL A   1      47.073  26.686  33.257  1.00  0.00     0.020 A 
ATOM     68  C   UNL A   1      48.184  26.783  32.418  1.00  0.00     0.054 A 
BRANCH  68  69
ATOM     69  S   UNL A   1      49.646  25.747  32.701  1.00  0.00     0.124 S 
ATOM     70  O   UNL A   1      50.668  26.748  32.997  1.00  0.00    -0.237 OA
ATOM     71  O   UNL A   1      49.238  24.916  33.832  1.00  0.00    -0.237 OA
ATOM     72  O   UNL A   1      49.818  25.036  31.437  1.00  0.00    -0.744 OA
ENDBRANCH  68  69
ENDBRANCH  49  63
BRANCH  50  73
ATOM     73  C   UNL A   1      37.186  32.815  29.842  1.00  0.00    -0.014 A 
ATOM     74  C   UNL A   1      36.129  32.663  30.757  1.00  0.00     0.010 A 
ATOM     75  C   UNL A   1      36.998  33.626  28.707  1.00  0.00     0.010 A 
ATOM     76  C   UNL A   1      34.909  33.313  30.545  1.00  0.00     0.020 A 
ATOM     77  C   UNL A   1      35.787  34.297  28.505  1.00  0.00     0.020 A 
ATOM     78  C   UNL A   1      34.749  34.133  29.424  1.00  0.00     0.054 A 
BRANCH  78  79
ATOM     79  S   UNL A   1      33.188  35.038  29.221  1.00  0.00     0.124 S 
ATOM     80  O   UNL A   1      32.485  34.214  28.245  1.00  0.00    -0.237 OA
ATOM     81  O   UNL A   1      32.640  35.024  30.575  1.00  0.00    -0.237 OA
ATOM     82  O   UNL A   1      33.615  36.351  28.743  1.00  0.00    -0.744 OA
ENDBRANCH  78  79
ENDBRANCH  50  73
BRANCH  62  83
ATOM     83  C   UNL A   1      42.858  34.676  33.497  1.00  0.00    -0.014 A 
ATOM     84  C   UNL A   1      42.674  34.784  34.886  1.00  0.00     0.010 A 
ATOM     85  C   UNL A   1      43.510  35.714  32.805  1.00  0.00     0.010 A 
ATOM     86  C   UNL A   1      43.130  35.916  35.568  1.00  0.00     0.020 A 
ATOM     87  C   UNL A   1      43.989  36.834  33.488  1.00  0.00     0.020 A 
ATOM     88  C   UNL A   1      43.791  36.929  34.867  1.00  0.00     0.054 A 
BRANCH  88  89
ATOM     89  S   UNL A   1      44.448  38.346  35.789  1.00  0.00     0.124 S 
ATOM     90  O   UNL A   1      43.821  38.175  37.095  1.00  0.00    -0.237 OA
ATOM     91  O   UNL A   1      45.890  38.112  35.748  1.00  0.00    -0.237 OA
ATOM     92  O   UNL A   1      43.990  39.502  35.022  1.00  0.00    -0.744 OA
ENDBRANCH  88  89
ENDBRANCH  62  83
ENDBRANCH  36  37
ENDBRANCH  28  31
ENDBRANCH  26  27
ENDBRANCH  25  26
ENDBRANCH   1  25
TORSDOF 19
ENDMDL
MODEL 3
REMARK VINA RESULT:     -10.3      4.183      9.629
REMARK SMILES CC[C@@H](C)[C@H](NC(=O)CCc1ccc(F)c(F)c1)C(=O)NCCCNC(=O)c1ccc(-c2c3nc(c(-c4ccc(S(=O)(=O)[O-])cc4)c4ccc([nH]4)c(-c4ccc(S(=O)(=O)[O-])cc4)c4nc(c(-c5ccc(S(=O)(=O)[O-])cc5)c5ccc2[nH]5)C=C4)C=C3)cc1
REMARK SMILES IDX 22 1 21 2 19 3 20 4 5 6 3 7 4 8 2 9 1 10 6 11 7 12 8 14 9 15
REMARK SMILES IDX 10 16 11 17 12 18 18 19 13 20 16 21 14 22 17 23 15 24 23 25
REMARK SMILES IDX 24 26 25 27 26 28 27 30 28 31 29 32 87 33 30 34 86 35 31 36
REMARK SMILES IDX 32 37 33 38 80 39 34 40 85 41 79 42 81 43 35 44 84 45 78 46
REMARK SMILES IDX 77 47 36 49 66 50 47 51 65 52 48 53 51 54 64 55 82 56 49 57
REMARK SMILES IDX 50 58 63 60 83 61 52 62 37 63 38 64 46 65 39 66 45 67 40 68
REMARK SMILES IDX 41 69 42 70 43 71 44 72 67 73 68 74 76 75 69 76 75 77 70 78
REMARK SMILES IDX 71 79 72 80 73 81 74 82 53 83 54 84 62 85 55 86 61 87 56 88
REMARK SMILES IDX 57 89 58 90 59 91 60 92
REMARK H PARENT 21 5 6 13 25 29 81 48 51 59
REMARK Flexibility Score: inf
ROOT
ATOM      1  C   UNL A   1      34.607  24.357  24.516  1.00  0.00     0.117 C 
ENDROOT
BRANCH   1   2
ATOM      2  N   UNL A   1      34.424  25.430  25.463  1.00  0.00    -0.354 N 
ATOM      3  C   UNL A   1      33.630  26.525  25.406  1.00  0.00     0.242 C 
ATOM      4  O   UNL A   1      33.516  27.175  26.452  1.00  0.00    -0.273 OA
ATOM      5  H   UNL A   1      34.964  25.354  26.284  1.00  0.00     0.163 HD
BRANCH   3   6
ATOM      6  C   UNL A   1      32.799  26.888  24.161  1.00  0.00     0.174 C 
BRANCH   6   7
ATOM      7  C   UNL A   1      33.693  27.295  22.931  1.00  0.00     0.018 C 
ATOM      8  C   UNL A   1      34.042  28.790  22.925  1.00  0.00     0.010 C 
BRANCH   7   9
ATOM      9  C   UNL A   1      33.255  26.781  21.534  1.00  0.00     0.002 C 
ATOM     10  C   UNL A   1      32.898  25.302  21.412  1.00  0.00     0.004 C 
ENDBRANCH   7   9
ENDBRANCH   6   7
BRANCH   6  11
ATOM     11  N   UNL A   1      31.645  27.793  24.336  1.00  0.00    -0.344 N 
ATOM     12  C   UNL A   1      30.330  27.562  24.043  1.00  0.00     0.220 C 
ATOM     13  H   UNL A   1      31.850  28.679  24.713  1.00  0.00     0.164 HD
ATOM     14  O   UNL A   1      29.681  28.484  23.545  1.00  0.00    -0.275 OA
BRANCH  12  15
ATOM     15  C   UNL A   1      29.659  26.254  24.412  1.00  0.00     0.105 C 
BRANCH  15  16
ATOM     16  C   UNL A   1      30.003  25.077  23.505  1.00  0.00     0.045 C 
BRANCH  16  17
ATOM     17  C   UNL A   1      30.692  23.957  24.242  1.00  0.00    -0.044 A 
ATOM     18  C   UNL A   1      30.804  23.974  25.642  1.00  0.00     0.007 A 
ATOM     19  C   UNL A   1      31.293  22.916  23.519  1.00  0.00     0.046 A 
ATOM     20  C   UNL A   1      31.537  22.984  26.303  1.00  0.00     0.043 A 
ATOM     21  C   UNL A   1      32.036  21.948  24.185  1.00  0.00     0.159 A 
ATOM     22  C   UNL A   1      32.162  21.984  25.566  1.00  0.00     0.158 A 
ATOM     23  F   UNL A   1      32.663  21.001  23.472  1.00  0.00    -0.204 F 
ATOM     24  F   UNL A   1      32.901  21.062  26.199  1.00  0.00    -0.204 F 
ENDBRANCH  16  17
ENDBRANCH  15  16
ENDBRANCH  12  15
ENDBRANCH   6  11
ENDBRANCH   3   6
ENDBRANCH   1   2
BRANCH   1  25
ATOM     25  C   UNL A   1      35.974  23.704  24.563  1.00  0.00     0.042 C 
BRANCH  25  26
ATOM     26  C   UNL A   1      36.642  23.825  25.918  1.00  0.00     0.118 C 
BRANCH  26  27
ATOM     27  N   UNL A   1      37.623  22.766  26.130  1.00  0.00    -0.352 N 
ATOM     28  C   UNL A   1      38.955  22.883  26.442  1.00  0.00     0.251 C 
ATOM     29  H   UNL A   1      37.285  21.846  26.035  1.00  0.00     0.163 HD
ATOM     30  O   UNL A   1      39.717  21.935  26.266  1.00  0.00    -0.269 OA
BRANCH  28  31
ATOM     31  C   UNL A   1      39.453  24.163  26.976  1.00  0.00     0.039 A 
ATOM     32  C   UNL A   1      40.081  25.083  26.132  1.00  0.00     0.014 A 
ATOM     33  C   UNL A   1      39.277  24.450  28.329  1.00  0.00     0.014 A 
ATOM     34  C   UNL A   1      40.481  26.320  26.644  1.00  0.00     0.010 A 
ATOM     35  C   UNL A   1      39.558  25.719  28.802  1.00  0.00     0.010 A 
ATOM     36  C   UNL A   1      40.197  26.656  27.977  1.00  0.00    -0.014 A 
BRANCH  36  37
ATOM     37  C   UNL A   1      40.620  27.936  28.595  1.00  0.00     0.031 A 
ATOM     38  C   UNL A   1      41.992  28.018  29.211  1.00  0.00     0.074 A 
ATOM     39  C   UNL A   1      39.751  28.955  28.722  1.00  0.00     0.049 A 
ATOM     40  N   UNL A   1      42.494  28.930  30.001  1.00  0.00    -0.248 NA
ATOM     41  C   UNL A   1      42.898  26.886  28.948  1.00  0.00     0.031 C 
ATOM     42  C   UNL A   1      38.384  28.982  28.198  1.00  0.00     0.029 A 
ATOM     43  N   UNL A   1      39.887  30.162  29.361  1.00  0.00    -0.354 N 
ATOM     44  C   UNL A   1      43.746  28.454  30.371  1.00  0.00     0.074 A 
ATOM     45  C   UNL A   1      43.901  27.149  29.771  1.00  0.00     0.031 C 
ATOM     46  C   UNL A   1      37.812  30.151  28.527  1.00  0.00     0.029 A 
ATOM     47  C   UNL A   1      38.749  30.934  29.327  1.00  0.00     0.049 A 
ATOM     48  H   UNL A   1      40.719  30.448  29.802  1.00  0.00     0.167 HD
ATOM     49  C   UNL A   1      44.693  29.057  31.129  1.00  0.00     0.031 A 
ATOM     50  C   UNL A   1      38.487  32.127  29.895  1.00  0.00     0.031 A 
ATOM     51  C   UNL A   1      44.540  30.372  31.686  1.00  0.00     0.049 A 
ATOM     52  C   UNL A   1      39.559  32.801  30.706  1.00  0.00     0.074 A 
ATOM     53  C   UNL A   1      45.456  31.113  32.410  1.00  0.00     0.029 A 
ATOM     54  N   UNL A   1      43.394  31.147  31.572  1.00  0.00    -0.354 N 
ATOM     55  N   UNL A   1      40.757  32.360  31.013  1.00  0.00    -0.248 NA
ATOM     56  C   UNL A   1      39.254  34.136  31.237  1.00  0.00     0.031 C 
ATOM     57  C   UNL A   1      44.849  32.319  32.770  1.00  0.00     0.029 A 
ATOM     58  C   UNL A   1      43.576  32.355  32.220  1.00  0.00     0.049 A 
ATOM     59  H   UNL A   1      42.574  30.876  31.100  1.00  0.00     0.167 HD
ATOM     60  C   UNL A   1      41.362  33.378  31.742  1.00  0.00     0.074 A 
ATOM     61  C   UNL A   1      40.397  34.457  31.831  1.00  0.00     0.031 C 
ATOM     62  C   UNL A   1      42.605  33.420  32.281  1.00  0.00     0.031 A 
BRANCH  49  63
ATOM     63  C   UNL A   1      45.960  28.287  31.395  1.00  0.00    -0.014 A 
ATOM     64  C   UNL A   1      46.097  27.474  32.535  1.00  0.00     0.010 A 
ATOM     65  C   UNL A   1      47.040  28.390  30.500  1.00  0.00     0.010 A 
ATOM     66  C   UNL A   1      47.312  26.844  32.817  1.00  0.00     0.020 A 
ATOM     67  C   UNL A   1      48.245  27.731  30.757  1.00  0.00     0.020 A 
ATOM     68  C   UNL A   1      48.382  26.986  31.930  1.00  0.00     0.054 A 
BRANCH  68  69
ATOM     69  S   UNL A   1      49.956  26.177  32.329  1.00  0.00     0.124 S 
ATOM     70  O   UNL A   1      49.951  26.219  33.789  1.00  0.00    -0.237 OA
ATOM     71  O   UNL A   1      49.794  24.849  31.740  1.00  0.00    -0.237 OA
ATOM     72  O   UNL A   1      50.956  27.024  31.684  1.00  0.00    -0.744 OA
ENDBRANCH  68  69
ENDBRANCH  49  63
BRANCH  50  73
ATOM     73  C   UNL A   1      37.158  32.762  29.681  1.00  0.00    -0.014 A 
ATOM     74  C   UNL A   1      36.188  32.738  30.698  1.00  0.00     0.010 A 
ATOM     75  C   UNL A   1      36.879  33.451  28.485  1.00  0.00     0.010 A 
ATOM     76  C   UNL A   1      34.964  33.392  30.526  1.00  0.00     0.020 A 
ATOM     77  C   UNL A   1      35.666  34.127  28.321  1.00  0.00     0.020 A 
ATOM     78  C   UNL A   1      34.715  34.091  29.342  1.00  0.00     0.054 A 
BRANCH  78  79
ATOM     79  S   UNL A   1      33.157  35.009  29.182  1.00  0.00     0.124 S 
ATOM     80  O   UNL A   1      32.439  34.219  28.188  1.00  0.00    -0.237 OA
ATOM     81  O   UNL A   1      32.622  34.957  30.540  1.00  0.00    -0.237 OA
ATOM     82  O   UNL A   1      33.585  36.334  28.741  1.00  0.00    -0.744 OA
ENDBRANCH  78  79
ENDBRANCH  50  73
BRANCH  62  83
ATOM     83  C   UNL A   1      43.030  34.689  32.967  1.00  0.00    -0.014 A 
ATOM     84  C   UNL A   1      42.946  34.831  34.363  1.00  0.00     0.010 A 
ATOM     85  C   UNL A   1      43.626  35.712  32.205  1.00  0.00     0.010 A 
ATOM     86  C   UNL A   1      43.445  35.980  34.983  1.00  0.00     0.020 A 
ATOM     87  C   UNL A   1      44.148  36.849  32.824  1.00  0.00     0.020 A 
ATOM     88  C   UNL A   1      44.049  36.978  34.211  1.00  0.00     0.054 A 
BRANCH  88  89
ATOM     89  S   UNL A   1      44.765  38.418  35.048  1.00  0.00     0.124 S 
ATOM     90  O   UNL A   1      44.028  38.434  36.308  1.00  0.00    -0.237 OA
ATOM     91  O   UNL A   1      46.177  38.058  35.151  1.00  0.00    -0.237 OA
ATOM     92  O   UNL A   1      44.476  39.526  34.141  1.00  0.00    -0.744 OA
ENDBRANCH  88  89
ENDBRANCH  62  83
ENDBRANCH  36  37
ENDBRANCH  28  31
ENDBRANCH  26  27
ENDBRANCH  25  26
ENDBRANCH   1  25
TORSDOF 19
ENDMDL
