MODEL 1
REMARK VINA RESULT:     -12.9      0.000      0.000
REMARK SMILES Cc1nn(CC(=O)NCCCNC(=O)c2ccc(-c3c4nc(c(-c5ccc(S(=O)(=O)[O-])cc5)c5ccc([nH]5)c(-c5ccc(S(=O)(=O)[O-])cc5)c5nc(c(-c6ccc(S(=O)(=O)[O-])cc6)c6ccc3[nH]6)C=C5)C=C4)cc2)c(C)c1NC(=O)C(=O)Nc1ccc(F)cc1
REMARK SMILES IDX 9 1 8 2 6 3 7 4 5 6 4 7 1 8 2 9 3 10 77 11 75 12 76 13 78 14
REMARK SMILES IDX 79 15 80 17 81 18 82 19 83 20 84 22 85 23 90 24 86 25 89 26
REMARK SMILES IDX 87 27 88 28 10 29 11 30 12 31 13 32 14 34 15 35 16 36 74 37
REMARK SMILES IDX 17 38 73 39 18 40 19 41 20 42 67 43 21 44 72 45 66 46 68 47
REMARK SMILES IDX 22 48 71 49 65 50 64 51 23 53 53 54 34 55 52 56 35 57 38 58
REMARK SMILES IDX 51 59 69 60 36 61 37 62 50 64 70 65 39 66 24 67 25 68 33 69
REMARK SMILES IDX 26 70 32 71 27 72 28 73 29 74 30 75 31 76 54 77 55 78 63 79
REMARK SMILES IDX 56 80 62 81 57 82 58 83 59 84 60 85 61 86 40 87 41 88 49 89
REMARK SMILES IDX 42 90 48 91 43 92 44 93 45 94 46 95 47 96
REMARK H PARENT 8 5 78 16 83 21 12 33 68 52 38 63
REMARK Flexibility Score: inf
ROOT
ATOM      1  C   UNL A   1      35.753  21.513  26.082  1.00  0.00     0.117 C 
ENDROOT
BRANCH   1   2
ATOM      2  N   UNL A   1      34.809  21.949  27.095  1.00  0.00    -0.354 N 
ATOM      3  C   UNL A   1      33.444  21.905  27.141  1.00  0.00     0.241 C 
ATOM      4  O   UNL A   1      32.929  22.209  28.223  1.00  0.00    -0.273 OA
ATOM      5  H   UNL A   1      35.228  22.348  27.893  1.00  0.00     0.163 HD
BRANCH   3   6
ATOM      6  C   UNL A   1      32.582  21.364  26.022  1.00  0.00     0.244 C 
BRANCH   6   7
ATOM      7  N   UNL A   1      32.394  22.262  24.894  1.00  0.00    -0.258 N 
ATOM      8  C   UNL A   1      33.361  22.999  21.581  1.00  0.00     0.071 C 
ATOM      9  C   UNL A   1      32.749  22.978  22.937  1.00  0.00     0.083 A 
ATOM     10  N   UNL A   1      33.100  22.015  23.782  1.00  0.00    -0.175 NA
ATOM     11  C   UNL A   1      31.790  23.873  23.509  1.00  0.00     0.086 A 
ATOM     12  C   UNL A   1      31.622  23.410  24.809  1.00  0.00     0.060 A 
ATOM     13  C   UNL A   1      30.798  23.858  25.963  1.00  0.00     0.069 C 
BRANCH  11  14
ATOM     14  N   UNL A   1      31.230  24.908  22.774  1.00  0.00    -0.315 N 
ATOM     15  C   UNL A   1      31.656  26.136  22.333  1.00  0.00     0.314 C 
ATOM     16  H   UNL A   1      30.303  24.717  22.505  1.00  0.00     0.170 HD
ATOM     17  O   UNL A   1      30.886  26.861  21.707  1.00  0.00    -0.263 OA
BRANCH  15  18
ATOM     18  C   UNL A   1      33.102  26.553  22.488  1.00  0.00     0.314 C 
ATOM     19  O   UNL A   1      33.763  26.783  21.477  1.00  0.00    -0.263 OA
ATOM     20  N   UNL A   1      33.690  26.665  23.738  1.00  0.00    -0.318 N 
ATOM     21  H   UNL A   1      34.503  26.138  23.918  1.00  0.00     0.170 HD
BRANCH  20  22
ATOM     22  C   UNL A   1      33.192  27.488  24.765  1.00  0.00     0.041 A 
ATOM     23  C   UNL A   1      33.528  28.846  24.672  1.00  0.00     0.029 A 
ATOM     24  C   UNL A   1      32.357  27.052  25.794  1.00  0.00     0.029 A 
ATOM     25  C   UNL A   1      32.945  29.778  25.528  1.00  0.00     0.041 A 
ATOM     26  C   UNL A   1      31.789  27.986  26.666  1.00  0.00     0.041 A 
ATOM     27  C   UNL A   1      32.066  29.340  26.508  1.00  0.00     0.123 A 
ATOM     28  F   UNL A   1      31.474  30.238  27.305  1.00  0.00    -0.207 F 
ENDBRANCH  20  22
ENDBRANCH  15  18
ENDBRANCH  11  14
ENDBRANCH   6   7
ENDBRANCH   3   6
ENDBRANCH   1   2
BRANCH   1  29
ATOM     29  C   UNL A   1      36.255  22.636  25.170  1.00  0.00     0.042 C 
BRANCH  29  30
ATOM     30  C   UNL A   1      37.763  22.626  25.010  1.00  0.00     0.118 C 
BRANCH  30  31
ATOM     31  N   UNL A   1      38.443  21.743  25.973  1.00  0.00    -0.352 N 
ATOM     32  C   UNL A   1      39.540  22.029  26.773  1.00  0.00     0.251 C 
ATOM     33  H   UNL A   1      38.072  20.834  26.059  1.00  0.00     0.163 HD
ATOM     34  O   UNL A   1      40.215  21.130  27.266  1.00  0.00    -0.269 OA
BRANCH  32  35
ATOM     35  C   UNL A   1      39.862  23.443  27.019  1.00  0.00     0.039 A 
ATOM     36  C   UNL A   1      38.927  24.479  26.933  1.00  0.00     0.014 A 
ATOM     37  C   UNL A   1      41.150  23.684  27.468  1.00  0.00     0.014 A 
ATOM     38  C   UNL A   1      39.291  25.743  27.402  1.00  0.00     0.010 A 
ATOM     39  C   UNL A   1      41.385  24.813  28.190  1.00  0.00     0.010 A 
ATOM     40  C   UNL A   1      40.524  25.891  28.051  1.00  0.00    -0.014 A 
BRANCH  40  41
ATOM     41  C   UNL A   1      40.984  27.142  28.637  1.00  0.00     0.031 A 
ATOM     42  C   UNL A   1      42.221  27.713  28.049  1.00  0.00     0.074 A 
ATOM     43  C   UNL A   1      40.169  27.874  29.433  1.00  0.00     0.049 A 
ATOM     44  N   UNL A   1      43.382  27.816  28.605  1.00  0.00    -0.248 NA
ATOM     45  C   UNL A   1      42.206  28.102  26.630  1.00  0.00     0.031 C 
ATOM     46  C   UNL A   1      38.768  27.608  29.808  1.00  0.00     0.029 A 
ATOM     47  N   UNL A   1      40.373  29.111  29.949  1.00  0.00    -0.354 N 
ATOM     48  C   UNL A   1      44.186  28.493  27.694  1.00  0.00     0.074 A 
ATOM     49  C   UNL A   1      43.480  28.454  26.437  1.00  0.00     0.031 C 
ATOM     50  C   UNL A   1      38.187  28.750  30.235  1.00  0.00     0.029 A 
ATOM     51  C   UNL A   1      39.215  29.760  30.366  1.00  0.00     0.049 A 
ATOM     52  H   UNL A   1      41.266  29.517  30.023  1.00  0.00     0.167 HD
ATOM     53  C   UNL A   1      45.244  29.253  28.099  1.00  0.00     0.031 A 
ATOM     54  C   UNL A   1      39.109  31.051  30.763  1.00  0.00     0.031 A 
ATOM     55  C   UNL A   1      45.524  29.059  29.500  1.00  0.00     0.049 A 
ATOM     56  C   UNL A   1      40.476  31.490  31.142  1.00  0.00     0.074 A 
ATOM     57  C   UNL A   1      45.874  27.980  30.286  1.00  0.00     0.029 A 
ATOM     58  N   UNL A   1      45.039  30.016  30.365  1.00  0.00    -0.354 N 
ATOM     59  N   UNL A   1      41.143  30.967  32.134  1.00  0.00    -0.248 NA
ATOM     60  C   UNL A   1      41.284  32.153  30.132  1.00  0.00     0.031 C 
ATOM     61  C   UNL A   1      45.133  28.153  31.493  1.00  0.00     0.029 A 
ATOM     62  C   UNL A   1      44.437  29.362  31.409  1.00  0.00     0.049 A 
ATOM     63  H   UNL A   1      45.111  30.991  30.253  1.00  0.00     0.167 HD
ATOM     64  C   UNL A   1      42.445  30.845  31.666  1.00  0.00     0.074 A 
ATOM     65  C   UNL A   1      42.492  31.687  30.470  1.00  0.00     0.031 C 
ATOM     66  C   UNL A   1      43.274  29.856  32.121  1.00  0.00     0.031 A 
BRANCH  53  67
ATOM     67  C   UNL A   1      45.766  30.465  27.362  1.00  0.00    -0.014 A 
ATOM     68  C   UNL A   1      47.162  30.668  27.308  1.00  0.00     0.010 A 
ATOM     69  C   UNL A   1      44.949  31.542  26.969  1.00  0.00     0.010 A 
ATOM     70  C   UNL A   1      47.704  31.914  26.970  1.00  0.00     0.020 A 
ATOM     71  C   UNL A   1      45.481  32.775  26.585  1.00  0.00     0.020 A 
ATOM     72  C   UNL A   1      46.854  32.967  26.631  1.00  0.00     0.054 A 
BRANCH  72  73
ATOM     73  S   UNL A   1      47.555  34.608  26.333  1.00  0.00     0.124 S 
ATOM     74  O   UNL A   1      46.357  35.403  26.084  1.00  0.00    -0.237 OA
ATOM     75  O   UNL A   1      48.249  34.880  27.587  1.00  0.00    -0.237 OA
ATOM     76  O   UNL A   1      48.424  34.403  25.177  1.00  0.00    -0.744 OA
ENDBRANCH  72  73
ENDBRANCH  53  67
BRANCH  54  77
ATOM     77  C   UNL A   1      37.981  31.986  30.523  1.00  0.00    -0.014 A 
ATOM     78  C   UNL A   1      38.034  32.944  29.496  1.00  0.00     0.010 A 
ATOM     79  C   UNL A   1      36.731  31.751  31.136  1.00  0.00     0.010 A 
ATOM     80  C   UNL A   1      36.868  33.598  29.056  1.00  0.00     0.020 A 
ATOM     81  C   UNL A   1      35.567  32.400  30.706  1.00  0.00     0.020 A 
ATOM     82  C   UNL A   1      35.638  33.305  29.650  1.00  0.00     0.054 A 
BRANCH  82  83
ATOM     83  S   UNL A   1      34.115  34.018  28.953  1.00  0.00     0.124 S 
ATOM     84  O   UNL A   1      34.625  35.146  28.181  1.00  0.00    -0.237 OA
ATOM     85  O   UNL A   1      33.575  32.909  28.170  1.00  0.00    -0.237 OA
ATOM     86  O   UNL A   1      33.331  34.377  30.133  1.00  0.00    -0.744 OA
ENDBRANCH  82  83
ENDBRANCH  54  77
BRANCH  66  87
ATOM     87  C   UNL A   1      42.843  29.051  33.328  1.00  0.00    -0.014 A 
ATOM     88  C   UNL A   1      41.925  27.982  33.271  1.00  0.00     0.010 A 
ATOM     89  C   UNL A   1      43.522  29.282  34.536  1.00  0.00     0.010 A 
ATOM     90  C   UNL A   1      41.679  27.185  34.401  1.00  0.00     0.020 A 
ATOM     91  C   UNL A   1      43.294  28.482  35.659  1.00  0.00     0.020 A 
ATOM     92  C   UNL A   1      42.366  27.443  35.591  1.00  0.00     0.054 A 
BRANCH  92  93
ATOM     93  S   UNL A   1      42.077  26.387  37.039  1.00  0.00     0.124 S 
ATOM     94  O   UNL A   1      43.159  26.776  37.938  1.00  0.00    -0.237 OA
ATOM     95  O   UNL A   1      40.734  26.775  37.465  1.00  0.00    -0.237 OA
ATOM     96  O   UNL A   1      42.178  25.028  36.505  1.00  0.00    -0.744 OA
ENDBRANCH  92  93
ENDBRANCH  66  87
ENDBRANCH  40  41
ENDBRANCH  32  35
ENDBRANCH  30  31
ENDBRANCH  29  30
ENDBRANCH   1  29
TORSDOF 17
ENDMDL
MODEL 2
REMARK VINA RESULT:     -12.7      1.779      2.715
REMARK SMILES Cc1nn(CC(=O)NCCCNC(=O)c2ccc(-c3c4nc(c(-c5ccc(S(=O)(=O)[O-])cc5)c5ccc([nH]5)c(-c5ccc(S(=O)(=O)[O-])cc5)c5nc(c(-c6ccc(S(=O)(=O)[O-])cc6)c6ccc3[nH]6)C=C5)C=C4)cc2)c(C)c1NC(=O)C(=O)Nc1ccc(F)cc1
REMARK SMILES IDX 9 1 8 2 6 3 7 4 5 6 4 7 1 8 2 9 3 10 77 11 75 12 76 13 78 14
REMARK SMILES IDX 79 15 80 17 81 18 82 19 83 20 84 22 85 23 90 24 86 25 89 26
REMARK SMILES IDX 87 27 88 28 10 29 11 30 12 31 13 32 14 34 15 35 16 36 74 37
REMARK SMILES IDX 17 38 73 39 18 40 19 41 20 42 67 43 21 44 72 45 66 46 68 47
REMARK SMILES IDX 22 48 71 49 65 50 64 51 23 53 53 54 34 55 52 56 35 57 38 58
REMARK SMILES IDX 51 59 69 60 36 61 37 62 50 64 70 65 39 66 24 67 25 68 33 69
REMARK SMILES IDX 26 70 32 71 27 72 28 73 29 74 30 75 31 76 54 77 55 78 63 79
REMARK SMILES IDX 56 80 62 81 57 82 58 83 59 84 60 85 61 86 40 87 41 88 49 89
REMARK SMILES IDX 42 90 48 91 43 92 44 93 45 94 46 95 47 96
REMARK H PARENT 8 5 78 16 83 21 12 33 68 52 38 63
REMARK Flexibility Score: inf
ROOT
ATOM      1  C   UNL A   1      35.094  21.911  25.096  1.00  0.00     0.117 C 
ENDROOT
BRANCH   1   2
ATOM      2  N   UNL A   1      34.711  22.439  23.799  1.00  0.00    -0.354 N 
ATOM      3  C   UNL A   1      33.596  23.112  23.388  1.00  0.00     0.241 C 
ATOM      4  O   UNL A   1      33.636  23.579  22.244  1.00  0.00    -0.273 OA
ATOM      5  H   UNL A   1      35.375  22.285  23.088  1.00  0.00     0.163 HD
BRANCH   3   6
ATOM      6  C   UNL A   1      32.430  23.439  24.294  1.00  0.00     0.244 C 
BRANCH   6   7
ATOM      7  N   UNL A   1      31.952  24.811  24.222  1.00  0.00    -0.258 N 
ATOM      8  C   UNL A   1      29.203  26.888  23.458  1.00  0.00     0.071 C 
ATOM      9  C   UNL A   1      30.525  26.324  23.845  1.00  0.00     0.083 A 
ATOM     10  N   UNL A   1      30.684  25.004  23.835  1.00  0.00    -0.175 NA
ATOM     11  C   UNL A   1      31.715  27.006  24.249  1.00  0.00     0.086 A 
ATOM     12  C   UNL A   1      32.647  25.991  24.434  1.00  0.00     0.060 A 
ATOM     13  C   UNL A   1      34.078  25.968  24.836  1.00  0.00     0.069 C 
BRANCH  11  14
ATOM     14  N   UNL A   1      31.749  28.385  24.401  1.00  0.00    -0.315 N 
ATOM     15  C   UNL A   1      31.726  29.252  25.465  1.00  0.00     0.314 C 
ATOM     16  H   UNL A   1      31.801  28.855  23.537  1.00  0.00     0.170 HD
ATOM     17  O   UNL A   1      31.739  30.465  25.263  1.00  0.00    -0.263 OA
BRANCH  15  18
ATOM     18  C   UNL A   1      31.823  28.737  26.883  1.00  0.00     0.314 C 
ATOM     19  O   UNL A   1      31.272  27.675  27.166  1.00  0.00    -0.263 OA
ATOM     20  N   UNL A   1      32.505  29.444  27.861  1.00  0.00    -0.318 N 
ATOM     21  H   UNL A   1      32.018  29.695  28.679  1.00  0.00     0.170 HD
BRANCH  20  22
ATOM     22  C   UNL A   1      33.856  29.824  27.752  1.00  0.00     0.041 A 
ATOM     23  C   UNL A   1      34.123  31.185  27.957  1.00  0.00     0.029 A 
ATOM     24  C   UNL A   1      34.911  28.940  27.526  1.00  0.00     0.029 A 
ATOM     25  C   UNL A   1      35.435  31.641  28.051  1.00  0.00     0.041 A 
ATOM     26  C   UNL A   1      36.229  29.403  27.599  1.00  0.00     0.041 A 
ATOM     27  C   UNL A   1      36.478  30.741  27.888  1.00  0.00     0.123 A 
ATOM     28  F   UNL A   1      37.740  31.170  28.017  1.00  0.00    -0.207 F 
ENDBRANCH  20  22
ENDBRANCH  15  18
ENDBRANCH  11  14
ENDBRANCH   6   7
ENDBRANCH   3   6
ENDBRANCH   1   2
BRANCH   1  29
ATOM     29  C   UNL A   1      36.016  22.833  25.899  1.00  0.00     0.042 C 
BRANCH  29  30
ATOM     30  C   UNL A   1      37.445  22.815  25.391  1.00  0.00     0.118 C 
BRANCH  30  31
ATOM     31  N   UNL A   1      38.317  21.897  26.145  1.00  0.00    -0.352 N 
ATOM     32  C   UNL A   1      39.527  22.179  26.763  1.00  0.00     0.251 C 
ATOM     33  H   UNL A   1      38.002  20.967  26.218  1.00  0.00     0.163 HD
ATOM     34  O   UNL A   1      40.312  21.281  27.055  1.00  0.00    -0.269 OA
BRANCH  32  35
ATOM     35  C   UNL A   1      39.835  23.585  27.067  1.00  0.00     0.039 A 
ATOM     36  C   UNL A   1      38.918  24.630  26.915  1.00  0.00     0.014 A 
ATOM     37  C   UNL A   1      41.077  23.806  27.638  1.00  0.00     0.014 A 
ATOM     38  C   UNL A   1      39.246  25.882  27.441  1.00  0.00     0.010 A 
ATOM     39  C   UNL A   1      41.252  24.918  28.400  1.00  0.00     0.010 A 
ATOM     40  C   UNL A   1      40.415  26.006  28.204  1.00  0.00    -0.014 A 
BRANCH  40  41
ATOM     41  C   UNL A   1      40.827  27.242  28.855  1.00  0.00     0.031 A 
ATOM     42  C   UNL A   1      41.935  27.978  28.198  1.00  0.00     0.074 A 
ATOM     43  C   UNL A   1      40.047  27.821  29.798  1.00  0.00     0.049 A 
ATOM     44  N   UNL A   1      43.138  28.146  28.637  1.00  0.00    -0.248 NA
ATOM     45  C   UNL A   1      41.726  28.484  26.831  1.00  0.00     0.031 C 
ATOM     46  C   UNL A   1      38.726  27.390  30.291  1.00  0.00     0.029 A 
ATOM     47  N   UNL A   1      40.198  29.023  30.405  1.00  0.00    -0.354 N 
ATOM     48  C   UNL A   1      43.772  28.973  27.715  1.00  0.00     0.074 A 
ATOM     49  C   UNL A   1      42.934  28.973  26.540  1.00  0.00     0.031 C 
ATOM     50  C   UNL A   1      38.099  28.429  30.882  1.00  0.00     0.029 A 
ATOM     51  C   UNL A   1      39.043  29.520  31.000  1.00  0.00     0.049 A 
ATOM     52  H   UNL A   1      41.056  29.507  30.423  1.00  0.00     0.167 HD
ATOM     53  C   UNL A   1      44.799  29.795  28.077  1.00  0.00     0.031 A 
ATOM     54  C   UNL A   1      38.870  30.756  31.528  1.00  0.00     0.031 A 
ATOM     55  C   UNL A   1      45.251  29.511  29.417  1.00  0.00     0.049 A 
ATOM     56  C   UNL A   1      40.227  31.292  31.802  1.00  0.00     0.074 A 
ATOM     57  C   UNL A   1      45.780  28.408  30.056  1.00  0.00     0.029 A 
ATOM     58  N   UNL A   1      44.785  30.339  30.414  1.00  0.00    -0.354 N 
ATOM     59  N   UNL A   1      41.045  30.754  32.664  1.00  0.00    -0.248 NA
ATOM     60  C   UNL A   1      40.856  32.114  30.780  1.00  0.00     0.031 C 
ATOM     61  C   UNL A   1      45.168  28.405  31.344  1.00  0.00     0.029 A 
ATOM     62  C   UNL A   1      44.364  29.544  31.449  1.00  0.00     0.049 A 
ATOM     63  H   UNL A   1      44.759  31.323  30.389  1.00  0.00     0.167 HD
ATOM     64  C   UNL A   1      42.292  30.799  32.053  1.00  0.00     0.074 A 
ATOM     65  C   UNL A   1      42.130  31.740  30.944  1.00  0.00     0.031 C 
ATOM     66  C   UNL A   1      43.250  29.860  32.322  1.00  0.00     0.031 A 
BRANCH  53  67
ATOM     67  C   UNL A   1      45.126  31.110  27.409  1.00  0.00    -0.014 A 
ATOM     68  C   UNL A   1      46.449  31.327  26.965  1.00  0.00     0.010 A 
ATOM     69  C   UNL A   1      44.275  32.231  27.448  1.00  0.00     0.010 A 
ATOM     70  C   UNL A   1      46.917  32.613  26.671  1.00  0.00     0.020 A 
ATOM     71  C   UNL A   1      44.719  33.512  27.112  1.00  0.00     0.020 A 
ATOM     72  C   UNL A   1      46.050  33.701  26.767  1.00  0.00     0.054 A 
BRANCH  72  73
ATOM     73  S   UNL A   1      46.697  35.373  26.522  1.00  0.00     0.124 S 
ATOM     74  O   UNL A   1      45.470  36.152  26.392  1.00  0.00    -0.237 OA
ATOM     75  O   UNL A   1      47.462  35.591  27.746  1.00  0.00    -0.237 OA
ATOM     76  O   UNL A   1      47.498  35.253  25.306  1.00  0.00    -0.744 OA
ENDBRANCH  72  73
ENDBRANCH  53  67
BRANCH  54  77
ATOM     77  C   UNL A   1      37.645  31.594  31.496  1.00  0.00    -0.014 A 
ATOM     78  C   UNL A   1      36.558  31.329  32.347  1.00  0.00     0.010 A 
ATOM     79  C   UNL A   1      37.657  32.830  30.814  1.00  0.00     0.010 A 
ATOM     80  C   UNL A   1      35.551  32.289  32.556  1.00  0.00     0.020 A 
ATOM     81  C   UNL A   1      36.656  33.789  31.014  1.00  0.00     0.020 A 
ATOM     82  C   UNL A   1      35.619  33.523  31.904  1.00  0.00     0.054 A 
BRANCH  82  83
ATOM     83  S   UNL A   1      34.415  34.823  32.320  1.00  0.00     0.124 S 
ATOM     84  O   UNL A   1      33.353  34.065  32.973  1.00  0.00    -0.237 OA
ATOM     85  O   UNL A   1      35.188  35.705  33.190  1.00  0.00    -0.237 OA
ATOM     86  O   UNL A   1      34.062  35.394  31.022  1.00  0.00    -0.744 OA
ENDBRANCH  82  83
ENDBRANCH  54  77
BRANCH  66  87
ATOM     87  C   UNL A   1      43.031  28.917  33.486  1.00  0.00    -0.014 A 
ATOM     88  C   UNL A   1      43.610  29.093  34.759  1.00  0.00     0.010 A 
ATOM     89  C   UNL A   1      42.068  27.906  33.327  1.00  0.00     0.010 A 
ATOM     90  C   UNL A   1      43.251  28.264  35.834  1.00  0.00     0.020 A 
ATOM     91  C   UNL A   1      41.694  27.088  34.396  1.00  0.00     0.020 A 
ATOM     92  C   UNL A   1      42.293  27.263  35.643  1.00  0.00     0.054 A 
BRANCH  92  93
ATOM     93  S   UNL A   1      41.800  26.217  37.043  1.00  0.00     0.124 S 
ATOM     94  O   UNL A   1      41.726  24.891  36.438  1.00  0.00    -0.237 OA
ATOM     95  O   UNL A   1      42.888  26.414  37.998  1.00  0.00    -0.237 OA
ATOM     96  O   UNL A   1      40.515  26.777  37.460  1.00  0.00    -0.744 OA
ENDBRANCH  92  93
ENDBRANCH  66  87
ENDBRANCH  40  41
ENDBRANCH  32  35
ENDBRANCH  30  31
ENDBRANCH  29  30
ENDBRANCH   1  29
TORSDOF 17
ENDMDL
MODEL 3
REMARK VINA RESULT:     -12.6      1.661      2.348
REMARK SMILES Cc1nn(CC(=O)NCCCNC(=O)c2ccc(-c3c4nc(c(-c5ccc(S(=O)(=O)[O-])cc5)c5ccc([nH]5)c(-c5ccc(S(=O)(=O)[O-])cc5)c5nc(c(-c6ccc(S(=O)(=O)[O-])cc6)c6ccc3[nH]6)C=C5)C=C4)cc2)c(C)c1NC(=O)C(=O)Nc1ccc(F)cc1
REMARK SMILES IDX 9 1 8 2 6 3 7 4 5 6 4 7 1 8 2 9 3 10 77 11 75 12 76 13 78 14
REMARK SMILES IDX 79 15 80 17 81 18 82 19 83 20 84 22 85 23 90 24 86 25 89 26
REMARK SMILES IDX 87 27 88 28 10 29 11 30 12 31 13 32 14 34 15 35 16 36 74 37
REMARK SMILES IDX 17 38 73 39 18 40 19 41 20 42 67 43 21 44 72 45 66 46 68 47
REMARK SMILES IDX 22 48 71 49 65 50 64 51 23 53 53 54 34 55 52 56 35 57 38 58
REMARK SMILES IDX 51 59 69 60 36 61 37 62 50 64 70 65 39 66 24 67 25 68 33 69
REMARK SMILES IDX 26 70 32 71 27 72 28 73 29 74 30 75 31 76 54 77 55 78 63 79
REMARK SMILES IDX 56 80 62 81 57 82 58 83 59 84 60 85 61 86 40 87 41 88 49 89
REMARK SMILES IDX 42 90 48 91 43 92 44 93 45 94 46 95 47 96
REMARK H PARENT 8 5 78 16 83 21 12 33 68 52 38 63
REMARK Flexibility Score: inf
ROOT
ATOM      1  C   UNL A   1      35.911  21.356  24.779  1.00  0.00     0.117 C 
ENDROOT
BRANCH   1   2
ATOM      2  N   UNL A   1      34.912  20.341  25.058  1.00  0.00    -0.354 N 
ATOM      3  C   UNL A   1      33.573  20.289  24.792  1.00  0.00     0.241 C 
ATOM      4  O   UNL A   1      33.019  19.206  25.011  1.00  0.00    -0.273 OA
ATOM      5  H   UNL A   1      35.262  19.546  25.523  1.00  0.00     0.163 HD
BRANCH   3   6
ATOM      6  C   UNL A   1      32.808  21.404  24.113  1.00  0.00     0.244 C 
BRANCH   6   7
ATOM      7  N   UNL A   1      32.111  22.313  25.009  1.00  0.00    -0.258 N 
ATOM      8  C   UNL A   1      29.346  22.706  27.167  1.00  0.00     0.071 C 
ATOM      9  C   UNL A   1      30.577  22.879  26.350  1.00  0.00     0.083 A 
ATOM     10  N   UNL A   1      31.007  21.857  25.617  1.00  0.00    -0.175 NA
ATOM     11  C   UNL A   1      31.420  24.028  26.217  1.00  0.00     0.086 A 
ATOM     12  C   UNL A   1      32.381  23.644  25.289  1.00  0.00     0.060 A 
ATOM     13  C   UNL A   1      33.549  24.327  24.673  1.00  0.00     0.069 C 
BRANCH  11  14
ATOM     14  N   UNL A   1      31.197  25.184  26.951  1.00  0.00    -0.315 N 
ATOM     15  C   UNL A   1      31.362  26.529  26.733  1.00  0.00     0.314 C 
ATOM     16  H   UNL A   1      30.833  24.993  27.847  1.00  0.00     0.170 HD
ATOM     17  O   UNL A   1      31.090  27.330  27.625  1.00  0.00    -0.263 OA
BRANCH  15  18
ATOM     18  C   UNL A   1      31.742  27.047  25.364  1.00  0.00     0.314 C 
ATOM     19  O   UNL A   1      30.994  26.819  24.416  1.00  0.00    -0.263 OA
ATOM     20  N   UNL A   1      32.916  27.756  25.163  1.00  0.00    -0.318 N 
ATOM     21  H   UNL A   1      33.555  27.418  24.494  1.00  0.00     0.170 HD
BRANCH  20  22
ATOM     22  C   UNL A   1      33.248  28.933  25.861  1.00  0.00     0.041 A 
ATOM     23  C   UNL A   1      32.303  29.967  25.792  1.00  0.00     0.029 A 
ATOM     24  C   UNL A   1      34.393  29.093  26.641  1.00  0.00     0.029 A 
ATOM     25  C   UNL A   1      32.441  31.102  26.586  1.00  0.00     0.041 A 
ATOM     26  C   UNL A   1      34.541  30.244  27.422  1.00  0.00     0.041 A 
ATOM     27  C   UNL A   1      33.552  31.224  27.408  1.00  0.00     0.123 A 
ATOM     28  F   UNL A   1      33.666  32.296  28.201  1.00  0.00    -0.207 F 
ENDBRANCH  20  22
ENDBRANCH  15  18
ENDBRANCH  11  14
ENDBRANCH   6   7
ENDBRANCH   3   6
ENDBRANCH   1   2
BRANCH   1  29
ATOM     29  C   UNL A   1      36.218  22.275  25.965  1.00  0.00     0.042 C 
BRANCH  29  30
ATOM     30  C   UNL A   1      37.584  22.926  25.860  1.00  0.00     0.118 C 
BRANCH  30  31
ATOM     31  N   UNL A   1      38.671  22.080  26.380  1.00  0.00    -0.352 N 
ATOM     32  C   UNL A   1      39.929  22.473  26.816  1.00  0.00     0.251 C 
ATOM     33  H   UNL A   1      38.482  21.115  26.424  1.00  0.00     0.163 HD
ATOM     34  O   UNL A   1      40.850  21.665  26.898  1.00  0.00    -0.269 OA
BRANCH  32  35
ATOM     35  C   UNL A   1      40.121  23.883  27.185  1.00  0.00     0.039 A 
ATOM     36  C   UNL A   1      39.124  24.858  27.073  1.00  0.00     0.014 A 
ATOM     37  C   UNL A   1      41.338  24.178  27.776  1.00  0.00     0.014 A 
ATOM     38  C   UNL A   1      39.346  26.106  27.658  1.00  0.00     0.010 A 
ATOM     39  C   UNL A   1      41.419  25.264  28.590  1.00  0.00     0.010 A 
ATOM     40  C   UNL A   1      40.498  26.289  28.435  1.00  0.00    -0.014 A 
BRANCH  40  41
ATOM     41  C   UNL A   1      40.805  27.523  29.145  1.00  0.00     0.031 A 
ATOM     42  C   UNL A   1      41.826  28.394  28.511  1.00  0.00     0.074 A 
ATOM     43  C   UNL A   1      39.995  27.976  30.130  1.00  0.00     0.049 A 
ATOM     44  N   UNL A   1      43.017  28.653  28.938  1.00  0.00    -0.248 NA
ATOM     45  C   UNL A   1      41.541  28.948  27.177  1.00  0.00     0.031 C 
ATOM     46  C   UNL A   1      38.731  27.395  30.620  1.00  0.00     0.029 A 
ATOM     47  N   UNL A   1      40.045  29.154  30.798  1.00  0.00    -0.354 N 
ATOM     48  C   UNL A   1      43.549  29.583  28.052  1.00  0.00     0.074 A 
ATOM     49  C   UNL A   1      42.691  29.564  26.893  1.00  0.00     0.031 C 
ATOM     50  C   UNL A   1      38.021  28.338  31.277  1.00  0.00     0.029 A 
ATOM     51  C   UNL A   1      38.861  29.506  31.438  1.00  0.00     0.049 A 
ATOM     52  H   UNL A   1      40.853  29.715  30.829  1.00  0.00     0.167 HD
ATOM     53  C   UNL A   1      44.502  30.479  28.441  1.00  0.00     0.031 A 
ATOM     54  C   UNL A   1      38.584  30.692  32.034  1.00  0.00     0.031 A 
ATOM     55  C   UNL A   1      45.007  30.170  29.757  1.00  0.00     0.049 A 
ATOM     56  C   UNL A   1      39.890  31.339  32.314  1.00  0.00     0.074 A 
ATOM     57  C   UNL A   1      45.652  29.090  30.326  1.00  0.00     0.029 A 
ATOM     58  N   UNL A   1      44.487  30.898  30.804  1.00  0.00    -0.354 N 
ATOM     59  N   UNL A   1      40.773  30.837  33.133  1.00  0.00    -0.248 NA
ATOM     60  C   UNL A   1      40.417  32.269  31.328  1.00  0.00     0.031 C 
ATOM     61  C   UNL A   1      45.069  28.963  31.623  1.00  0.00     0.029 A 
ATOM     62  C   UNL A   1      44.165  30.013  31.802  1.00  0.00     0.049 A 
ATOM     63  H   UNL A   1      44.368  31.874  30.832  1.00  0.00     0.167 HD
ATOM     64  C   UNL A   1      41.997  31.032  32.505  1.00  0.00     0.074 A 
ATOM     65  C   UNL A   1      41.723  32.010  31.452  1.00  0.00     0.031 C 
ATOM     66  C   UNL A   1      43.045  30.177  32.708  1.00  0.00     0.031 A 
BRANCH  53  67
ATOM     67  C   UNL A   1      44.690  31.852  27.839  1.00  0.00    -0.014 A 
ATOM     68  C   UNL A   1      45.925  32.153  27.226  1.00  0.00     0.010 A 
ATOM     69  C   UNL A   1      43.823  32.933  28.092  1.00  0.00     0.010 A 
ATOM     70  C   UNL A   1      46.309  33.475  26.970  1.00  0.00     0.020 A 
ATOM     71  C   UNL A   1      44.177  34.252  27.798  1.00  0.00     0.020 A 
ATOM     72  C   UNL A   1      45.436  34.518  27.279  1.00  0.00     0.054 A 
BRANCH  72  73
ATOM     73  S   UNL A   1      45.994  36.227  27.075  1.00  0.00     0.124 S 
ATOM     74  O   UNL A   1      46.760  36.439  28.300  1.00  0.00    -0.237 OA
ATOM     75  O   UNL A   1      46.773  36.154  25.843  1.00  0.00    -0.237 OA
ATOM     76  O   UNL A   1      44.748  36.983  26.976  1.00  0.00    -0.744 OA
ENDBRANCH  72  73
ENDBRANCH  53  67
BRANCH  54  77
ATOM     77  C   UNL A   1      37.285  31.409  32.068  1.00  0.00    -0.014 A 
ATOM     78  C   UNL A   1      36.819  32.019  33.245  1.00  0.00     0.010 A 
ATOM     79  C   UNL A   1      36.628  31.730  30.859  1.00  0.00     0.010 A 
ATOM     80  C   UNL A   1      35.775  32.962  33.207  1.00  0.00     0.020 A 
ATOM     81  C   UNL A   1      35.586  32.664  30.815  1.00  0.00     0.020 A 
ATOM     82  C   UNL A   1      35.179  33.294  31.988  1.00  0.00     0.054 A 
BRANCH  82  83
ATOM     83  S   UNL A   1      33.959  34.643  31.926  1.00  0.00     0.124 S 
ATOM     84  O   UNL A   1      34.723  35.777  32.436  1.00  0.00    -0.237 OA
ATOM     85  O   UNL A   1      33.620  34.699  30.506  1.00  0.00    -0.237 OA
ATOM     86  O   UNL A   1      32.883  34.176  32.798  1.00  0.00    -0.744 OA
ENDBRANCH  82  83
ENDBRANCH  54  77
BRANCH  66  87
ATOM     87  C   UNL A   1      42.939  29.158  33.823  1.00  0.00    -0.014 A 
ATOM     88  C   UNL A   1      43.185  29.451  35.180  1.00  0.00     0.010 A 
ATOM     89  C   UNL A   1      42.410  27.896  33.500  1.00  0.00     0.010 A 
ATOM     90  C   UNL A   1      42.929  28.498  36.180  1.00  0.00     0.020 A 
ATOM     91  C   UNL A   1      42.138  26.950  34.491  1.00  0.00     0.020 A 
ATOM     92  C   UNL A   1      42.407  27.250  35.826  1.00  0.00     0.054 A 
BRANCH  92  93
ATOM     93  S   UNL A   1      42.040  26.033  37.122  1.00  0.00     0.124 S 
ATOM     94  O   UNL A   1      43.112  26.261  38.086  1.00  0.00    -0.237 OA
ATOM     95  O   UNL A   1      40.702  26.421  37.566  1.00  0.00    -0.237 OA
ATOM     96  O   UNL A   1      42.101  24.750  36.423  1.00  0.00    -0.744 OA
ENDBRANCH  92  93
ENDBRANCH  66  87
ENDBRANCH  40  41
ENDBRANCH  32  35
ENDBRANCH  30  31
ENDBRANCH  29  30
ENDBRANCH   1  29
TORSDOF 17
ENDMDL
