MODEL 1
REMARK VINA RESULT:     -13.8      0.000      0.000
REMARK SMILES Cc1cccc(C(=O)NCCCNC(=O)c2ccc(-c3c4nc(c(-c5ccc(S(=O)(=O)[O-])cc5)c5ccc([nH]5)c(-c5ccc(S(=O)(=O)[O-])cc5)c5nc(c(-c6ccc(S(=O)(=O)[O-])cc6)c6ccc3[nH]6)C=C5)C=C4)cc2)c1OC[C@@H]1C[C@H]2CC[C@@H]1C2
REMARK SMILES IDX 11 1 10 2 9 3 7 4 8 5 6 7 1 8 2 9 3 10 76 11 4 12 5 13 77 14
REMARK SMILES IDX 78 15 79 16 80 17 84 18 81 19 83 20 85 21 82 22 12 23 13 24
REMARK SMILES IDX 14 25 15 27 16 28 17 29 75 30 18 31 74 32 19 33 20 34 21 35
REMARK SMILES IDX 68 36 22 37 73 38 67 39 69 40 23 41 72 42 66 43 65 44 24 46
REMARK SMILES IDX 54 47 35 48 53 49 36 50 39 51 52 52 70 53 37 54 38 55 51 57
REMARK SMILES IDX 71 58 40 59 25 60 26 61 34 62 27 63 33 64 28 65 29 66 30 67
REMARK SMILES IDX 31 68 32 69 55 70 56 71 64 72 57 73 63 74 58 75 59 76 60 77
REMARK SMILES IDX 61 78 62 79 41 80 42 81 50 82 43 83 49 84 44 85 45 86 46 87
REMARK SMILES IDX 47 88 48 89
REMARK H PARENT 9 6 13 26 69 45 39 56
REMARK Flexibility Score: inf
ROOT
ATOM      1  C   UNL A   1      33.093  30.355  27.099  1.00  0.00     0.042 C 
ENDROOT
BRANCH   1   2
ATOM      2  C   UNL A   1      32.322  29.678  25.973  1.00  0.00     0.118 C 
BRANCH   2   3
ATOM      3  N   UNL A   1      31.723  28.453  26.457  1.00  0.00    -0.352 N 
ATOM      4  C   UNL A   1      31.757  27.155  26.035  1.00  0.00     0.255 C 
ATOM      5  O   UNL A   1      31.018  26.389  26.671  1.00  0.00    -0.269 OA
ATOM      6  H   UNL A   1      31.173  28.583  27.264  1.00  0.00     0.163 HD
BRANCH   4   7
ATOM      7  C   UNL A   1      32.596  26.546  24.942  1.00  0.00     0.082 A 
ATOM      8  C   UNL A   1      32.880  25.678  21.213  1.00  0.00     0.048 C 
ATOM      9  C   UNL A   1      33.167  25.808  22.685  1.00  0.00    -0.008 A 
ATOM     10  C   UNL A   1      33.951  24.770  23.224  1.00  0.00     0.007 A 
ATOM     11  C   UNL A   1      32.582  26.775  23.543  1.00  0.00     0.134 A 
ATOM     12  C   UNL A   1      34.076  24.613  24.592  1.00  0.00     0.001 A 
ATOM     13  C   UNL A   1      33.378  25.470  25.433  1.00  0.00     0.018 A 
BRANCH  11  14
ATOM     14  O   UNL A   1      31.900  27.841  23.042  1.00  0.00    -0.492 OA
BRANCH  14  15
ATOM     15  C   UNL A   1      30.487  27.748  22.751  1.00  0.00     0.233 C 
BRANCH  15  16
ATOM     16  C   UNL A   1      29.544  28.747  23.448  1.00  0.00     0.030 C 
ATOM     17  C   UNL A   1      28.046  28.515  23.081  1.00  0.00     0.011 C 
ATOM     18  C   UNL A   1      29.760  30.182  22.899  1.00  0.00    -0.004 C 
ATOM     19  C   UNL A   1      27.619  29.842  22.427  1.00  0.00    -0.010 C 
ATOM     20  C   UNL A   1      29.045  31.182  23.818  1.00  0.00     0.004 C 
ATOM     21  C   UNL A   1      28.876  30.216  21.651  1.00  0.00     0.007 C 
ATOM     22  C   UNL A   1      27.565  30.942  23.498  1.00  0.00     0.004 C 
ENDBRANCH  15  16
ENDBRANCH  14  15
ENDBRANCH  11  14
ENDBRANCH   4   7
ENDBRANCH   2   3
ENDBRANCH   1   2
BRANCH   1  23
ATOM     23  C   UNL A   1      34.547  29.948  27.203  1.00  0.00     0.118 C 
BRANCH  23  24
ATOM     24  N   UNL A   1      35.383  31.106  27.531  1.00  0.00    -0.352 N 
ATOM     25  C   UNL A   1      36.633  31.122  28.123  1.00  0.00     0.251 C 
ATOM     26  H   UNL A   1      35.005  31.986  27.301  1.00  0.00     0.163 HD
ATOM     27  O   UNL A   1      37.151  32.115  28.586  1.00  0.00    -0.269 OA
BRANCH  25  28
ATOM     28  C   UNL A   1      37.370  29.851  28.026  1.00  0.00     0.039 A 
ATOM     29  C   UNL A   1      37.399  29.088  29.200  1.00  0.00     0.014 A 
ATOM     30  C   UNL A   1      38.339  29.727  27.036  1.00  0.00     0.014 A 
ATOM     31  C   UNL A   1      38.532  28.341  29.487  1.00  0.00     0.010 A 
ATOM     32  C   UNL A   1      39.502  29.063  27.373  1.00  0.00     0.010 A 
ATOM     33  C   UNL A   1      39.617  28.424  28.620  1.00  0.00    -0.014 A 
BRANCH  33  34
ATOM     34  C   UNL A   1      40.928  27.870  28.926  1.00  0.00     0.031 A 
ATOM     35  C   UNL A   1      41.155  26.440  28.595  1.00  0.00     0.074 A 
ATOM     36  C   UNL A   1      41.923  28.639  29.428  1.00  0.00     0.049 A 
ATOM     37  N   UNL A   1      42.124  25.720  29.047  1.00  0.00    -0.248 NA
ATOM     38  C   UNL A   1      40.228  25.680  27.756  1.00  0.00     0.031 C 
ATOM     39  C   UNL A   1      43.339  28.276  29.497  1.00  0.00     0.029 A 
ATOM     40  N   UNL A   1      41.879  29.845  30.136  1.00  0.00    -0.354 N 
ATOM     41  C   UNL A   1      42.128  24.537  28.339  1.00  0.00     0.074 A 
ATOM     42  C   UNL A   1      40.877  24.522  27.624  1.00  0.00     0.031 C 
ATOM     43  C   UNL A   1      43.929  29.021  30.446  1.00  0.00     0.029 A 
ATOM     44  C   UNL A   1      42.868  29.740  31.127  1.00  0.00     0.049 A 
ATOM     45  H   UNL A   1      41.279  30.609  29.973  1.00  0.00     0.167 HD
ATOM     46  C   UNL A   1      43.256  23.773  28.326  1.00  0.00     0.031 A 
ATOM     47  C   UNL A   1      42.631  29.654  32.474  1.00  0.00     0.031 A 
ATOM     48  C   UNL A   1      44.229  24.257  29.306  1.00  0.00     0.049 A 
ATOM     49  C   UNL A   1      43.222  28.400  33.110  1.00  0.00     0.074 A 
ATOM     50  C   UNL A   1      45.367  25.041  29.210  1.00  0.00     0.029 A 
ATOM     51  N   UNL A   1      43.896  24.210  30.655  1.00  0.00    -0.354 N 
ATOM     52  N   UNL A   1      43.579  27.341  32.432  1.00  0.00    -0.248 NA
ATOM     53  C   UNL A   1      43.440  28.226  34.545  1.00  0.00     0.031 C 
ATOM     54  C   UNL A   1      45.652  25.554  30.506  1.00  0.00     0.029 A 
ATOM     55  C   UNL A   1      44.713  25.049  31.389  1.00  0.00     0.049 A 
ATOM     56  H   UNL A   1      43.178  23.655  31.036  1.00  0.00     0.167 HD
ATOM     57  C   UNL A   1      44.073  26.384  33.279  1.00  0.00     0.074 A 
ATOM     58  C   UNL A   1      43.970  26.990  34.594  1.00  0.00     0.031 C 
ATOM     59  C   UNL A   1      44.523  25.174  32.830  1.00  0.00     0.031 A 
BRANCH  46  60
ATOM     60  C   UNL A   1      43.574  22.782  27.224  1.00  0.00    -0.014 A 
ATOM     61  C   UNL A   1      42.665  21.742  26.938  1.00  0.00     0.010 A 
ATOM     62  C   UNL A   1      44.782  22.754  26.499  1.00  0.00     0.010 A 
ATOM     63  C   UNL A   1      42.983  20.694  26.057  1.00  0.00     0.020 A 
ATOM     64  C   UNL A   1      45.128  21.701  25.642  1.00  0.00     0.020 A 
ATOM     65  C   UNL A   1      44.228  20.666  25.433  1.00  0.00     0.054 A 
BRANCH  65  66
ATOM     66  S   UNL A   1      44.664  19.275  24.358  1.00  0.00     0.124 S 
ATOM     67  O   UNL A   1      46.072  19.055  24.682  1.00  0.00    -0.237 OA
ATOM     68  O   UNL A   1      43.743  18.234  24.804  1.00  0.00    -0.237 OA
ATOM     69  O   UNL A   1      44.416  19.786  23.011  1.00  0.00    -0.744 OA
ENDBRANCH  65  66
ENDBRANCH  46  60
BRANCH  47  70
ATOM     70  C   UNL A   1      41.399  30.350  32.934  1.00  0.00    -0.014 A 
ATOM     71  C   UNL A   1      40.257  29.554  33.171  1.00  0.00     0.010 A 
ATOM     72  C   UNL A   1      41.472  31.622  33.526  1.00  0.00     0.010 A 
ATOM     73  C   UNL A   1      39.320  29.927  34.135  1.00  0.00     0.020 A 
ATOM     74  C   UNL A   1      40.522  32.005  34.486  1.00  0.00     0.020 A 
ATOM     75  C   UNL A   1      39.498  31.119  34.837  1.00  0.00     0.054 A 
BRANCH  75  76
ATOM     76  S   UNL A   1      38.511  31.373  36.344  1.00  0.00     0.124 S 
ATOM     77  O   UNL A   1      37.377  32.145  35.850  1.00  0.00    -0.237 OA
ATOM     78  O   UNL A   1      38.207  29.997  36.745  1.00  0.00    -0.237 OA
ATOM     79  O   UNL A   1      39.424  32.087  37.230  1.00  0.00    -0.744 OA
ENDBRANCH  75  76
ENDBRANCH  47  70
BRANCH  59  80
ATOM     80  C   UNL A   1      44.895  23.988  33.693  1.00  0.00    -0.014 A 
ATOM     81  C   UNL A   1      43.999  22.981  34.079  1.00  0.00     0.010 A 
ATOM     82  C   UNL A   1      46.260  23.789  34.021  1.00  0.00     0.010 A 
ATOM     83  C   UNL A   1      44.430  21.860  34.804  1.00  0.00     0.020 A 
ATOM     84  C   UNL A   1      46.708  22.653  34.701  1.00  0.00     0.020 A 
ATOM     85  C   UNL A   1      45.783  21.702  35.111  1.00  0.00     0.054 A 
BRANCH  85  86
ATOM     86  S   UNL A   1      46.345  20.214  35.975  1.00  0.00     0.124 S 
ATOM     87  O   UNL A   1      45.792  19.153  35.137  1.00  0.00    -0.237 OA
ATOM     88  O   UNL A   1      47.801  20.343  35.940  1.00  0.00    -0.237 OA
ATOM     89  O   UNL A   1      45.749  20.342  37.301  1.00  0.00    -0.744 OA
ENDBRANCH  85  86
ENDBRANCH  59  80
ENDBRANCH  33  34
ENDBRANCH  25  28
ENDBRANCH  23  24
ENDBRANCH   1  23
TORSDOF 16
ENDMDL
MODEL 2
REMARK VINA RESULT:     -13.6      5.451     11.938
REMARK SMILES Cc1cccc(C(=O)NCCCNC(=O)c2ccc(-c3c4nc(c(-c5ccc(S(=O)(=O)[O-])cc5)c5ccc([nH]5)c(-c5ccc(S(=O)(=O)[O-])cc5)c5nc(c(-c6ccc(S(=O)(=O)[O-])cc6)c6ccc3[nH]6)C=C5)C=C4)cc2)c1OC[C@@H]1C[C@H]2CC[C@@H]1C2
REMARK SMILES IDX 11 1 10 2 9 3 7 4 8 5 6 7 1 8 2 9 3 10 76 11 4 12 5 13 77 14
REMARK SMILES IDX 78 15 79 16 80 17 84 18 81 19 83 20 85 21 82 22 12 23 13 24
REMARK SMILES IDX 14 25 15 27 16 28 17 29 75 30 18 31 74 32 19 33 20 34 21 35
REMARK SMILES IDX 68 36 22 37 73 38 67 39 69 40 23 41 72 42 66 43 65 44 24 46
REMARK SMILES IDX 54 47 35 48 53 49 36 50 39 51 52 52 70 53 37 54 38 55 51 57
REMARK SMILES IDX 71 58 40 59 25 60 26 61 34 62 27 63 33 64 28 65 29 66 30 67
REMARK SMILES IDX 31 68 32 69 55 70 56 71 64 72 57 73 63 74 58 75 59 76 60 77
REMARK SMILES IDX 61 78 62 79 41 80 42 81 50 82 43 83 49 84 44 85 45 86 46 87
REMARK SMILES IDX 47 88 48 89
REMARK H PARENT 9 6 13 26 69 45 39 56
REMARK Flexibility Score: inf
ROOT
ATOM      1  C   UNL A   1      37.931  21.983  25.552  1.00  0.00     0.042 C 
ENDROOT
BRANCH   1   2
ATOM      2  C   UNL A   1      36.464  21.835  25.167  1.00  0.00     0.118 C 
BRANCH   2   3
ATOM      3  N   UNL A   1      35.679  21.528  26.343  1.00  0.00    -0.352 N 
ATOM      4  C   UNL A   1      34.482  21.978  26.822  1.00  0.00     0.255 C 
ATOM      5  O   UNL A   1      34.178  21.535  27.940  1.00  0.00    -0.269 OA
ATOM      6  H   UNL A   1      36.096  20.848  26.921  1.00  0.00     0.163 HD
BRANCH   4   7
ATOM      7  C   UNL A   1      33.489  22.895  26.156  1.00  0.00     0.082 A 
ATOM      8  C   UNL A   1      30.913  23.345  23.346  1.00  0.00     0.048 C 
ATOM      9  C   UNL A   1      31.815  23.599  24.524  1.00  0.00    -0.008 A 
ATOM     10  C   UNL A   1      32.255  24.931  24.650  1.00  0.00     0.007 A 
ATOM     11  C   UNL A   1      32.352  22.592  25.366  1.00  0.00     0.134 A 
ATOM     12  C   UNL A   1      33.282  25.260  25.516  1.00  0.00     0.001 A 
ATOM     13  C   UNL A   1      33.909  24.247  26.228  1.00  0.00     0.018 A 
BRANCH  11  14
ATOM     14  O   UNL A   1      31.877  21.317  25.329  1.00  0.00    -0.492 OA
BRANCH  14  15
ATOM     15  C   UNL A   1      32.442  20.340  24.426  1.00  0.00     0.233 C 
BRANCH  15  16
ATOM     16  C   UNL A   1      33.014  19.045  25.034  1.00  0.00     0.030 C 
ATOM     17  C   UNL A   1      34.469  18.750  24.556  1.00  0.00     0.011 C 
ATOM     18  C   UNL A   1      32.267  17.802  24.482  1.00  0.00    -0.004 C 
ATOM     19  C   UNL A   1      34.353  17.385  23.851  1.00  0.00    -0.010 C 
ATOM     20  C   UNL A   1      32.641  16.578  25.329  1.00  0.00     0.004 C 
ATOM     21  C   UNL A   1      32.997  17.509  23.169  1.00  0.00     0.007 C 
ATOM     22  C   UNL A   1      34.086  16.295  24.900  1.00  0.00     0.004 C 
ENDBRANCH  15  16
ENDBRANCH  14  15
ENDBRANCH  11  14
ENDBRANCH   4   7
ENDBRANCH   2   3
ENDBRANCH   1   2
BRANCH   1  23
ATOM     23  C   UNL A   1      38.255  23.231  26.345  1.00  0.00     0.118 C 
BRANCH  23  24
ATOM     24  N   UNL A   1      39.464  23.031  27.147  1.00  0.00    -0.352 N 
ATOM     25  C   UNL A   1      40.298  23.990  27.694  1.00  0.00     0.251 C 
ATOM     26  H   UNL A   1      39.715  22.095  27.318  1.00  0.00     0.163 HD
ATOM     27  O   UNL A   1      41.405  23.756  28.130  1.00  0.00    -0.269 OA
BRANCH  25  28
ATOM     28  C   UNL A   1      39.684  25.320  27.844  1.00  0.00     0.039 A 
ATOM     29  C   UNL A   1      40.183  26.307  26.985  1.00  0.00     0.014 A 
ATOM     30  C   UNL A   1      39.073  25.629  29.055  1.00  0.00     0.014 A 
ATOM     31  C   UNL A   1      40.265  27.614  27.441  1.00  0.00     0.010 A 
ATOM     32  C   UNL A   1      39.249  26.910  29.540  1.00  0.00     0.010 A 
ATOM     33  C   UNL A   1      39.897  27.881  28.756  1.00  0.00    -0.014 A 
BRANCH  33  34
ATOM     34  C   UNL A   1      40.146  29.156  29.412  1.00  0.00     0.031 A 
ATOM     35  C   UNL A   1      39.118  30.216  29.251  1.00  0.00     0.074 A 
ATOM     36  C   UNL A   1      41.237  29.351  30.192  1.00  0.00     0.049 A 
ATOM     37  N   UNL A   1      39.296  31.466  29.507  1.00  0.00    -0.248 NA
ATOM     38  C   UNL A   1      37.791  29.934  28.704  1.00  0.00     0.031 C 
ATOM     39  C   UNL A   1      41.441  30.463  31.122  1.00  0.00     0.029 A 
ATOM     40  N   UNL A   1      42.472  28.696  30.217  1.00  0.00    -0.354 N 
ATOM     41  C   UNL A   1      38.063  32.081  29.460  1.00  0.00     0.074 A 
ATOM     42  C   UNL A   1      37.182  31.110  28.862  1.00  0.00     0.031 C 
ATOM     43  C   UNL A   1      42.758  30.600  31.346  1.00  0.00     0.029 A 
ATOM     44  C   UNL A   1      43.431  29.703  30.425  1.00  0.00     0.049 A 
ATOM     45  H   UNL A   1      42.637  27.731  30.111  1.00  0.00     0.167 HD
ATOM     46  C   UNL A   1      37.898  33.289  30.067  1.00  0.00     0.031 A 
ATOM     47  C   UNL A   1      44.360  30.110  29.505  1.00  0.00     0.031 A 
ATOM     48  C   UNL A   1      39.185  33.851  30.478  1.00  0.00     0.049 A 
ATOM     49  C   UNL A   1      44.274  31.598  29.181  1.00  0.00     0.074 A 
ATOM     50  C   UNL A   1      39.858  33.903  31.688  1.00  0.00     0.029 A 
ATOM     51  N   UNL A   1      40.115  34.176  29.496  1.00  0.00    -0.354 N 
ATOM     52  N   UNL A   1      43.227  32.337  29.435  1.00  0.00    -0.248 NA
ATOM     53  C   UNL A   1      45.337  32.365  28.535  1.00  0.00     0.031 C 
ATOM     54  C   UNL A   1      41.231  34.157  31.411  1.00  0.00     0.029 A 
ATOM     55  C   UNL A   1      41.379  34.298  30.042  1.00  0.00     0.049 A 
ATOM     56  H   UNL A   1      39.903  34.301  28.543  1.00  0.00     0.167 HD
ATOM     57  C   UNL A   1      43.451  33.628  29.032  1.00  0.00     0.074 A 
ATOM     58  C   UNL A   1      44.793  33.596  28.479  1.00  0.00     0.031 C 
ATOM     59  C   UNL A   1      42.516  34.613  29.184  1.00  0.00     0.031 A 
BRANCH  46  60
ATOM     60  C   UNL A   1      36.552  33.805  30.537  1.00  0.00    -0.014 A 
ATOM     61  C   UNL A   1      35.606  34.247  29.590  1.00  0.00     0.010 A 
ATOM     62  C   UNL A   1      36.189  33.970  31.888  1.00  0.00     0.010 A 
ATOM     63  C   UNL A   1      34.418  34.898  29.969  1.00  0.00     0.020 A 
ATOM     64  C   UNL A   1      35.025  34.645  32.283  1.00  0.00     0.020 A 
ATOM     65  C   UNL A   1      34.149  35.117  31.318  1.00  0.00     0.054 A 
BRANCH  65  66
ATOM     66  S   UNL A   1      32.656  36.023  31.800  1.00  0.00     0.124 S 
ATOM     67  O   UNL A   1      33.184  37.045  32.701  1.00  0.00    -0.237 OA
ATOM     68  O   UNL A   1      32.156  36.509  30.517  1.00  0.00    -0.237 OA
ATOM     69  O   UNL A   1      31.824  35.006  32.443  1.00  0.00    -0.744 OA
ENDBRANCH  65  66
ENDBRANCH  46  60
BRANCH  47  70
ATOM     70  C   UNL A   1      44.805  29.050  28.559  1.00  0.00    -0.014 A 
ATOM     71  C   UNL A   1      44.151  28.985  27.309  1.00  0.00     0.010 A 
ATOM     72  C   UNL A   1      46.068  28.452  28.694  1.00  0.00     0.010 A 
ATOM     73  C   UNL A   1      44.828  28.524  26.178  1.00  0.00     0.020 A 
ATOM     74  C   UNL A   1      46.744  27.975  27.560  1.00  0.00     0.020 A 
ATOM     75  C   UNL A   1      46.146  28.087  26.301  1.00  0.00     0.054 A 
BRANCH  75  76
ATOM     76  S   UNL A   1      47.120  27.887  24.776  1.00  0.00     0.124 S 
ATOM     77  O   UNL A   1      46.771  26.535  24.356  1.00  0.00    -0.237 OA
ATOM     78  O   UNL A   1      46.591  28.963  23.934  1.00  0.00    -0.237 OA
ATOM     79  O   UNL A   1      48.495  28.074  25.227  1.00  0.00    -0.744 OA
ENDBRANCH  75  76
ENDBRANCH  47  70
BRANCH  59  80
ATOM     80  C   UNL A   1      42.588  36.005  28.597  1.00  0.00    -0.014 A 
ATOM     81  C   UNL A   1      41.946  36.397  27.414  1.00  0.00     0.010 A 
ATOM     82  C   UNL A   1      43.222  37.027  29.350  1.00  0.00     0.010 A 
ATOM     83  C   UNL A   1      41.979  37.729  26.973  1.00  0.00     0.020 A 
ATOM     84  C   UNL A   1      43.220  38.365  28.944  1.00  0.00     0.020 A 
ATOM     85  C   UNL A   1      42.616  38.705  27.741  1.00  0.00     0.054 A 
BRANCH  85  86
ATOM     86  S   UNL A   1      42.584  40.435  27.208  1.00  0.00     0.124 S 
ATOM     87  O   UNL A   1      41.154  40.667  27.024  1.00  0.00    -0.237 OA
ATOM     88  O   UNL A   1      43.193  41.138  28.337  1.00  0.00    -0.237 OA
ATOM     89  O   UNL A   1      43.382  40.432  25.985  1.00  0.00    -0.744 OA
ENDBRANCH  85  86
ENDBRANCH  59  80
ENDBRANCH  33  34
ENDBRANCH  25  28
ENDBRANCH  23  24
ENDBRANCH   1  23
TORSDOF 16
ENDMDL
MODEL 3
REMARK VINA RESULT:     -13.2      5.098     11.368
REMARK SMILES Cc1cccc(C(=O)NCCCNC(=O)c2ccc(-c3c4nc(c(-c5ccc(S(=O)(=O)[O-])cc5)c5ccc([nH]5)c(-c5ccc(S(=O)(=O)[O-])cc5)c5nc(c(-c6ccc(S(=O)(=O)[O-])cc6)c6ccc3[nH]6)C=C5)C=C4)cc2)c1OC[C@@H]1C[C@H]2CC[C@@H]1C2
REMARK SMILES IDX 11 1 10 2 9 3 7 4 8 5 6 7 1 8 2 9 3 10 76 11 4 12 5 13 77 14
REMARK SMILES IDX 78 15 79 16 80 17 84 18 81 19 83 20 85 21 82 22 12 23 13 24
REMARK SMILES IDX 14 25 15 27 16 28 17 29 75 30 18 31 74 32 19 33 20 34 21 35
REMARK SMILES IDX 68 36 22 37 73 38 67 39 69 40 23 41 72 42 66 43 65 44 24 46
REMARK SMILES IDX 54 47 35 48 53 49 36 50 39 51 52 52 70 53 37 54 38 55 51 57
REMARK SMILES IDX 71 58 40 59 25 60 26 61 34 62 27 63 33 64 28 65 29 66 30 67
REMARK SMILES IDX 31 68 32 69 55 70 56 71 64 72 57 73 63 74 58 75 59 76 60 77
REMARK SMILES IDX 61 78 62 79 41 80 42 81 50 82 43 83 49 84 44 85 45 86 46 87
REMARK SMILES IDX 47 88 48 89
REMARK H PARENT 9 6 13 26 69 45 39 56
REMARK Flexibility Score: inf
ROOT
ATOM      1  C   UNL A   1      37.875  22.262  25.384  1.00  0.00     0.042 C 
ENDROOT
BRANCH   1   2
ATOM      2  C   UNL A   1      36.440  22.147  24.885  1.00  0.00     0.118 C 
BRANCH   2   3
ATOM      3  N   UNL A   1      35.536  22.057  26.012  1.00  0.00    -0.352 N 
ATOM      4  C   UNL A   1      34.250  22.463  26.224  1.00  0.00     0.255 C 
ATOM      5  O   UNL A   1      33.841  22.289  27.382  1.00  0.00    -0.269 OA
ATOM      6  H   UNL A   1      35.933  21.607  26.792  1.00  0.00     0.163 HD
BRANCH   4   7
ATOM      7  C   UNL A   1      33.275  23.047  25.235  1.00  0.00     0.082 A 
ATOM      8  C   UNL A   1      30.271  25.370  24.671  1.00  0.00     0.048 C 
ATOM      9  C   UNL A   1      31.389  24.386  24.451  1.00  0.00    -0.008 A 
ATOM     10  C   UNL A   1      31.157  23.453  23.422  1.00  0.00     0.007 A 
ATOM     11  C   UNL A   1      32.524  24.249  25.291  1.00  0.00     0.134 A 
ATOM     12  C   UNL A   1      31.963  22.340  23.279  1.00  0.00     0.001 A 
ATOM     13  C   UNL A   1      32.983  22.128  24.196  1.00  0.00     0.018 A 
BRANCH  11  14
ATOM     14  O   UNL A   1      32.823  25.186  26.231  1.00  0.00    -0.492 OA
BRANCH  14  15
ATOM     15  C   UNL A   1      33.547  26.387  25.878  1.00  0.00     0.233 C 
BRANCH  15  16
ATOM     16  C   UNL A   1      33.273  27.659  26.702  1.00  0.00     0.030 C 
ATOM     17  C   UNL A   1      31.783  28.112  26.628  1.00  0.00     0.011 C 
ATOM     18  C   UNL A   1      33.982  28.887  26.069  1.00  0.00    -0.004 C 
ATOM     19  C   UNL A   1      31.857  29.523  26.017  1.00  0.00    -0.010 C 
ATOM     20  C   UNL A   1      33.950  30.051  27.068  1.00  0.00     0.004 C 
ATOM     21  C   UNL A   1      32.986  29.357  25.008  1.00  0.00     0.007 C 
ATOM     22  C   UNL A   1      32.480  30.486  27.039  1.00  0.00     0.004 C 
ENDBRANCH  15  16
ENDBRANCH  14  15
ENDBRANCH  11  14
ENDBRANCH   4   7
ENDBRANCH   2   3
ENDBRANCH   1   2
BRANCH   1  23
ATOM     23  C   UNL A   1      38.121  23.407  26.343  1.00  0.00     0.118 C 
BRANCH  23  24
ATOM     24  N   UNL A   1      39.342  23.174  27.118  1.00  0.00    -0.352 N 
ATOM     25  C   UNL A   1      40.195  24.110  27.676  1.00  0.00     0.251 C 
ATOM     26  H   UNL A   1      39.588  22.232  27.259  1.00  0.00     0.163 HD
ATOM     27  O   UNL A   1      41.307  23.854  28.086  1.00  0.00    -0.269 OA
BRANCH  25  28
ATOM     28  C   UNL A   1      39.596  25.441  27.874  1.00  0.00     0.039 A 
ATOM     29  C   UNL A   1      40.077  26.443  27.022  1.00  0.00     0.014 A 
ATOM     30  C   UNL A   1      39.024  25.728  29.108  1.00  0.00     0.014 A 
ATOM     31  C   UNL A   1      40.182  27.739  27.503  1.00  0.00     0.010 A 
ATOM     32  C   UNL A   1      39.224  26.996  29.616  1.00  0.00     0.010 A 
ATOM     33  C   UNL A   1      39.857  27.980  28.834  1.00  0.00    -0.014 A 
BRANCH  33  34
ATOM     34  C   UNL A   1      40.135  29.238  29.510  1.00  0.00     0.031 A 
ATOM     35  C   UNL A   1      39.111  30.308  29.403  1.00  0.00     0.074 A 
ATOM     36  C   UNL A   1      41.249  29.407  30.261  1.00  0.00     0.049 A 
ATOM     37  N   UNL A   1      39.307  31.552  29.681  1.00  0.00    -0.248 NA
ATOM     38  C   UNL A   1      37.766  30.048  28.890  1.00  0.00     0.031 C 
ATOM     39  C   UNL A   1      41.491  30.497  31.209  1.00  0.00     0.029 A 
ATOM     40  N   UNL A   1      42.480  28.744  30.235  1.00  0.00    -0.354 N 
ATOM     41  C   UNL A   1      38.078  32.176  29.684  1.00  0.00     0.074 A 
ATOM     42  C   UNL A   1      37.171  31.225  29.092  1.00  0.00     0.031 C 
ATOM     43  C   UNL A   1      42.814  30.620  31.396  1.00  0.00     0.029 A 
ATOM     44  C   UNL A   1      43.452  29.738  30.436  1.00  0.00     0.049 A 
ATOM     45  H   UNL A   1      42.634  27.780  30.103  1.00  0.00     0.167 HD
ATOM     46  C   UNL A   1      37.940  33.372  30.322  1.00  0.00     0.031 A 
ATOM     47  C   UNL A   1      44.357  30.160  29.498  1.00  0.00     0.031 A 
ATOM     48  C   UNL A   1      39.243  33.915  30.707  1.00  0.00     0.049 A 
ATOM     49  C   UNL A   1      44.273  31.654  29.210  1.00  0.00     0.074 A 
ATOM     50  C   UNL A   1      39.952  33.936  31.897  1.00  0.00     0.029 A 
ATOM     51  N   UNL A   1      40.146  34.255  29.705  1.00  0.00    -0.354 N 
ATOM     52  N   UNL A   1      43.240  32.395  29.511  1.00  0.00    -0.248 NA
ATOM     53  C   UNL A   1      45.323  32.428  28.549  1.00  0.00     0.031 C 
ATOM     54  C   UNL A   1      41.318  34.185  31.585  1.00  0.00     0.029 A 
ATOM     55  C   UNL A   1      41.426  34.356  30.215  1.00  0.00     0.049 A 
ATOM     56  H   UNL A   1      39.906  34.402  28.762  1.00  0.00     0.167 HD
ATOM     57  C   UNL A   1      43.462  33.693  29.130  1.00  0.00     0.074 A 
ATOM     58  C   UNL A   1      44.787  33.663  28.536  1.00  0.00     0.031 C 
ATOM     59  C   UNL A   1      42.540  34.681  29.331  1.00  0.00     0.031 A 
BRANCH  46  60
ATOM     60  C   UNL A   1      36.613  33.886  30.844  1.00  0.00    -0.014 A 
ATOM     61  C   UNL A   1      35.519  34.013  29.962  1.00  0.00     0.010 A 
ATOM     62  C   UNL A   1      36.397  34.351  32.156  1.00  0.00     0.010 A 
ATOM     63  C   UNL A   1      34.323  34.647  30.342  1.00  0.00     0.020 A 
ATOM     64  C   UNL A   1      35.224  35.014  32.542  1.00  0.00     0.020 A 
ATOM     65  C   UNL A   1      34.194  35.170  31.626  1.00  0.00     0.054 A 
BRANCH  65  66
ATOM     66  S   UNL A   1      32.682  36.054  32.089  1.00  0.00     0.124 S 
ATOM     67  O   UNL A   1      32.315  36.724  30.843  1.00  0.00    -0.237 OA
ATOM     68  O   UNL A   1      31.800  34.969  32.507  1.00  0.00    -0.237 OA
ATOM     69  O   UNL A   1      33.116  36.948  33.162  1.00  0.00    -0.744 OA
ENDBRANCH  65  66
ENDBRANCH  46  60
BRANCH  47  70
ATOM     70  C   UNL A   1      44.765  29.118  28.516  1.00  0.00    -0.014 A 
ATOM     71  C   UNL A   1      44.139  29.142  27.251  1.00  0.00     0.010 A 
ATOM     72  C   UNL A   1      45.990  28.444  28.652  1.00  0.00     0.010 A 
ATOM     73  C   UNL A   1      44.815  28.692  26.115  1.00  0.00     0.020 A 
ATOM     74  C   UNL A   1      46.665  27.978  27.513  1.00  0.00     0.020 A 
ATOM     75  C   UNL A   1      46.104  28.177  26.247  1.00  0.00     0.054 A 
BRANCH  75  76
ATOM     76  S   UNL A   1      47.101  27.989  24.737  1.00  0.00     0.124 S 
ATOM     77  O   UNL A   1      46.621  29.086  23.905  1.00  0.00    -0.237 OA
ATOM     78  O   UNL A   1      48.465  28.139  25.250  1.00  0.00    -0.237 OA
ATOM     79  O   UNL A   1      46.760  26.648  24.272  1.00  0.00    -0.744 OA
ENDBRANCH  75  76
ENDBRANCH  47  70
BRANCH  59  80
ATOM     80  C   UNL A   1      42.606  36.085  28.772  1.00  0.00    -0.014 A 
ATOM     81  C   UNL A   1      43.140  37.184  29.460  1.00  0.00     0.010 A 
ATOM     82  C   UNL A   1      42.240  36.295  27.418  1.00  0.00     0.010 A 
ATOM     83  C   UNL A   1      43.255  38.442  28.848  1.00  0.00     0.020 A 
ATOM     84  C   UNL A   1      42.394  37.531  26.784  1.00  0.00     0.020 A 
ATOM     85  C   UNL A   1      42.881  38.608  27.513  1.00  0.00     0.054 A 
BRANCH  85  86
ATOM     86  S   UNL A   1      43.108  40.212  26.705  1.00  0.00     0.124 S 
ATOM     87  O   UNL A   1      43.408  41.081  27.840  1.00  0.00    -0.237 OA
ATOM     88  O   UNL A   1      44.224  39.966  25.793  1.00  0.00    -0.237 OA
ATOM     89  O   UNL A   1      41.824  40.452  26.053  1.00  0.00    -0.744 OA
ENDBRANCH  85  86
ENDBRANCH  59  80
ENDBRANCH  33  34
ENDBRANCH  25  28
ENDBRANCH  23  24
ENDBRANCH   1  23
TORSDOF 16
ENDMDL
