MODEL 1
REMARK VINA RESULT:     -12.6      0.000      0.000
REMARK SMILES Cc1cccc(-c2cc(OCC(=O)NCCCNC(=O)c3ccc(-c4c5nc(c(-c6ccc(S(=O)(=O)[O-])cc6)c6ccc([nH]6)c(-c6ccc(S(=O)(=O)[O-])cc6)c6nc(c(-c7ccc(S(=O)(=O)[O-])cc7)c7ccc4[nH]7)C=C6)C=C5)cc3)ncn2)c1
REMARK SMILES IDX 16 1 15 2 14 3 12 4 13 5 11 7 10 8 9 9 7 10 8 11 83 12 82 13
REMARK SMILES IDX 81 14 6 15 1 16 2 17 3 18 84 19 4 20 5 21 17 22 18 23 19 24
REMARK SMILES IDX 20 26 21 27 22 28 80 29 23 30 79 31 24 32 25 33 26 34 73 35
REMARK SMILES IDX 27 36 78 37 72 38 74 39 28 40 77 41 71 42 70 43 29 45 59 46
REMARK SMILES IDX 40 47 58 48 41 49 44 50 57 51 75 52 42 53 43 54 56 56 76 57
REMARK SMILES IDX 45 58 30 59 31 60 39 61 32 62 38 63 33 64 34 65 35 66 36 67
REMARK SMILES IDX 37 68 60 69 61 70 69 71 62 72 68 73 63 74 64 75 65 76 66 77
REMARK SMILES IDX 67 78 46 79 47 80 55 81 48 82 54 83 49 84 50 85 51 86 52 87
REMARK SMILES IDX 53 88
REMARK H PARENT 14 6 18 25 74 44 44 55
REMARK Flexibility Score: inf
ROOT
ATOM      1  C   UNL A   1      32.810  30.352  26.887  1.00  0.00     0.042 C 
ENDROOT
BRANCH   1   2
ATOM      2  C   UNL A   1      32.236  29.787  25.593  1.00  0.00     0.117 C 
BRANCH   2   3
ATOM      3  N   UNL A   1      33.217  29.685  24.519  1.00  0.00    -0.353 N 
ATOM      4  C   UNL A   1      33.288  28.784  23.497  1.00  0.00     0.258 C 
ATOM      5  O   UNL A   1      34.163  28.911  22.637  1.00  0.00    -0.271 OA
ATOM      6  H   UNL A   1      33.930  30.365  24.532  1.00  0.00     0.163 HD
BRANCH   4   7
ATOM      7  C   UNL A   1      32.279  27.631  23.417  1.00  0.00     0.331 C 
BRANCH   7   8
ATOM      8  O   UNL A   1      32.799  26.359  23.079  1.00  0.00    -0.467 OA
BRANCH   8   9
ATOM      9  C   UNL A   1      33.218  25.537  24.087  1.00  0.00     0.217 A 
ATOM     10  C   UNL A   1      34.609  23.999  25.196  1.00  0.00     0.077 A 
ATOM     11  C   UNL A   1      34.347  24.753  24.065  1.00  0.00     0.097 A 
ATOM     12  N   UNL A   1      33.786  23.987  26.262  1.00  0.00    -0.236 NA
ATOM     13  C   UNL A   1      32.720  24.791  26.183  1.00  0.00     0.226 A 
ATOM     14  N   UNL A   1      32.387  25.564  25.141  1.00  0.00    -0.202 NA
BRANCH  10  15
ATOM     15  C   UNL A   1      35.819  23.173  25.294  1.00  0.00     0.001 A 
ATOM     16  C   UNL A   1      36.844  19.521  24.802  1.00  0.00     0.044 C 
ATOM     17  C   UNL A   1      36.911  20.985  25.123  1.00  0.00    -0.050 A 
ATOM     18  C   UNL A   1      38.113  21.560  25.550  1.00  0.00     0.003 A 
ATOM     19  C   UNL A   1      35.773  21.795  25.008  1.00  0.00     0.013 A 
ATOM     20  C   UNL A   1      38.180  22.925  25.829  1.00  0.00     0.001 A 
ATOM     21  C   UNL A   1      37.045  23.726  25.692  1.00  0.00     0.010 A 
ENDBRANCH  10  15
ENDBRANCH   8   9
ENDBRANCH   7   8
ENDBRANCH   4   7
ENDBRANCH   2   3
ENDBRANCH   1   2
BRANCH   1  22
ATOM     22  C   UNL A   1      34.191  29.819  27.223  1.00  0.00     0.118 C 
BRANCH  22  23
ATOM     23  N   UNL A   1      35.290  30.762  27.071  1.00  0.00    -0.352 N 
ATOM     24  C   UNL A   1      36.141  30.942  28.164  1.00  0.00     0.251 C 
ATOM     25  H   UNL A   1      35.429  31.254  26.229  1.00  0.00     0.163 HD
ATOM     26  O   UNL A   1      36.026  31.806  29.008  1.00  0.00    -0.269 OA
BRANCH  24  27
ATOM     27  C   UNL A   1      37.065  29.800  28.352  1.00  0.00     0.039 A 
ATOM     28  C   UNL A   1      37.075  29.049  29.527  1.00  0.00     0.014 A 
ATOM     29  C   UNL A   1      38.080  29.671  27.402  1.00  0.00     0.014 A 
ATOM     30  C   UNL A   1      38.184  28.245  29.807  1.00  0.00     0.010 A 
ATOM     31  C   UNL A   1      39.210  28.955  27.724  1.00  0.00     0.010 A 
ATOM     32  C   UNL A   1      39.278  28.259  28.937  1.00  0.00    -0.014 A 
BRANCH  32  33
ATOM     33  C   UNL A   1      40.573  27.646  29.209  1.00  0.00     0.031 A 
ATOM     34  C   UNL A   1      40.858  26.259  28.774  1.00  0.00     0.074 A 
ATOM     35  C   UNL A   1      41.582  28.413  29.680  1.00  0.00     0.049 A 
ATOM     36  N   UNL A   1      41.807  25.523  29.250  1.00  0.00    -0.248 NA
ATOM     37  C   UNL A   1      40.053  25.576  27.763  1.00  0.00     0.031 C 
ATOM     38  C   UNL A   1      43.010  28.109  29.625  1.00  0.00     0.029 A 
ATOM     39  N   UNL A   1      41.510  29.539  30.501  1.00  0.00    -0.354 N 
ATOM     40  C   UNL A   1      41.940  24.438  28.411  1.00  0.00     0.074 A 
ATOM     41  C   UNL A   1      40.775  24.471  27.558  1.00  0.00     0.031 C 
ATOM     42  C   UNL A   1      43.632  28.801  30.592  1.00  0.00     0.029 A 
ATOM     43  C   UNL A   1      42.598  29.446  31.385  1.00  0.00     0.049 A 
ATOM     44  H   UNL A   1      40.833  30.252  30.469  1.00  0.00     0.167 HD
ATOM     45  C   UNL A   1      43.093  23.711  28.402  1.00  0.00     0.031 A 
ATOM     46  C   UNL A   1      42.480  29.362  32.743  1.00  0.00     0.031 A 
ATOM     47  C   UNL A   1      44.054  24.186  29.394  1.00  0.00     0.049 A 
ATOM     48  C   UNL A   1      43.153  28.136  33.318  1.00  0.00     0.074 A 
ATOM     49  C   UNL A   1      45.187  24.980  29.302  1.00  0.00     0.029 A 
ATOM     50  N   UNL A   1      43.753  24.085  30.747  1.00  0.00    -0.354 N 
ATOM     51  N   UNL A   1      43.504  27.100  32.610  1.00  0.00    -0.248 NA
ATOM     52  C   UNL A   1      43.444  27.961  34.738  1.00  0.00     0.031 C 
ATOM     53  C   UNL A   1      45.528  25.412  30.608  1.00  0.00     0.029 A 
ATOM     54  C   UNL A   1      44.616  24.866  31.493  1.00  0.00     0.049 A 
ATOM     55  H   UNL A   1      43.027  23.535  31.122  1.00  0.00     0.167 HD
ATOM     56  C   UNL A   1      44.046  26.143  33.427  1.00  0.00     0.074 A 
ATOM     57  C   UNL A   1      43.995  26.734  34.752  1.00  0.00     0.031 C 
ATOM     58  C   UNL A   1      44.484  24.944  32.941  1.00  0.00     0.031 A 
BRANCH  45  59
ATOM     59  C   UNL A   1      43.455  22.783  27.263  1.00  0.00    -0.014 A 
ATOM     60  C   UNL A   1      42.781  21.553  27.120  1.00  0.00     0.010 A 
ATOM     61  C   UNL A   1      44.489  23.036  26.340  1.00  0.00     0.010 A 
ATOM     62  C   UNL A   1      43.190  20.582  26.194  1.00  0.00     0.020 A 
ATOM     63  C   UNL A   1      44.936  22.059  25.436  1.00  0.00     0.020 A 
ATOM     64  C   UNL A   1      44.291  20.828  25.380  1.00  0.00     0.054 A 
BRANCH  64  65
ATOM     65  S   UNL A   1      44.873  19.518  24.270  1.00  0.00     0.124 S 
ATOM     66  O   UNL A   1      46.310  19.493  24.536  1.00  0.00    -0.237 OA
ATOM     67  O   UNL A   1      44.126  18.356  24.739  1.00  0.00    -0.237 OA
ATOM     68  O   UNL A   1      44.503  20.001  22.941  1.00  0.00    -0.744 OA
ENDBRANCH  64  65
ENDBRANCH  45  59
BRANCH  46  69
ATOM     69  C   UNL A   1      41.248  29.994  33.290  1.00  0.00    -0.014 A 
ATOM     70  C   UNL A   1      41.258  31.397  33.438  1.00  0.00     0.010 A 
ATOM     71  C   UNL A   1      40.014  29.324  33.197  1.00  0.00     0.010 A 
ATOM     72  C   UNL A   1      40.080  32.132  33.285  1.00  0.00     0.020 A 
ATOM     73  C   UNL A   1      38.830  30.062  33.053  1.00  0.00     0.020 A 
ATOM     74  C   UNL A   1      38.888  31.459  33.013  1.00  0.00     0.054 A 
BRANCH  74  75
ATOM     75  S   UNL A   1      37.479  32.434  32.400  1.00  0.00     0.124 S 
ATOM     76  O   UNL A   1      37.993  32.975  31.146  1.00  0.00    -0.237 OA
ATOM     77  O   UNL A   1      36.434  31.413  32.270  1.00  0.00    -0.237 OA
ATOM     78  O   UNL A   1      37.257  33.408  33.463  1.00  0.00    -0.744 OA
ENDBRANCH  74  75
ENDBRANCH  46  69
BRANCH  58  79
ATOM     79  C   UNL A   1      44.919  23.759  33.767  1.00  0.00    -0.014 A 
ATOM     80  C   UNL A   1      44.088  22.675  34.091  1.00  0.00     0.010 A 
ATOM     81  C   UNL A   1      46.279  23.656  34.148  1.00  0.00     0.010 A 
ATOM     82  C   UNL A   1      44.570  21.575  34.815  1.00  0.00     0.020 A 
ATOM     83  C   UNL A   1      46.781  22.546  34.833  1.00  0.00     0.020 A 
ATOM     84  C   UNL A   1      45.913  21.519  35.187  1.00  0.00     0.054 A 
BRANCH  84  85
ATOM     85  S   UNL A   1      46.545  20.070  36.068  1.00  0.00     0.124 S 
ATOM     86  O   UNL A   1      47.989  20.274  35.987  1.00  0.00    -0.237 OA
ATOM     87  O   UNL A   1      45.967  20.215  37.403  1.00  0.00    -0.237 OA
ATOM     88  O   UNL A   1      46.025  18.947  35.292  1.00  0.00    -0.744 OA
ENDBRANCH  84  85
ENDBRANCH  58  79
ENDBRANCH  32  33
ENDBRANCH  24  27
ENDBRANCH  22  23
ENDBRANCH   1  22
TORSDOF 16
ENDMDL
MODEL 2
REMARK VINA RESULT:     -11.9      2.100      4.371
REMARK SMILES Cc1cccc(-c2cc(OCC(=O)NCCCNC(=O)c3ccc(-c4c5nc(c(-c6ccc(S(=O)(=O)[O-])cc6)c6ccc([nH]6)c(-c6ccc(S(=O)(=O)[O-])cc6)c6nc(c(-c7ccc(S(=O)(=O)[O-])cc7)c7ccc4[nH]7)C=C6)C=C5)cc3)ncn2)c1
REMARK SMILES IDX 16 1 15 2 14 3 12 4 13 5 11 7 10 8 9 9 7 10 8 11 83 12 82 13
REMARK SMILES IDX 81 14 6 15 1 16 2 17 3 18 84 19 4 20 5 21 17 22 18 23 19 24
REMARK SMILES IDX 20 26 21 27 22 28 80 29 23 30 79 31 24 32 25 33 26 34 73 35
REMARK SMILES IDX 27 36 78 37 72 38 74 39 28 40 77 41 71 42 70 43 29 45 59 46
REMARK SMILES IDX 40 47 58 48 41 49 44 50 57 51 75 52 42 53 43 54 56 56 76 57
REMARK SMILES IDX 45 58 30 59 31 60 39 61 32 62 38 63 33 64 34 65 35 66 36 67
REMARK SMILES IDX 37 68 60 69 61 70 69 71 62 72 68 73 63 74 64 75 65 76 66 77
REMARK SMILES IDX 67 78 46 79 47 80 55 81 48 82 54 83 49 84 50 85 51 86 52 87
REMARK SMILES IDX 53 88
REMARK H PARENT 14 6 18 25 74 44 44 55
REMARK Flexibility Score: inf
ROOT
ATOM      1  C   UNL A   1      33.249  29.017  26.058  1.00  0.00     0.042 C 
ENDROOT
BRANCH   1   2
ATOM      2  C   UNL A   1      33.603  27.597  26.482  1.00  0.00     0.117 C 
BRANCH   2   3
ATOM      3  N   UNL A   1      32.439  26.781  26.808  1.00  0.00    -0.353 N 
ATOM      4  C   UNL A   1      32.072  25.564  26.314  1.00  0.00     0.258 C 
ATOM      5  O   UNL A   1      31.079  24.997  26.775  1.00  0.00    -0.271 OA
ATOM      6  H   UNL A   1      31.830  27.164  27.481  1.00  0.00     0.163 HD
BRANCH   4   7
ATOM      7  C   UNL A   1      32.899  24.904  25.203  1.00  0.00     0.331 C 
BRANCH   7   8
ATOM      8  O   UNL A   1      32.427  25.075  23.878  1.00  0.00    -0.467 OA
BRANCH   8   9
ATOM      9  C   UNL A   1      32.210  26.344  23.423  1.00  0.00     0.217 A 
ATOM     10  C   UNL A   1      30.991  28.298  22.941  1.00  0.00     0.077 A 
ATOM     11  C   UNL A   1      31.003  27.005  23.435  1.00  0.00     0.097 A 
ATOM     12  N   UNL A   1      32.090  28.885  22.428  1.00  0.00    -0.236 NA
ATOM     13  C   UNL A   1      33.212  28.158  22.472  1.00  0.00     0.226 A 
ATOM     14  N   UNL A   1      33.328  26.908  22.937  1.00  0.00    -0.202 NA
BRANCH  10  15
ATOM     15  C   UNL A   1      29.767  29.107  22.963  1.00  0.00     0.001 A 
ATOM     16  C   UNL A   1      28.772  32.799  23.074  1.00  0.00     0.044 C 
ATOM     17  C   UNL A   1      28.678  31.301  23.048  1.00  0.00    -0.050 A 
ATOM     18  C   UNL A   1      27.429  30.673  23.079  1.00  0.00     0.003 A 
ATOM     19  C   UNL A   1      29.836  30.513  22.999  1.00  0.00     0.013 A 
ATOM     20  C   UNL A   1      27.340  29.281  23.035  1.00  0.00     0.001 A 
ATOM     21  C   UNL A   1      28.499  28.506  22.966  1.00  0.00     0.010 A 
ENDBRANCH  10  15
ENDBRANCH   8   9
ENDBRANCH   7   8
ENDBRANCH   4   7
ENDBRANCH   2   3
ENDBRANCH   1   2
BRANCH   1  22
ATOM     22  C   UNL A   1      33.257  30.012  27.204  1.00  0.00     0.118 C 
BRANCH  22  23
ATOM     23  N   UNL A   1      34.245  31.078  27.112  1.00  0.00    -0.352 N 
ATOM     24  C   UNL A   1      35.016  31.342  28.247  1.00  0.00     0.251 C 
ATOM     25  H   UNL A   1      34.366  31.593  26.282  1.00  0.00     0.163 HD
ATOM     26  O   UNL A   1      34.760  32.177  29.090  1.00  0.00    -0.269 OA
BRANCH  24  27
ATOM     27  C   UNL A   1      36.057  30.313  28.474  1.00  0.00     0.039 A 
ATOM     28  C   UNL A   1      36.233  29.708  29.717  1.00  0.00     0.014 A 
ATOM     29  C   UNL A   1      36.998  30.161  27.454  1.00  0.00     0.014 A 
ATOM     30  C   UNL A   1      37.432  29.040  29.980  1.00  0.00     0.010 A 
ATOM     31  C   UNL A   1      38.214  29.586  27.747  1.00  0.00     0.010 A 
ATOM     32  C   UNL A   1      38.445  29.045  29.018  1.00  0.00    -0.014 A 
BRANCH  32  33
ATOM     33  C   UNL A   1      39.811  28.581  29.235  1.00  0.00     0.031 A 
ATOM     34  C   UNL A   1      40.220  27.218  28.821  1.00  0.00     0.074 A 
ATOM     35  C   UNL A   1      40.755  29.464  29.630  1.00  0.00     0.049 A 
ATOM     36  N   UNL A   1      41.265  26.601  29.265  1.00  0.00    -0.248 NA
ATOM     37  C   UNL A   1      39.441  26.422  27.875  1.00  0.00     0.031 C 
ATOM     38  C   UNL A   1      42.203  29.310  29.506  1.00  0.00     0.029 A 
ATOM     39  N   UNL A   1      40.606  30.601  30.424  1.00  0.00    -0.354 N 
ATOM     40  C   UNL A   1      41.470  25.509  28.449  1.00  0.00     0.074 A 
ATOM     41  C   UNL A   1      40.265  25.393  27.660  1.00  0.00     0.031 C 
ATOM     42  C   UNL A   1      42.796  30.094  30.419  1.00  0.00     0.029 A 
ATOM     43  C   UNL A   1      41.741  30.652  31.249  1.00  0.00     0.049 A 
ATOM     44  H   UNL A   1      39.856  31.238  30.409  1.00  0.00     0.167 HD
ATOM     45  C   UNL A   1      42.692  24.908  28.397  1.00  0.00     0.031 A 
ATOM     46  C   UNL A   1      41.702  30.599  32.613  1.00  0.00     0.031 A 
ATOM     47  C   UNL A   1      43.646  25.513  29.322  1.00  0.00     0.049 A 
ATOM     48  C   UNL A   1      42.531  29.470  33.183  1.00  0.00     0.074 A 
ATOM     49  C   UNL A   1      44.681  26.418  29.148  1.00  0.00     0.029 A 
ATOM     50  N   UNL A   1      43.427  25.424  30.692  1.00  0.00    -0.354 N 
ATOM     51  N   UNL A   1      42.954  28.454  32.485  1.00  0.00    -0.248 NA
ATOM     52  C   UNL A   1      42.911  29.372  34.590  1.00  0.00     0.031 C 
ATOM     53  C   UNL A   1      45.041  26.925  30.421  1.00  0.00     0.029 A 
ATOM     54  C   UNL A   1      44.239  26.314  31.369  1.00  0.00     0.049 A 
ATOM     55  H   UNL A   1      42.784  24.814  31.120  1.00  0.00     0.167 HD
ATOM     56  C   UNL A   1      43.636  27.587  33.296  1.00  0.00     0.074 A 
ATOM     57  C   UNL A   1      43.590  28.211  34.606  1.00  0.00     0.031 C 
ATOM     58  C   UNL A   1      44.173  26.425  32.820  1.00  0.00     0.031 A 
BRANCH  45  59
ATOM     59  C   UNL A   1      43.092  23.987  27.265  1.00  0.00    -0.014 A 
ATOM     60  C   UNL A   1      42.775  22.615  27.333  1.00  0.00     0.010 A 
ATOM     61  C   UNL A   1      43.832  24.399  26.139  1.00  0.00     0.010 A 
ATOM     62  C   UNL A   1      43.270  21.688  26.402  1.00  0.00     0.020 A 
ATOM     63  C   UNL A   1      44.368  23.480  25.223  1.00  0.00     0.020 A 
ATOM     64  C   UNL A   1      44.095  22.124  25.370  1.00  0.00     0.054 A 
BRANCH  64  65
ATOM     65  S   UNL A   1      44.815  20.899  24.245  1.00  0.00     0.124 S 
ATOM     66  O   UNL A   1      44.555  21.485  22.931  1.00  0.00    -0.237 OA
ATOM     67  O   UNL A   1      46.214  20.877  24.658  1.00  0.00    -0.237 OA
ATOM     68  O   UNL A   1      44.062  19.680  24.532  1.00  0.00    -0.744 OA
ENDBRANCH  64  65
ENDBRANCH  45  59
BRANCH  46  69
ATOM     69  C   UNL A   1      40.439  31.116  33.209  1.00  0.00    -0.014 A 
ATOM     70  C   UNL A   1      39.533  30.162  33.717  1.00  0.00     0.010 A 
ATOM     71  C   UNL A   1      40.374  32.439  33.680  1.00  0.00     0.010 A 
ATOM     72  C   UNL A   1      38.726  30.468  34.815  1.00  0.00     0.020 A 
ATOM     73  C   UNL A   1      39.557  32.750  34.776  1.00  0.00     0.020 A 
ATOM     74  C   UNL A   1      38.806  31.739  35.385  1.00  0.00     0.054 A 
BRANCH  74  75
ATOM     75  S   UNL A   1      38.089  31.979  37.041  1.00  0.00     0.124 S 
ATOM     76  O   UNL A   1      37.095  33.021  36.804  1.00  0.00    -0.237 OA
ATOM     77  O   UNL A   1      37.553  30.647  37.338  1.00  0.00    -0.237 OA
ATOM     78  O   UNL A   1      39.237  32.374  37.850  1.00  0.00    -0.744 OA
ENDBRANCH  74  75
ENDBRANCH  46  69
BRANCH  58  79
ATOM     79  C   UNL A   1      44.774  25.319  33.652  1.00  0.00    -0.014 A 
ATOM     80  C   UNL A   1      44.033  24.471  34.489  1.00  0.00     0.010 A 
ATOM     81  C   UNL A   1      46.151  25.024  33.502  1.00  0.00     0.010 A 
ATOM     82  C   UNL A   1      44.644  23.424  35.194  1.00  0.00     0.020 A 
ATOM     83  C   UNL A   1      46.763  23.957  34.166  1.00  0.00     0.020 A 
ATOM     84  C   UNL A   1      46.007  23.176  35.033  1.00  0.00     0.054 A 
BRANCH  84  85
ATOM     85  S   UNL A   1      46.780  21.785  35.896  1.00  0.00     0.124 S 
ATOM     86  O   UNL A   1      46.419  22.054  37.285  1.00  0.00    -0.237 OA
ATOM     87  O   UNL A   1      46.130  20.622  35.295  1.00  0.00    -0.237 OA
ATOM     88  O   UNL A   1      48.197  21.931  35.575  1.00  0.00    -0.744 OA
ENDBRANCH  84  85
ENDBRANCH  58  79
ENDBRANCH  32  33
ENDBRANCH  24  27
ENDBRANCH  22  23
ENDBRANCH   1  22
TORSDOF 16
ENDMDL
MODEL 3
REMARK VINA RESULT:     -11.8      2.485      3.881
REMARK SMILES Cc1cccc(-c2cc(OCC(=O)NCCCNC(=O)c3ccc(-c4c5nc(c(-c6ccc(S(=O)(=O)[O-])cc6)c6ccc([nH]6)c(-c6ccc(S(=O)(=O)[O-])cc6)c6nc(c(-c7ccc(S(=O)(=O)[O-])cc7)c7ccc4[nH]7)C=C6)C=C5)cc3)ncn2)c1
REMARK SMILES IDX 16 1 15 2 14 3 12 4 13 5 11 7 10 8 9 9 7 10 8 11 83 12 82 13
REMARK SMILES IDX 81 14 6 15 1 16 2 17 3 18 84 19 4 20 5 21 17 22 18 23 19 24
REMARK SMILES IDX 20 26 21 27 22 28 80 29 23 30 79 31 24 32 25 33 26 34 73 35
REMARK SMILES IDX 27 36 78 37 72 38 74 39 28 40 77 41 71 42 70 43 29 45 59 46
REMARK SMILES IDX 40 47 58 48 41 49 44 50 57 51 75 52 42 53 43 54 56 56 76 57
REMARK SMILES IDX 45 58 30 59 31 60 39 61 32 62 38 63 33 64 34 65 35 66 36 67
REMARK SMILES IDX 37 68 60 69 61 70 69 71 62 72 68 73 63 74 64 75 65 76 66 77
REMARK SMILES IDX 67 78 46 79 47 80 55 81 48 82 54 83 49 84 50 85 51 86 52 87
REMARK SMILES IDX 53 88
REMARK H PARENT 14 6 18 25 74 44 44 55
REMARK Flexibility Score: inf
ROOT
ATOM      1  C   UNL A   1      32.595  27.823  26.994  1.00  0.00     0.042 C 
ENDROOT
BRANCH   1   2
ATOM      2  C   UNL A   1      31.628  27.204  25.992  1.00  0.00     0.117 C 
BRANCH   2   3
ATOM      3  N   UNL A   1      30.910  26.048  26.516  1.00  0.00    -0.353 N 
ATOM      4  C   UNL A   1      31.218  24.723  26.418  1.00  0.00     0.258 C 
ATOM      5  O   UNL A   1      30.515  23.893  26.998  1.00  0.00    -0.271 OA
ATOM      6  H   UNL A   1      30.085  26.254  27.014  1.00  0.00     0.163 HD
BRANCH   4   7
ATOM      7  C   UNL A   1      32.435  24.275  25.599  1.00  0.00     0.331 C 
BRANCH   7   8
ATOM      8  O   UNL A   1      33.700  24.412  26.221  1.00  0.00    -0.467 OA
BRANCH   8   9
ATOM      9  C   UNL A   1      34.704  23.564  25.847  1.00  0.00     0.217 A 
ATOM     10  C   UNL A   1      36.894  22.715  25.726  1.00  0.00     0.077 A 
ATOM     11  C   UNL A   1      36.029  23.689  26.194  1.00  0.00     0.097 A 
ATOM     12  N   UNL A   1      36.485  21.708  24.929  1.00  0.00    -0.236 NA
ATOM     13  C   UNL A   1      35.175  21.677  24.658  1.00  0.00     0.226 A 
ATOM     14  N   UNL A   1      34.260  22.562  25.071  1.00  0.00    -0.202 NA
BRANCH  10  15
ATOM     15  C   UNL A   1      38.317  22.725  26.087  1.00  0.00     0.001 A 
ATOM     16  C   UNL A   1      41.259  20.285  26.222  1.00  0.00     0.044 C 
ATOM     17  C   UNL A   1      40.445  21.539  26.351  1.00  0.00    -0.050 A 
ATOM     18  C   UNL A   1      41.028  22.710  26.847  1.00  0.00     0.003 A 
ATOM     19  C   UNL A   1      39.093  21.555  25.984  1.00  0.00     0.013 A 
ATOM     20  C   UNL A   1      40.278  23.882  26.948  1.00  0.00     0.001 A 
ATOM     21  C   UNL A   1      38.936  23.891  26.561  1.00  0.00     0.010 A 
ENDBRANCH  10  15
ENDBRANCH   8   9
ENDBRANCH   7   8
ENDBRANCH   4   7
ENDBRANCH   2   3
ENDBRANCH   1   2
BRANCH   1  22
ATOM     22  C   UNL A   1      33.914  28.253  26.379  1.00  0.00     0.118 C 
BRANCH  22  23
ATOM     23  N   UNL A   1      34.003  29.650  25.980  1.00  0.00    -0.352 N 
ATOM     24  C   UNL A   1      33.804  30.617  26.968  1.00  0.00     0.251 C 
ATOM     25  H   UNL A   1      34.198  29.905  25.049  1.00  0.00     0.163 HD
ATOM     26  O   UNL A   1      32.747  31.157  27.219  1.00  0.00    -0.269 OA
BRANCH  24  27
ATOM     27  C   UNL A   1      34.966  30.740  27.879  1.00  0.00     0.039 A 
ATOM     28  C   UNL A   1      35.790  31.863  27.870  1.00  0.00     0.014 A 
ATOM     29  C   UNL A   1      35.330  29.580  28.566  1.00  0.00     0.014 A 
ATOM     30  C   UNL A   1      37.056  31.779  28.460  1.00  0.00     0.010 A 
ATOM     31  C   UNL A   1      36.609  29.469  29.061  1.00  0.00     0.010 A 
ATOM     32  C   UNL A   1      37.485  30.559  28.988  1.00  0.00    -0.014 A 
BRANCH  32  33
ATOM     33  C   UNL A   1      38.844  30.270  29.433  1.00  0.00     0.031 A 
ATOM     34  C   UNL A   1      39.515  29.008  29.041  1.00  0.00     0.074 A 
ATOM     35  C   UNL A   1      39.564  31.243  30.036  1.00  0.00     0.049 A 
ATOM     36  N   UNL A   1      40.544  28.509  29.642  1.00  0.00    -0.248 NA
ATOM     37  C   UNL A   1      39.041  28.183  27.932  1.00  0.00     0.031 C 
ATOM     38  C   UNL A   1      41.018  31.296  30.175  1.00  0.00     0.029 A 
ATOM     39  N   UNL A   1      39.111  32.290  30.839  1.00  0.00    -0.354 N 
ATOM     40  C   UNL A   1      41.048  27.516  28.830  1.00  0.00     0.074 A 
ATOM     41  C   UNL A   1      40.032  27.293  27.827  1.00  0.00     0.031 C 
ATOM     42  C   UNL A   1      41.318  32.087  31.216  1.00  0.00     0.029 A 
ATOM     43  C   UNL A   1      40.062  32.436  31.862  1.00  0.00     0.049 A 
ATOM     44  H   UNL A   1      38.290  32.819  30.714  1.00  0.00     0.167 HD
ATOM     45  C   UNL A   1      42.335  27.092  28.978  1.00  0.00     0.031 A 
ATOM     46  C   UNL A   1      39.791  32.282  33.191  1.00  0.00     0.031 A 
ATOM     47  C   UNL A   1      43.011  27.754  30.091  1.00  0.00     0.049 A 
ATOM     48  C   UNL A   1      40.663  31.238  33.853  1.00  0.00     0.074 A 
ATOM     49  C   UNL A   1      43.917  28.801  30.152  1.00  0.00     0.029 A 
ATOM     50  N   UNL A   1      42.569  27.539  31.391  1.00  0.00    -0.354 N 
ATOM     51  N   UNL A   1      41.347  30.341  33.200  1.00  0.00    -0.248 NA
ATOM     52  C   UNL A   1      40.797  31.092  35.300  1.00  0.00     0.031 C 
ATOM     53  C   UNL A   1      43.967  29.261  31.492  1.00  0.00     0.029 A 
ATOM     54  C   UNL A   1      43.108  28.481  32.246  1.00  0.00     0.049 A 
ATOM     55  H   UNL A   1      41.956  26.818  31.664  1.00  0.00     0.167 HD
ATOM     56  C   UNL A   1      41.994  29.519  34.084  1.00  0.00     0.074 A 
ATOM     57  C   UNL A   1      41.626  30.036  35.389  1.00  0.00     0.031 C 
ATOM     58  C   UNL A   1      42.772  28.478  33.663  1.00  0.00     0.031 A 
BRANCH  45  59
ATOM     59  C   UNL A   1      43.059  26.317  27.899  1.00  0.00    -0.014 A 
ATOM     60  C   UNL A   1      43.536  25.018  28.170  1.00  0.00     0.010 A 
ATOM     61  C   UNL A   1      43.355  26.834  26.622  1.00  0.00     0.010 A 
ATOM     62  C   UNL A   1      44.361  24.324  27.272  1.00  0.00     0.020 A 
ATOM     63  C   UNL A   1      44.213  26.170  25.730  1.00  0.00     0.020 A 
ATOM     64  C   UNL A   1      44.724  24.921  26.069  1.00  0.00     0.054 A 
BRANCH  64  65
ATOM     65  S   UNL A   1      45.881  24.058  24.973  1.00  0.00     0.124 S 
ATOM     66  O   UNL A   1      46.716  25.147  24.472  1.00  0.00    -0.237 OA
ATOM     67  O   UNL A   1      46.540  23.127  25.884  1.00  0.00    -0.237 OA
ATOM     68  O   UNL A   1      45.013  23.440  23.973  1.00  0.00    -0.744 OA
ENDBRANCH  64  65
ENDBRANCH  45  59
BRANCH  46  69
ATOM     69  C   UNL A   1      38.381  32.578  33.566  1.00  0.00    -0.014 A 
ATOM     70  C   UNL A   1      38.016  33.936  33.669  1.00  0.00     0.010 A 
ATOM     71  C   UNL A   1      37.379  31.615  33.346  1.00  0.00     0.010 A 
ATOM     72  C   UNL A   1      36.719  34.346  33.353  1.00  0.00     0.020 A 
ATOM     73  C   UNL A   1      36.074  32.025  33.038  1.00  0.00     0.020 A 
ATOM     74  C   UNL A   1      35.780  33.391  32.961  1.00  0.00     0.054 A 
BRANCH  74  75
ATOM     75  S   UNL A   1      34.257  33.973  32.152  1.00  0.00     0.124 S 
ATOM     76  O   UNL A   1      33.226  33.584  33.108  1.00  0.00    -0.237 OA
ATOM     77  O   UNL A   1      34.504  35.413  32.035  1.00  0.00    -0.237 OA
ATOM     78  O   UNL A   1      34.250  33.246  30.887  1.00  0.00    -0.744 OA
ENDBRANCH  74  75
ENDBRANCH  46  69
BRANCH  58  79
ATOM     79  C   UNL A   1      43.371  27.408  34.541  1.00  0.00    -0.014 A 
ATOM     80  C   UNL A   1      42.620  26.461  35.255  1.00  0.00     0.010 A 
ATOM     81  C   UNL A   1      44.779  27.255  34.565  1.00  0.00     0.010 A 
ATOM     82  C   UNL A   1      43.240  25.455  36.010  1.00  0.00     0.020 A 
ATOM     83  C   UNL A   1      45.407  26.231  35.279  1.00  0.00     0.020 A 
ATOM     84  C   UNL A   1      44.631  25.349  36.022  1.00  0.00     0.054 A 
BRANCH  84  85
ATOM     85  S   UNL A   1      45.425  24.011  36.947  1.00  0.00     0.124 S 
ATOM     86  O   UNL A   1      44.917  22.827  36.260  1.00  0.00    -0.237 OA
ATOM     87  O   UNL A   1      46.850  24.279  36.759  1.00  0.00    -0.237 OA
ATOM     88  O   UNL A   1      44.938  24.204  38.310  1.00  0.00    -0.744 OA
ENDBRANCH  84  85
ENDBRANCH  58  79
ENDBRANCH  32  33
ENDBRANCH  24  27
ENDBRANCH  22  23
ENDBRANCH   1  22
TORSDOF 16
ENDMDL
