MODEL 1
REMARK VINA RESULT:     -10.3      0.000      0.000
REMARK SMILES CCCNC(=O)CN(C)C(=O)c1csc(/C=C/C(=O)NCCCNC(=O)c2ccc(-c3c4nc(c(-c5ccc(S(=O)(=O)[O-])cc5)c5ccc([nH]5)c(-c5ccc(S(=O)(=O)[O-])cc5)c5nc(c(-c6ccc(S(=O)(=O)[O-])cc6)c6ccc3[nH]6)C=C5)C=C4)cc2)c1
REMARK SMILES IDX 18 1 19 2 20 3 17 5 16 6 15 7 12 8 13 9 87 10 14 11 10 12
REMARK SMILES IDX 11 13 8 14 9 15 7 16 5 17 4 18 6 20 3 21 2 22 1 23 21 24
REMARK SMILES IDX 22 25 23 26 24 27 25 28 26 30 27 31 28 32 86 33 29 34 85 35
REMARK SMILES IDX 30 36 31 37 32 38 79 39 33 40 84 41 78 42 80 43 34 44 83 45
REMARK SMILES IDX 77 46 76 47 35 49 65 50 46 51 64 52 47 53 50 54 63 55 81 56
REMARK SMILES IDX 48 57 49 58 62 60 82 61 51 62 36 63 37 64 45 65 38 66 44 67
REMARK SMILES IDX 39 68 40 69 41 70 42 71 43 72 66 73 67 74 75 75 68 76 74 77
REMARK SMILES IDX 69 78 70 79 71 80 72 81 73 82 52 83 53 84 61 85 54 86 60 87
REMARK SMILES IDX 55 88 56 89 57 90 58 91 59 92
REMARK H PARENT 20 4 4 19 24 29 80 48 50 59
REMARK Flexibility Score: inf
ROOT
ATOM      1  C   UNL A   1      36.876  20.371  25.174  1.00  0.00     0.244 C 
ATOM      2  O   UNL A   1      36.718  19.258  24.677  1.00  0.00    -0.270 OA
ATOM      3  N   UNL A   1      38.130  20.867  25.350  1.00  0.00    -0.352 N 
ATOM      4  H   UNL A   1      38.856  20.224  25.177  1.00  0.00     0.163 HD
ENDROOT
BRANCH   1   5
ATOM      5  C   UNL A   1      35.693  21.196  25.493  1.00  0.00     0.072 C 
ATOM      6  C   UNL A   1      34.791  21.549  24.568  1.00  0.00     0.024 C 
BRANCH   6   7
ATOM      7  C   UNL A   1      33.629  22.314  24.874  1.00  0.00     0.028 A 
ATOM      8  C   UNL A   1      32.229  24.185  25.241  1.00  0.00     0.051 A 
ATOM      9  C   UNL A   1      31.370  23.134  25.489  1.00  0.00     0.079 A 
ATOM     10  C   UNL A   1      33.523  23.693  24.864  1.00  0.00     0.033 A 
ATOM     11  S   UNL A   1      32.136  21.611  25.353  1.00  0.00    -0.144 S 
BRANCH   8  12
ATOM     12  C   UNL A   1      31.880  25.604  25.245  1.00  0.00     0.254 C 
ATOM     13  O   UNL A   1      32.063  26.263  26.264  1.00  0.00    -0.269 OA
BRANCH  12  14
ATOM     14  N   UNL A   1      31.290  26.156  24.105  1.00  0.00    -0.332 N 
ATOM     15  C   UNL A   1      29.965  25.814  23.612  1.00  0.00     0.147 C 
BRANCH  14  16
ATOM     16  C   UNL A   1      32.162  26.971  23.256  1.00  0.00     0.219 C 
BRANCH  16  17
ATOM     17  C   UNL A   1      32.279  28.459  23.642  1.00  0.00     0.239 C 
ATOM     18  N   UNL A   1      31.358  29.378  23.232  1.00  0.00    -0.355 N 
ATOM     19  H   UNL A   1      31.449  30.269  23.640  1.00  0.00     0.163 HD
ATOM     20  O   UNL A   1      33.298  28.882  24.198  1.00  0.00    -0.273 OA
BRANCH  18  21
ATOM     21  C   UNL A   1      30.266  29.246  22.290  1.00  0.00     0.115 C 
BRANCH  21  22
ATOM     22  C   UNL A   1      29.445  30.524  22.148  1.00  0.00     0.018 C 
ATOM     23  C   UNL A   1      28.092  30.271  21.500  1.00  0.00     0.006 C 
ENDBRANCH  21  22
ENDBRANCH  18  21
ENDBRANCH  16  17
ENDBRANCH  14  16
ENDBRANCH  12  14
ENDBRANCH   8  12
ENDBRANCH   6   7
ENDBRANCH   1   5
BRANCH   3  24
ATOM     24  C   UNL A   1      38.573  22.194  25.752  1.00  0.00     0.118 C 
BRANCH  24  25
ATOM     25  C   UNL A   1      39.725  22.134  26.754  1.00  0.00     0.042 C 
BRANCH  25  26
ATOM     26  C   UNL A   1      40.187  23.504  27.250  1.00  0.00     0.118 C 
BRANCH  26  27
ATOM     27  N   UNL A   1      40.823  24.285  26.198  1.00  0.00    -0.352 N 
ATOM     28  C   UNL A   1      41.092  25.631  26.136  1.00  0.00     0.251 C 
ATOM     29  H   UNL A   1      41.102  23.769  25.408  1.00  0.00     0.163 HD
ATOM     30  O   UNL A   1      41.461  26.116  25.069  1.00  0.00    -0.269 OA
BRANCH  28  31
ATOM     31  C   UNL A   1      40.938  26.500  27.325  1.00  0.00     0.039 A 
ATOM     32  C   UNL A   1      39.948  26.183  28.262  1.00  0.00     0.014 A 
ATOM     33  C   UNL A   1      41.712  27.651  27.498  1.00  0.00     0.014 A 
ATOM     34  C   UNL A   1      39.767  26.988  29.391  1.00  0.00     0.010 A 
ATOM     35  C   UNL A   1      41.568  28.424  28.650  1.00  0.00     0.010 A 
ATOM     36  C   UNL A   1      40.592  28.103  29.607  1.00  0.00    -0.014 A 
BRANCH  36  37
ATOM     37  C   UNL A   1      40.447  28.944  30.823  1.00  0.00     0.031 A 
ATOM     38  C   UNL A   1      39.403  30.025  30.880  1.00  0.00     0.074 A 
ATOM     39  C   UNL A   1      41.299  28.778  31.855  1.00  0.00     0.049 A 
ATOM     40  N   UNL A   1      39.182  30.910  31.819  1.00  0.00    -0.248 NA
ATOM     41  C   UNL A   1      38.500  30.141  29.722  1.00  0.00     0.031 C 
ATOM     42  C   UNL A   1      42.378  27.789  31.912  1.00  0.00     0.029 A 
ATOM     43  N   UNL A   1      41.399  29.447  33.049  1.00  0.00    -0.354 N 
ATOM     44  C   UNL A   1      38.135  31.701  31.357  1.00  0.00     0.074 A 
ATOM     45  C   UNL A   1      37.786  31.210  30.042  1.00  0.00     0.031 C 
ATOM     46  C   UNL A   1      43.023  27.909  33.084  1.00  0.00     0.029 A 
ATOM     47  C   UNL A   1      42.426  29.002  33.847  1.00  0.00     0.049 A 
ATOM     48  H   UNL A   1      40.792  30.177  33.310  1.00  0.00     0.167 HD
ATOM     49  C   UNL A   1      37.516  32.735  31.976  1.00  0.00     0.031 A 
ATOM     50  C   UNL A   1      42.849  29.429  35.052  1.00  0.00     0.031 A 
ATOM     51  C   UNL A   1      37.847  33.210  33.292  1.00  0.00     0.049 A 
ATOM     52  C   UNL A   1      42.134  30.567  35.726  1.00  0.00     0.074 A 
ATOM     53  C   UNL A   1      37.240  34.218  34.022  1.00  0.00     0.029 A 
ATOM     54  N   UNL A   1      38.873  32.710  34.078  1.00  0.00    -0.354 N 
ATOM     55  N   UNL A   1      41.117  31.270  35.291  1.00  0.00    -0.248 NA
ATOM     56  C   UNL A   1      42.617  30.960  37.057  1.00  0.00     0.031 C 
ATOM     57  C   UNL A   1      37.920  34.349  35.239  1.00  0.00     0.029 A 
ATOM     58  C   UNL A   1      38.925  33.396  35.280  1.00  0.00     0.049 A 
ATOM     59  H   UNL A   1      39.477  31.977  33.820  1.00  0.00     0.167 HD
ATOM     60  C   UNL A   1      40.825  32.177  36.303  1.00  0.00     0.074 A 
ATOM     61  C   UNL A   1      41.764  31.924  37.376  1.00  0.00     0.031 C 
ATOM     62  C   UNL A   1      39.865  33.132  36.340  1.00  0.00     0.031 A 
BRANCH  49  63
ATOM     63  C   UNL A   1      36.411  33.429  31.226  1.00  0.00    -0.014 A 
ATOM     64  C   UNL A   1      35.159  33.659  31.827  1.00  0.00     0.010 A 
ATOM     65  C   UNL A   1      36.638  33.893  29.917  1.00  0.00     0.010 A 
ATOM     66  C   UNL A   1      34.142  34.303  31.118  1.00  0.00     0.020 A 
ATOM     67  C   UNL A   1      35.630  34.558  29.213  1.00  0.00     0.020 A 
ATOM     68  C   UNL A   1      34.382  34.743  29.813  1.00  0.00     0.054 A 
BRANCH  68  69
ATOM     69  S   UNL A   1      33.051  35.592  28.920  1.00  0.00     0.124 S 
ATOM     70  O   UNL A   1      33.787  36.630  28.201  1.00  0.00    -0.237 OA
ATOM     71  O   UNL A   1      32.490  34.531  28.088  1.00  0.00    -0.237 OA
ATOM     72  O   UNL A   1      32.173  36.073  29.984  1.00  0.00    -0.744 OA
ENDBRANCH  68  69
ENDBRANCH  49  63
BRANCH  50  73
ATOM     73  C   UNL A   1      44.010  28.768  35.704  1.00  0.00    -0.014 A 
ATOM     74  C   UNL A   1      43.814  27.700  36.597  1.00  0.00     0.010 A 
ATOM     75  C   UNL A   1      45.320  29.194  35.422  1.00  0.00     0.010 A 
ATOM     76  C   UNL A   1      44.907  27.078  37.206  1.00  0.00     0.020 A 
ATOM     77  C   UNL A   1      46.417  28.561  36.012  1.00  0.00     0.020 A 
ATOM     78  C   UNL A   1      46.202  27.513  36.910  1.00  0.00     0.054 A 
BRANCH  78  79
ATOM     79  S   UNL A   1      47.614  26.655  37.661  1.00  0.00     0.124 S 
ATOM     80  O   UNL A   1      48.379  26.246  36.488  1.00  0.00    -0.237 OA
ATOM     81  O   UNL A   1      48.223  27.698  38.483  1.00  0.00    -0.237 OA
ATOM     82  O   UNL A   1      46.989  25.570  38.413  1.00  0.00    -0.744 OA
ENDBRANCH  78  79
ENDBRANCH  50  73
BRANCH  62  83
ATOM     83  C   UNL A   1      39.761  33.957  37.592  1.00  0.00    -0.014 A 
ATOM     84  C   UNL A   1      38.938  33.555  38.658  1.00  0.00     0.010 A 
ATOM     85  C   UNL A   1      40.536  35.124  37.722  1.00  0.00     0.010 A 
ATOM     86  C   UNL A   1      38.871  34.322  39.825  1.00  0.00     0.020 A 
ATOM     87  C   UNL A   1      40.487  35.882  38.895  1.00  0.00     0.020 A 
ATOM     88  C   UNL A   1      39.644  35.483  39.934  1.00  0.00     0.054 A 
BRANCH  88  89
ATOM     89  S   UNL A   1      39.578  36.440  41.474  1.00  0.00     0.124 S 
ATOM     90  O   UNL A   1      38.585  35.699  42.248  1.00  0.00    -0.237 OA
ATOM     91  O   UNL A   1      40.950  36.355  41.968  1.00  0.00    -0.237 OA
ATOM     92  O   UNL A   1      39.162  37.770  41.036  1.00  0.00    -0.744 OA
ENDBRANCH  88  89
ENDBRANCH  62  83
ENDBRANCH  36  37
ENDBRANCH  28  31
ENDBRANCH  26  27
ENDBRANCH  25  26
ENDBRANCH  24  25
ENDBRANCH   3  24
TORSDOF 20
ENDMDL
MODEL 2
REMARK VINA RESULT:     -10.3      6.240     11.860
REMARK SMILES CCCNC(=O)CN(C)C(=O)c1csc(/C=C/C(=O)NCCCNC(=O)c2ccc(-c3c4nc(c(-c5ccc(S(=O)(=O)[O-])cc5)c5ccc([nH]5)c(-c5ccc(S(=O)(=O)[O-])cc5)c5nc(c(-c6ccc(S(=O)(=O)[O-])cc6)c6ccc3[nH]6)C=C5)C=C4)cc2)c1
REMARK SMILES IDX 18 1 19 2 20 3 17 5 16 6 15 7 12 8 13 9 87 10 14 11 10 12
REMARK SMILES IDX 11 13 8 14 9 15 7 16 5 17 4 18 6 20 3 21 2 22 1 23 21 24
REMARK SMILES IDX 22 25 23 26 24 27 25 28 26 30 27 31 28 32 86 33 29 34 85 35
REMARK SMILES IDX 30 36 31 37 32 38 79 39 33 40 84 41 78 42 80 43 34 44 83 45
REMARK SMILES IDX 77 46 76 47 35 49 65 50 46 51 64 52 47 53 50 54 63 55 81 56
REMARK SMILES IDX 48 57 49 58 62 60 82 61 51 62 36 63 37 64 45 65 38 66 44 67
REMARK SMILES IDX 39 68 40 69 41 70 42 71 43 72 66 73 67 74 75 75 68 76 74 77
REMARK SMILES IDX 69 78 70 79 71 80 72 81 73 82 52 83 53 84 61 85 54 86 60 87
REMARK SMILES IDX 55 88 56 89 57 90 58 91 59 92
REMARK H PARENT 20 4 4 19 24 29 80 48 50 59
REMARK Flexibility Score: inf
ROOT
ATOM      1  C   UNL A   1      32.329  28.587  27.410  1.00  0.00     0.244 C 
ATOM      2  O   UNL A   1      31.268  28.280  27.947  1.00  0.00    -0.270 OA
ATOM      3  N   UNL A   1      32.918  29.779  27.695  1.00  0.00    -0.352 N 
ATOM      4  H   UNL A   1      32.370  30.391  28.238  1.00  0.00     0.163 HD
ENDROOT
BRANCH   1   5
ATOM      5  C   UNL A   1      33.000  27.614  26.523  1.00  0.00     0.072 C 
ATOM      6  C   UNL A   1      32.324  26.702  25.813  1.00  0.00     0.024 C 
BRANCH   6   7
ATOM      7  C   UNL A   1      32.960  25.784  24.928  1.00  0.00     0.028 A 
ATOM      8  C   UNL A   1      34.474  24.156  24.122  1.00  0.00     0.051 A 
ATOM      9  C   UNL A   1      33.683  24.381  23.014  1.00  0.00     0.079 A 
ATOM     10  C   UNL A   1      34.028  24.957  25.226  1.00  0.00     0.033 A 
ATOM     11  S   UNL A   1      32.500  25.586  23.284  1.00  0.00    -0.144 S 
BRANCH   8  12
ATOM     12  C   UNL A   1      35.550  23.172  24.228  1.00  0.00     0.254 C 
ATOM     13  O   UNL A   1      36.682  23.481  23.866  1.00  0.00    -0.269 OA
BRANCH  12  14
ATOM     14  N   UNL A   1      35.246  21.886  24.683  1.00  0.00    -0.332 N 
ATOM     15  C   UNL A   1      36.068  21.120  25.606  1.00  0.00     0.147 C 
BRANCH  14  16
ATOM     16  C   UNL A   1      34.134  21.209  24.011  1.00  0.00     0.219 C 
BRANCH  16  17
ATOM     17  C   UNL A   1      33.051  20.616  24.933  1.00  0.00     0.239 C 
ATOM     18  N   UNL A   1      32.808  19.273  24.980  1.00  0.00    -0.355 N 
ATOM     19  H   UNL A   1      32.194  18.986  25.693  1.00  0.00     0.163 HD
ATOM     20  O   UNL A   1      32.267  21.357  25.534  1.00  0.00    -0.273 OA
BRANCH  18  21
ATOM     21  C   UNL A   1      33.315  18.207  24.142  1.00  0.00     0.115 C 
BRANCH  21  22
ATOM     22  C   UNL A   1      34.087  17.150  24.926  1.00  0.00     0.018 C 
ATOM     23  C   UNL A   1      33.168  16.122  25.570  1.00  0.00     0.006 C 
ENDBRANCH  21  22
ENDBRANCH  18  21
ENDBRANCH  16  17
ENDBRANCH  14  16
ENDBRANCH  12  14
ENDBRANCH   8  12
ENDBRANCH   6   7
ENDBRANCH   1   5
BRANCH   3  24
ATOM     24  C   UNL A   1      34.229  30.297  27.329  1.00  0.00     0.118 C 
BRANCH  24  25
ATOM     25  C   UNL A   1      34.436  31.730  27.817  1.00  0.00     0.042 C 
BRANCH  25  26
ATOM     26  C   UNL A   1      35.716  31.932  28.626  1.00  0.00     0.118 C 
BRANCH  26  27
ATOM     27  N   UNL A   1      35.566  31.509  30.011  1.00  0.00    -0.352 N 
ATOM     28  C   UNL A   1      36.379  30.723  30.789  1.00  0.00     0.251 C 
ATOM     29  H   UNL A   1      34.753  31.838  30.460  1.00  0.00     0.163 HD
ATOM     30  O   UNL A   1      35.965  30.329  31.877  1.00  0.00    -0.269 OA
BRANCH  28  31
ATOM     31  C   UNL A   1      37.736  30.338  30.336  1.00  0.00     0.039 A 
ATOM     32  C   UNL A   1      38.753  30.225  31.290  1.00  0.00     0.014 A 
ATOM     33  C   UNL A   1      38.031  30.148  28.983  1.00  0.00     0.014 A 
ATOM     34  C   UNL A   1      40.048  29.875  30.897  1.00  0.00     0.010 A 
ATOM     35  C   UNL A   1      39.310  29.746  28.596  1.00  0.00     0.010 A 
ATOM     36  C   UNL A   1      40.333  29.609  29.548  1.00  0.00    -0.014 A 
BRANCH  36  37
ATOM     37  C   UNL A   1      41.691  29.190  29.115  1.00  0.00     0.031 A 
ATOM     38  C   UNL A   1      42.811  30.193  29.048  1.00  0.00     0.074 A 
ATOM     39  C   UNL A   1      41.903  27.919  28.720  1.00  0.00     0.049 A 
ATOM     40  N   UNL A   1      44.037  30.032  28.617  1.00  0.00    -0.248 NA
ATOM     41  C   UNL A   1      42.509  31.559  29.507  1.00  0.00     0.031 C 
ATOM     42  C   UNL A   1      40.894  26.857  28.704  1.00  0.00     0.029 A 
ATOM     43  N   UNL A   1      43.035  27.307  28.243  1.00  0.00    -0.354 N 
ATOM     44  C   UNL A   1      44.644  31.278  28.729  1.00  0.00     0.074 A 
ATOM     45  C   UNL A   1      43.643  32.190  29.240  1.00  0.00     0.031 C 
ATOM     46  C   UNL A   1      41.455  25.724  28.252  1.00  0.00     0.029 A 
ATOM     47  C   UNL A   1      42.853  25.985  27.916  1.00  0.00     0.049 A 
ATOM     48  H   UNL A   1      43.898  27.772  28.145  1.00  0.00     0.167 HD
ATOM     49  C   UNL A   1      45.921  31.629  28.442  1.00  0.00     0.031 A 
ATOM     50  C   UNL A   1      43.707  25.084  27.395  1.00  0.00     0.031 A 
ATOM     51  C   UNL A   1      46.923  30.719  27.956  1.00  0.00     0.049 A 
ATOM     52  C   UNL A   1      45.123  25.492  27.101  1.00  0.00     0.074 A 
ATOM     53  C   UNL A   1      48.258  30.971  27.687  1.00  0.00     0.029 A 
ATOM     54  N   UNL A   1      46.704  29.381  27.668  1.00  0.00    -0.354 N 
ATOM     55  N   UNL A   1      45.689  26.664  27.258  1.00  0.00    -0.248 NA
ATOM     56  C   UNL A   1      46.018  24.454  26.572  1.00  0.00     0.031 C 
ATOM     57  C   UNL A   1      48.839  29.792  27.206  1.00  0.00     0.029 A 
ATOM     58  C   UNL A   1      47.874  28.797  27.213  1.00  0.00     0.049 A 
ATOM     59  H   UNL A   1      45.843  28.914  27.771  1.00  0.00     0.167 HD
ATOM     60  C   UNL A   1      47.013  26.500  26.865  1.00  0.00     0.074 A 
ATOM     61  C   UNL A   1      47.165  25.113  26.475  1.00  0.00     0.031 C 
ATOM     62  C   UNL A   1      48.011  27.415  26.830  1.00  0.00     0.031 A 
BRANCH  49  63
ATOM     63  C   UNL A   1      46.307  33.070  28.645  1.00  0.00    -0.014 A 
ATOM     64  C   UNL A   1      45.601  34.105  28.005  1.00  0.00     0.010 A 
ATOM     65  C   UNL A   1      47.362  33.395  29.516  1.00  0.00     0.010 A 
ATOM     66  C   UNL A   1      45.971  35.438  28.202  1.00  0.00     0.020 A 
ATOM     67  C   UNL A   1      47.720  34.729  29.733  1.00  0.00     0.020 A 
ATOM     68  C   UNL A   1      47.033  35.742  29.060  1.00  0.00     0.054 A 
BRANCH  68  69
ATOM     69  S   UNL A   1      47.482  37.481  29.311  1.00  0.00     0.124 S 
ATOM     70  O   UNL A   1      48.942  37.417  29.305  1.00  0.00    -0.237 OA
ATOM     71  O   UNL A   1      46.878  38.142  28.157  1.00  0.00    -0.237 OA
ATOM     72  O   UNL A   1      46.878  37.810  30.600  1.00  0.00    -0.744 OA
ENDBRANCH  68  69
ENDBRANCH  49  63
BRANCH  50  73
ATOM     73  C   UNL A   1      43.244  23.698  27.122  1.00  0.00    -0.014 A 
ATOM     74  C   UNL A   1      43.126  22.767  28.169  1.00  0.00     0.010 A 
ATOM     75  C   UNL A   1      42.902  23.307  25.815  1.00  0.00     0.010 A 
ATOM     76  C   UNL A   1      42.686  21.466  27.912  1.00  0.00     0.020 A 
ATOM     77  C   UNL A   1      42.442  22.013  25.557  1.00  0.00     0.020 A 
ATOM     78  C   UNL A   1      42.348  21.097  26.607  1.00  0.00     0.054 A 
BRANCH  78  79
ATOM     79  S   UNL A   1      41.720  19.422  26.298  1.00  0.00     0.124 S 
ATOM     80  O   UNL A   1      40.292  19.662  26.117  1.00  0.00    -0.237 OA
ATOM     81  O   UNL A   1      42.453  19.021  25.099  1.00  0.00    -0.237 OA
ATOM     82  O   UNL A   1      42.086  18.695  27.511  1.00  0.00    -0.744 OA
ENDBRANCH  78  79
ENDBRANCH  50  73
BRANCH  62  83
ATOM     83  C   UNL A   1      49.366  26.942  26.383  1.00  0.00    -0.014 A 
ATOM     84  C   UNL A   1      50.236  26.290  27.275  1.00  0.00     0.010 A 
ATOM     85  C   UNL A   1      49.752  27.105  25.040  1.00  0.00     0.010 A 
ATOM     86  C   UNL A   1      51.483  25.835  26.837  1.00  0.00     0.020 A 
ATOM     87  C   UNL A   1      50.988  26.633  24.594  1.00  0.00     0.020 A 
ATOM     88  C   UNL A   1      51.852  26.013  25.499  1.00  0.00     0.054 A 
BRANCH  88  89
ATOM     89  S   UNL A   1      53.455  25.374  24.940  1.00  0.00     0.124 S 
ATOM     90  O   UNL A   1      53.364  23.963  25.307  1.00  0.00    -0.237 OA
ATOM     91  O   UNL A   1      53.433  25.653  23.505  1.00  0.00    -0.237 OA
ATOM     92  O   UNL A   1      54.423  26.156  25.704  1.00  0.00    -0.744 OA
ENDBRANCH  88  89
ENDBRANCH  62  83
ENDBRANCH  36  37
ENDBRANCH  28  31
ENDBRANCH  26  27
ENDBRANCH  25  26
ENDBRANCH  24  25
ENDBRANCH   3  24
TORSDOF 20
ENDMDL
MODEL 3
REMARK VINA RESULT:     -10.2      1.180      8.284
REMARK SMILES CCCNC(=O)CN(C)C(=O)c1csc(/C=C/C(=O)NCCCNC(=O)c2ccc(-c3c4nc(c(-c5ccc(S(=O)(=O)[O-])cc5)c5ccc([nH]5)c(-c5ccc(S(=O)(=O)[O-])cc5)c5nc(c(-c6ccc(S(=O)(=O)[O-])cc6)c6ccc3[nH]6)C=C5)C=C4)cc2)c1
REMARK SMILES IDX 18 1 19 2 20 3 17 5 16 6 15 7 12 8 13 9 87 10 14 11 10 12
REMARK SMILES IDX 11 13 8 14 9 15 7 16 5 17 4 18 6 20 3 21 2 22 1 23 21 24
REMARK SMILES IDX 22 25 23 26 24 27 25 28 26 30 27 31 28 32 86 33 29 34 85 35
REMARK SMILES IDX 30 36 31 37 32 38 79 39 33 40 84 41 78 42 80 43 34 44 83 45
REMARK SMILES IDX 77 46 76 47 35 49 65 50 46 51 64 52 47 53 50 54 63 55 81 56
REMARK SMILES IDX 48 57 49 58 62 60 82 61 51 62 36 63 37 64 45 65 38 66 44 67
REMARK SMILES IDX 39 68 40 69 41 70 42 71 43 72 66 73 67 74 75 75 68 76 74 77
REMARK SMILES IDX 69 78 70 79 71 80 72 81 73 82 52 83 53 84 61 85 54 86 60 87
REMARK SMILES IDX 55 88 56 89 57 90 58 91 59 92
REMARK H PARENT 20 4 4 19 24 29 80 48 50 59
REMARK Flexibility Score: inf
ROOT
ATOM      1  C   UNL A   1      36.408  20.564  25.090  1.00  0.00     0.244 C 
ATOM      2  O   UNL A   1      36.157  19.401  24.786  1.00  0.00    -0.270 OA
ATOM      3  N   UNL A   1      37.674  20.920  25.439  1.00  0.00    -0.352 N 
ATOM      4  H   UNL A   1      38.299  20.167  25.549  1.00  0.00     0.163 HD
ENDROOT
BRANCH   1   5
ATOM      5  C   UNL A   1      35.346  21.585  24.986  1.00  0.00     0.072 C 
ATOM      6  C   UNL A   1      34.061  21.317  25.252  1.00  0.00     0.024 C 
BRANCH   6   7
ATOM      7  C   UNL A   1      33.036  22.304  25.190  1.00  0.00     0.028 A 
ATOM      8  C   UNL A   1      31.661  24.034  24.349  1.00  0.00     0.051 A 
ATOM      9  C   UNL A   1      31.149  23.857  25.618  1.00  0.00     0.079 A 
ATOM     10  C   UNL A   1      32.734  23.113  24.110  1.00  0.00     0.033 A 
ATOM     11  S   UNL A   1      32.002  22.675  26.512  1.00  0.00    -0.144 S 
BRANCH   8  12
ATOM     12  C   UNL A   1      31.141  24.942  23.328  1.00  0.00     0.254 C 
ATOM     13  O   UNL A   1      29.952  24.884  23.024  1.00  0.00    -0.269 OA
BRANCH  12  14
ATOM     14  N   UNL A   1      32.025  25.810  22.683  1.00  0.00    -0.332 N 
ATOM     15  C   UNL A   1      32.591  25.584  21.362  1.00  0.00     0.147 C 
BRANCH  14  16
ATOM     16  C   UNL A   1      32.565  26.904  23.495  1.00  0.00     0.219 C 
BRANCH  16  17
ATOM     17  C   UNL A   1      31.557  27.995  23.908  1.00  0.00     0.239 C 
ATOM     18  N   UNL A   1      31.235  28.213  25.216  1.00  0.00    -0.355 N 
ATOM     19  H   UNL A   1      30.688  29.015  25.382  1.00  0.00     0.163 HD
ATOM     20  O   UNL A   1      30.896  28.592  23.051  1.00  0.00    -0.273 OA
BRANCH  18  21
ATOM     21  C   UNL A   1      31.572  27.447  26.397  1.00  0.00     0.115 C 
BRANCH  21  22
ATOM     22  C   UNL A   1      32.093  28.313  27.540  1.00  0.00     0.018 C 
ATOM     23  C   UNL A   1      32.198  29.780  27.150  1.00  0.00     0.006 C 
ENDBRANCH  21  22
ENDBRANCH  18  21
ENDBRANCH  16  17
ENDBRANCH  14  16
ENDBRANCH  12  14
ENDBRANCH   8  12
ENDBRANCH   6   7
ENDBRANCH   1   5
BRANCH   3  24
ATOM     24  C   UNL A   1      38.254  22.234  25.675  1.00  0.00     0.118 C 
BRANCH  24  25
ATOM     25  C   UNL A   1      39.617  22.144  26.360  1.00  0.00     0.042 C 
BRANCH  25  26
ATOM     26  C   UNL A   1      40.152  23.487  26.855  1.00  0.00     0.118 C 
BRANCH  26  27
ATOM     27  N   UNL A   1      41.144  24.052  25.950  1.00  0.00    -0.352 N 
ATOM     28  C   UNL A   1      41.724  25.297  25.940  1.00  0.00     0.251 C 
ATOM     29  H   UNL A   1      41.445  23.448  25.234  1.00  0.00     0.163 HD
ATOM     30  O   UNL A   1      42.396  25.633  24.967  1.00  0.00    -0.269 OA
BRANCH  28  31
ATOM     31  C   UNL A   1      41.547  26.236  27.071  1.00  0.00     0.039 A 
ATOM     32  C   UNL A   1      40.636  25.903  28.080  1.00  0.00     0.014 A 
ATOM     33  C   UNL A   1      42.217  27.461  27.120  1.00  0.00     0.014 A 
ATOM     34  C   UNL A   1      40.434  26.771  29.158  1.00  0.00     0.010 A 
ATOM     35  C   UNL A   1      42.057  28.302  28.222  1.00  0.00     0.010 A 
ATOM     36  C   UNL A   1      41.162  27.968  29.250  1.00  0.00    -0.014 A 
BRANCH  36  37
ATOM     37  C   UNL A   1      40.998  28.882  30.410  1.00  0.00     0.031 A 
ATOM     38  C   UNL A   1      41.872  28.733  31.626  1.00  0.00     0.074 A 
ATOM     39  C   UNL A   1      40.018  29.808  30.397  1.00  0.00     0.049 A 
ATOM     40  N   UNL A   1      41.821  29.380  32.763  1.00  0.00    -0.248 NA
ATOM     41  C   UNL A   1      42.928  27.709  31.564  1.00  0.00     0.031 C 
ATOM     42  C   UNL A   1      39.079  30.033  29.295  1.00  0.00     0.029 A 
ATOM     43  N   UNL A   1      39.639  30.724  31.346  1.00  0.00    -0.354 N 
ATOM     44  C   UNL A   1      42.819  28.828  33.559  1.00  0.00     0.074 A 
ATOM     45  C   UNL A   1      43.438  27.773  32.785  1.00  0.00     0.031 C 
ATOM     46  C   UNL A   1      38.243  31.029  29.626  1.00  0.00     0.029 A 
ATOM     47  C   UNL A   1      38.562  31.492  30.974  1.00  0.00     0.049 A 
ATOM     48  H   UNL A   1      40.097  30.821  32.213  1.00  0.00     0.167 HD
ATOM     49  C   UNL A   1      43.191  29.175  34.814  1.00  0.00     0.031 A 
ATOM     50  C   UNL A   1      37.897  32.453  31.643  1.00  0.00     0.031 A 
ATOM     51  C   UNL A   1      42.591  30.237  35.575  1.00  0.00     0.049 A 
ATOM     52  C   UNL A   1      38.340  32.831  33.029  1.00  0.00     0.074 A 
ATOM     53  C   UNL A   1      42.937  30.695  36.836  1.00  0.00     0.029 A 
ATOM     54  N   UNL A   1      41.524  31.010  35.148  1.00  0.00    -0.354 N 
ATOM     55  N   UNL A   1      39.316  32.327  33.745  1.00  0.00    -0.248 NA
ATOM     56  C   UNL A   1      37.600  33.915  33.691  1.00  0.00     0.031 C 
ATOM     57  C   UNL A   1      42.057  31.726  37.184  1.00  0.00     0.029 A 
ATOM     58  C   UNL A   1      41.189  31.934  36.124  1.00  0.00     0.049 A 
ATOM     59  H   UNL A   1      41.069  30.917  34.280  1.00  0.00     0.167 HD
ATOM     60  C   UNL A   1      39.321  33.046  34.935  1.00  0.00     0.074 A 
ATOM     61  C   UNL A   1      38.259  34.027  34.836  1.00  0.00     0.031 C 
ATOM     62  C   UNL A   1      40.131  32.906  36.011  1.00  0.00     0.031 A 
BRANCH  49  63
ATOM     63  C   UNL A   1      44.306  28.386  35.449  1.00  0.00    -0.014 A 
ATOM     64  C   UNL A   1      45.622  28.881  35.472  1.00  0.00     0.010 A 
ATOM     65  C   UNL A   1      44.027  27.152  36.063  1.00  0.00     0.010 A 
ATOM     66  C   UNL A   1      46.647  28.138  36.063  1.00  0.00     0.020 A 
ATOM     67  C   UNL A   1      45.045  26.415  36.675  1.00  0.00     0.020 A 
ATOM     68  C   UNL A   1      46.353  26.905  36.655  1.00  0.00     0.054 A 
BRANCH  68  69
ATOM     69  S   UNL A   1      47.698  25.967  37.431  1.00  0.00     0.124 S 
ATOM     70  O   UNL A   1      47.365  26.083  38.849  1.00  0.00    -0.237 OA
ATOM     71  O   UNL A   1      47.537  24.634  36.855  1.00  0.00    -0.237 OA
ATOM     72  O   UNL A   1      48.902  26.680  37.012  1.00  0.00    -0.744 OA
ENDBRANCH  68  69
ENDBRANCH  49  63
BRANCH  50  73
ATOM     73  C   UNL A   1      36.739  33.132  31.004  1.00  0.00    -0.014 A 
ATOM     74  C   UNL A   1      36.902  33.832  29.795  1.00  0.00     0.010 A 
ATOM     75  C   UNL A   1      35.464  33.068  31.593  1.00  0.00     0.010 A 
ATOM     76  C   UNL A   1      35.812  34.466  29.193  1.00  0.00     0.020 A 
ATOM     77  C   UNL A   1      34.367  33.683  30.984  1.00  0.00     0.020 A 
ATOM     78  C   UNL A   1      34.551  34.388  29.792  1.00  0.00     0.054 A 
BRANCH  78  79
ATOM     79  S   UNL A   1      33.133  35.165  28.968  1.00  0.00     0.124 S 
ATOM     80  O   UNL A   1      32.829  34.201  27.916  1.00  0.00    -0.237 OA
ATOM     81  O   UNL A   1      32.149  35.261  30.044  1.00  0.00    -0.237 OA
ATOM     82  O   UNL A   1      33.668  36.446  28.511  1.00  0.00    -0.744 OA
ENDBRANCH  78  79
ENDBRANCH  50  73
BRANCH  62  83
ATOM     83  C   UNL A   1      39.923  33.853  37.159  1.00  0.00    -0.014 A 
ATOM     84  C   UNL A   1      40.583  35.094  37.203  1.00  0.00     0.010 A 
ATOM     85  C   UNL A   1      39.016  33.519  38.182  1.00  0.00     0.010 A 
ATOM     86  C   UNL A   1      40.359  35.973  38.267  1.00  0.00     0.020 A 
ATOM     87  C   UNL A   1      38.775  34.404  39.235  1.00  0.00     0.020 A 
ATOM     88  C   UNL A   1      39.459  35.620  39.278  1.00  0.00     0.054 A 
BRANCH  88  89
ATOM     89  S   UNL A   1      39.149  36.795  40.625  1.00  0.00     0.124 S 
ATOM     90  O   UNL A   1      38.506  35.946  41.625  1.00  0.00    -0.237 OA
ATOM     91  O   UNL A   1      40.491  37.260  40.966  1.00  0.00    -0.237 OA
ATOM     92  O   UNL A   1      38.285  37.801  40.013  1.00  0.00    -0.744 OA
ENDBRANCH  88  89
ENDBRANCH  62  83
ENDBRANCH  36  37
ENDBRANCH  28  31
ENDBRANCH  26  27
ENDBRANCH  25  26
ENDBRANCH  24  25
ENDBRANCH   3  24
TORSDOF 20
ENDMDL
