MODEL 1
REMARK VINA RESULT:     -14.9      0.000      0.000
REMARK SMILES C[C@]12C(=O)N(c3ccc(C(=O)NCCCNC(=O)c4ccc(-c5c6nc(c(-c7ccc(S(=O)(=O)[O-])cc7)c7ccc([nH]7)c(-c7ccc(S(=O)(=O)[O-])cc7)c7nc(c(-c8ccc(S(=O)(=O)[O-])cc8)c8ccc5[nH]8)C=C7)C=C6)cc4)cc3)C(=O)[C@H]1[C@H]1c3ccccc3[C@@H]2c2ccccc21
REMARK SMILES IDX 15 1 14 2 13 3 12 4 10 5 11 6 9 8 6 9 7 10 80 11 8 12 79 13
REMARK SMILES IDX 5 14 1 15 2 16 3 17 83 18 91 19 4 20 81 21 84 22 90 23 92 24
REMARK SMILES IDX 82 25 85 26 97 27 89 28 93 29 86 30 96 31 88 32 94 33 87 34
REMARK SMILES IDX 95 35 16 36 17 37 18 39 19 40 20 41 78 42 21 43 77 44 22 45
REMARK SMILES IDX 23 46 24 47 71 48 25 49 76 50 70 51 72 52 26 53 75 54 69 55
REMARK SMILES IDX 68 56 27 58 57 59 38 60 56 61 39 62 42 63 55 64 73 65 40 66
REMARK SMILES IDX 41 67 54 69 74 70 43 71 28 72 29 73 37 74 30 75 36 76 31 77
REMARK SMILES IDX 32 78 33 79 34 80 35 81 58 82 59 83 67 84 60 85 66 86 61 87
REMARK SMILES IDX 62 88 63 89 64 90 65 91 44 92 45 93 53 94 46 95 52 96 47 97
REMARK SMILES IDX 48 98 49 99 50 100 51 101
REMARK H PARENT 12 7 16 38 72 57 42 68
REMARK Flexibility Score: inf
ROOT
ATOM      1  C   UNL A   1      39.706  23.192  26.994  1.00  0.00     0.118 C 
ENDROOT
BRANCH   1   2
ATOM      2  C   UNL A   1      38.971  22.062  26.283  1.00  0.00     0.042 C 
BRANCH   2   3
ATOM      3  C   UNL A   1      37.565  22.438  25.840  1.00  0.00     0.118 C 
BRANCH   3   4
ATOM      4  N   UNL A   1      37.449  22.599  24.398  1.00  0.00    -0.352 N 
ATOM      5  C   UNL A   1      36.434  23.039  23.590  1.00  0.00     0.251 C 
ATOM      6  O   UNL A   1      36.586  22.940  22.371  1.00  0.00    -0.269 OA
ATOM      7  H   UNL A   1      38.260  22.340  23.906  1.00  0.00     0.163 HD
BRANCH   5   8
ATOM      8  C   UNL A   1      35.165  23.616  24.108  1.00  0.00     0.039 A 
ATOM      9  C   UNL A   1      32.627  24.690  24.834  1.00  0.00     0.052 A 
ATOM     10  C   UNL A   1      32.743  23.427  24.230  1.00  0.00     0.027 A 
ATOM     11  C   UNL A   1      33.815  25.387  25.096  1.00  0.00     0.027 A 
ATOM     12  C   UNL A   1      33.990  22.894  23.878  1.00  0.00     0.016 A 
ATOM     13  C   UNL A   1      35.060  24.878  24.689  1.00  0.00     0.016 A 
BRANCH   9  14
ATOM     14  N   UNL A   1      31.369  25.363  24.931  1.00  0.00    -0.250 N 
ATOM     15  C   UNL A   1      28.425  26.694  24.222  1.00  0.00     0.024 C 
ATOM     16  C   UNL A   1      29.927  26.869  23.917  1.00  0.00     0.071 C 
ATOM     17  C   UNL A   1      30.534  25.493  23.846  1.00  0.00     0.241 C 
ATOM     18  C   UNL A   1      30.658  27.579  25.111  1.00  0.00     0.107 C 
ATOM     19  C   UNL A   1      30.225  27.613  22.576  1.00  0.00     0.066 C 
ATOM     20  O   UNL A   1      30.269  24.700  22.962  1.00  0.00    -0.273 OA
ATOM     21  C   UNL A   1      31.055  26.328  25.890  1.00  0.00     0.238 C 
ATOM     22  C   UNL A   1      31.046  29.045  24.642  1.00  0.00     0.063 C 
ATOM     23  C   UNL A   1      31.733  27.920  22.536  1.00  0.00    -0.036 A 
ATOM     24  C   UNL A   1      29.519  28.955  22.700  1.00  0.00    -0.036 A 
ATOM     25  O   UNL A   1      31.169  26.261  27.104  1.00  0.00    -0.274 OA
ATOM     26  C   UNL A   1      32.174  28.776  23.588  1.00  0.00    -0.036 A 
ATOM     27  C   UNL A   1      29.920  29.701  23.839  1.00  0.00    -0.036 A 
ATOM     28  C   UNL A   1      32.658  27.313  21.699  1.00  0.00     0.005 A 
ATOM     29  C   UNL A   1      28.606  29.461  21.785  1.00  0.00     0.005 A 
ATOM     30  C   UNL A   1      33.526  29.022  23.798  1.00  0.00     0.004 A 
ATOM     31  C   UNL A   1      29.405  30.973  24.043  1.00  0.00     0.004 A 
ATOM     32  C   UNL A   1      34.018  27.559  21.915  1.00  0.00     0.000 A 
ATOM     33  C   UNL A   1      28.090  30.735  22.001  1.00  0.00     0.000 A 
ATOM     34  C   UNL A   1      34.446  28.406  22.951  1.00  0.00     0.000 A 
ATOM     35  C   UNL A   1      28.486  31.485  23.120  1.00  0.00     0.000 A 
ENDBRANCH   9  14
ENDBRANCH   5   8
ENDBRANCH   3   4
ENDBRANCH   2   3
ENDBRANCH   1   2
BRANCH   1  36
ATOM     36  N   UNL A   1      40.555  23.970  26.096  1.00  0.00    -0.352 N 
ATOM     37  C   UNL A   1      41.040  25.254  26.175  1.00  0.00     0.251 C 
ATOM     38  H   UNL A   1      40.832  23.484  25.285  1.00  0.00     0.163 HD
ATOM     39  O   UNL A   1      41.558  25.755  25.179  1.00  0.00    -0.269 OA
BRANCH  37  40
ATOM     40  C   UNL A   1      40.923  26.048  27.420  1.00  0.00     0.039 A 
ATOM     41  C   UNL A   1      39.929  25.781  28.358  1.00  0.00     0.014 A 
ATOM     42  C   UNL A   1      41.856  27.059  27.678  1.00  0.00     0.014 A 
ATOM     43  C   UNL A   1      39.738  26.641  29.433  1.00  0.00     0.010 A 
ATOM     44  C   UNL A   1      41.731  27.856  28.823  1.00  0.00     0.010 A 
ATOM     45  C   UNL A   1      40.635  27.691  29.683  1.00  0.00    -0.014 A 
BRANCH  45  46
ATOM     46  C   UNL A   1      40.397  28.593  30.844  1.00  0.00     0.031 A 
ATOM     47  C   UNL A   1      41.309  28.562  32.043  1.00  0.00     0.074 A 
ATOM     48  C   UNL A   1      39.403  29.503  30.781  1.00  0.00     0.049 A 
ATOM     49  N   UNL A   1      41.282  29.315  33.113  1.00  0.00    -0.248 NA
ATOM     50  C   UNL A   1      42.391  27.562  32.047  1.00  0.00     0.031 C 
ATOM     51  C   UNL A   1      38.467  29.647  29.663  1.00  0.00     0.029 A 
ATOM     52  N   UNL A   1      39.041  30.507  31.644  1.00  0.00    -0.354 N 
ATOM     53  C   UNL A   1      42.324  28.873  33.920  1.00  0.00     0.074 A 
ATOM     54  C   UNL A   1      42.949  27.765  33.234  1.00  0.00     0.031 C 
ATOM     55  C   UNL A   1      37.696  30.724  29.870  1.00  0.00     0.029 A 
ATOM     56  C   UNL A   1      38.025  31.304  31.169  1.00  0.00     0.049 A 
ATOM     57  H   UNL A   1      39.467  30.643  32.522  1.00  0.00     0.167 HD
ATOM     58  C   UNL A   1      42.735  29.358  35.115  1.00  0.00     0.031 A 
ATOM     59  C   UNL A   1      37.417  32.380  31.709  1.00  0.00     0.031 A 
ATOM     60  C   UNL A   1      42.125  30.477  35.784  1.00  0.00     0.049 A 
ATOM     61  C   UNL A   1      37.862  32.871  33.055  1.00  0.00     0.074 A 
ATOM     62  C   UNL A   1      42.480  31.045  36.996  1.00  0.00     0.029 A 
ATOM     63  N   UNL A   1      41.048  31.205  35.303  1.00  0.00    -0.354 N 
ATOM     64  N   UNL A   1      38.844  32.429  33.805  1.00  0.00    -0.248 NA
ATOM     65  C   UNL A   1      37.119  33.998  33.636  1.00  0.00     0.031 C 
ATOM     66  C   UNL A   1      41.582  32.077  37.274  1.00  0.00     0.029 A 
ATOM     67  C   UNL A   1      40.709  32.199  36.205  1.00  0.00     0.049 A 
ATOM     68  H   UNL A   1      40.591  31.038  34.446  1.00  0.00     0.167 HD
ATOM     69  C   UNL A   1      38.838  33.225  34.944  1.00  0.00     0.074 A 
ATOM     70  C   UNL A   1      37.771  34.191  34.776  1.00  0.00     0.031 C 
ATOM     71  C   UNL A   1      39.642  33.153  36.032  1.00  0.00     0.031 A 
BRANCH  58  72
ATOM     72  C   UNL A   1      43.903  28.693  35.796  1.00  0.00    -0.014 A 
ATOM     73  C   UNL A   1      43.675  27.645  36.708  1.00  0.00     0.010 A 
ATOM     74  C   UNL A   1      45.212  29.181  35.629  1.00  0.00     0.010 A 
ATOM     75  C   UNL A   1      44.726  27.118  37.462  1.00  0.00     0.020 A 
ATOM     76  C   UNL A   1      46.271  28.637  36.362  1.00  0.00     0.020 A 
ATOM     77  C   UNL A   1      46.017  27.625  37.292  1.00  0.00     0.054 A 
BRANCH  77  78
ATOM     78  S   UNL A   1      47.366  26.945  38.296  1.00  0.00     0.124 S 
ATOM     79  O   UNL A   1      48.524  27.135  37.429  1.00  0.00    -0.237 OA
ATOM     80  O   UNL A   1      47.327  27.781  39.493  1.00  0.00    -0.237 OA
ATOM     81  O   UNL A   1      46.964  25.555  38.509  1.00  0.00    -0.744 OA
ENDBRANCH  77  78
ENDBRANCH  58  72
BRANCH  59  82
ATOM     82  C   UNL A   1      36.332  33.057  30.947  1.00  0.00    -0.014 A 
ATOM     83  C   UNL A   1      36.631  33.789  29.783  1.00  0.00     0.010 A 
ATOM     84  C   UNL A   1      35.012  33.054  31.430  1.00  0.00     0.010 A 
ATOM     85  C   UNL A   1      35.651  34.561  29.156  1.00  0.00     0.020 A 
ATOM     86  C   UNL A   1      34.020  33.802  30.787  1.00  0.00     0.020 A 
ATOM     87  C   UNL A   1      34.354  34.577  29.674  1.00  0.00     0.054 A 
BRANCH  87  88
ATOM     88  S   UNL A   1      33.111  35.635  28.883  1.00  0.00     0.124 S 
ATOM     89  O   UNL A   1      32.349  34.665  28.101  1.00  0.00    -0.237 OA
ATOM     90  O   UNL A   1      32.408  36.213  30.025  1.00  0.00    -0.237 OA
ATOM     91  O   UNL A   1      33.911  36.579  28.106  1.00  0.00    -0.744 OA
ENDBRANCH  87  88
ENDBRANCH  59  82
BRANCH  71  92
ATOM     92  C   UNL A   1      39.413  34.132  37.151  1.00  0.00    -0.014 A 
ATOM     93  C   UNL A   1      39.987  35.415  37.084  1.00  0.00     0.010 A 
ATOM     94  C   UNL A   1      38.752  33.736  38.327  1.00  0.00     0.010 A 
ATOM     95  C   UNL A   1      39.940  36.271  38.186  1.00  0.00     0.020 A 
ATOM     96  C   UNL A   1      38.680  34.600  39.423  1.00  0.00     0.020 A 
ATOM     97  C   UNL A   1      39.297  35.852  39.355  1.00  0.00     0.054 A 
BRANCH  97  98
ATOM     98  S   UNL A   1      39.281  36.958  40.792  1.00  0.00     0.124 S 
ATOM     99  O   UNL A   1      40.706  37.192  41.014  1.00  0.00    -0.237 OA
ATOM    100  O   UNL A   1      38.523  38.108  40.305  1.00  0.00    -0.237 OA
ATOM    101  O   UNL A   1      38.609  36.171  41.823  1.00  0.00    -0.744 OA
ENDBRANCH  97  98
ENDBRANCH  71  92
ENDBRANCH  45  46
ENDBRANCH  37  40
ENDBRANCH   1  36
TORSDOF 14
ENDMDL
MODEL 2
REMARK VINA RESULT:     -14.6      6.246     11.617
REMARK SMILES C[C@]12C(=O)N(c3ccc(C(=O)NCCCNC(=O)c4ccc(-c5c6nc(c(-c7ccc(S(=O)(=O)[O-])cc7)c7ccc([nH]7)c(-c7ccc(S(=O)(=O)[O-])cc7)c7nc(c(-c8ccc(S(=O)(=O)[O-])cc8)c8ccc5[nH]8)C=C7)C=C6)cc4)cc3)C(=O)[C@H]1[C@H]1c3ccccc3[C@@H]2c2ccccc21
REMARK SMILES IDX 15 1 14 2 13 3 12 4 10 5 11 6 9 8 6 9 7 10 80 11 8 12 79 13
REMARK SMILES IDX 5 14 1 15 2 16 3 17 83 18 91 19 4 20 81 21 84 22 90 23 92 24
REMARK SMILES IDX 82 25 85 26 97 27 89 28 93 29 86 30 96 31 88 32 94 33 87 34
REMARK SMILES IDX 95 35 16 36 17 37 18 39 19 40 20 41 78 42 21 43 77 44 22 45
REMARK SMILES IDX 23 46 24 47 71 48 25 49 76 50 70 51 72 52 26 53 75 54 69 55
REMARK SMILES IDX 68 56 27 58 57 59 38 60 56 61 39 62 42 63 55 64 73 65 40 66
REMARK SMILES IDX 41 67 54 69 74 70 43 71 28 72 29 73 37 74 30 75 36 76 31 77
REMARK SMILES IDX 32 78 33 79 34 80 35 81 58 82 59 83 67 84 60 85 66 86 61 87
REMARK SMILES IDX 62 88 63 89 64 90 65 91 44 92 45 93 53 94 46 95 52 96 47 97
REMARK SMILES IDX 48 98 49 99 50 100 51 101
REMARK H PARENT 12 7 16 38 72 57 42 68
REMARK Flexibility Score: inf
ROOT
ATOM      1  C   UNL A   1      35.016  29.320  28.065  1.00  0.00     0.118 C 
ENDROOT
BRANCH   1   2
ATOM      2  C   UNL A   1      34.722  29.794  26.646  1.00  0.00     0.042 C 
BRANCH   2   3
ATOM      3  C   UNL A   1      33.252  30.101  26.403  1.00  0.00     0.118 C 
BRANCH   3   4
ATOM      4  N   UNL A   1      32.364  29.363  27.288  1.00  0.00    -0.352 N 
ATOM      5  C   UNL A   1      31.818  28.108  27.224  1.00  0.00     0.251 C 
ATOM      6  O   UNL A   1      30.982  27.801  28.077  1.00  0.00    -0.269 OA
ATOM      7  H   UNL A   1      32.105  29.864  28.094  1.00  0.00     0.163 HD
BRANCH   5   8
ATOM      8  C   UNL A   1      32.171  27.113  26.178  1.00  0.00     0.039 A 
ATOM      9  C   UNL A   1      32.603  25.070  24.238  1.00  0.00     0.052 A 
ATOM     10  C   UNL A   1      31.425  25.836  24.246  1.00  0.00     0.027 A 
ATOM     11  C   UNL A   1      33.573  25.374  25.204  1.00  0.00     0.027 A 
ATOM     12  C   UNL A   1      31.214  26.845  25.196  1.00  0.00     0.016 A 
ATOM     13  C   UNL A   1      33.335  26.345  26.192  1.00  0.00     0.016 A 
BRANCH   9  14
ATOM     14  N   UNL A   1      32.709  23.863  23.477  1.00  0.00    -0.250 N 
ATOM     15  C   UNL A   1      32.130  20.880  22.171  1.00  0.00     0.024 C 
ATOM     16  C   UNL A   1      32.476  21.557  23.513  1.00  0.00     0.071 C 
ATOM     17  C   UNL A   1      31.753  22.877  23.550  1.00  0.00     0.241 C 
ATOM     18  C   UNL A   1      34.002  21.923  23.573  1.00  0.00     0.107 C 
ATOM     19  C   UNL A   1      32.065  20.729  24.772  1.00  0.00     0.066 C 
ATOM     20  O   UNL A   1      30.542  22.964  23.620  1.00  0.00    -0.273 OA
ATOM     21  C   UNL A   1      33.905  23.331  22.993  1.00  0.00     0.238 C 
ATOM     22  C   UNL A   1      34.696  20.949  24.617  1.00  0.00     0.063 C 
ATOM     23  C   UNL A   1      32.686  21.411  26.005  1.00  0.00    -0.036 A 
ATOM     24  C   UNL A   1      32.775  19.392  24.619  1.00  0.00    -0.036 A 
ATOM     25  O   UNL A   1      34.773  23.882  22.333  1.00  0.00    -0.274 OA
ATOM     26  C   UNL A   1      34.112  21.446  25.984  1.00  0.00    -0.036 A 
ATOM     27  C   UNL A   1      34.183  19.513  24.481  1.00  0.00    -0.036 A 
ATOM     28  C   UNL A   1      31.987  22.102  26.982  1.00  0.00     0.005 A 
ATOM     29  C   UNL A   1      32.153  18.152  24.658  1.00  0.00     0.005 A 
ATOM     30  C   UNL A   1      34.830  22.166  26.933  1.00  0.00     0.004 A 
ATOM     31  C   UNL A   1      34.965  18.370  24.398  1.00  0.00     0.004 A 
ATOM     32  C   UNL A   1      32.711  22.830  27.934  1.00  0.00     0.000 A 
ATOM     33  C   UNL A   1      32.945  17.011  24.567  1.00  0.00     0.000 A 
ATOM     34  C   UNL A   1      34.115  22.858  27.911  1.00  0.00     0.000 A 
ATOM     35  C   UNL A   1      34.338  17.120  24.440  1.00  0.00     0.000 A 
ENDBRANCH   9  14
ENDBRANCH   5   8
ENDBRANCH   3   4
ENDBRANCH   2   3
ENDBRANCH   1   2
BRANCH   1  36
ATOM     36  N   UNL A   1      35.242  30.423  28.995  1.00  0.00    -0.352 N 
ATOM     37  C   UNL A   1      36.358  30.821  29.692  1.00  0.00     0.251 C 
ATOM     38  H   UNL A   1      34.448  30.985  29.151  1.00  0.00     0.163 HD
ATOM     39  O   UNL A   1      36.233  31.656  30.586  1.00  0.00    -0.269 OA
BRANCH  37  40
ATOM     40  C   UNL A   1      37.692  30.244  29.408  1.00  0.00     0.039 A 
ATOM     41  C   UNL A   1      38.525  29.806  30.435  1.00  0.00     0.014 A 
ATOM     42  C   UNL A   1      38.106  30.096  28.079  1.00  0.00     0.014 A 
ATOM     43  C   UNL A   1      39.832  29.423  30.154  1.00  0.00     0.010 A 
ATOM     44  C   UNL A   1      39.384  29.602  27.790  1.00  0.00     0.010 A 
ATOM     45  C   UNL A   1      40.281  29.315  28.829  1.00  0.00    -0.014 A 
BRANCH  45  46
ATOM     46  C   UNL A   1      41.689  28.903  28.569  1.00  0.00     0.031 A 
ATOM     47  C   UNL A   1      42.013  27.493  28.150  1.00  0.00     0.074 A 
ATOM     48  C   UNL A   1      42.670  29.828  28.628  1.00  0.00     0.049 A 
ATOM     49  N   UNL A   1      43.174  26.980  27.829  1.00  0.00    -0.248 NA
ATOM     50  C   UNL A   1      40.899  26.531  28.081  1.00  0.00     0.031 C 
ATOM     51  C   UNL A   1      42.478  31.232  28.999  1.00  0.00     0.029 A 
ATOM     52  N   UNL A   1      44.008  29.745  28.334  1.00  0.00    -0.354 N 
ATOM     53  C   UNL A   1      42.934  25.642  27.537  1.00  0.00     0.074 A 
ATOM     54  C   UNL A   1      41.523  25.409  27.748  1.00  0.00     0.031 C 
ATOM     55  C   UNL A   1      43.632  31.893  28.832  1.00  0.00     0.029 A 
ATOM     56  C   UNL A   1      44.666  30.950  28.417  1.00  0.00     0.049 A 
ATOM     57  H   UNL A   1      44.455  28.902  28.088  1.00  0.00     0.167 HD
ATOM     58  C   UNL A   1      43.807  24.697  27.114  1.00  0.00     0.031 A 
ATOM     59  C   UNL A   1      45.957  31.272  28.192  1.00  0.00     0.031 A 
ATOM     60  C   UNL A   1      45.207  24.939  26.881  1.00  0.00     0.049 A 
ATOM     61  C   UNL A   1      46.914  30.197  27.766  1.00  0.00     0.074 A 
ATOM     62  C   UNL A   1      46.167  24.042  26.443  1.00  0.00     0.029 A 
ATOM     63  N   UNL A   1      45.847  26.156  27.055  1.00  0.00    -0.354 N 
ATOM     64  N   UNL A   1      46.666  28.935  27.507  1.00  0.00    -0.248 NA
ATOM     65  C   UNL A   1      48.323  30.580  27.607  1.00  0.00     0.031 C 
ATOM     66  C   UNL A   1      47.396  24.703  26.407  1.00  0.00     0.029 A 
ATOM     67  C   UNL A   1      47.193  26.028  26.757  1.00  0.00     0.049 A 
ATOM     68  H   UNL A   1      45.408  26.987  27.347  1.00  0.00     0.167 HD
ATOM     69  C   UNL A   1      47.887  28.375  27.152  1.00  0.00     0.074 A 
ATOM     70  C   UNL A   1      48.869  29.438  27.207  1.00  0.00     0.031 C 
ATOM     71  C   UNL A   1      48.165  27.091  26.820  1.00  0.00     0.031 A 
BRANCH  58  72
ATOM     72  C   UNL A   1      43.291  23.303  26.866  1.00  0.00    -0.014 A 
ATOM     73  C   UNL A   1      43.002  22.462  27.957  1.00  0.00     0.010 A 
ATOM     74  C   UNL A   1      43.206  22.784  25.562  1.00  0.00     0.010 A 
ATOM     75  C   UNL A   1      42.669  21.121  27.753  1.00  0.00     0.020 A 
ATOM     76  C   UNL A   1      42.848  21.448  25.351  1.00  0.00     0.020 A 
ATOM     77  C   UNL A   1      42.604  20.619  26.450  1.00  0.00     0.054 A 
BRANCH  77  78
ATOM     78  S   UNL A   1      42.193  18.870  26.203  1.00  0.00     0.124 S 
ATOM     79  O   UNL A   1      43.191  18.453  25.223  1.00  0.00    -0.237 OA
ATOM     80  O   UNL A   1      42.351  18.312  27.544  1.00  0.00    -0.237 OA
ATOM     81  O   UNL A   1      40.815  18.909  25.716  1.00  0.00    -0.744 OA
ENDBRANCH  77  78
ENDBRANCH  58  72
BRANCH  59  82
ATOM     82  C   UNL A   1      46.390  32.686  28.359  1.00  0.00    -0.014 A 
ATOM     83  C   UNL A   1      46.370  33.570  27.264  1.00  0.00     0.010 A 
ATOM     84  C   UNL A   1      46.915  33.132  29.585  1.00  0.00     0.010 A 
ATOM     85  C   UNL A   1      46.927  34.846  27.368  1.00  0.00     0.020 A 
ATOM     86  C   UNL A   1      47.447  34.420  29.703  1.00  0.00     0.020 A 
ATOM     87  C   UNL A   1      47.478  35.257  28.584  1.00  0.00     0.054 A 
BRANCH  87  88
ATOM     88  S   UNL A   1      48.254  36.894  28.682  1.00  0.00     0.124 S 
ATOM     89  O   UNL A   1      48.242  37.312  27.284  1.00  0.00    -0.237 OA
ATOM     90  O   UNL A   1      47.349  37.625  29.566  1.00  0.00    -0.237 OA
ATOM     91  O   UNL A   1      49.573  36.613  29.243  1.00  0.00    -0.744 OA
ENDBRANCH  87  88
ENDBRANCH  59  82
BRANCH  71  92
ATOM     92  C   UNL A   1      49.589  26.735  26.492  1.00  0.00    -0.014 A 
ATOM     93  C   UNL A   1      50.056  26.866  25.171  1.00  0.00     0.010 A 
ATOM     94  C   UNL A   1      50.419  26.138  27.457  1.00  0.00     0.010 A 
ATOM     95  C   UNL A   1      51.310  26.373  24.810  1.00  0.00     0.020 A 
ATOM     96  C   UNL A   1      51.687  25.667  27.105  1.00  0.00     0.020 A 
ATOM     97  C   UNL A   1      52.114  25.764  25.778  1.00  0.00     0.054 A 
BRANCH  97  98
ATOM     98  S   UNL A   1      53.723  25.089  25.284  1.00  0.00     0.124 S 
ATOM     99  O   UNL A   1      53.877  25.622  23.932  1.00  0.00    -0.237 OA
ATOM    100  O   UNL A   1      54.628  25.647  26.287  1.00  0.00    -0.237 OA
ATOM    101  O   UNL A   1      53.529  23.643  25.367  1.00  0.00    -0.744 OA
ENDBRANCH  97  98
ENDBRANCH  71  92
ENDBRANCH  45  46
ENDBRANCH  37  40
ENDBRANCH   1  36
TORSDOF 14
ENDMDL
MODEL 3
REMARK VINA RESULT:     -14.5      6.530     12.203
REMARK SMILES C[C@]12C(=O)N(c3ccc(C(=O)NCCCNC(=O)c4ccc(-c5c6nc(c(-c7ccc(S(=O)(=O)[O-])cc7)c7ccc([nH]7)c(-c7ccc(S(=O)(=O)[O-])cc7)c7nc(c(-c8ccc(S(=O)(=O)[O-])cc8)c8ccc5[nH]8)C=C7)C=C6)cc4)cc3)C(=O)[C@H]1[C@H]1c3ccccc3[C@@H]2c2ccccc21
REMARK SMILES IDX 15 1 14 2 13 3 12 4 10 5 11 6 9 8 6 9 7 10 80 11 8 12 79 13
REMARK SMILES IDX 5 14 1 15 2 16 3 17 83 18 91 19 4 20 81 21 84 22 90 23 92 24
REMARK SMILES IDX 82 25 85 26 97 27 89 28 93 29 86 30 96 31 88 32 94 33 87 34
REMARK SMILES IDX 95 35 16 36 17 37 18 39 19 40 20 41 78 42 21 43 77 44 22 45
REMARK SMILES IDX 23 46 24 47 71 48 25 49 76 50 70 51 72 52 26 53 75 54 69 55
REMARK SMILES IDX 68 56 27 58 57 59 38 60 56 61 39 62 42 63 55 64 73 65 40 66
REMARK SMILES IDX 41 67 54 69 74 70 43 71 28 72 29 73 37 74 30 75 36 76 31 77
REMARK SMILES IDX 32 78 33 79 34 80 35 81 58 82 59 83 67 84 60 85 66 86 61 87
REMARK SMILES IDX 62 88 63 89 64 90 65 91 44 92 45 93 53 94 46 95 52 96 47 97
REMARK SMILES IDX 48 98 49 99 50 100 51 101
REMARK H PARENT 12 7 16 38 72 57 42 68
REMARK Flexibility Score: inf
ROOT
ATOM      1  C   UNL A   1      35.995  30.255  27.788  1.00  0.00     0.118 C 
ENDROOT
BRANCH   1   2
ATOM      2  C   UNL A   1      35.087  29.310  27.009  1.00  0.00     0.042 C 
BRANCH   2   3
ATOM      3  C   UNL A   1      33.715  29.895  26.712  1.00  0.00     0.118 C 
BRANCH   3   4
ATOM      4  N   UNL A   1      32.649  29.253  27.464  1.00  0.00    -0.352 N 
ATOM      5  C   UNL A   1      31.965  28.078  27.292  1.00  0.00     0.251 C 
ATOM      6  O   UNL A   1      31.006  27.857  28.034  1.00  0.00    -0.269 OA
ATOM      7  H   UNL A   1      32.361  29.763  28.255  1.00  0.00     0.163 HD
BRANCH   5   8
ATOM      8  C   UNL A   1      32.313  27.072  26.254  1.00  0.00     0.039 A 
ATOM      9  C   UNL A   1      32.722  25.026  24.314  1.00  0.00     0.052 A 
ATOM     10  C   UNL A   1      31.604  25.874  24.260  1.00  0.00     0.027 A 
ATOM     11  C   UNL A   1      33.648  25.249  25.343  1.00  0.00     0.027 A 
ATOM     12  C   UNL A   1      31.404  26.884  25.210  1.00  0.00     0.016 A 
ATOM     13  C   UNL A   1      33.416  26.223  26.329  1.00  0.00     0.016 A 
BRANCH   9  14
ATOM     14  N   UNL A   1      32.791  23.824  23.541  1.00  0.00    -0.250 N 
ATOM     15  C   UNL A   1      32.131  20.861  22.226  1.00  0.00     0.024 C 
ATOM     16  C   UNL A   1      32.518  21.521  23.565  1.00  0.00     0.071 C 
ATOM     17  C   UNL A   1      31.819  22.853  23.627  1.00  0.00     0.241 C 
ATOM     18  C   UNL A   1      34.051  21.860  23.596  1.00  0.00     0.107 C 
ATOM     19  C   UNL A   1      32.118  20.691  24.826  1.00  0.00     0.066 C 
ATOM     20  O   UNL A   1      30.611  22.961  23.723  1.00  0.00    -0.273 OA
ATOM     21  C   UNL A   1      33.967  23.274  23.028  1.00  0.00     0.238 C 
ATOM     22  C   UNL A   1      34.748  20.866  24.618  1.00  0.00     0.063 C 
ATOM     23  C   UNL A   1      32.777  21.352  26.051  1.00  0.00    -0.036 A 
ATOM     24  C   UNL A   1      32.801  19.343  24.649  1.00  0.00    -0.036 A 
ATOM     25  O   UNL A   1      34.831  23.814  22.355  1.00  0.00    -0.274 OA
ATOM     26  C   UNL A   1      34.203  21.362  26.000  1.00  0.00    -0.036 A 
ATOM     27  C   UNL A   1      34.207  19.440  24.482  1.00  0.00    -0.036 A 
ATOM     28  C   UNL A   1      32.111  22.048  27.048  1.00  0.00     0.005 A 
ATOM     29  C   UNL A   1      32.157  18.114  24.691  1.00  0.00     0.005 A 
ATOM     30  C   UNL A   1      34.952  22.062  26.940  1.00  0.00     0.004 A 
ATOM     31  C   UNL A   1      34.967  18.284  24.375  1.00  0.00     0.004 A 
ATOM     32  C   UNL A   1      32.867  22.755  27.989  1.00  0.00     0.000 A 
ATOM     33  C   UNL A   1      32.927  16.960  24.575  1.00  0.00     0.000 A 
ATOM     34  C   UNL A   1      34.271  22.759  27.937  1.00  0.00     0.000 A 
ATOM     35  C   UNL A   1      34.319  17.045  24.420  1.00  0.00     0.000 A 
ENDBRANCH   9  14
ENDBRANCH   5   8
ENDBRANCH   3   4
ENDBRANCH   2   3
ENDBRANCH   1   2
BRANCH   1  36
ATOM     36  N   UNL A   1      36.056  29.936  29.212  1.00  0.00    -0.352 N 
ATOM     37  C   UNL A   1      37.026  29.328  29.974  1.00  0.00     0.251 C 
ATOM     38  H   UNL A   1      35.257  30.206  29.719  1.00  0.00     0.163 HD
ATOM     39  O   UNL A   1      36.747  28.975  31.118  1.00  0.00    -0.269 OA
BRANCH  37  40
ATOM     40  C   UNL A   1      38.381  29.066  29.435  1.00  0.00     0.039 A 
ATOM     41  C   UNL A   1      39.361  28.453  30.209  1.00  0.00     0.014 A 
ATOM     42  C   UNL A   1      38.667  29.405  28.107  1.00  0.00     0.014 A 
ATOM     43  C   UNL A   1      40.667  28.369  29.739  1.00  0.00     0.010 A 
ATOM     44  C   UNL A   1      39.956  29.214  27.594  1.00  0.00     0.010 A 
ATOM     45  C   UNL A   1      40.985  28.747  28.425  1.00  0.00    -0.014 A 
BRANCH  45  46
ATOM     46  C   UNL A   1      42.395  28.644  27.958  1.00  0.00     0.031 A 
ATOM     47  C   UNL A   1      43.379  29.753  28.228  1.00  0.00     0.074 A 
ATOM     48  C   UNL A   1      42.812  27.508  27.360  1.00  0.00     0.049 A 
ATOM     49  N   UNL A   1      44.655  29.804  27.943  1.00  0.00    -0.248 NA
ATOM     50  C   UNL A   1      42.873  30.961  28.904  1.00  0.00     0.031 C 
ATOM     51  C   UNL A   1      41.959  26.355  27.064  1.00  0.00     0.029 A 
ATOM     52  N   UNL A   1      44.057  27.114  26.939  1.00  0.00    -0.354 N 
ATOM     53  C   UNL A   1      45.099  31.044  28.387  1.00  0.00     0.074 A 
ATOM     54  C   UNL A   1      43.951  31.733  28.933  1.00  0.00     0.031 C 
ATOM     55  C   UNL A   1      42.718  25.358  26.587  1.00  0.00     0.029 A 
ATOM     56  C   UNL A   1      44.097  25.822  26.469  1.00  0.00     0.049 A 
ATOM     57  H   UNL A   1      44.848  27.702  26.969  1.00  0.00     0.167 HD
ATOM     58  C   UNL A   1      46.351  31.557  28.358  1.00  0.00     0.031 A 
ATOM     59  C   UNL A   1      45.120  25.084  25.992  1.00  0.00     0.031 A 
ATOM     60  C   UNL A   1      47.497  30.858  27.835  1.00  0.00     0.049 A 
ATOM     61  C   UNL A   1      46.492  25.690  25.930  1.00  0.00     0.074 A 
ATOM     62  C   UNL A   1      48.808  31.296  27.773  1.00  0.00     0.029 A 
ATOM     63  N   UNL A   1      47.476  29.582  27.297  1.00  0.00    -0.354 N 
ATOM     64  N   UNL A   1      46.884  26.871  26.346  1.00  0.00    -0.248 NA
ATOM     65  C   UNL A   1      47.558  24.875  25.332  1.00  0.00     0.031 C 
ATOM     66  C   UNL A   1      49.569  30.308  27.146  1.00  0.00     0.029 A 
ATOM     67  C   UNL A   1      48.746  29.225  26.877  1.00  0.00     0.049 A 
ATOM     68  H   UNL A   1      46.676  29.012  27.224  1.00  0.00     0.167 HD
ATOM     69  C   UNL A   1      48.243  26.940  26.061  1.00  0.00     0.074 A 
ATOM     70  C   UNL A   1      48.610  25.674  25.460  1.00  0.00     0.031 C 
ATOM     71  C   UNL A   1      49.102  27.965  26.274  1.00  0.00     0.031 A 
BRANCH  58  72
ATOM     72  C   UNL A   1      46.572  32.943  28.907  1.00  0.00    -0.014 A 
ATOM     73  C   UNL A   1      46.935  33.109  30.257  1.00  0.00     0.010 A 
ATOM     74  C   UNL A   1      46.306  34.081  28.126  1.00  0.00     0.010 A 
ATOM     75  C   UNL A   1      46.998  34.383  30.824  1.00  0.00     0.020 A 
ATOM     76  C   UNL A   1      46.393  35.361  28.683  1.00  0.00     0.020 A 
ATOM     77  C   UNL A   1      46.716  35.502  30.035  1.00  0.00     0.054 A 
BRANCH  77  78
ATOM     78  S   UNL A   1      46.779  37.149  30.795  1.00  0.00     0.124 S 
ATOM     79  O   UNL A   1      45.832  37.017  31.898  1.00  0.00    -0.237 OA
ATOM     80  O   UNL A   1      48.183  37.272  31.178  1.00  0.00    -0.237 OA
ATOM     81  O   UNL A   1      46.360  38.038  29.714  1.00  0.00    -0.744 OA
ENDBRANCH  77  78
ENDBRANCH  58  72
BRANCH  59  82
ATOM     82  C   UNL A   1      44.861  23.685  25.554  1.00  0.00    -0.014 A 
ATOM     83  C   UNL A   1      44.995  22.619  26.462  1.00  0.00     0.010 A 
ATOM     84  C   UNL A   1      44.575  23.401  24.206  1.00  0.00     0.010 A 
ATOM     85  C   UNL A   1      44.916  21.295  26.024  1.00  0.00     0.020 A 
ATOM     86  C   UNL A   1      44.465  22.077  23.769  1.00  0.00     0.020 A 
ATOM     87  C   UNL A   1      44.670  21.033  24.674  1.00  0.00     0.054 A 
BRANCH  87  88
ATOM     88  S   UNL A   1      44.634  19.308  24.113  1.00  0.00     0.124 S 
ATOM     89  O   UNL A   1      43.443  18.800  24.787  1.00  0.00    -0.237 OA
ATOM     90  O   UNL A   1      44.526  19.445  22.662  1.00  0.00    -0.237 OA
ATOM     91  O   UNL A   1      45.905  18.768  24.591  1.00  0.00    -0.744 OA
ENDBRANCH  87  88
ENDBRANCH  59  82
BRANCH  71  92
ATOM     92  C   UNL A   1      50.535  27.790  25.853  1.00  0.00    -0.014 A 
ATOM     93  C   UNL A   1      50.913  28.072  24.527  1.00  0.00     0.010 A 
ATOM     94  C   UNL A   1      51.474  27.214  26.727  1.00  0.00     0.010 A 
ATOM     95  C   UNL A   1      52.191  27.745  24.069  1.00  0.00     0.020 A 
ATOM     96  C   UNL A   1      52.763  26.910  26.279  1.00  0.00     0.020 A 
ATOM     97  C   UNL A   1      53.105  27.153  24.946  1.00  0.00     0.054 A 
BRANCH  97  98
ATOM     98  S   UNL A   1      54.746  26.695  24.324  1.00  0.00     0.124 S 
ATOM     99  O   UNL A   1      55.595  27.730  24.909  1.00  0.00    -0.237 OA
ATOM    100  O   UNL A   1      54.930  25.350  24.865  1.00  0.00    -0.237 OA
ATOM    101  O   UNL A   1      54.592  26.759  22.873  1.00  0.00    -0.744 OA
ENDBRANCH  97  98
ENDBRANCH  71  92
ENDBRANCH  45  46
ENDBRANCH  37  40
ENDBRANCH   1  36
TORSDOF 14
ENDMDL
