MODEL 1
REMARK VINA RESULT:     -10.8      0.000      0.000
REMARK SMILES CC[C@@H](C)N(C)c1ccc(/C=C/C(=O)NCCCNC(=O)c2ccc(-c3c4nc(c(-c5ccc(S(=O)(=O)[O-])cc5)c5ccc([nH]5)c(-c5ccc(S(=O)(=O)[O-])cc5)c5nc(c(-c6ccc(S(=O)(=O)[O-])cc6)c6ccc3[nH]6)C=C5)C=C4)cc2)cc1F
REMARK SMILES IDX 16 1 15 2 13 3 14 4 12 6 11 7 10 8 7 9 8 10 83 11 9 12 82 13
REMARK SMILES IDX 84 14 5 15 6 16 3 17 4 18 2 19 1 20 17 21 18 22 19 23 20 24
REMARK SMILES IDX 21 26 22 27 23 28 81 29 24 30 80 31 25 32 26 33 27 34 74 35
REMARK SMILES IDX 28 36 79 37 73 38 75 39 29 40 78 41 72 42 71 43 30 45 60 46
REMARK SMILES IDX 41 47 59 48 42 49 45 50 58 51 76 52 43 53 44 54 57 56 77 57
REMARK SMILES IDX 46 58 31 59 32 60 40 61 33 62 39 63 34 64 35 65 36 66 37 67
REMARK SMILES IDX 38 68 61 69 62 70 70 71 63 72 69 73 64 74 65 75 66 76 67 77
REMARK SMILES IDX 68 78 47 79 48 80 56 81 49 82 55 83 50 84 51 85 52 86 53 87
REMARK SMILES IDX 54 88
REMARK H PARENT 15 5 19 25 75 44 45 55
REMARK Flexibility Score: inf
ROOT
ATOM      1  C   UNL A   1      32.186  27.214  24.929  1.00  0.00     0.118 C 
ENDROOT
BRANCH   1   2
ATOM      2  N   UNL A   1      32.902  27.222  23.662  1.00  0.00    -0.352 N 
ATOM      3  C   UNL A   1      33.454  26.194  22.961  1.00  0.00     0.244 C 
ATOM      4  O   UNL A   1      33.882  26.380  21.824  1.00  0.00    -0.270 OA
ATOM      5  H   UNL A   1      33.001  28.109  23.247  1.00  0.00     0.163 HD
BRANCH   3   6
ATOM      6  C   UNL A   1      33.457  24.828  23.526  1.00  0.00     0.072 C 
ATOM      7  C   UNL A   1      33.157  23.745  22.795  1.00  0.00     0.014 C 
BRANCH   7   8
ATOM      8  C   UNL A   1      33.178  22.367  23.301  1.00  0.00    -0.022 A 
ATOM      9  C   UNL A   1      33.360  19.697  24.299  1.00  0.00     0.073 A 
ATOM     10  C   UNL A   1      32.341  20.085  23.415  1.00  0.00     0.029 A 
ATOM     11  C   UNL A   1      34.294  20.687  24.646  1.00  0.00     0.147 A 
ATOM     12  C   UNL A   1      32.249  21.396  22.919  1.00  0.00     0.010 A 
ATOM     13  C   UNL A   1      34.209  21.995  24.164  1.00  0.00     0.049 A 
ATOM     14  F   UNL A   1      35.353  20.390  25.413  1.00  0.00    -0.205 F 
BRANCH   9  15
ATOM     15  N   UNL A   1      33.446  18.387  24.762  1.00  0.00    -0.370 N 
ATOM     16  C   UNL A   1      32.789  18.083  26.026  1.00  0.00     0.144 C 
BRANCH  15  17
ATOM     17  C   UNL A   1      34.473  17.443  24.266  1.00  0.00     0.078 C 
ATOM     18  C   UNL A   1      34.154  16.972  22.846  1.00  0.00     0.031 C 
BRANCH  17  19
ATOM     19  C   UNL A   1      34.714  16.279  25.240  1.00  0.00     0.021 C 
ATOM     20  C   UNL A   1      33.623  15.217  25.201  1.00  0.00     0.006 C 
ENDBRANCH  17  19
ENDBRANCH  15  17
ENDBRANCH   9  15
ENDBRANCH   7   8
ENDBRANCH   3   6
ENDBRANCH   1   2
BRANCH   1  21
ATOM     21  C   UNL A   1      33.123  27.418  26.118  1.00  0.00     0.042 C 
BRANCH  21  22
ATOM     22  C   UNL A   1      34.209  28.465  25.879  1.00  0.00     0.118 C 
BRANCH  22  23
ATOM     23  N   UNL A   1      33.911  29.728  26.536  1.00  0.00    -0.352 N 
ATOM     24  C   UNL A   1      34.592  30.402  27.519  1.00  0.00     0.251 C 
ATOM     25  H   UNL A   1      33.088  30.172  26.225  1.00  0.00     0.163 HD
ATOM     26  O   UNL A   1      34.048  31.354  28.072  1.00  0.00    -0.269 OA
BRANCH  24  27
ATOM     27  C   UNL A   1      35.958  29.995  27.923  1.00  0.00     0.039 A 
ATOM     28  C   UNL A   1      36.153  29.512  29.221  1.00  0.00     0.014 A 
ATOM     29  C   UNL A   1      37.052  30.144  27.067  1.00  0.00     0.014 A 
ATOM     30  C   UNL A   1      37.433  29.140  29.644  1.00  0.00     0.010 A 
ATOM     31  C   UNL A   1      38.317  29.712  27.467  1.00  0.00     0.010 A 
ATOM     32  C   UNL A   1      38.523  29.216  28.763  1.00  0.00    -0.014 A 
BRANCH  32  33
ATOM     33  C   UNL A   1      39.881  28.790  29.188  1.00  0.00     0.031 A 
ATOM     34  C   UNL A   1      40.770  29.733  29.956  1.00  0.00     0.074 A 
ATOM     35  C   UNL A   1      40.335  27.570  28.841  1.00  0.00     0.049 A 
ATOM     36  N   UNL A   1      41.995  29.552  30.378  1.00  0.00    -0.248 NA
ATOM     37  C   UNL A   1      40.217  31.060  30.273  1.00  0.00     0.031 C 
ATOM     38  C   UNL A   1      39.587  26.578  28.064  1.00  0.00     0.029 A 
ATOM     39  N   UNL A   1      41.536  26.955  29.093  1.00  0.00    -0.354 N 
ATOM     40  C   UNL A   1      42.367  30.744  30.991  1.00  0.00     0.074 A 
ATOM     41  C   UNL A   1      41.253  31.655  30.848  1.00  0.00     0.031 C 
ATOM     42  C   UNL A   1      40.336  25.472  27.925  1.00  0.00     0.029 A 
ATOM     43  C   UNL A   1      41.627  25.686  28.572  1.00  0.00     0.049 A 
ATOM     44  H   UNL A   1      42.264  27.384  29.599  1.00  0.00     0.167 HD
ATOM     45  C   UNL A   1      43.522  31.047  31.630  1.00  0.00     0.031 A 
ATOM     46  C   UNL A   1      42.636  24.794  28.607  1.00  0.00     0.031 A 
ATOM     47  C   UNL A   1      44.624  30.134  31.784  1.00  0.00     0.049 A 
ATOM     48  C   UNL A   1      43.905  25.151  29.330  1.00  0.00     0.074 A 
ATOM     49  C   UNL A   1      45.816  30.328  32.461  1.00  0.00     0.029 A 
ATOM     50  N   UNL A   1      44.669  28.852  31.255  1.00  0.00    -0.354 N 
ATOM     51  N   UNL A   1      44.214  26.262  29.954  1.00  0.00    -0.248 NA
ATOM     52  C   UNL A   1      44.958  24.125  29.365  1.00  0.00     0.031 C 
ATOM     53  C   UNL A   1      46.599  29.178  32.305  1.00  0.00     0.029 A 
ATOM     54  C   UNL A   1      45.874  28.250  31.576  1.00  0.00     0.049 A 
ATOM     55  H   UNL A   1      43.950  28.432  30.730  1.00  0.00     0.167 HD
ATOM     56  C   UNL A   1      45.486  26.061  30.478  1.00  0.00     0.074 A 
ATOM     57  C   UNL A   1      45.883  24.717  30.109  1.00  0.00     0.031 C 
ATOM     58  C   UNL A   1      46.255  26.912  31.200  1.00  0.00     0.031 A 
BRANCH  45  59
ATOM     59  C   UNL A   1      43.654  32.431  32.210  1.00  0.00    -0.014 A 
ATOM     60  C   UNL A   1      43.299  32.695  33.546  1.00  0.00     0.010 A 
ATOM     61  C   UNL A   1      44.170  33.476  31.421  1.00  0.00     0.010 A 
ATOM     62  C   UNL A   1      43.415  33.987  34.067  1.00  0.00     0.020 A 
ATOM     63  C   UNL A   1      44.313  34.763  31.947  1.00  0.00     0.020 A 
ATOM     64  C   UNL A   1      43.916  35.014  33.262  1.00  0.00     0.054 A 
BRANCH  64  65
ATOM     65  S   UNL A   1      44.068  36.678  33.969  1.00  0.00     0.124 S 
ATOM     66  O   UNL A   1      44.916  37.345  32.984  1.00  0.00    -0.237 OA
ATOM     67  O   UNL A   1      42.683  37.136  34.018  1.00  0.00    -0.237 OA
ATOM     68  O   UNL A   1      44.691  36.446  35.271  1.00  0.00    -0.744 OA
ENDBRANCH  64  65
ENDBRANCH  45  59
BRANCH  46  69
ATOM     69  C   UNL A   1      42.473  23.467  27.956  1.00  0.00    -0.014 A 
ATOM     70  C   UNL A   1      42.937  23.255  26.645  1.00  0.00     0.010 A 
ATOM     71  C   UNL A   1      41.873  22.400  28.650  1.00  0.00     0.010 A 
ATOM     72  C   UNL A   1      42.788  22.007  26.034  1.00  0.00     0.020 A 
ATOM     73  C   UNL A   1      41.746  21.144  28.051  1.00  0.00     0.020 A 
ATOM     74  C   UNL A   1      42.194  20.958  26.742  1.00  0.00     0.054 A 
BRANCH  74  75
ATOM     75  S   UNL A   1      42.062  19.332  25.949  1.00  0.00     0.124 S 
ATOM     76  O   UNL A   1      42.563  18.444  26.993  1.00  0.00    -0.237 OA
ATOM     77  O   UNL A   1      40.632  19.232  25.664  1.00  0.00    -0.237 OA
ATOM     78  O   UNL A   1      42.916  19.458  24.769  1.00  0.00    -0.744 OA
ENDBRANCH  74  75
ENDBRANCH  46  69
BRANCH  58  79
ATOM     79  C   UNL A   1      47.593  26.405  31.666  1.00  0.00    -0.014 A 
ATOM     80  C   UNL A   1      47.791  25.986  32.993  1.00  0.00     0.010 A 
ATOM     81  C   UNL A   1      48.654  26.304  30.748  1.00  0.00     0.010 A 
ATOM     82  C   UNL A   1      49.038  25.507  33.403  1.00  0.00     0.020 A 
ATOM     83  C   UNL A   1      49.896  25.802  31.147  1.00  0.00     0.020 A 
ATOM     84  C   UNL A   1      50.084  25.421  32.477  1.00  0.00     0.054 A 
BRANCH  84  85
ATOM     85  S   UNL A   1      51.683  24.762  33.022  1.00  0.00     0.124 S 
ATOM     86  O   UNL A   1      52.613  25.771  32.523  1.00  0.00    -0.237 OA
ATOM     87  O   UNL A   1      51.533  24.710  34.474  1.00  0.00    -0.237 OA
ATOM     88  O   UNL A   1      51.763  23.460  32.364  1.00  0.00    -0.744 OA
ENDBRANCH  84  85
ENDBRANCH  58  79
ENDBRANCH  32  33
ENDBRANCH  24  27
ENDBRANCH  22  23
ENDBRANCH  21  22
ENDBRANCH   1  21
TORSDOF 17
ENDMDL
MODEL 2
REMARK VINA RESULT:     -10.5      4.140      5.507
REMARK SMILES CC[C@@H](C)N(C)c1ccc(/C=C/C(=O)NCCCNC(=O)c2ccc(-c3c4nc(c(-c5ccc(S(=O)(=O)[O-])cc5)c5ccc([nH]5)c(-c5ccc(S(=O)(=O)[O-])cc5)c5nc(c(-c6ccc(S(=O)(=O)[O-])cc6)c6ccc3[nH]6)C=C5)C=C4)cc2)cc1F
REMARK SMILES IDX 16 1 15 2 13 3 14 4 12 6 11 7 10 8 7 9 8 10 83 11 9 12 82 13
REMARK SMILES IDX 84 14 5 15 6 16 3 17 4 18 2 19 1 20 17 21 18 22 19 23 20 24
REMARK SMILES IDX 21 26 22 27 23 28 81 29 24 30 80 31 25 32 26 33 27 34 74 35
REMARK SMILES IDX 28 36 79 37 73 38 75 39 29 40 78 41 72 42 71 43 30 45 60 46
REMARK SMILES IDX 41 47 59 48 42 49 45 50 58 51 76 52 43 53 44 54 57 56 77 57
REMARK SMILES IDX 46 58 31 59 32 60 40 61 33 62 39 63 34 64 35 65 36 66 37 67
REMARK SMILES IDX 38 68 61 69 62 70 70 71 63 72 69 73 64 74 65 75 66 76 67 77
REMARK SMILES IDX 68 78 47 79 48 80 56 81 49 82 55 83 50 84 51 85 52 86 53 87
REMARK SMILES IDX 54 88
REMARK H PARENT 15 5 19 25 75 44 45 55
REMARK Flexibility Score: inf
ROOT
ATOM      1  C   UNL A   1      31.721  30.803  26.114  1.00  0.00     0.118 C 
ENDROOT
BRANCH   1   2
ATOM      2  N   UNL A   1      30.889  30.613  24.935  1.00  0.00    -0.352 N 
ATOM      3  C   UNL A   1      30.689  29.503  24.173  1.00  0.00     0.244 C 
ATOM      4  O   UNL A   1      29.820  29.497  23.304  1.00  0.00    -0.270 OA
ATOM      5  H   UNL A   1      30.394  31.412  24.644  1.00  0.00     0.163 HD
BRANCH   3   6
ATOM      6  C   UNL A   1      31.450  28.266  24.449  1.00  0.00     0.072 C 
ATOM      7  C   UNL A   1      30.856  27.118  24.805  1.00  0.00     0.014 C 
BRANCH   7   8
ATOM      8  C   UNL A   1      31.565  25.858  25.058  1.00  0.00    -0.022 A 
ATOM      9  C   UNL A   1      32.829  23.359  25.623  1.00  0.00     0.073 A 
ATOM     10  C   UNL A   1      33.573  24.536  25.434  1.00  0.00     0.029 A 
ATOM     11  C   UNL A   1      31.433  23.486  25.540  1.00  0.00     0.147 A 
ATOM     12  C   UNL A   1      32.955  25.767  25.160  1.00  0.00     0.010 A 
ATOM     13  C   UNL A   1      30.808  24.703  25.261  1.00  0.00     0.049 A 
ATOM     14  F   UNL A   1      30.635  22.437  25.792  1.00  0.00    -0.205 F 
BRANCH   9  15
ATOM     15  N   UNL A   1      33.459  22.153  25.915  1.00  0.00    -0.370 N 
ATOM     16  C   UNL A   1      33.982  21.986  27.266  1.00  0.00     0.144 C 
BRANCH  15  17
ATOM     17  C   UNL A   1      33.965  21.252  24.856  1.00  0.00     0.078 C 
ATOM     18  C   UNL A   1      33.053  20.036  24.680  1.00  0.00     0.031 C 
BRANCH  17  19
ATOM     19  C   UNL A   1      35.437  20.867  25.072  1.00  0.00     0.021 C 
ATOM     20  C   UNL A   1      36.417  21.781  24.351  1.00  0.00     0.006 C 
ENDBRANCH  17  19
ENDBRANCH  15  17
ENDBRANCH   9  15
ENDBRANCH   7   8
ENDBRANCH   3   6
ENDBRANCH   1   2
BRANCH   1  21
ATOM     21  C   UNL A   1      31.677  32.242  26.622  1.00  0.00     0.042 C 
BRANCH  21  22
ATOM     22  C   UNL A   1      32.822  32.601  27.566  1.00  0.00     0.118 C 
BRANCH  22  23
ATOM     23  N   UNL A   1      32.894  34.030  27.828  1.00  0.00    -0.352 N 
ATOM     24  C   UNL A   1      33.655  34.732  28.729  1.00  0.00     0.251 C 
ATOM     25  H   UNL A   1      32.301  34.583  27.269  1.00  0.00     0.163 HD
ATOM     26  O   UNL A   1      33.405  35.919  28.921  1.00  0.00    -0.269 OA
BRANCH  24  27
ATOM     27  C   UNL A   1      34.760  34.081  29.472  1.00  0.00     0.039 A 
ATOM     28  C   UNL A   1      36.076  34.374  29.101  1.00  0.00     0.014 A 
ATOM     29  C   UNL A   1      34.516  33.143  30.478  1.00  0.00     0.014 A 
ATOM     30  C   UNL A   1      37.143  33.760  29.763  1.00  0.00     0.010 A 
ATOM     31  C   UNL A   1      35.580  32.580  31.183  1.00  0.00     0.010 A 
ATOM     32  C   UNL A   1      36.905  32.874  30.826  1.00  0.00    -0.014 A 
BRANCH  32  33
ATOM     33  C   UNL A   1      38.030  32.242  31.563  1.00  0.00     0.031 A 
ATOM     34  C   UNL A   1      38.424  32.745  32.927  1.00  0.00     0.074 A 
ATOM     35  C   UNL A   1      38.729  31.247  30.984  1.00  0.00     0.049 A 
ATOM     36  N   UNL A   1      39.398  32.344  33.703  1.00  0.00    -0.248 NA
ATOM     37  C   UNL A   1      37.633  33.854  33.482  1.00  0.00     0.031 C 
ATOM     38  C   UNL A   1      38.474  30.696  29.650  1.00  0.00     0.029 A 
ATOM     39  N   UNL A   1      39.802  30.522  31.441  1.00  0.00    -0.354 N 
ATOM     40  C   UNL A   1      39.350  33.163  34.826  1.00  0.00     0.074 A 
ATOM     41  C   UNL A   1      38.278  34.110  34.612  1.00  0.00     0.031 C 
ATOM     42  C   UNL A   1      39.347  29.705  29.408  1.00  0.00     0.029 A 
ATOM     43  C   UNL A   1      40.245  29.572  30.551  1.00  0.00     0.049 A 
ATOM     44  H   UNL A   1      40.215  30.670  32.322  1.00  0.00     0.167 HD
ATOM     45  C   UNL A   1      40.117  33.120  35.943  1.00  0.00     0.031 A 
ATOM     46  C   UNL A   1      41.260  28.692  30.643  1.00  0.00     0.031 A 
ATOM     47  C   UNL A   1      41.173  32.168  36.161  1.00  0.00     0.049 A 
ATOM     48  C   UNL A   1      42.092  28.658  31.895  1.00  0.00     0.074 A 
ATOM     49  C   UNL A   1      41.971  32.009  37.281  1.00  0.00     0.029 A 
ATOM     50  N   UNL A   1      41.579  31.211  35.242  1.00  0.00    -0.354 N 
ATOM     51  N   UNL A   1      41.992  29.402  32.971  1.00  0.00    -0.248 NA
ATOM     52  C   UNL A   1      43.164  27.653  31.952  1.00  0.00     0.031 C 
ATOM     53  C   UNL A   1      42.888  30.983  37.023  1.00  0.00     0.029 A 
ATOM     54  C   UNL A   1      42.627  30.470  35.762  1.00  0.00     0.049 A 
ATOM     55  H   UNL A   1      41.181  31.079  34.352  1.00  0.00     0.167 HD
ATOM     56  C   UNL A   1      42.972  28.940  33.842  1.00  0.00     0.074 A 
ATOM     57  C   UNL A   1      43.643  27.843  33.174  1.00  0.00     0.031 C 
ATOM     58  C   UNL A   1      43.286  29.383  35.084  1.00  0.00     0.031 A 
BRANCH  45  59
ATOM     59  C   UNL A   1      39.840  34.141  37.016  1.00  0.00    -0.014 A 
ATOM     60  C   UNL A   1      39.073  33.812  38.150  1.00  0.00     0.010 A 
ATOM     61  C   UNL A   1      40.379  35.436  36.909  1.00  0.00     0.010 A 
ATOM     62  C   UNL A   1      38.814  34.772  39.132  1.00  0.00     0.020 A 
ATOM     63  C   UNL A   1      40.144  36.391  37.902  1.00  0.00     0.020 A 
ATOM     64  C   UNL A   1      39.346  36.057  38.999  1.00  0.00     0.054 A 
BRANCH  64  65
ATOM     65  S   UNL A   1      39.005  37.279  40.296  1.00  0.00     0.124 S 
ATOM     66  O   UNL A   1      40.347  37.568  40.796  1.00  0.00    -0.237 OA
ATOM     67  O   UNL A   1      38.363  38.363  39.557  1.00  0.00    -0.237 OA
ATOM     68  O   UNL A   1      38.136  36.563  41.227  1.00  0.00    -0.744 OA
ENDBRANCH  64  65
ENDBRANCH  45  59
BRANCH  46  69
ATOM     69  C   UNL A   1      41.531  27.754  29.520  1.00  0.00    -0.014 A 
ATOM     70  C   UNL A   1      40.718  26.623  29.325  1.00  0.00     0.010 A 
ATOM     71  C   UNL A   1      42.591  27.996  28.627  1.00  0.00     0.010 A 
ATOM     72  C   UNL A   1      40.969  25.743  28.269  1.00  0.00     0.020 A 
ATOM     73  C   UNL A   1      42.828  27.132  27.555  1.00  0.00     0.020 A 
ATOM     74  C   UNL A   1      42.023  26.005  27.389  1.00  0.00     0.054 A 
BRANCH  74  75
ATOM     75  S   UNL A   1      42.296  24.880  25.992  1.00  0.00     0.124 S 
ATOM     76  O   UNL A   1      41.237  23.894  26.184  1.00  0.00    -0.237 OA
ATOM     77  O   UNL A   1      42.139  25.762  24.838  1.00  0.00    -0.237 OA
ATOM     78  O   UNL A   1      43.656  24.389  26.210  1.00  0.00    -0.744 OA
ENDBRANCH  74  75
ENDBRANCH  46  69
BRANCH  58  79
ATOM     79  C   UNL A   1      44.386  28.662  35.815  1.00  0.00    -0.014 A 
ATOM     80  C   UNL A   1      44.117  27.527  36.599  1.00  0.00     0.010 A 
ATOM     81  C   UNL A   1      45.715  29.102  35.677  1.00  0.00     0.010 A 
ATOM     82  C   UNL A   1      45.155  26.865  37.261  1.00  0.00     0.020 A 
ATOM     83  C   UNL A   1      46.759  28.429  36.316  1.00  0.00     0.020 A 
ATOM     84  C   UNL A   1      46.469  27.322  37.117  1.00  0.00     0.054 A 
BRANCH  84  85
ATOM     85  S   UNL A   1      47.805  26.425  37.955  1.00  0.00     0.124 S 
ATOM     86  O   UNL A   1      48.722  27.505  38.305  1.00  0.00    -0.237 OA
ATOM     87  O   UNL A   1      47.115  25.797  39.079  1.00  0.00    -0.237 OA
ATOM     88  O   UNL A   1      48.292  25.499  36.936  1.00  0.00    -0.744 OA
ENDBRANCH  84  85
ENDBRANCH  58  79
ENDBRANCH  32  33
ENDBRANCH  24  27
ENDBRANCH  22  23
ENDBRANCH  21  22
ENDBRANCH   1  21
TORSDOF 17
ENDMDL
MODEL 3
REMARK VINA RESULT:     -10.5      4.501     10.735
REMARK SMILES CC[C@@H](C)N(C)c1ccc(/C=C/C(=O)NCCCNC(=O)c2ccc(-c3c4nc(c(-c5ccc(S(=O)(=O)[O-])cc5)c5ccc([nH]5)c(-c5ccc(S(=O)(=O)[O-])cc5)c5nc(c(-c6ccc(S(=O)(=O)[O-])cc6)c6ccc3[nH]6)C=C5)C=C4)cc2)cc1F
REMARK SMILES IDX 16 1 15 2 13 3 14 4 12 6 11 7 10 8 7 9 8 10 83 11 9 12 82 13
REMARK SMILES IDX 84 14 5 15 6 16 3 17 4 18 2 19 1 20 17 21 18 22 19 23 20 24
REMARK SMILES IDX 21 26 22 27 23 28 81 29 24 30 80 31 25 32 26 33 27 34 74 35
REMARK SMILES IDX 28 36 79 37 73 38 75 39 29 40 78 41 72 42 71 43 30 45 60 46
REMARK SMILES IDX 41 47 59 48 42 49 45 50 58 51 76 52 43 53 44 54 57 56 77 57
REMARK SMILES IDX 46 58 31 59 32 60 40 61 33 62 39 63 34 64 35 65 36 66 37 67
REMARK SMILES IDX 38 68 61 69 62 70 70 71 63 72 69 73 64 74 65 75 66 76 67 77
REMARK SMILES IDX 68 78 47 79 48 80 56 81 49 82 55 83 50 84 51 85 52 86 53 87
REMARK SMILES IDX 54 88
REMARK H PARENT 15 5 19 25 75 44 45 55
REMARK Flexibility Score: inf
ROOT
ATOM      1  C   UNL A   1      43.038  22.552  27.073  1.00  0.00     0.118 C 
ENDROOT
BRANCH   1   2
ATOM      2  N   UNL A   1      44.363  22.428  26.483  1.00  0.00    -0.352 N 
ATOM      3  C   UNL A   1      45.408  23.300  26.484  1.00  0.00     0.244 C 
ATOM      4  O   UNL A   1      46.508  22.948  26.065  1.00  0.00    -0.270 OA
ATOM      5  H   UNL A   1      44.529  21.581  26.010  1.00  0.00     0.163 HD
BRANCH   3   6
ATOM      6  C   UNL A   1      45.251  24.646  27.076  1.00  0.00     0.072 C 
ATOM      7  C   UNL A   1      45.008  25.737  26.335  1.00  0.00     0.014 C 
BRANCH   7   8
ATOM      8  C   UNL A   1      44.813  27.086  26.879  1.00  0.00    -0.022 A 
ATOM      9  C   UNL A   1      44.355  29.744  27.820  1.00  0.00     0.073 A 
ATOM     10  C   UNL A   1      45.512  29.028  28.167  1.00  0.00     0.029 A 
ATOM     11  C   UNL A   1      43.450  29.089  26.968  1.00  0.00     0.147 A 
ATOM     12  C   UNL A   1      45.743  27.722  27.705  1.00  0.00     0.010 A 
ATOM     13  C   UNL A   1      43.666  27.789  26.507  1.00  0.00     0.049 A 
ATOM     14  F   UNL A   1      42.361  29.723  26.510  1.00  0.00    -0.205 F 
BRANCH   9  15
ATOM     15  N   UNL A   1      44.155  31.045  28.271  1.00  0.00    -0.370 N 
ATOM     16  C   UNL A   1      42.951  31.301  29.052  1.00  0.00     0.144 C 
BRANCH  15  17
ATOM     17  C   UNL A   1      44.856  32.203  27.672  1.00  0.00     0.078 C 
ATOM     18  C   UNL A   1      44.240  33.524  28.135  1.00  0.00     0.031 C 
BRANCH  17  19
ATOM     19  C   UNL A   1      44.956  32.096  26.143  1.00  0.00     0.021 C 
ATOM     20  C   UNL A   1      44.162  33.164  25.404  1.00  0.00     0.006 C 
ENDBRANCH  17  19
ENDBRANCH  15  17
ENDBRANCH   9  15
ENDBRANCH   7   8
ENDBRANCH   3   6
ENDBRANCH   1   2
BRANCH   1  21
ATOM     21  C   UNL A   1      41.932  22.208  26.078  1.00  0.00     0.042 C 
BRANCH  21  22
ATOM     22  C   UNL A   1      40.588  21.893  26.731  1.00  0.00     0.118 C 
BRANCH  22  23
ATOM     23  N   UNL A   1      39.465  22.367  25.937  1.00  0.00    -0.352 N 
ATOM     24  C   UNL A   1      38.744  23.532  26.023  1.00  0.00     0.251 C 
ATOM     25  H   UNL A   1      39.175  21.753  25.224  1.00  0.00     0.163 HD
ATOM     26  O   UNL A   1      37.702  23.634  25.380  1.00  0.00    -0.269 OA
BRANCH  24  27
ATOM     27  C   UNL A   1      39.197  24.654  26.878  1.00  0.00     0.039 A 
ATOM     28  C   UNL A   1      38.730  24.721  28.194  1.00  0.00     0.014 A 
ATOM     29  C   UNL A   1      40.019  25.670  26.381  1.00  0.00     0.014 A 
ATOM     30  C   UNL A   1      39.118  25.779  29.021  1.00  0.00     0.010 A 
ATOM     31  C   UNL A   1      40.459  26.689  27.226  1.00  0.00     0.010 A 
ATOM     32  C   UNL A   1      40.005  26.761  28.551  1.00  0.00    -0.014 A 
BRANCH  32  33
ATOM     33  C   UNL A   1      40.455  27.870  29.431  1.00  0.00     0.031 A 
ATOM     34  C   UNL A   1      39.589  29.087  29.626  1.00  0.00     0.074 A 
ATOM     35  C   UNL A   1      41.666  27.804  30.019  1.00  0.00     0.049 A 
ATOM     36  N   UNL A   1      39.830  30.168  30.324  1.00  0.00    -0.248 NA
ATOM     37  C   UNL A   1      38.293  29.102  28.928  1.00  0.00     0.031 C 
ATOM     38  C   UNL A   1      42.616  26.698  29.878  1.00  0.00     0.029 A 
ATOM     39  N   UNL A   1      42.308  28.688  30.850  1.00  0.00    -0.354 N 
ATOM     40  C   UNL A   1      38.729  30.996  30.135  1.00  0.00     0.074 A 
ATOM     41  C   UNL A   1      37.839  30.312  29.223  1.00  0.00     0.031 C 
ATOM     42  C   UNL A   1      43.706  26.957  30.617  1.00  0.00     0.029 A 
ATOM     43  C   UNL A   1      43.550  28.260  31.256  1.00  0.00     0.049 A 
ATOM     44  H   UNL A   1      41.916  29.547  31.127  1.00  0.00     0.167 HD
ATOM     45  C   UNL A   1      38.473  32.208  30.685  1.00  0.00     0.031 A 
ATOM     46  C   UNL A   1      44.463  28.850  32.052  1.00  0.00     0.031 A 
ATOM     47  C   UNL A   1      39.353  32.880  31.603  1.00  0.00     0.049 A 
ATOM     48  C   UNL A   1      44.152  30.192  32.656  1.00  0.00     0.074 A 
ATOM     49  C   UNL A   1      39.159  34.086  32.256  1.00  0.00     0.029 A 
ATOM     50  N   UNL A   1      40.594  32.406  32.002  1.00  0.00    -0.354 N 
ATOM     51  N   UNL A   1      43.079  30.932  32.512  1.00  0.00    -0.248 NA
ATOM     52  C   UNL A   1      45.171  30.770  33.544  1.00  0.00     0.031 C 
ATOM     53  C   UNL A   1      40.302  34.360  33.017  1.00  0.00     0.029 A 
ATOM     54  C   UNL A   1      41.184  33.301  32.878  1.00  0.00     0.049 A 
ATOM     55  H   UNL A   1      40.996  31.557  31.706  1.00  0.00     0.167 HD
ATOM     56  C   UNL A   1      43.283  32.052  33.310  1.00  0.00     0.074 A 
ATOM     57  C   UNL A   1      44.574  31.885  33.945  1.00  0.00     0.031 C 
ATOM     58  C   UNL A   1      42.472  33.122  33.500  1.00  0.00     0.031 A 
BRANCH  45  59
ATOM     59  C   UNL A   1      37.185  32.888  30.300  1.00  0.00    -0.014 A 
ATOM     60  C   UNL A   1      36.049  32.811  31.127  1.00  0.00     0.010 A 
ATOM     61  C   UNL A   1      37.116  33.641  29.114  1.00  0.00     0.010 A 
ATOM     62  C   UNL A   1      34.856  33.436  30.752  1.00  0.00     0.020 A 
ATOM     63  C   UNL A   1      35.934  34.290  28.748  1.00  0.00     0.020 A 
ATOM     64  C   UNL A   1      34.805  34.167  29.562  1.00  0.00     0.054 A 
BRANCH  64  65
ATOM     65  S   UNL A   1      33.248  34.980  29.106  1.00  0.00     0.124 S 
ATOM     66  O   UNL A   1      32.528  34.981  30.378  1.00  0.00    -0.237 OA
ATOM     67  O   UNL A   1      33.693  36.289  28.635  1.00  0.00    -0.237 OA
ATOM     68  O   UNL A   1      32.689  34.108  28.076  1.00  0.00    -0.744 OA
ENDBRANCH  64  65
ENDBRANCH  45  59
BRANCH  46  69
ATOM     69  C   UNL A   1      45.749  28.161  32.341  1.00  0.00    -0.014 A 
ATOM     70  C   UNL A   1      46.876  28.387  31.531  1.00  0.00     0.010 A 
ATOM     71  C   UNL A   1      45.860  27.289  33.440  1.00  0.00     0.010 A 
ATOM     72  C   UNL A   1      48.086  27.743  31.803  1.00  0.00     0.020 A 
ATOM     73  C   UNL A   1      47.075  26.663  33.730  1.00  0.00     0.020 A 
ATOM     74  C   UNL A   1      48.178  26.885  32.903  1.00  0.00     0.054 A 
BRANCH  74  75
ATOM     75  S   UNL A   1      49.773  26.102  33.271  1.00  0.00     0.124 S 
ATOM     76  O   UNL A   1      49.664  24.838  32.551  1.00  0.00    -0.237 OA
ATOM     77  O   UNL A   1      50.731  27.062  32.727  1.00  0.00    -0.237 OA
ATOM     78  O   UNL A   1      49.771  25.995  34.729  1.00  0.00    -0.744 OA
ENDBRANCH  74  75
ENDBRANCH  46  69
BRANCH  58  79
ATOM     79  C   UNL A   1      42.944  34.183  34.457  1.00  0.00    -0.014 A 
ATOM     80  C   UNL A   1      43.547  35.365  33.994  1.00  0.00     0.010 A 
ATOM     81  C   UNL A   1      42.738  34.012  35.838  1.00  0.00     0.010 A 
ATOM     82  C   UNL A   1      43.969  36.343  34.899  1.00  0.00     0.020 A 
ATOM     83  C   UNL A   1      43.134  34.998  36.745  1.00  0.00     0.020 A 
ATOM     84  C   UNL A   1      43.762  36.152  36.270  1.00  0.00     0.054 A 
BRANCH  84  85
ATOM     85  S   UNL A   1      44.282  37.451  37.423  1.00  0.00     0.124 S 
ATOM     86  O   UNL A   1      43.035  37.756  38.118  1.00  0.00    -0.237 OA
ATOM     87  O   UNL A   1      45.301  36.779  38.227  1.00  0.00    -0.237 OA
ATOM     88  O   UNL A   1      44.785  38.508  36.550  1.00  0.00    -0.744 OA
ENDBRANCH  84  85
ENDBRANCH  58  79
ENDBRANCH  32  33
ENDBRANCH  24  27
ENDBRANCH  22  23
ENDBRANCH  21  22
ENDBRANCH   1  21
TORSDOF 17
ENDMDL
