MODEL 1
REMARK VINA RESULT:     -13.1      0.000      0.000
REMARK SMILES O=C(N/N=C\c1ccccc1C(=O)NCCCNC(=O)c1ccc(-c2c3nc(c(-c4ccc(S(=O)(=O)[O-])cc4)c4ccc([nH]4)c(-c4ccc(S(=O)(=O)[O-])cc4)c4nc(c(-c5ccc(S(=O)(=O)[O-])cc5)c5ccc2[nH]5)C=C4)C=C3)cc1)C(=O)N1CCCCC1
REMARK SMILES IDX 16 1 15 2 14 3 12 4 13 5 11 7 6 8 7 9 8 10 10 11 9 12 5 13
REMARK SMILES IDX 4 14 3 15 1 16 2 17 81 19 82 20 83 21 84 22 88 23 85 24
REMARK SMILES IDX 87 25 86 26 17 27 18 28 19 29 20 31 21 32 22 33 80 34 23 35
REMARK SMILES IDX 79 36 24 37 25 38 26 39 73 40 27 41 78 42 72 43 74 44 28 45
REMARK SMILES IDX 77 46 71 47 70 48 29 50 59 51 40 52 58 53 41 54 44 55 57 56
REMARK SMILES IDX 75 57 42 58 43 59 56 61 76 62 45 63 30 64 31 65 39 66 32 67
REMARK SMILES IDX 38 68 33 69 34 70 35 71 36 72 37 73 60 74 61 75 69 76 62 77
REMARK SMILES IDX 68 78 63 79 64 80 65 81 66 82 67 83 46 84 47 85 55 86 48 87
REMARK SMILES IDX 54 88 49 89 50 90 51 91 52 92 53 93
REMARK H PARENT 14 6 3 18 18 30 74 49 44 60
REMARK Flexibility Score: inf
ROOT
ATOM      1  C   UNL A   1      34.689  29.828  27.015  1.00  0.00     0.042 C 
ENDROOT
BRANCH   1   2
ATOM      2  C   UNL A   1      33.607  28.763  26.937  1.00  0.00     0.118 C 
BRANCH   2   3
ATOM      3  N   UNL A   1      34.145  27.517  26.496  1.00  0.00    -0.352 N 
ATOM      4  C   UNL A   1      33.655  26.525  25.717  1.00  0.00     0.251 C 
ATOM      5  O   UNL A   1      34.250  25.448  25.800  1.00  0.00    -0.269 OA
ATOM      6  H   UNL A   1      35.056  27.344  26.825  1.00  0.00     0.163 HD
BRANCH   4   7
ATOM      7  C   UNL A   1      32.536  26.621  24.749  1.00  0.00     0.048 A 
ATOM      8  C   UNL A   1      30.821  26.053  24.896  1.00  0.00     0.007 A 
ATOM      9  C   UNL A   1      29.455  26.880  23.934  1.00  0.00     0.010 A 
ATOM     10  C   UNL A   1      29.864  28.170  22.746  1.00  0.00     0.001 A 
ATOM     11  C   UNL A   1      32.901  27.946  23.567  1.00  0.00     0.014 A 
ATOM     12  C   UNL A   1      31.572  28.692  22.536  1.00  0.00     0.001 A 
BRANCH   8  13
ATOM     13  C   UNL A   1      30.250  25.175  25.866  1.00  0.00     0.142 C 
ATOM     14  N   UNL A   1      30.676  23.969  25.879  1.00  0.00    -0.180 NA
BRANCH  14  15
ATOM     15  N   UNL A   1      31.563  23.664  24.895  1.00  0.00    -0.239 N 
ATOM     16  O   UNL A   1      33.121  22.834  23.623  1.00  0.00    -0.262 OA
ATOM     17  C   UNL A   1      32.403  22.568  24.604  1.00  0.00     0.329 C 
ATOM     18  H   UNL A   1      31.638  24.381  24.224  1.00  0.00     0.194 HD
BRANCH  17  19
ATOM     19  C   UNL A   1      32.682  21.025  25.402  1.00  0.00     0.313 C 
ATOM     20  O   UNL A   1      32.942  21.553  26.545  1.00  0.00    -0.263 OA
ATOM     21  N   UNL A   1      32.601  19.104  24.840  1.00  0.00    -0.334 N 
ATOM     22  C   UNL A   1      32.561  17.632  25.715  1.00  0.00     0.120 C 
ATOM     23  C   UNL A   1      32.478  18.345  23.298  1.00  0.00     0.120 C 
ATOM     24  C   UNL A   1      33.687  16.653  25.346  1.00  0.00     0.022 C 
ATOM     25  C   UNL A   1      33.666  17.424  23.001  1.00  0.00     0.022 C 
ATOM     26  C   UNL A   1      33.647  16.213  23.901  1.00  0.00     0.004 C 
ENDBRANCH  17  19
ENDBRANCH  14  15
ENDBRANCH   8  13
ENDBRANCH   4   7
ENDBRANCH   2   3
ENDBRANCH   1   2
BRANCH   1  27
ATOM     27  C   UNL A   1      35.802  29.363  27.918  1.00  0.00     0.118 C 
BRANCH  27  28
ATOM     28  N   UNL A   1      35.545  29.583  29.333  1.00  0.00    -0.352 N 
ATOM     29  C   UNL A   1      36.484  29.739  30.328  1.00  0.00     0.251 C 
ATOM     30  H   UNL A   1      34.601  29.625  29.608  1.00  0.00     0.163 HD
ATOM     31  O   UNL A   1      36.142  29.854  31.498  1.00  0.00    -0.269 OA
BRANCH  29  32
ATOM     32  C   UNL A   1      37.912  29.679  29.953  1.00  0.00     0.039 A 
ATOM     33  C   UNL A   1      38.830  29.206  30.889  1.00  0.00     0.014 A 
ATOM     34  C   UNL A   1      38.312  29.958  28.645  1.00  0.00     0.014 A 
ATOM     35  C   UNL A   1      40.134  28.934  30.482  1.00  0.00     0.010 A 
ATOM     36  C   UNL A   1      39.559  29.543  28.210  1.00  0.00     0.010 A 
ATOM     37  C   UNL A   1      40.492  29.048  29.128  1.00  0.00    -0.014 A 
BRANCH  37  38
ATOM     38  C   UNL A   1      41.849  28.687  28.655  1.00  0.00     0.031 A 
ATOM     39  C   UNL A   1      42.916  29.747  28.581  1.00  0.00     0.074 A 
ATOM     40  C   UNL A   1      42.098  27.427  28.248  1.00  0.00     0.049 A 
ATOM     41  N   UNL A   1      44.150  29.643  28.166  1.00  0.00    -0.248 NA
ATOM     42  C   UNL A   1      42.537  31.113  28.989  1.00  0.00     0.031 C 
ATOM     43  C   UNL A   1      41.122  26.334  28.216  1.00  0.00     0.029 A 
ATOM     44  N   UNL A   1      43.253  26.848  27.787  1.00  0.00    -0.354 N 
ATOM     45  C   UNL A   1      44.682  30.925  28.244  1.00  0.00     0.074 A 
ATOM     46  C   UNL A   1      43.619  31.804  28.669  1.00  0.00     0.031 C 
ATOM     47  C   UNL A   1      41.731  25.208  27.811  1.00  0.00     0.029 A 
ATOM     48  C   UNL A   1      43.126  25.507  27.507  1.00  0.00     0.049 A 
ATOM     49  H   UNL A   1      44.094  27.345  27.667  1.00  0.00     0.167 HD
ATOM     50  C   UNL A   1      45.952  31.330  28.016  1.00  0.00     0.031 A 
ATOM     51  C   UNL A   1      44.034  24.620  27.057  1.00  0.00     0.031 A 
ATOM     52  C   UNL A   1      47.007  30.440  27.618  1.00  0.00     0.049 A 
ATOM     53  C   UNL A   1      45.441  25.093  26.812  1.00  0.00     0.074 A 
ATOM     54  C   UNL A   1      48.345  30.727  27.422  1.00  0.00     0.029 A 
ATOM     55  N   UNL A   1      46.840  29.088  27.354  1.00  0.00    -0.354 N 
ATOM     56  N   UNL A   1      45.944  26.295  26.971  1.00  0.00    -0.248 NA
ATOM     57  C   UNL A   1      46.405  24.089  26.345  1.00  0.00     0.031 C 
ATOM     58  C   UNL A   1      48.975  29.561  26.977  1.00  0.00     0.029 A 
ATOM     59  C   UNL A   1      48.046  28.532  26.968  1.00  0.00     0.049 A 
ATOM     60  H   UNL A   1      45.990  28.598  27.431  1.00  0.00     0.167 HD
ATOM     61  C   UNL A   1      47.291  26.186  26.646  1.00  0.00     0.074 A 
ATOM     62  C   UNL A   1      47.526  24.796  26.305  1.00  0.00     0.031 C 
ATOM     63  C   UNL A   1      48.250  27.146  26.631  1.00  0.00     0.031 A 
BRANCH  50  64
ATOM     64  C   UNL A   1      46.261  32.793  28.193  1.00  0.00    -0.014 A 
ATOM     65  C   UNL A   1      46.570  33.328  29.458  1.00  0.00     0.010 A 
ATOM     66  C   UNL A   1      46.273  33.644  27.072  1.00  0.00     0.010 A 
ATOM     67  C   UNL A   1      46.841  34.690  29.606  1.00  0.00     0.020 A 
ATOM     68  C   UNL A   1      46.578  35.001  27.211  1.00  0.00     0.020 A 
ATOM     69  C   UNL A   1      46.846  35.519  28.480  1.00  0.00     0.054 A 
BRANCH  69  70
ATOM     70  S   UNL A   1      47.236  37.275  28.698  1.00  0.00     0.124 S 
ATOM     71  O   UNL A   1      48.656  37.228  29.041  1.00  0.00    -0.237 OA
ATOM     72  O   UNL A   1      46.926  37.835  27.385  1.00  0.00    -0.237 OA
ATOM     73  O   UNL A   1      46.349  37.697  29.779  1.00  0.00    -0.744 OA
ENDBRANCH  69  70
ENDBRANCH  50  64
BRANCH  51  74
ATOM     74  C   UNL A   1      43.642  23.202  26.827  1.00  0.00    -0.014 A 
ATOM     75  C   UNL A   1      43.022  22.453  27.843  1.00  0.00     0.010 A 
ATOM     76  C   UNL A   1      43.877  22.593  25.580  1.00  0.00     0.010 A 
ATOM     77  C   UNL A   1      42.663  21.119  27.624  1.00  0.00     0.020 A 
ATOM     78  C   UNL A   1      43.490  21.270  25.346  1.00  0.00     0.020 A 
ATOM     79  C   UNL A   1      42.896  20.537  26.375  1.00  0.00     0.054 A 
BRANCH  79  80
ATOM     80  S   UNL A   1      42.377  18.821  26.097  1.00  0.00     0.124 S 
ATOM     81  O   UNL A   1      42.651  18.207  27.392  1.00  0.00    -0.237 OA
ATOM     82  O   UNL A   1      40.966  18.972  25.751  1.00  0.00    -0.237 OA
ATOM     83  O   UNL A   1      43.235  18.378  24.999  1.00  0.00    -0.744 OA
ENDBRANCH  79  80
ENDBRANCH  51  74
BRANCH  63  84
ATOM     84  C   UNL A   1      49.647  26.720  26.264  1.00  0.00    -0.014 A 
ATOM     85  C   UNL A   1      50.487  26.088  27.197  1.00  0.00     0.010 A 
ATOM     86  C   UNL A   1      50.099  26.903  24.944  1.00  0.00     0.010 A 
ATOM     87  C   UNL A   1      51.770  25.681  26.826  1.00  0.00     0.020 A 
ATOM     88  C   UNL A   1      51.367  26.465  24.560  1.00  0.00     0.020 A 
ATOM     89  C   UNL A   1      52.201  25.870  25.509  1.00  0.00     0.054 A 
BRANCH  89  90
ATOM     90  S   UNL A   1      53.854  25.292  25.043  1.00  0.00     0.124 S 
ATOM     91  O   UNL A   1      54.674  25.806  26.137  1.00  0.00    -0.237 OA
ATOM     92  O   UNL A   1      53.687  23.842  25.009  1.00  0.00    -0.237 OA
ATOM     93  O   UNL A   1      54.087  25.918  23.744  1.00  0.00    -0.744 OA
ENDBRANCH  89  90
ENDBRANCH  63  84
ENDBRANCH  37  38
ENDBRANCH  29  32
ENDBRANCH  27  28
ENDBRANCH   1  27
TORSDOF 16
ENDMDL
MODEL 2
REMARK VINA RESULT:     -13.1      3.234      5.237
REMARK SMILES O=C(N/N=C\c1ccccc1C(=O)NCCCNC(=O)c1ccc(-c2c3nc(c(-c4ccc(S(=O)(=O)[O-])cc4)c4ccc([nH]4)c(-c4ccc(S(=O)(=O)[O-])cc4)c4nc(c(-c5ccc(S(=O)(=O)[O-])cc5)c5ccc2[nH]5)C=C4)C=C3)cc1)C(=O)N1CCCCC1
REMARK SMILES IDX 16 1 15 2 14 3 12 4 13 5 11 7 6 8 7 9 8 10 10 11 9 12 5 13
REMARK SMILES IDX 4 14 3 15 1 16 2 17 81 19 82 20 83 21 84 22 88 23 85 24
REMARK SMILES IDX 87 25 86 26 17 27 18 28 19 29 20 31 21 32 22 33 80 34 23 35
REMARK SMILES IDX 79 36 24 37 25 38 26 39 73 40 27 41 78 42 72 43 74 44 28 45
REMARK SMILES IDX 77 46 71 47 70 48 29 50 59 51 40 52 58 53 41 54 44 55 57 56
REMARK SMILES IDX 75 57 42 58 43 59 56 61 76 62 45 63 30 64 31 65 39 66 32 67
REMARK SMILES IDX 38 68 33 69 34 70 35 71 36 72 37 73 60 74 61 75 69 76 62 77
REMARK SMILES IDX 68 78 63 79 64 80 65 81 66 82 67 83 46 84 47 85 55 86 48 87
REMARK SMILES IDX 54 88 49 89 50 90 51 91 52 92 53 93
REMARK H PARENT 14 6 3 18 18 30 74 49 44 60
REMARK Flexibility Score: inf
ROOT
ATOM      1  C   UNL A   1      33.711  28.352  25.768  1.00  0.00     0.042 C 
ENDROOT
BRANCH   1   2
ATOM      2  C   UNL A   1      33.718  26.874  25.414  1.00  0.00     0.118 C 
BRANCH   2   3
ATOM      3  N   UNL A   1      32.818  26.144  26.248  1.00  0.00    -0.352 N 
ATOM      4  C   UNL A   1      32.543  24.825  26.375  1.00  0.00     0.251 C 
ATOM      5  O   UNL A   1      31.487  24.561  26.954  1.00  0.00    -0.269 OA
ATOM      6  H   UNL A   1      32.290  26.715  26.851  1.00  0.00     0.163 HD
BRANCH   4   7
ATOM      7  C   UNL A   1      33.400  23.691  25.952  1.00  0.00     0.048 A 
ATOM      8  C   UNL A   1      33.182  22.516  24.589  1.00  0.00     0.007 A 
ATOM      9  C   UNL A   1      34.651  21.680  23.804  1.00  0.00     0.010 A 
ATOM     10  C   UNL A   1      36.293  21.941  24.497  1.00  0.00     0.001 A 
ATOM     11  C   UNL A   1      35.073  23.952  26.597  1.00  0.00     0.014 A 
ATOM     12  C   UNL A   1      36.514  23.047  25.897  1.00  0.00     0.001 A 
BRANCH   8  13
ATOM     13  C   UNL A   1      32.021  22.277  23.792  1.00  0.00     0.142 C 
ATOM     14  N   UNL A   1      31.880  22.995  22.743  1.00  0.00    -0.180 NA
BRANCH  14  15
ATOM     15  N   UNL A   1      32.822  23.962  22.579  1.00  0.00    -0.239 N 
ATOM     16  O   UNL A   1      33.979  25.739  22.089  1.00  0.00    -0.262 OA
ATOM     17  C   UNL A   1      32.811  25.321  22.200  1.00  0.00     0.329 C 
ATOM     18  H   UNL A   1      33.731  23.634  22.768  1.00  0.00     0.194 HD
BRANCH  17  19
ATOM     19  C   UNL A   1      31.520  26.438  21.773  1.00  0.00     0.313 C 
ATOM     20  O   UNL A   1      31.476  26.066  20.543  1.00  0.00    -0.263 OA
ATOM     21  N   UNL A   1      30.427  27.789  22.769  1.00  0.00    -0.334 N 
ATOM     22  C   UNL A   1      28.973  28.617  22.399  1.00  0.00     0.120 C 
ATOM     23  C   UNL A   1      30.579  28.483  24.339  1.00  0.00     0.120 C 
ATOM     24  C   UNL A   1      29.093  30.148  22.457  1.00  0.00     0.022 C 
ATOM     25  C   UNL A   1      30.738  30.006  24.293  1.00  0.00     0.022 C 
ATOM     26  C   UNL A   1      29.463  30.667  23.828  1.00  0.00     0.004 C 
ENDBRANCH  17  19
ENDBRANCH  14  15
ENDBRANCH   8  13
ENDBRANCH   4   7
ENDBRANCH   2   3
ENDBRANCH   1   2
BRANCH   1  27
ATOM     27  C   UNL A   1      33.558  28.523  27.257  1.00  0.00     0.118 C 
BRANCH  27  28
ATOM     28  N   UNL A   1      33.484  29.911  27.688  1.00  0.00    -0.352 N 
ATOM     29  C   UNL A   1      34.506  30.666  28.218  1.00  0.00     0.251 C 
ATOM     30  H   UNL A   1      32.612  30.356  27.591  1.00  0.00     0.163 HD
ATOM     31  O   UNL A   1      34.303  31.810  28.605  1.00  0.00    -0.269 OA
BRANCH  29  32
ATOM     32  C   UNL A   1      35.829  30.029  28.382  1.00  0.00     0.039 A 
ATOM     33  C   UNL A   1      36.732  30.078  27.320  1.00  0.00     0.014 A 
ATOM     34  C   UNL A   1      36.218  29.515  29.620  1.00  0.00     0.014 A 
ATOM     35  C   UNL A   1      38.051  29.684  27.534  1.00  0.00     0.010 A 
ATOM     36  C   UNL A   1      37.558  29.272  29.868  1.00  0.00     0.010 A 
ATOM     37  C   UNL A   1      38.486  29.332  28.822  1.00  0.00    -0.014 A 
BRANCH  37  38
ATOM     38  C   UNL A   1      39.901  28.988  29.092  1.00  0.00     0.031 A 
ATOM     39  C   UNL A   1      40.809  30.015  29.717  1.00  0.00     0.074 A 
ATOM     40  C   UNL A   1      40.374  27.779  28.729  1.00  0.00     0.049 A 
ATOM     41  N   UNL A   1      42.080  29.923  30.003  1.00  0.00    -0.248 NA
ATOM     42  C   UNL A   1      40.223  31.333  30.025  1.00  0.00     0.031 C 
ATOM     43  C   UNL A   1      39.600  26.730  28.059  1.00  0.00     0.029 A 
ATOM     44  N   UNL A   1      41.619  27.224  28.878  1.00  0.00    -0.354 N 
ATOM     45  C   UNL A   1      42.444  31.168  30.501  1.00  0.00     0.074 A 
ATOM     46  C   UNL A   1      41.285  32.022  30.406  1.00  0.00     0.031 C 
ATOM     47  C   UNL A   1      40.372  25.643  27.903  1.00  0.00     0.029 A 
ATOM     48  C   UNL A   1      41.707  25.932  28.415  1.00  0.00     0.049 A 
ATOM     49  H   UNL A   1      42.379  27.705  29.278  1.00  0.00     0.167 HD
ATOM     50  C   UNL A   1      43.629  31.557  31.024  1.00  0.00     0.031 A 
ATOM     51  C   UNL A   1      42.748  25.077  28.406  1.00  0.00     0.031 A 
ATOM     52  C   UNL A   1      44.768  30.689  31.136  1.00  0.00     0.049 A 
ATOM     53  C   UNL A   1      44.055  25.531  28.996  1.00  0.00     0.074 A 
ATOM     54  C   UNL A   1      45.999  30.954  31.708  1.00  0.00     0.029 A 
ATOM     55  N   UNL A   1      44.814  29.385  30.665  1.00  0.00    -0.354 N 
ATOM     56  N   UNL A   1      44.356  26.688  29.537  1.00  0.00    -0.248 NA
ATOM     57  C   UNL A   1      45.157  24.561  28.988  1.00  0.00     0.031 C 
ATOM     58  C   UNL A   1      46.811  29.831  31.525  1.00  0.00     0.029 A 
ATOM     59  C   UNL A   1      46.063  28.841  30.906  1.00  0.00     0.049 A 
ATOM     60  H   UNL A   1      44.068  28.916  30.225  1.00  0.00     0.167 HD
ATOM     61  C   UNL A   1      45.676  26.576  29.957  1.00  0.00     0.074 A 
ATOM     62  C   UNL A   1      46.106  25.232  29.627  1.00  0.00     0.031 C 
ATOM     63  C   UNL A   1      46.465  27.500  30.563  1.00  0.00     0.031 A 
BRANCH  50  64
ATOM     64  C   UNL A   1      43.746  32.978  31.512  1.00  0.00    -0.014 A 
ATOM     65  C   UNL A   1      43.434  33.324  32.839  1.00  0.00     0.010 A 
ATOM     66  C   UNL A   1      44.202  33.979  30.635  1.00  0.00     0.010 A 
ATOM     67  C   UNL A   1      43.535  34.648  33.270  1.00  0.00     0.020 A 
ATOM     68  C   UNL A   1      44.338  35.300  31.073  1.00  0.00     0.020 A 
ATOM     69  C   UNL A   1      43.989  35.629  32.384  1.00  0.00     0.054 A 
BRANCH  69  70
ATOM     70  S   UNL A   1      44.143  37.333  32.982  1.00  0.00     0.124 S 
ATOM     71  O   UNL A   1      45.474  37.321  33.585  1.00  0.00    -0.237 OA
ATOM     72  O   UNL A   1      44.018  38.114  31.753  1.00  0.00    -0.237 OA
ATOM     73  O   UNL A   1      43.035  37.474  33.923  1.00  0.00    -0.744 OA
ENDBRANCH  69  70
ENDBRANCH  50  64
BRANCH  51  74
ATOM     74  C   UNL A   1      42.587  23.710  27.837  1.00  0.00    -0.014 A 
ATOM     75  C   UNL A   1      42.192  22.633  28.652  1.00  0.00     0.010 A 
ATOM     76  C   UNL A   1      42.817  23.479  26.468  1.00  0.00     0.010 A 
ATOM     77  C   UNL A   1      42.050  21.351  28.113  1.00  0.00     0.020 A 
ATOM     78  C   UNL A   1      42.645  22.205  25.919  1.00  0.00     0.020 A 
ATOM     79  C   UNL A   1      42.273  21.145  26.749  1.00  0.00     0.054 A 
BRANCH  79  80
ATOM     80  S   UNL A   1      42.036  19.482  26.063  1.00  0.00     0.124 S 
ATOM     81  O   UNL A   1      42.507  18.633  27.151  1.00  0.00    -0.237 OA
ATOM     82  O   UNL A   1      40.597  19.451  25.810  1.00  0.00    -0.237 OA
ATOM     83  O   UNL A   1      42.870  19.486  24.863  1.00  0.00    -0.744 OA
ENDBRANCH  79  80
ENDBRANCH  51  74
BRANCH  63  84
ATOM     84  C   UNL A   1      47.860  27.078  30.937  1.00  0.00    -0.014 A 
ATOM     85  C   UNL A   1      48.126  26.427  32.154  1.00  0.00     0.010 A 
ATOM     86  C   UNL A   1      48.910  27.283  30.023  1.00  0.00     0.010 A 
ATOM     87  C   UNL A   1      49.425  26.023  32.467  1.00  0.00     0.020 A 
ATOM     88  C   UNL A   1      50.203  26.849  30.316  1.00  0.00     0.020 A 
ATOM     89  C   UNL A   1      50.456  26.235  31.545  1.00  0.00     0.054 A 
BRANCH  89  90
ATOM     90  S   UNL A   1      52.125  25.662  31.958  1.00  0.00     0.124 S 
ATOM     91  O   UNL A   1      52.856  25.944  30.726  1.00  0.00    -0.237 OA
ATOM     92  O   UNL A   1      52.473  26.498  33.103  1.00  0.00    -0.237 OA
ATOM     93  O   UNL A   1      51.940  24.245  32.262  1.00  0.00    -0.744 OA
ENDBRANCH  89  90
ENDBRANCH  63  84
ENDBRANCH  37  38
ENDBRANCH  29  32
ENDBRANCH  27  28
ENDBRANCH   1  27
TORSDOF 16
ENDMDL
MODEL 3
REMARK VINA RESULT:     -13.0      2.913      8.862
REMARK SMILES O=C(N/N=C\c1ccccc1C(=O)NCCCNC(=O)c1ccc(-c2c3nc(c(-c4ccc(S(=O)(=O)[O-])cc4)c4ccc([nH]4)c(-c4ccc(S(=O)(=O)[O-])cc4)c4nc(c(-c5ccc(S(=O)(=O)[O-])cc5)c5ccc2[nH]5)C=C4)C=C3)cc1)C(=O)N1CCCCC1
REMARK SMILES IDX 16 1 15 2 14 3 12 4 13 5 11 7 6 8 7 9 8 10 10 11 9 12 5 13
REMARK SMILES IDX 4 14 3 15 1 16 2 17 81 19 82 20 83 21 84 22 88 23 85 24
REMARK SMILES IDX 87 25 86 26 17 27 18 28 19 29 20 31 21 32 22 33 80 34 23 35
REMARK SMILES IDX 79 36 24 37 25 38 26 39 73 40 27 41 78 42 72 43 74 44 28 45
REMARK SMILES IDX 77 46 71 47 70 48 29 50 59 51 40 52 58 53 41 54 44 55 57 56
REMARK SMILES IDX 75 57 42 58 43 59 56 61 76 62 45 63 30 64 31 65 39 66 32 67
REMARK SMILES IDX 38 68 33 69 34 70 35 71 36 72 37 73 60 74 61 75 69 76 62 77
REMARK SMILES IDX 68 78 63 79 64 80 65 81 66 82 67 83 46 84 47 85 55 86 48 87
REMARK SMILES IDX 54 88 49 89 50 90 51 91 52 92 53 93
REMARK H PARENT 14 6 3 18 18 30 74 49 44 60
REMARK Flexibility Score: inf
ROOT
ATOM      1  C   UNL A   1      36.323  23.736  24.651  1.00  0.00     0.042 C 
ENDROOT
BRANCH   1   2
ATOM      2  C   UNL A   1      34.855  24.130  24.634  1.00  0.00     0.118 C 
BRANCH   2   3
ATOM      3  N   UNL A   1      34.607  25.214  25.529  1.00  0.00    -0.352 N 
ATOM      4  C   UNL A   1      33.786  26.288  25.469  1.00  0.00     0.251 C 
ATOM      5  O   UNL A   1      34.051  27.198  26.258  1.00  0.00    -0.269 OA
ATOM      6  H   UNL A   1      35.139  25.172  26.355  1.00  0.00     0.163 HD
BRANCH   4   7
ATOM      7  C   UNL A   1      32.588  26.449  24.610  1.00  0.00     0.048 A 
ATOM      8  C   UNL A   1      30.858  26.020  24.938  1.00  0.00     0.007 A 
ATOM      9  C   UNL A   1      29.471  26.928  24.086  1.00  0.00     0.010 A 
ATOM     10  C   UNL A   1      29.857  28.153  22.825  1.00  0.00     0.001 A 
ATOM     11  C   UNL A   1      32.934  27.713  23.358  1.00  0.00     0.014 A 
ATOM     12  C   UNL A   1      31.571  28.536  22.436  1.00  0.00     0.001 A 
BRANCH   8  13
ATOM     13  C   UNL A   1      30.320  25.212  25.985  1.00  0.00     0.142 C 
ATOM     14  N   UNL A   1      30.433  23.944  25.856  1.00  0.00    -0.180 NA
BRANCH  14  15
ATOM     15  N   UNL A   1      30.980  23.534  24.680  1.00  0.00    -0.239 N 
ATOM     16  O   UNL A   1      32.102  22.580  23.079  1.00  0.00    -0.262 OA
ATOM     17  C   UNL A   1      31.748  22.427  24.262  1.00  0.00     0.329 C 
ATOM     18  H   UNL A   1      30.798  24.162  23.944  1.00  0.00     0.194 HD
BRANCH  17  19
ATOM     19  C   UNL A   1      32.354  21.002  25.098  1.00  0.00     0.313 C 
ATOM     20  O   UNL A   1      32.670  21.644  26.166  1.00  0.00    -0.263 OA
ATOM     21  N   UNL A   1      32.496  19.053  24.656  1.00  0.00    -0.334 N 
ATOM     22  C   UNL A   1      32.787  17.658  25.608  1.00  0.00     0.120 C 
ATOM     23  C   UNL A   1      32.298  18.173  23.188  1.00  0.00     0.120 C 
ATOM     24  C   UNL A   1      33.994  16.826  25.146  1.00  0.00     0.022 C 
ATOM     25  C   UNL A   1      33.565  17.413  22.786  1.00  0.00     0.022 C 
ATOM     26  C   UNL A   1      33.842  16.280  23.744  1.00  0.00     0.004 C 
ENDBRANCH  17  19
ENDBRANCH  14  15
ENDBRANCH   8  13
ENDBRANCH   4   7
ENDBRANCH   2   3
ENDBRANCH   1   2
BRANCH   1  27
ATOM     27  C   UNL A   1      36.733  23.340  26.046  1.00  0.00     0.118 C 
BRANCH  27  28
ATOM     28  N   UNL A   1      37.848  22.405  26.091  1.00  0.00    -0.352 N 
ATOM     29  C   UNL A   1      39.138  22.678  26.486  1.00  0.00     0.251 C 
ATOM     30  H   UNL A   1      37.660  21.481  25.809  1.00  0.00     0.163 HD
ATOM     31  O   UNL A   1      40.008  21.818  26.418  1.00  0.00    -0.269 OA
BRANCH  29  32
ATOM     32  C   UNL A   1      39.459  24.056  26.912  1.00  0.00     0.039 A 
ATOM     33  C   UNL A   1      39.481  24.347  28.275  1.00  0.00     0.014 A 
ATOM     34  C   UNL A   1      39.870  25.007  25.977  1.00  0.00     0.014 A 
ATOM     35  C   UNL A   1      39.996  25.570  28.699  1.00  0.00     0.010 A 
ATOM     36  C   UNL A   1      40.520  26.151  26.407  1.00  0.00     0.010 A 
ATOM     37  C   UNL A   1      40.570  26.457  27.772  1.00  0.00    -0.014 A 
BRANCH  37  38
ATOM     38  C   UNL A   1      41.197  27.727  28.205  1.00  0.00     0.031 A 
ATOM     39  C   UNL A   1      42.688  27.900  28.076  1.00  0.00     0.074 A 
ATOM     40  C   UNL A   1      40.435  28.691  28.757  1.00  0.00     0.049 A 
ATOM     41  N   UNL A   1      43.430  28.917  28.426  1.00  0.00    -0.248 NA
ATOM     42  C   UNL A   1      43.451  26.769  27.517  1.00  0.00     0.031 C 
ATOM     43  C   UNL A   1      38.990  28.605  28.991  1.00  0.00     0.029 A 
ATOM     44  N   UNL A   1      40.768  29.939  29.219  1.00  0.00    -0.354 N 
ATOM     45  C   UNL A   1      44.738  28.540  28.149  1.00  0.00     0.074 A 
ATOM     46  C   UNL A   1      44.699  27.176  27.679  1.00  0.00     0.031 C 
ATOM     47  C   UNL A   1      38.554  29.768  29.501  1.00  0.00     0.029 A 
ATOM     48  C   UNL A   1      39.692  30.663  29.678  1.00  0.00     0.049 A 
ATOM     49  H   UNL A   1      41.689  30.284  29.222  1.00  0.00     0.167 HD
ATOM     50  C   UNL A   1      45.870  29.274  28.245  1.00  0.00     0.031 A 
ATOM     51  C   UNL A   1      39.632  31.910  30.184  1.00  0.00     0.031 A 
ATOM     52  C   UNL A   1      45.891  30.640  28.691  1.00  0.00     0.049 A 
ATOM     53  C   UNL A   1      40.903  32.709  30.279  1.00  0.00     0.074 A 
ATOM     54  C   UNL A   1      46.969  31.502  28.766  1.00  0.00     0.029 A 
ATOM     55  N   UNL A   1      44.780  31.340  29.138  1.00  0.00    -0.354 N 
ATOM     56  N   UNL A   1      42.121  32.362  29.935  1.00  0.00    -0.248 NA
ATOM     57  C   UNL A   1      40.790  34.072  30.814  1.00  0.00     0.031 C 
ATOM     58  C   UNL A   1      46.521  32.705  29.320  1.00  0.00     0.029 A 
ATOM     59  C   UNL A   1      45.152  32.617  29.519  1.00  0.00     0.049 A 
ATOM     60  H   UNL A   1      43.864  30.982  29.177  1.00  0.00     0.167 HD
ATOM     61  C   UNL A   1      42.916  33.473  30.189  1.00  0.00     0.074 A 
ATOM     62  C   UNL A   1      42.036  34.509  30.694  1.00  0.00     0.031 C 
ATOM     63  C   UNL A   1      44.254  33.627  30.021  1.00  0.00     0.031 A 
BRANCH  50  64
ATOM     64  C   UNL A   1      47.167  28.613  27.860  1.00  0.00    -0.014 A 
ATOM     65  C   UNL A   1      47.972  27.966  28.817  1.00  0.00     0.010 A 
ATOM     66  C   UNL A   1      47.577  28.614  26.514  1.00  0.00     0.010 A 
ATOM     67  C   UNL A   1      49.178  27.370  28.444  1.00  0.00     0.020 A 
ATOM     68  C   UNL A   1      48.767  27.988  26.131  1.00  0.00     0.020 A 
ATOM     69  C   UNL A   1      49.568  27.383  27.102  1.00  0.00     0.054 A 
BRANCH  69  70
ATOM     70  S   UNL A   1      51.122  26.571  26.642  1.00  0.00     0.124 S 
ATOM     71  O   UNL A   1      50.781  25.974  25.353  1.00  0.00    -0.237 OA
ATOM     72  O   UNL A   1      52.061  27.689  26.588  1.00  0.00    -0.237 OA
ATOM     73  O   UNL A   1      51.351  25.620  27.727  1.00  0.00    -0.744 OA
ENDBRANCH  69  70
ENDBRANCH  50  64
BRANCH  51  74
ATOM     74  C   UNL A   1      38.326  32.478  30.620  1.00  0.00    -0.014 A 
ATOM     75  C   UNL A   1      37.921  32.402  31.965  1.00  0.00     0.010 A 
ATOM     76  C   UNL A   1      37.481  33.112  29.690  1.00  0.00     0.010 A 
ATOM     77  C   UNL A   1      36.690  32.931  32.367  1.00  0.00     0.020 A 
ATOM     78  C   UNL A   1      36.264  33.670  30.094  1.00  0.00     0.020 A 
ATOM     79  C   UNL A   1      35.871  33.565  31.430  1.00  0.00     0.054 A 
BRANCH  79  80
ATOM     80  S   UNL A   1      34.301  34.287  31.983  1.00  0.00     0.124 S 
ATOM     81  O   UNL A   1      34.750  35.462  32.722  1.00  0.00    -0.237 OA
ATOM     82  O   UNL A   1      33.617  34.553  30.720  1.00  0.00    -0.237 OA
ATOM     83  O   UNL A   1      33.704  33.226  32.792  1.00  0.00    -0.744 OA
ENDBRANCH  79  80
ENDBRANCH  51  74
BRANCH  63  84
ATOM     84  C   UNL A   1      44.842  34.972  30.354  1.00  0.00    -0.014 A 
ATOM     85  C   UNL A   1      45.362  35.246  31.632  1.00  0.00     0.010 A 
ATOM     86  C   UNL A   1      44.927  35.954  29.351  1.00  0.00     0.010 A 
ATOM     87  C   UNL A   1      45.924  36.493  31.909  1.00  0.00     0.020 A 
ATOM     88  C   UNL A   1      45.521  37.190  29.614  1.00  0.00     0.020 A 
ATOM     89  C   UNL A   1      46.002  37.457  30.898  1.00  0.00     0.054 A 
BRANCH  89  90
ATOM     90  S   UNL A   1      46.775  39.052  31.274  1.00  0.00     0.124 S 
ATOM     91  O   UNL A   1      46.546  39.169  32.711  1.00  0.00    -0.237 OA
ATOM     92  O   UNL A   1      48.163  38.835  30.873  1.00  0.00    -0.237 OA
ATOM     93  O   UNL A   1      46.034  40.001  30.447  1.00  0.00    -0.744 OA
ENDBRANCH  89  90
ENDBRANCH  63  84
ENDBRANCH  37  38
ENDBRANCH  29  32
ENDBRANCH  27  28
ENDBRANCH   1  27
TORSDOF 16
ENDMDL
