MODEL 1
REMARK VINA RESULT:      -8.7      0.000      0.000
REMARK SMILES N#Cc1cccc(NCCCC(=O)NCCCNC(=O)c2ccc(-c3c4nc(c(-c5ccc(S(=O)(=O)[O-])cc5)c5ccc([nH]5)c(-c5ccc(S(=O)(=O)[O-])cc5)c5nc(c(-c6ccc(S(=O)(=O)[O-])cc6)c6ccc3[nH]6)C=C5)C=C4)cc2)c1
REMARK SMILES IDX 15 1 14 2 12 3 13 4 11 6 10 7 9 8 8 9 7 11 3 12 4 13 81 14
REMARK SMILES IDX 5 15 6 16 2 17 1 18 16 19 17 20 18 21 19 22 20 24 21 25
REMARK SMILES IDX 22 26 80 27 23 28 79 29 24 30 25 31 26 32 73 33 27 34 78 35
REMARK SMILES IDX 72 36 74 37 28 38 77 39 71 40 70 41 29 43 59 44 40 45 58 46
REMARK SMILES IDX 41 47 44 48 57 49 75 50 42 51 43 52 56 54 76 55 45 56 30 57
REMARK SMILES IDX 31 58 39 59 32 60 38 61 33 62 34 63 35 64 36 65 37 66 60 67
REMARK SMILES IDX 61 68 69 69 62 70 68 71 63 72 64 73 65 74 66 75 67 76 46 77
REMARK SMILES IDX 47 78 55 79 48 80 54 81 49 82 50 83 51 84 52 85 53 86
REMARK H PARENT 14 5 8 10 18 23 74 42 44 53
REMARK Flexibility Score: inf
ROOT
ATOM      1  C   UNL A   1      34.057  34.319  30.094  1.00  0.00     0.117 C 
ENDROOT
BRANCH   1   2
ATOM      2  N   UNL A   1      34.662  35.122  31.140  1.00  0.00    -0.356 N 
ATOM      3  C   UNL A   1      35.168  34.748  32.344  1.00  0.00     0.220 C 
ATOM      4  O   UNL A   1      35.561  35.627  33.114  1.00  0.00    -0.275 OA
ATOM      5  H   UNL A   1      34.713  36.086  30.948  1.00  0.00     0.163 HD
BRANCH   3   6
ATOM      6  C   UNL A   1      35.290  33.285  32.711  1.00  0.00     0.102 C 
BRANCH   6   7
ATOM      7  C   UNL A   1      36.714  32.725  32.679  1.00  0.00     0.031 C 
BRANCH   7   8
ATOM      8  C   UNL A   1      37.061  31.593  33.650  1.00  0.00     0.113 C 
BRANCH   8   9
ATOM      9  N   UNL A   1      38.492  31.487  33.873  1.00  0.00    -0.385 N 
ATOM     10  H   UNL A   1      38.949  32.263  34.270  1.00  0.00     0.160 HD
BRANCH   9  11
ATOM     11  C   UNL A   1      39.262  30.379  33.571  1.00  0.00     0.035 A 
ATOM     12  C   UNL A   1      41.443  29.279  33.724  1.00  0.00     0.054 A 
ATOM     13  C   UNL A   1      40.915  28.127  33.144  1.00  0.00     0.019 A 
ATOM     14  C   UNL A   1      40.621  30.396  33.920  1.00  0.00     0.045 A 
ATOM     15  C   UNL A   1      39.582  28.111  32.739  1.00  0.00     0.003 A 
ATOM     16  C   UNL A   1      38.769  29.233  32.941  1.00  0.00     0.026 A 
BRANCH  12  17
ATOM     17  C   UNL A   1      42.810  29.319  34.149  1.00  0.00     0.099 C 
ATOM     18  N   UNL A   1      43.911  29.357  34.520  1.00  0.00    -0.192 NA
ENDBRANCH  12  17
ENDBRANCH   9  11
ENDBRANCH   8   9
ENDBRANCH   7   8
ENDBRANCH   6   7
ENDBRANCH   3   6
ENDBRANCH   1   2
BRANCH   1  19
ATOM     19  C   UNL A   1      35.066  33.343  29.503  1.00  0.00     0.042 C 
BRANCH  19  20
ATOM     20  C   UNL A   1      34.810  33.025  28.041  1.00  0.00     0.118 C 
BRANCH  20  21
ATOM     21  N   UNL A   1      34.021  31.817  27.870  1.00  0.00    -0.352 N 
ATOM     22  C   UNL A   1      34.435  30.509  27.791  1.00  0.00     0.251 C 
ATOM     23  H   UNL A   1      33.049  31.957  27.798  1.00  0.00     0.163 HD
ATOM     24  O   UNL A   1      33.645  29.646  27.420  1.00  0.00    -0.269 OA
BRANCH  22  25
ATOM     25  C   UNL A   1      35.830  30.149  28.134  1.00  0.00     0.039 A 
ATOM     26  C   UNL A   1      36.121  29.719  29.430  1.00  0.00     0.014 A 
ATOM     27  C   UNL A   1      36.851  30.245  27.186  1.00  0.00     0.014 A 
ATOM     28  C   UNL A   1      37.425  29.334  29.755  1.00  0.00     0.010 A 
ATOM     29  C   UNL A   1      38.120  29.757  27.477  1.00  0.00     0.010 A 
ATOM     30  C   UNL A   1      38.428  29.318  28.772  1.00  0.00    -0.014 A 
BRANCH  30  31
ATOM     31  C   UNL A   1      39.818  28.892  29.082  1.00  0.00     0.031 A 
ATOM     32  C   UNL A   1      40.766  29.863  29.738  1.00  0.00     0.074 A 
ATOM     33  C   UNL A   1      40.240  27.658  28.738  1.00  0.00     0.049 A 
ATOM     34  N   UNL A   1      42.037  29.716  30.011  1.00  0.00    -0.248 NA
ATOM     35  C   UNL A   1      40.223  31.181  30.115  1.00  0.00     0.031 C 
ATOM     36  C   UNL A   1      39.425  26.633  28.080  1.00  0.00     0.029 A 
ATOM     37  N   UNL A   1      41.463  27.054  28.892  1.00  0.00    -0.354 N 
ATOM     38  C   UNL A   1      42.441  30.916  30.587  1.00  0.00     0.074 A 
ATOM     39  C   UNL A   1      41.303  31.807  30.556  1.00  0.00     0.031 C 
ATOM     40  C   UNL A   1      40.160  25.521  27.917  1.00  0.00     0.029 A 
ATOM     41  C   UNL A   1      41.513  25.768  28.406  1.00  0.00     0.049 A 
ATOM     42  H   UNL A   1      42.234  27.501  29.312  1.00  0.00     0.167 HD
ATOM     43  C   UNL A   1      43.639  31.238  31.128  1.00  0.00     0.031 A 
ATOM     44  C   UNL A   1      42.536  24.893  28.345  1.00  0.00     0.031 A 
ATOM     45  C   UNL A   1      44.767  30.348  31.166  1.00  0.00     0.049 A 
ATOM     46  C   UNL A   1      43.881  25.306  28.890  1.00  0.00     0.074 A 
ATOM     47  C   UNL A   1      46.020  30.573  31.708  1.00  0.00     0.029 A 
ATOM     48  N   UNL A   1      44.777  29.061  30.651  1.00  0.00    -0.354 N 
ATOM     49  N   UNL A   1      44.226  26.431  29.470  1.00  0.00    -0.248 NA
ATOM     50  C   UNL A   1      44.970  24.325  28.784  1.00  0.00     0.031 C 
ATOM     51  C   UNL A   1      46.807  29.444  31.468  1.00  0.00     0.029 A 
ATOM     52  C   UNL A   1      46.021  28.487  30.848  1.00  0.00     0.049 A 
ATOM     53  H   UNL A   1      44.014  28.621  30.212  1.00  0.00     0.167 HD
ATOM     54  C   UNL A   1      45.558  26.271  29.842  1.00  0.00     0.074 A 
ATOM     55  C   UNL A   1      45.949  24.938  29.435  1.00  0.00     0.031 C 
ATOM     56  C   UNL A   1      46.384  27.146  30.463  1.00  0.00     0.031 A 
BRANCH  43  57
ATOM     57  C   UNL A   1      43.789  32.604  31.746  1.00  0.00    -0.014 A 
ATOM     58  C   UNL A   1      44.122  33.718  30.954  1.00  0.00     0.010 A 
ATOM     59  C   UNL A   1      43.512  32.794  33.112  1.00  0.00     0.010 A 
ATOM     60  C   UNL A   1      44.196  34.993  31.521  1.00  0.00     0.020 A 
ATOM     61  C   UNL A   1      43.551  34.072  33.675  1.00  0.00     0.020 A 
ATOM     62  C   UNL A   1      43.900  35.163  32.875  1.00  0.00     0.054 A 
BRANCH  62  63
ATOM     63  S   UNL A   1      43.934  36.842  33.562  1.00  0.00     0.124 S 
ATOM     64  O   UNL A   1      42.547  37.024  33.983  1.00  0.00    -0.237 OA
ATOM     65  O   UNL A   1      44.908  36.720  34.643  1.00  0.00    -0.237 OA
ATOM     66  O   UNL A   1      44.356  37.670  32.435  1.00  0.00    -0.744 OA
ENDBRANCH  62  63
ENDBRANCH  43  57
BRANCH  44  67
ATOM     67  C   UNL A   1      42.354  23.544  27.734  1.00  0.00    -0.014 A 
ATOM     68  C   UNL A   1      41.930  22.453  28.514  1.00  0.00     0.010 A 
ATOM     69  C   UNL A   1      42.665  23.329  26.379  1.00  0.00     0.010 A 
ATOM     70  C   UNL A   1      41.882  21.166  27.968  1.00  0.00     0.020 A 
ATOM     71  C   UNL A   1      42.577  22.052  25.818  1.00  0.00     0.020 A 
ATOM     72  C   UNL A   1      42.211  20.973  26.625  1.00  0.00     0.054 A 
BRANCH  72  73
ATOM     73  S   UNL A   1      42.160  19.294  25.942  1.00  0.00     0.124 S 
ATOM     74  O   UNL A   1      40.738  19.121  25.666  1.00  0.00    -0.237 OA
ATOM     75  O   UNL A   1      43.026  19.405  24.771  1.00  0.00    -0.237 OA
ATOM     76  O   UNL A   1      42.693  18.470  27.026  1.00  0.00    -0.744 OA
ENDBRANCH  72  73
ENDBRANCH  44  67
BRANCH  56  77
ATOM     77  C   UNL A   1      47.771  26.674  30.817  1.00  0.00    -0.014 A 
ATOM     78  C   UNL A   1      48.873  26.925  29.981  1.00  0.00     0.010 A 
ATOM     79  C   UNL A   1      47.979  26.023  32.048  1.00  0.00     0.010 A 
ATOM     80  C   UNL A   1      50.152  26.507  30.356  1.00  0.00     0.020 A 
ATOM     81  C   UNL A   1      49.261  25.637  32.443  1.00  0.00     0.020 A 
ATOM     82  C   UNL A   1      50.338  25.871  31.588  1.00  0.00     0.054 A 
BRANCH  82  83
ATOM     83  S   UNL A   1      52.017  25.393  32.075  1.00  0.00     0.124 S 
ATOM     84  O   UNL A   1      52.240  26.223  33.256  1.00  0.00    -0.237 OA
ATOM     85  O   UNL A   1      51.878  23.961  32.331  1.00  0.00    -0.237 OA
ATOM     86  O   UNL A   1      52.830  25.737  30.911  1.00  0.00    -0.744 OA
ENDBRANCH  82  83
ENDBRANCH  56  77
ENDBRANCH  30  31
ENDBRANCH  22  25
ENDBRANCH  20  21
ENDBRANCH  19  20
ENDBRANCH   1  19
TORSDOF 18
ENDMDL
MODEL 2
REMARK VINA RESULT:      -8.7      1.248      2.156
REMARK SMILES N#Cc1cccc(NCCCC(=O)NCCCNC(=O)c2ccc(-c3c4nc(c(-c5ccc(S(=O)(=O)[O-])cc5)c5ccc([nH]5)c(-c5ccc(S(=O)(=O)[O-])cc5)c5nc(c(-c6ccc(S(=O)(=O)[O-])cc6)c6ccc3[nH]6)C=C5)C=C4)cc2)c1
REMARK SMILES IDX 15 1 14 2 12 3 13 4 11 6 10 7 9 8 8 9 7 11 3 12 4 13 81 14
REMARK SMILES IDX 5 15 6 16 2 17 1 18 16 19 17 20 18 21 19 22 20 24 21 25
REMARK SMILES IDX 22 26 80 27 23 28 79 29 24 30 25 31 26 32 73 33 27 34 78 35
REMARK SMILES IDX 72 36 74 37 28 38 77 39 71 40 70 41 29 43 59 44 40 45 58 46
REMARK SMILES IDX 41 47 44 48 57 49 75 50 42 51 43 52 56 54 76 55 45 56 30 57
REMARK SMILES IDX 31 58 39 59 32 60 38 61 33 62 34 63 35 64 36 65 37 66 60 67
REMARK SMILES IDX 61 68 69 69 62 70 68 71 63 72 64 73 65 74 66 75 67 76 46 77
REMARK SMILES IDX 47 78 55 79 48 80 54 81 49 82 50 83 51 84 52 85 53 86
REMARK H PARENT 14 5 8 10 18 23 74 42 44 53
REMARK Flexibility Score: inf
ROOT
ATOM      1  C   UNL A   1      32.918  34.542  28.511  1.00  0.00     0.117 C 
ENDROOT
BRANCH   1   2
ATOM      2  N   UNL A   1      33.025  35.918  28.960  1.00  0.00    -0.356 N 
ATOM      3  C   UNL A   1      33.021  36.428  30.219  1.00  0.00     0.220 C 
ATOM      4  O   UNL A   1      33.042  37.653  30.356  1.00  0.00    -0.275 OA
ATOM      5  H   UNL A   1      33.114  36.584  28.241  1.00  0.00     0.163 HD
BRANCH   3   6
ATOM      6  C   UNL A   1      33.039  35.513  31.424  1.00  0.00     0.102 C 
BRANCH   6   7
ATOM      7  C   UNL A   1      33.651  36.117  32.689  1.00  0.00     0.031 C 
BRANCH   7   8
ATOM      8  C   UNL A   1      34.706  35.297  33.438  1.00  0.00     0.113 C 
BRANCH   8   9
ATOM      9  N   UNL A   1      35.100  34.112  32.698  1.00  0.00    -0.385 N 
ATOM     10  H   UNL A   1      34.461  33.753  32.041  1.00  0.00     0.160 HD
BRANCH   9  11
ATOM     11  C   UNL A   1      36.303  33.447  32.846  1.00  0.00     0.035 A 
ATOM     12  C   UNL A   1      37.468  31.301  33.012  1.00  0.00     0.054 A 
ATOM     13  C   UNL A   1      38.699  31.955  33.005  1.00  0.00     0.019 A 
ATOM     14  C   UNL A   1      36.284  32.048  32.947  1.00  0.00     0.045 A 
ATOM     15  C   UNL A   1      38.736  33.348  32.961  1.00  0.00     0.003 A 
ATOM     16  C   UNL A   1      37.547  34.084  32.895  1.00  0.00     0.026 A 
BRANCH  12  17
ATOM     17  C   UNL A   1      37.405  29.871  33.056  1.00  0.00     0.099 C 
ATOM     18  N   UNL A   1      37.380  28.709  33.088  1.00  0.00    -0.192 NA
ENDBRANCH  12  17
ENDBRANCH   9  11
ENDBRANCH   8   9
ENDBRANCH   7   8
ENDBRANCH   6   7
ENDBRANCH   3   6
ENDBRANCH   1   2
BRANCH   1  19
ATOM     19  C   UNL A   1      34.166  34.118  27.749  1.00  0.00     0.042 C 
BRANCH  19  20
ATOM     20  C   UNL A   1      34.809  32.859  28.299  1.00  0.00     0.118 C 
BRANCH  20  21
ATOM     21  N   UNL A   1      34.074  31.660  27.935  1.00  0.00    -0.352 N 
ATOM     22  C   UNL A   1      34.541  30.389  27.701  1.00  0.00     0.251 C 
ATOM     23  H   UNL A   1      33.101  31.775  27.840  1.00  0.00     0.163 HD
ATOM     24  O   UNL A   1      33.800  29.558  27.184  1.00  0.00    -0.269 OA
BRANCH  22  25
ATOM     25  C   UNL A   1      35.934  30.032  28.053  1.00  0.00     0.039 A 
ATOM     26  C   UNL A   1      36.201  29.504  29.319  1.00  0.00     0.014 A 
ATOM     27  C   UNL A   1      36.978  30.226  27.145  1.00  0.00     0.014 A 
ATOM     28  C   UNL A   1      37.504  29.123  29.648  1.00  0.00     0.010 A 
ATOM     29  C   UNL A   1      38.250  29.744  27.433  1.00  0.00     0.010 A 
ATOM     30  C   UNL A   1      38.533  29.208  28.696  1.00  0.00    -0.014 A 
BRANCH  30  31
ATOM     31  C   UNL A   1      39.924  28.788  29.011  1.00  0.00     0.031 A 
ATOM     32  C   UNL A   1      40.867  29.764  29.666  1.00  0.00     0.074 A 
ATOM     33  C   UNL A   1      40.352  27.555  28.670  1.00  0.00     0.049 A 
ATOM     34  N   UNL A   1      42.138  29.624  29.943  1.00  0.00    -0.248 NA
ATOM     35  C   UNL A   1      40.318  31.082  30.038  1.00  0.00     0.031 C 
ATOM     36  C   UNL A   1      39.542  26.525  28.013  1.00  0.00     0.029 A 
ATOM     37  N   UNL A   1      41.577  26.956  28.829  1.00  0.00    -0.354 N 
ATOM     38  C   UNL A   1      42.536  30.827  30.516  1.00  0.00     0.074 A 
ATOM     39  C   UNL A   1      41.395  31.713  30.480  1.00  0.00     0.031 C 
ATOM     40  C   UNL A   1      40.282  25.416  27.855  1.00  0.00     0.029 A 
ATOM     41  C   UNL A   1      41.633  25.669  28.346  1.00  0.00     0.049 A 
ATOM     42  H   UNL A   1      42.346  27.407  29.250  1.00  0.00     0.167 HD
ATOM     43  C   UNL A   1      43.731  31.154  31.059  1.00  0.00     0.031 A 
ATOM     44  C   UNL A   1      42.660  24.798  28.290  1.00  0.00     0.031 A 
ATOM     45  C   UNL A   1      44.863  30.269  31.102  1.00  0.00     0.049 A 
ATOM     46  C   UNL A   1      44.001  25.217  28.837  1.00  0.00     0.074 A 
ATOM     47  C   UNL A   1      46.114  30.500  31.646  1.00  0.00     0.029 A 
ATOM     48  N   UNL A   1      44.879  28.981  30.591  1.00  0.00    -0.354 N 
ATOM     49  N   UNL A   1      44.341  26.345  29.414  1.00  0.00    -0.248 NA
ATOM     50  C   UNL A   1      45.095  24.240  28.736  1.00  0.00     0.031 C 
ATOM     51  C   UNL A   1      46.906  29.373  31.411  1.00  0.00     0.029 A 
ATOM     52  C   UNL A   1      46.124  28.412  30.792  1.00  0.00     0.049 A 
ATOM     53  H   UNL A   1      44.119  28.536  30.151  1.00  0.00     0.167 HD
ATOM     54  C   UNL A   1      45.673  26.191  29.790  1.00  0.00     0.074 A 
ATOM     55  C   UNL A   1      46.070  24.859  29.387  1.00  0.00     0.031 C 
ATOM     56  C   UNL A   1      46.494  27.072  30.411  1.00  0.00     0.031 A 
BRANCH  43  57
ATOM     57  C   UNL A   1      43.875  32.522  31.674  1.00  0.00    -0.014 A 
ATOM     58  C   UNL A   1      43.672  32.714  33.053  1.00  0.00     0.010 A 
ATOM     59  C   UNL A   1      44.297  33.609  30.887  1.00  0.00     0.010 A 
ATOM     60  C   UNL A   1      43.870  33.971  33.629  1.00  0.00     0.020 A 
ATOM     61  C   UNL A   1      44.529  34.860  31.466  1.00  0.00     0.020 A 
ATOM     62  C   UNL A   1      44.307  35.033  32.834  1.00  0.00     0.054 A 
BRANCH  62  63
ATOM     63  S   UNL A   1      44.624  36.633  33.629  1.00  0.00     0.124 S 
ATOM     64  O   UNL A   1      43.330  37.297  33.497  1.00  0.00    -0.237 OA
ATOM     65  O   UNL A   1      44.994  36.242  34.987  1.00  0.00    -0.237 OA
ATOM     66  O   UNL A   1      45.703  37.210  32.832  1.00  0.00    -0.744 OA
ENDBRANCH  62  63
ENDBRANCH  43  57
BRANCH  44  67
ATOM     67  C   UNL A   1      42.485  23.447  27.683  1.00  0.00    -0.014 A 
ATOM     68  C   UNL A   1      42.025  22.365  28.455  1.00  0.00     0.010 A 
ATOM     69  C   UNL A   1      42.836  23.220  26.339  1.00  0.00     0.010 A 
ATOM     70  C   UNL A   1      41.982  21.074  27.917  1.00  0.00     0.020 A 
ATOM     71  C   UNL A   1      42.754  21.940  25.784  1.00  0.00     0.020 A 
ATOM     72  C   UNL A   1      42.352  20.870  26.585  1.00  0.00     0.054 A 
BRANCH  72  73
ATOM     73  S   UNL A   1      42.307  19.186  25.912  1.00  0.00     0.124 S 
ATOM     74  O   UNL A   1      42.876  18.407  27.006  1.00  0.00    -0.237 OA
ATOM     75  O   UNL A   1      40.882  18.986  25.664  1.00  0.00    -0.237 OA
ATOM     76  O   UNL A   1      43.134  19.278  24.711  1.00  0.00    -0.744 OA
ENDBRANCH  72  73
ENDBRANCH  44  67
BRANCH  56  77
ATOM     77  C   UNL A   1      47.882  26.606  30.769  1.00  0.00    -0.014 A 
ATOM     78  C   UNL A   1      48.971  26.790  29.900  1.00  0.00     0.010 A 
ATOM     79  C   UNL A   1      48.106  26.031  32.035  1.00  0.00     0.010 A 
ATOM     80  C   UNL A   1      50.252  26.381  30.278  1.00  0.00     0.020 A 
ATOM     81  C   UNL A   1      49.390  25.655  32.430  1.00  0.00     0.020 A 
ATOM     82  C   UNL A   1      50.454  25.821  31.543  1.00  0.00     0.054 A 
BRANCH  82  83
ATOM     83  S   UNL A   1      52.136  25.355  32.030  1.00  0.00     0.124 S 
ATOM     84  O   UNL A   1      52.330  26.138  33.248  1.00  0.00    -0.237 OA
ATOM     85  O   UNL A   1      52.022  23.911  32.222  1.00  0.00    -0.237 OA
ATOM     86  O   UNL A   1      52.955  25.764  30.891  1.00  0.00    -0.744 OA
ENDBRANCH  82  83
ENDBRANCH  56  77
ENDBRANCH  30  31
ENDBRANCH  22  25
ENDBRANCH  20  21
ENDBRANCH  19  20
ENDBRANCH   1  19
TORSDOF 18
ENDMDL
MODEL 3
REMARK VINA RESULT:      -8.5      2.953      5.570
REMARK SMILES N#Cc1cccc(NCCCC(=O)NCCCNC(=O)c2ccc(-c3c4nc(c(-c5ccc(S(=O)(=O)[O-])cc5)c5ccc([nH]5)c(-c5ccc(S(=O)(=O)[O-])cc5)c5nc(c(-c6ccc(S(=O)(=O)[O-])cc6)c6ccc3[nH]6)C=C5)C=C4)cc2)c1
REMARK SMILES IDX 15 1 14 2 12 3 13 4 11 6 10 7 9 8 8 9 7 11 3 12 4 13 81 14
REMARK SMILES IDX 5 15 6 16 2 17 1 18 16 19 17 20 18 21 19 22 20 24 21 25
REMARK SMILES IDX 22 26 80 27 23 28 79 29 24 30 25 31 26 32 73 33 27 34 78 35
REMARK SMILES IDX 72 36 74 37 28 38 77 39 71 40 70 41 29 43 59 44 40 45 58 46
REMARK SMILES IDX 41 47 44 48 57 49 75 50 42 51 43 52 56 54 76 55 45 56 30 57
REMARK SMILES IDX 31 58 39 59 32 60 38 61 33 62 34 63 35 64 36 65 37 66 60 67
REMARK SMILES IDX 61 68 69 69 62 70 68 71 63 72 64 73 65 74 66 75 67 76 46 77
REMARK SMILES IDX 47 78 55 79 48 80 54 81 49 82 50 83 51 84 52 85 53 86
REMARK H PARENT 14 5 8 10 18 23 74 42 44 53
REMARK Flexibility Score: inf
ROOT
ATOM      1  C   UNL A   1      32.961  28.769  24.930  1.00  0.00     0.117 C 
ENDROOT
BRANCH   1   2
ATOM      2  N   UNL A   1      33.675  28.816  23.668  1.00  0.00    -0.356 N 
ATOM      3  C   UNL A   1      33.469  28.114  22.522  1.00  0.00     0.220 C 
ATOM      4  O   UNL A   1      34.264  28.264  21.592  1.00  0.00    -0.275 OA
ATOM      5  H   UNL A   1      34.424  29.453  23.637  1.00  0.00     0.163 HD
BRANCH   3   6
ATOM      6  C   UNL A   1      32.266  27.208  22.376  1.00  0.00     0.102 C 
BRANCH   6   7
ATOM      7  C   UNL A   1      32.564  25.711  22.483  1.00  0.00     0.031 C 
BRANCH   7   8
ATOM      8  C   UNL A   1      33.942  25.290  23.002  1.00  0.00     0.113 C 
BRANCH   8   9
ATOM      9  N   UNL A   1      33.851  24.544  24.244  1.00  0.00    -0.385 N 
ATOM     10  H   UNL A   1      33.327  24.942  24.976  1.00  0.00     0.160 HD
BRANCH   9  11
ATOM     11  C   UNL A   1      34.445  23.318  24.479  1.00  0.00     0.035 A 
ATOM     12  C   UNL A   1      36.429  22.095  25.227  1.00  0.00     0.054 A 
ATOM     13  C   UNL A   1      35.736  20.890  25.134  1.00  0.00     0.019 A 
ATOM     14  C   UNL A   1      35.787  23.294  24.887  1.00  0.00     0.045 A 
ATOM     15  C   UNL A   1      34.420  20.889  24.676  1.00  0.00     0.003 A 
ATOM     16  C   UNL A   1      33.787  22.092  24.342  1.00  0.00     0.026 A 
BRANCH  12  17
ATOM     17  C   UNL A   1      37.783  22.123  25.695  1.00  0.00     0.099 C 
ATOM     18  N   UNL A   1      38.872  22.138  26.100  1.00  0.00    -0.192 NA
ENDBRANCH  12  17
ENDBRANCH   9  11
ENDBRANCH   8   9
ENDBRANCH   7   8
ENDBRANCH   6   7
ENDBRANCH   3   6
ENDBRANCH   1   2
BRANCH   1  19
ATOM     19  C   UNL A   1      33.689  27.889  25.937  1.00  0.00     0.042 C 
BRANCH  19  20
ATOM     20  C   UNL A   1      33.493  28.331  27.375  1.00  0.00     0.118 C 
BRANCH  20  21
ATOM     21  N   UNL A   1      33.463  29.778  27.508  1.00  0.00    -0.352 N 
ATOM     22  C   UNL A   1      34.415  30.627  28.018  1.00  0.00     0.251 C 
ATOM     23  H   UNL A   1      32.639  30.213  27.187  1.00  0.00     0.163 HD
ATOM     24  O   UNL A   1      34.120  31.794  28.256  1.00  0.00    -0.269 OA
BRANCH  22  25
ATOM     25  C   UNL A   1      35.782  30.129  28.297  1.00  0.00     0.039 A 
ATOM     26  C   UNL A   1      36.734  30.151  27.275  1.00  0.00     0.014 A 
ATOM     27  C   UNL A   1      36.124  29.632  29.557  1.00  0.00     0.014 A 
ATOM     28  C   UNL A   1      38.039  29.725  27.536  1.00  0.00     0.010 A 
ATOM     29  C   UNL A   1      37.446  29.315  29.845  1.00  0.00     0.010 A 
ATOM     30  C   UNL A   1      38.415  29.336  28.832  1.00  0.00    -0.014 A 
BRANCH  30  31
ATOM     31  C   UNL A   1      39.801  28.900  29.145  1.00  0.00     0.031 A 
ATOM     32  C   UNL A   1      40.752  29.862  29.810  1.00  0.00     0.074 A 
ATOM     33  C   UNL A   1      40.218  27.666  28.794  1.00  0.00     0.049 A 
ATOM     34  N   UNL A   1      42.021  29.707  30.087  1.00  0.00    -0.248 NA
ATOM     35  C   UNL A   1      40.215  31.181  30.193  1.00  0.00     0.031 C 
ATOM     36  C   UNL A   1      39.399  26.650  28.127  1.00  0.00     0.029 A 
ATOM     37  N   UNL A   1      41.437  27.055  28.949  1.00  0.00    -0.354 N 
ATOM     38  C   UNL A   1      42.429  30.901  30.672  1.00  0.00     0.074 A 
ATOM     39  C   UNL A   1      41.297  31.798  30.642  1.00  0.00     0.031 C 
ATOM     40  C   UNL A   1      40.129  25.535  27.960  1.00  0.00     0.029 A 
ATOM     41  C   UNL A   1      41.482  25.771  28.455  1.00  0.00     0.049 A 
ATOM     42  H   UNL A   1      42.209  27.494  29.375  1.00  0.00     0.167 HD
ATOM     43  C   UNL A   1      43.627  31.212  31.219  1.00  0.00     0.031 A 
ATOM     44  C   UNL A   1      42.500  24.891  28.393  1.00  0.00     0.031 A 
ATOM     45  C   UNL A   1      44.750  30.316  31.256  1.00  0.00     0.049 A 
ATOM     46  C   UNL A   1      43.845  25.293  28.945  1.00  0.00     0.074 A 
ATOM     47  C   UNL A   1      46.003  30.530  31.804  1.00  0.00     0.029 A 
ATOM     48  N   UNL A   1      44.755  29.032  30.734  1.00  0.00    -0.354 N 
ATOM     49  N   UNL A   1      44.194  26.413  29.534  1.00  0.00    -0.248 NA
ATOM     50  C   UNL A   1      44.929  24.307  28.838  1.00  0.00     0.031 C 
ATOM     51  C   UNL A   1      46.784  29.399  31.560  1.00  0.00     0.029 A 
ATOM     52  C   UNL A   1      45.995  28.450  30.932  1.00  0.00     0.049 A 
ATOM     53  H   UNL A   1      43.992  28.599  30.289  1.00  0.00     0.167 HD
ATOM     54  C   UNL A   1      45.524  26.243  29.910  1.00  0.00     0.074 A 
ATOM     55  C   UNL A   1      45.909  24.911  29.496  1.00  0.00     0.031 C 
ATOM     56  C   UNL A   1      46.352  27.110  30.540  1.00  0.00     0.031 A 
BRANCH  43  57
ATOM     57  C   UNL A   1      43.782  32.574  31.847  1.00  0.00    -0.014 A 
ATOM     58  C   UNL A   1      43.509  32.770  33.213  1.00  0.00     0.010 A 
ATOM     59  C   UNL A   1      44.286  33.647  31.089  1.00  0.00     0.010 A 
ATOM     60  C   UNL A   1      43.717  34.018  33.804  1.00  0.00     0.020 A 
ATOM     61  C   UNL A   1      44.528  34.887  31.685  1.00  0.00     0.020 A 
ATOM     62  C   UNL A   1      44.235  35.066  33.039  1.00  0.00     0.054 A 
BRANCH  62  63
ATOM     63  S   UNL A   1      44.561  36.652  33.856  1.00  0.00     0.124 S 
ATOM     64  O   UNL A   1      45.614  36.293  34.803  1.00  0.00    -0.237 OA
ATOM     65  O   UNL A   1      44.980  37.500  32.743  1.00  0.00    -0.237 OA
ATOM     66  O   UNL A   1      43.277  37.004  34.458  1.00  0.00    -0.744 OA
ENDBRANCH  62  63
ENDBRANCH  43  57
BRANCH  44  67
ATOM     67  C   UNL A   1      42.313  23.547  27.773  1.00  0.00    -0.014 A 
ATOM     68  C   UNL A   1      41.871  22.455  28.542  1.00  0.00     0.010 A 
ATOM     69  C   UNL A   1      42.637  23.336  26.420  1.00  0.00     0.010 A 
ATOM     70  C   UNL A   1      41.818  21.172  27.990  1.00  0.00     0.020 A 
ATOM     71  C   UNL A   1      42.543  22.063  25.852  1.00  0.00     0.020 A 
ATOM     72  C   UNL A   1      42.160  20.983  26.648  1.00  0.00     0.054 A 
BRANCH  72  73
ATOM     73  S   UNL A   1      42.101  19.308  25.957  1.00  0.00     0.124 S 
ATOM     74  O   UNL A   1      42.637  18.508  27.053  1.00  0.00    -0.237 OA
ATOM     75  O   UNL A   1      40.678  19.133  25.678  1.00  0.00    -0.237 OA
ATOM     76  O   UNL A   1      42.954  19.399  24.773  1.00  0.00    -0.744 OA
ENDBRANCH  72  73
ENDBRANCH  44  67
BRANCH  56  77
ATOM     77  C   UNL A   1      47.735  26.627  30.896  1.00  0.00    -0.014 A 
ATOM     78  C   UNL A   1      48.823  26.793  30.021  1.00  0.00     0.010 A 
ATOM     79  C   UNL A   1      47.956  26.057  32.164  1.00  0.00     0.010 A 
ATOM     80  C   UNL A   1      50.100  26.368  30.398  1.00  0.00     0.020 A 
ATOM     81  C   UNL A   1      49.237  25.667  32.558  1.00  0.00     0.020 A 
ATOM     82  C   UNL A   1      50.299  25.814  31.666  1.00  0.00     0.054 A 
BRANCH  82  83
ATOM     83  S   UNL A   1      51.977  25.328  32.150  1.00  0.00     0.124 S 
ATOM     84  O   UNL A   1      52.771  25.807  31.021  1.00  0.00    -0.237 OA
ATOM     85  O   UNL A   1      52.168  26.053  33.405  1.00  0.00    -0.237 OA
ATOM     86  O   UNL A   1      51.896  23.875  32.281  1.00  0.00    -0.744 OA
ENDBRANCH  82  83
ENDBRANCH  56  77
ENDBRANCH  30  31
ENDBRANCH  22  25
ENDBRANCH  20  21
ENDBRANCH  19  20
ENDBRANCH   1  19
TORSDOF 18
ENDMDL
