MODEL 1
REMARK VINA RESULT:     -11.3      0.000      0.000
REMARK SMILES CCC[C@H](Cc1ccn(-c2ccccc2)n1)C(=O)NCCCNC(=O)c1ccc(-c2c3nc(c(-c4ccc(S(=O)(=O)[O-])cc4)c4ccc([nH]4)c(-c4ccc(S(=O)(=O)[O-])cc4)c4nc(c(-c5ccc(S(=O)(=O)[O-])cc5)c5ccc2[nH]5)C=C4)C=C3)cc1
REMARK SMILES IDX 21 1 20 2 19 3 17 4 18 5 4 7 3 8 2 9 1 10 5 11 6 12 7 13
REMARK SMILES IDX 16 14 8 15 9 16 10 17 11 18 15 19 12 20 14 21 13 22 22 23
REMARK SMILES IDX 23 24 24 25 25 27 26 28 27 29 85 30 28 31 84 32 29 33 30 34
REMARK SMILES IDX 31 35 78 36 32 37 83 38 77 39 79 40 33 41 82 42 76 43 75 44
REMARK SMILES IDX 34 46 64 47 45 48 63 49 46 50 49 51 62 52 80 53 47 54 48 55
REMARK SMILES IDX 61 57 81 58 50 59 35 60 36 61 44 62 37 63 43 64 38 65 39 66
REMARK SMILES IDX 40 67 41 68 42 69 65 70 66 71 74 72 67 73 73 74 68 75 69 76
REMARK SMILES IDX 70 77 71 78 72 79 51 80 52 81 60 82 53 83 59 84 54 85 55 86
REMARK SMILES IDX 56 87 57 88 58 89
REMARK H PARENT 19 6 23 26 79 45 49 56
REMARK Flexibility Score: inf
ROOT
ATOM      1  C   UNL A   1      37.413  21.049  24.986  1.00  0.00     0.042 C 
ENDROOT
BRANCH   1   2
ATOM      2  C   UNL A   1      36.435  22.095  25.513  1.00  0.00     0.117 C 
BRANCH   2   3
ATOM      3  N   UNL A   1      35.516  22.525  24.474  1.00  0.00    -0.356 N 
ATOM      4  C   UNL A   1      34.266  22.111  24.155  1.00  0.00     0.223 C 
ATOM      5  O   UNL A   1      33.775  22.587  23.125  1.00  0.00    -0.275 OA
ATOM      6  H   UNL A   1      35.862  23.246  23.901  1.00  0.00     0.163 HD
BRANCH   4   7
ATOM      7  C   UNL A   1      33.451  21.121  24.982  1.00  0.00     0.084 C 
BRANCH   7   8
ATOM      8  C   UNL A   1      32.561  20.169  24.168  1.00  0.00     0.013 C 
BRANCH   8   9
ATOM      9  C   UNL A   1      33.120  18.742  24.071  1.00  0.00    -0.003 C 
ATOM     10  C   UNL A   1      32.560  17.806  25.133  1.00  0.00     0.004 C 
ENDBRANCH   8   9
ENDBRANCH   7   8
BRANCH   7  11
ATOM     11  C   UNL A   1      32.834  21.715  26.253  1.00  0.00     0.071 C 
BRANCH  11  12
ATOM     12  C   UNL A   1      32.247  23.089  26.264  1.00  0.00     0.064 A 
ATOM     13  C   UNL A   1      30.871  23.385  26.093  1.00  0.00     0.046 A 
ATOM     14  N   UNL A   1      32.983  24.207  26.368  1.00  0.00    -0.173 NA
ATOM     15  C   UNL A   1      30.805  24.753  26.054  1.00  0.00     0.115 A 
ATOM     16  N   UNL A   1      32.090  25.215  26.209  1.00  0.00    -0.241 N 
BRANCH  16  17
ATOM     17  C   UNL A   1      32.424  26.576  26.336  1.00  0.00     0.065 A 
ATOM     18  C   UNL A   1      33.725  27.004  26.055  1.00  0.00     0.028 A 
ATOM     19  C   UNL A   1      31.504  27.432  26.950  1.00  0.00     0.028 A 
ATOM     20  C   UNL A   1      34.121  28.281  26.457  1.00  0.00     0.002 A 
ATOM     21  C   UNL A   1      31.893  28.724  27.297  1.00  0.00     0.002 A 
ATOM     22  C   UNL A   1      33.207  29.138  27.075  1.00  0.00     0.000 A 
ENDBRANCH  16  17
ENDBRANCH  11  12
ENDBRANCH   7  11
ENDBRANCH   4   7
ENDBRANCH   2   3
ENDBRANCH   1   2
BRANCH   1  23
ATOM     23  C   UNL A   1      38.746  21.115  25.682  1.00  0.00     0.118 C 
BRANCH  23  24
ATOM     24  N   UNL A   1      39.484  19.844  25.675  1.00  0.00    -0.352 N 
ATOM     25  C   UNL A   1      40.835  19.654  25.945  1.00  0.00     0.251 C 
ATOM     26  H   UNL A   1      38.964  19.038  25.453  1.00  0.00     0.163 HD
ATOM     27  O   UNL A   1      41.389  18.594  25.672  1.00  0.00    -0.269 OA
BRANCH  25  28
ATOM     28  C   UNL A   1      41.584  20.784  26.534  1.00  0.00     0.039 A 
ATOM     29  C   UNL A   1      42.177  21.782  25.761  1.00  0.00     0.014 A 
ATOM     30  C   UNL A   1      41.496  20.929  27.906  1.00  0.00     0.014 A 
ATOM     31  C   UNL A   1      42.532  22.984  26.383  1.00  0.00     0.010 A 
ATOM     32  C   UNL A   1      41.541  22.191  28.426  1.00  0.00     0.010 A 
ATOM     33  C   UNL A   1      42.151  23.213  27.718  1.00  0.00    -0.014 A 
BRANCH  33  34
ATOM     34  C   UNL A   1      42.311  24.510  28.378  1.00  0.00     0.031 A 
ATOM     35  C   UNL A   1      41.260  25.519  28.095  1.00  0.00     0.074 A 
ATOM     36  C   UNL A   1      43.228  24.780  29.337  1.00  0.00     0.049 A 
ATOM     37  N   UNL A   1      41.331  26.499  27.257  1.00  0.00    -0.248 NA
ATOM     38  C   UNL A   1      39.936  25.356  28.713  1.00  0.00     0.031 C 
ATOM     39  C   UNL A   1      44.180  23.875  29.999  1.00  0.00     0.029 A 
ATOM     40  N   UNL A   1      43.429  25.947  30.008  1.00  0.00    -0.354 N 
ATOM     41  C   UNL A   1      40.164  27.232  27.432  1.00  0.00     0.074 A 
ATOM     42  C   UNL A   1      39.264  26.371  28.163  1.00  0.00     0.031 C 
ATOM     43  C   UNL A   1      44.648  24.444  31.129  1.00  0.00     0.029 A 
ATOM     44  C   UNL A   1      44.227  25.827  31.137  1.00  0.00     0.049 A 
ATOM     45  H   UNL A   1      43.039  26.804  29.719  1.00  0.00     0.167 HD
ATOM     46  C   UNL A   1      40.129  28.577  27.212  1.00  0.00     0.031 A 
ATOM     47  C   UNL A   1      44.567  26.802  32.011  1.00  0.00     0.031 A 
ATOM     48  C   UNL A   1      41.332  29.045  26.563  1.00  0.00     0.049 A 
ATOM     49  C   UNL A   1      44.423  28.087  31.292  1.00  0.00     0.074 A 
ATOM     50  C   UNL A   1      42.007  28.727  25.401  1.00  0.00     0.029 A 
ATOM     51  N   UNL A   1      42.240  29.715  27.351  1.00  0.00    -0.354 N 
ATOM     52  N   UNL A   1      45.178  28.432  30.286  1.00  0.00    -0.248 NA
ATOM     53  C   UNL A   1      43.178  28.826  31.416  1.00  0.00     0.031 C 
ATOM     54  C   UNL A   1      43.392  28.788  25.749  1.00  0.00     0.029 A 
ATOM     55  C   UNL A   1      43.486  29.212  27.077  1.00  0.00     0.049 A 
ATOM     56  H   UNL A   1      42.032  30.430  27.997  1.00  0.00     0.167 HD
ATOM     57  C   UNL A   1      44.327  29.093  29.415  1.00  0.00     0.074 A 
ATOM     58  C   UNL A   1      43.154  29.422  30.221  1.00  0.00     0.031 C 
ATOM     59  C   UNL A   1      44.538  29.065  28.064  1.00  0.00     0.031 A 
BRANCH  46  60
ATOM     60  C   UNL A   1      39.217  29.529  27.953  1.00  0.00    -0.014 A 
ATOM     61  C   UNL A   1      39.623  30.022  29.211  1.00  0.00     0.010 A 
ATOM     62  C   UNL A   1      37.870  29.738  27.591  1.00  0.00     0.010 A 
ATOM     63  C   UNL A   1      38.709  30.622  30.088  1.00  0.00     0.020 A 
ATOM     64  C   UNL A   1      36.963  30.380  28.436  1.00  0.00     0.020 A 
ATOM     65  C   UNL A   1      37.379  30.783  29.696  1.00  0.00     0.054 A 
BRANCH  65  66
ATOM     66  S   UNL A   1      36.179  31.454  30.873  1.00  0.00     0.124 S 
ATOM     67  O   UNL A   1      35.070  31.811  29.993  1.00  0.00    -0.237 OA
ATOM     68  O   UNL A   1      35.946  30.318  31.760  1.00  0.00    -0.237 OA
ATOM     69  O   UNL A   1      36.889  32.576  31.480  1.00  0.00    -0.744 OA
ENDBRANCH  65  66
ENDBRANCH  46  60
BRANCH  47  70
ATOM     70  C   UNL A   1      44.801  26.700  33.465  1.00  0.00    -0.014 A 
ATOM     71  C   UNL A   1      44.668  27.832  34.286  1.00  0.00     0.010 A 
ATOM     72  C   UNL A   1      44.857  25.434  34.085  1.00  0.00     0.010 A 
ATOM     73  C   UNL A   1      44.492  27.699  35.671  1.00  0.00     0.020 A 
ATOM     74  C   UNL A   1      44.692  25.294  35.468  1.00  0.00     0.020 A 
ATOM     75  C   UNL A   1      44.472  26.427  36.248  1.00  0.00     0.054 A 
BRANCH  75  76
ATOM     76  S   UNL A   1      44.004  26.255  37.995  1.00  0.00     0.124 S 
ATOM     77  O   UNL A   1      44.667  27.401  38.609  1.00  0.00    -0.237 OA
ATOM     78  O   UNL A   1      42.545  26.324  37.939  1.00  0.00    -0.237 OA
ATOM     79  O   UNL A   1      44.543  24.949  38.369  1.00  0.00    -0.744 OA
ENDBRANCH  75  76
ENDBRANCH  47  70
BRANCH  59  80
ATOM     80  C   UNL A   1      45.898  28.625  27.558  1.00  0.00    -0.014 A 
ATOM     81  C   UNL A   1      46.950  29.508  27.243  1.00  0.00     0.010 A 
ATOM     82  C   UNL A   1      46.148  27.243  27.485  1.00  0.00     0.010 A 
ATOM     83  C   UNL A   1      48.197  29.021  26.817  1.00  0.00     0.020 A 
ATOM     84  C   UNL A   1      47.392  26.750  27.083  1.00  0.00     0.020 A 
ATOM     85  C   UNL A   1      48.406  27.642  26.732  1.00  0.00     0.054 A 
BRANCH  85  86
ATOM     86  S   UNL A   1      50.018  27.015  26.180  1.00  0.00     0.124 S 
ATOM     87  O   UNL A   1      49.898  25.578  26.414  1.00  0.00    -0.237 OA
ATOM     88  O   UNL A   1      50.064  27.423  24.778  1.00  0.00    -0.237 OA
ATOM     89  O   UNL A   1      50.975  27.703  27.047  1.00  0.00    -0.744 OA
ENDBRANCH  85  86
ENDBRANCH  59  80
ENDBRANCH  33  34
ENDBRANCH  25  28
ENDBRANCH  23  24
ENDBRANCH   1  23
TORSDOF 18
ENDMDL
MODEL 2
REMARK VINA RESULT:     -11.3      3.792      8.538
REMARK SMILES CCC[C@H](Cc1ccn(-c2ccccc2)n1)C(=O)NCCCNC(=O)c1ccc(-c2c3nc(c(-c4ccc(S(=O)(=O)[O-])cc4)c4ccc([nH]4)c(-c4ccc(S(=O)(=O)[O-])cc4)c4nc(c(-c5ccc(S(=O)(=O)[O-])cc5)c5ccc2[nH]5)C=C4)C=C3)cc1
REMARK SMILES IDX 21 1 20 2 19 3 17 4 18 5 4 7 3 8 2 9 1 10 5 11 6 12 7 13
REMARK SMILES IDX 16 14 8 15 9 16 10 17 11 18 15 19 12 20 14 21 13 22 22 23
REMARK SMILES IDX 23 24 24 25 25 27 26 28 27 29 85 30 28 31 84 32 29 33 30 34
REMARK SMILES IDX 31 35 78 36 32 37 83 38 77 39 79 40 33 41 82 42 76 43 75 44
REMARK SMILES IDX 34 46 64 47 45 48 63 49 46 50 49 51 62 52 80 53 47 54 48 55
REMARK SMILES IDX 61 57 81 58 50 59 35 60 36 61 44 62 37 63 43 64 38 65 39 66
REMARK SMILES IDX 40 67 41 68 42 69 65 70 66 71 74 72 67 73 73 74 68 75 69 76
REMARK SMILES IDX 70 77 71 78 72 79 51 80 52 81 60 82 53 83 59 84 54 85 55 86
REMARK SMILES IDX 56 87 57 88 58 89
REMARK H PARENT 19 6 23 26 79 45 49 56
REMARK Flexibility Score: inf
ROOT
ATOM      1  C   UNL A   1      33.680  30.616  27.641  1.00  0.00     0.042 C 
ENDROOT
BRANCH   1   2
ATOM      2  C   UNL A   1      32.711  30.488  26.470  1.00  0.00     0.117 C 
BRANCH   2   3
ATOM      3  N   UNL A   1      33.356  29.887  25.317  1.00  0.00    -0.356 N 
ATOM      4  C   UNL A   1      33.612  28.594  25.005  1.00  0.00     0.223 C 
ATOM      5  O   UNL A   1      34.298  28.396  23.995  1.00  0.00    -0.275 OA
ATOM      6  H   UNL A   1      33.662  30.535  24.642  1.00  0.00     0.163 HD
BRANCH   4   7
ATOM      7  C   UNL A   1      33.103  27.399  25.806  1.00  0.00     0.084 C 
BRANCH   7   8
ATOM      8  C   UNL A   1      34.035  26.178  25.819  1.00  0.00     0.013 C 
BRANCH   8   9
ATOM      9  C   UNL A   1      33.459  24.961  25.077  1.00  0.00    -0.003 C 
ATOM     10  C   UNL A   1      34.107  24.726  23.720  1.00  0.00     0.004 C 
ENDBRANCH   8   9
ENDBRANCH   7   8
BRANCH   7  11
ATOM     11  C   UNL A   1      31.606  27.115  25.638  1.00  0.00     0.071 C 
BRANCH  11  12
ATOM     12  C   UNL A   1      30.835  27.666  24.484  1.00  0.00     0.064 A 
ATOM     13  C   UNL A   1      30.610  26.989  23.260  1.00  0.00     0.046 A 
ATOM     14  N   UNL A   1      30.326  28.909  24.461  1.00  0.00    -0.173 NA
ATOM     15  C   UNL A   1      29.970  27.900  22.461  1.00  0.00     0.115 A 
ATOM     16  N   UNL A   1      29.826  29.045  23.207  1.00  0.00    -0.241 N 
BRANCH  16  17
ATOM     17  C   UNL A   1      29.113  30.179  22.774  1.00  0.00     0.065 A 
ATOM     18  C   UNL A   1      28.650  30.250  21.456  1.00  0.00     0.028 A 
ATOM     19  C   UNL A   1      29.076  31.300  23.608  1.00  0.00     0.028 A 
ATOM     20  C   UNL A   1      28.208  31.476  20.957  1.00  0.00     0.002 A 
ATOM     21  C   UNL A   1      28.582  32.506  23.117  1.00  0.00     0.002 A 
ATOM     22  C   UNL A   1      28.175  32.600  21.786  1.00  0.00     0.000 A 
ENDBRANCH  16  17
ENDBRANCH  11  12
ENDBRANCH   7  11
ENDBRANCH   4   7
ENDBRANCH   2   3
ENDBRANCH   1   2
BRANCH   1  23
ATOM     23  C   UNL A   1      34.025  32.050  27.940  1.00  0.00     0.118 C 
BRANCH  23  24
ATOM     24  N   UNL A   1      34.060  32.367  29.374  1.00  0.00    -0.352 N 
ATOM     25  C   UNL A   1      35.035  31.999  30.295  1.00  0.00     0.251 C 
ATOM     26  H   UNL A   1      33.307  32.898  29.723  1.00  0.00     0.163 HD
ATOM     27  O   UNL A   1      34.838  32.108  31.500  1.00  0.00    -0.269 OA
BRANCH  25  28
ATOM     28  C   UNL A   1      36.299  31.437  29.770  1.00  0.00     0.039 A 
ATOM     29  C   UNL A   1      37.417  32.223  29.490  1.00  0.00     0.014 A 
ATOM     30  C   UNL A   1      36.400  30.059  29.763  1.00  0.00     0.014 A 
ATOM     31  C   UNL A   1      38.658  31.592  29.361  1.00  0.00     0.010 A 
ATOM     32  C   UNL A   1      37.632  29.501  29.957  1.00  0.00     0.010 A 
ATOM     33  C   UNL A   1      38.775  30.223  29.662  1.00  0.00    -0.014 A 
BRANCH  33  34
ATOM     34  C   UNL A   1      40.065  29.534  29.739  1.00  0.00     0.031 A 
ATOM     35  C   UNL A   1      40.565  29.238  31.106  1.00  0.00     0.074 A 
ATOM     36  C   UNL A   1      40.725  29.009  28.680  1.00  0.00     0.049 A 
ATOM     37  N   UNL A   1      41.447  29.907  31.771  1.00  0.00    -0.248 NA
ATOM     38  C   UNL A   1      39.929  28.158  31.874  1.00  0.00     0.031 C 
ATOM     39  C   UNL A   1      40.303  28.909  27.274  1.00  0.00     0.029 A 
ATOM     40  N   UNL A   1      41.912  28.342  28.670  1.00  0.00    -0.354 N 
ATOM     41  C   UNL A   1      41.671  29.183  32.935  1.00  0.00     0.074 A 
ATOM     42  C   UNL A   1      40.568  28.258  33.042  1.00  0.00     0.031 C 
ATOM     43  C   UNL A   1      41.070  28.009  26.625  1.00  0.00     0.029 A 
ATOM     44  C   UNL A   1      42.176  27.663  27.490  1.00  0.00     0.049 A 
ATOM     45  H   UNL A   1      42.530  28.341  29.437  1.00  0.00     0.167 HD
ATOM     46  C   UNL A   1      42.881  29.204  33.564  1.00  0.00     0.031 A 
ATOM     47  C   UNL A   1      43.252  26.893  27.208  1.00  0.00     0.031 A 
ATOM     48  C   UNL A   1      43.747  30.227  33.024  1.00  0.00     0.049 A 
ATOM     49  C   UNL A   1      44.337  27.329  28.115  1.00  0.00     0.074 A 
ATOM     50  C   UNL A   1      43.656  31.593  32.838  1.00  0.00     0.029 A 
ATOM     51  N   UNL A   1      44.761  29.804  32.194  1.00  0.00    -0.354 N 
ATOM     52  N   UNL A   1      44.895  28.505  28.048  1.00  0.00    -0.248 NA
ATOM     53  C   UNL A   1      44.534  26.618  29.366  1.00  0.00     0.031 C 
ATOM     54  C   UNL A   1      44.275  31.836  31.573  1.00  0.00     0.029 A 
ATOM     55  C   UNL A   1      44.773  30.623  31.093  1.00  0.00     0.049 A 
ATOM     56  H   UNL A   1      45.371  29.049  32.362  1.00  0.00     0.167 HD
ATOM     57  C   UNL A   1      45.121  28.865  29.367  1.00  0.00     0.074 A 
ATOM     58  C   UNL A   1      45.007  27.617  30.117  1.00  0.00     0.031 C 
ATOM     59  C   UNL A   1      45.104  30.178  29.754  1.00  0.00     0.031 A 
BRANCH  46  60
ATOM     60  C   UNL A   1      43.438  28.046  34.361  1.00  0.00    -0.014 A 
ATOM     61  C   UNL A   1      44.510  28.282  35.248  1.00  0.00     0.010 A 
ATOM     62  C   UNL A   1      43.136  26.700  34.070  1.00  0.00     0.010 A 
ATOM     63  C   UNL A   1      45.282  27.228  35.755  1.00  0.00     0.020 A 
ATOM     64  C   UNL A   1      43.866  25.639  34.609  1.00  0.00     0.020 A 
ATOM     65  C   UNL A   1      44.961  25.912  35.417  1.00  0.00     0.054 A 
BRANCH  65  66
ATOM     66  S   UNL A   1      46.028  24.563  35.979  1.00  0.00     0.124 S 
ATOM     67  O   UNL A   1      47.057  24.549  34.944  1.00  0.00    -0.237 OA
ATOM     68  O   UNL A   1      46.455  25.033  37.294  1.00  0.00    -0.237 OA
ATOM     69  O   UNL A   1      45.135  23.408  35.996  1.00  0.00    -0.744 OA
ENDBRANCH  65  66
ENDBRANCH  46  60
BRANCH  47  70
ATOM     70  C   UNL A   1      43.330  25.685  26.362  1.00  0.00    -0.014 A 
ATOM     71  C   UNL A   1      44.385  25.527  25.448  1.00  0.00     0.010 A 
ATOM     72  C   UNL A   1      42.540  24.557  26.666  1.00  0.00     0.010 A 
ATOM     73  C   UNL A   1      44.706  24.261  24.935  1.00  0.00     0.020 A 
ATOM     74  C   UNL A   1      42.848  23.293  26.150  1.00  0.00     0.020 A 
ATOM     75  C   UNL A   1      43.955  23.147  25.316  1.00  0.00     0.054 A 
BRANCH  75  76
ATOM     76  S   UNL A   1      44.527  21.490  24.841  1.00  0.00     0.124 S 
ATOM     77  O   UNL A   1      43.485  20.631  25.395  1.00  0.00    -0.237 OA
ATOM     78  O   UNL A   1      44.567  21.575  23.383  1.00  0.00    -0.237 OA
ATOM     79  O   UNL A   1      45.834  21.378  25.485  1.00  0.00    -0.744 OA
ENDBRANCH  75  76
ENDBRANCH  47  70
BRANCH  59  80
ATOM     80  C   UNL A   1      45.207  31.245  28.682  1.00  0.00    -0.014 A 
ATOM     81  C   UNL A   1      44.098  31.845  28.052  1.00  0.00     0.010 A 
ATOM     82  C   UNL A   1      46.490  31.725  28.365  1.00  0.00     0.010 A 
ATOM     83  C   UNL A   1      44.275  32.857  27.094  1.00  0.00     0.020 A 
ATOM     84  C   UNL A   1      46.673  32.747  27.430  1.00  0.00     0.020 A 
ATOM     85  C   UNL A   1      45.565  33.296  26.783  1.00  0.00     0.054 A 
BRANCH  85  86
ATOM     86  S   UNL A   1      45.790  34.604  25.545  1.00  0.00     0.124 S 
ATOM     87  O   UNL A   1      44.897  34.180  24.469  1.00  0.00    -0.237 OA
ATOM     88  O   UNL A   1      45.380  35.808  26.264  1.00  0.00    -0.237 OA
ATOM     89  O   UNL A   1      47.215  34.540  25.224  1.00  0.00    -0.744 OA
ENDBRANCH  85  86
ENDBRANCH  59  80
ENDBRANCH  33  34
ENDBRANCH  25  28
ENDBRANCH  23  24
ENDBRANCH   1  23
TORSDOF 18
ENDMDL
MODEL 3
REMARK VINA RESULT:     -11.3      3.204      8.369
REMARK SMILES CCC[C@H](Cc1ccn(-c2ccccc2)n1)C(=O)NCCCNC(=O)c1ccc(-c2c3nc(c(-c4ccc(S(=O)(=O)[O-])cc4)c4ccc([nH]4)c(-c4ccc(S(=O)(=O)[O-])cc4)c4nc(c(-c5ccc(S(=O)(=O)[O-])cc5)c5ccc2[nH]5)C=C4)C=C3)cc1
REMARK SMILES IDX 21 1 20 2 19 3 17 4 18 5 4 7 3 8 2 9 1 10 5 11 6 12 7 13
REMARK SMILES IDX 16 14 8 15 9 16 10 17 11 18 15 19 12 20 14 21 13 22 22 23
REMARK SMILES IDX 23 24 24 25 25 27 26 28 27 29 85 30 28 31 84 32 29 33 30 34
REMARK SMILES IDX 31 35 78 36 32 37 83 38 77 39 79 40 33 41 82 42 76 43 75 44
REMARK SMILES IDX 34 46 64 47 45 48 63 49 46 50 49 51 62 52 80 53 47 54 48 55
REMARK SMILES IDX 61 57 81 58 50 59 35 60 36 61 44 62 37 63 43 64 38 65 39 66
REMARK SMILES IDX 40 67 41 68 42 69 65 70 66 71 74 72 67 73 73 74 68 75 69 76
REMARK SMILES IDX 70 77 71 78 72 79 51 80 52 81 60 82 53 83 59 84 54 85 55 86
REMARK SMILES IDX 56 87 57 88 58 89
REMARK H PARENT 19 6 23 26 79 45 49 56
REMARK Flexibility Score: inf
ROOT
ATOM      1  C   UNL A   1      33.304  28.598  27.253  1.00  0.00     0.042 C 
ENDROOT
BRANCH   1   2
ATOM      2  C   UNL A   1      31.779  28.640  27.244  1.00  0.00     0.117 C 
BRANCH   2   3
ATOM      3  N   UNL A   1      31.221  27.362  26.843  1.00  0.00    -0.356 N 
ATOM      4  C   UNL A   1      30.899  26.866  25.624  1.00  0.00     0.223 C 
ATOM      5  O   UNL A   1      30.316  25.775  25.609  1.00  0.00    -0.275 OA
ATOM      6  H   UNL A   1      31.044  26.745  27.590  1.00  0.00     0.163 HD
BRANCH   4   7
ATOM      7  C   UNL A   1      31.218  27.559  24.302  1.00  0.00     0.084 C 
BRANCH   7   8
ATOM      8  C   UNL A   1      30.118  27.465  23.234  1.00  0.00     0.013 C 
BRANCH   8   9
ATOM      9  C   UNL A   1      29.320  28.767  23.063  1.00  0.00    -0.003 C 
ATOM     10  C   UNL A   1      29.907  29.694  22.009  1.00  0.00     0.004 C 
ENDBRANCH   8   9
ENDBRANCH   7   8
BRANCH   7  11
ATOM     11  C   UNL A   1      32.659  27.365  23.818  1.00  0.00     0.071 C 
BRANCH  11  12
ATOM     12  C   UNL A   1      33.235  26.002  23.616  1.00  0.00     0.064 A 
ATOM     13  C   UNL A   1      32.939  25.149  22.523  1.00  0.00     0.046 A 
ATOM     14  N   UNL A   1      34.053  25.405  24.499  1.00  0.00    -0.173 NA
ATOM     15  C   UNL A   1      33.586  23.974  22.803  1.00  0.00     0.115 A 
ATOM     16  N   UNL A   1      34.234  24.157  24.000  1.00  0.00    -0.241 N 
BRANCH  16  17
ATOM     17  C   UNL A   1      35.104  23.210  24.573  1.00  0.00     0.065 A 
ATOM     18  C   UNL A   1      36.433  23.557  24.841  1.00  0.00     0.028 A 
ATOM     19  C   UNL A   1      34.679  21.881  24.658  1.00  0.00     0.028 A 
ATOM     20  C   UNL A   1      37.352  22.547  25.131  1.00  0.00     0.002 A 
ATOM     21  C   UNL A   1      35.592  20.888  25.001  1.00  0.00     0.002 A 
ATOM     22  C   UNL A   1      36.932  21.217  25.211  1.00  0.00     0.000 A 
ENDBRANCH  16  17
ENDBRANCH  11  12
ENDBRANCH   7  11
ENDBRANCH   4   7
ENDBRANCH   2   3
ENDBRANCH   1   2
BRANCH   1  23
ATOM     23  C   UNL A   1      33.911  29.909  26.831  1.00  0.00     0.118 C 
BRANCH  23  24
ATOM     24  N   UNL A   1      33.671  31.007  27.778  1.00  0.00    -0.352 N 
ATOM     25  C   UNL A   1      34.595  31.596  28.637  1.00  0.00     0.251 C 
ATOM     26  H   UNL A   1      32.755  31.365  27.809  1.00  0.00     0.163 HD
ATOM     27  O   UNL A   1      34.229  32.330  29.548  1.00  0.00    -0.269 OA
BRANCH  25  28
ATOM     28  C   UNL A   1      36.024  31.273  28.435  1.00  0.00     0.039 A 
ATOM     29  C   UNL A   1      37.056  32.061  28.946  1.00  0.00     0.014 A 
ATOM     30  C   UNL A   1      36.301  30.033  27.892  1.00  0.00     0.014 A 
ATOM     31  C   UNL A   1      38.336  31.505  29.035  1.00  0.00     0.010 A 
ATOM     32  C   UNL A   1      37.450  29.402  28.277  1.00  0.00     0.010 A 
ATOM     33  C   UNL A   1      38.520  30.138  28.757  1.00  0.00    -0.014 A 
BRANCH  33  34
ATOM     34  C   UNL A   1      39.780  29.438  29.012  1.00  0.00     0.031 A 
ATOM     35  C   UNL A   1      40.062  29.100  30.430  1.00  0.00     0.074 A 
ATOM     36  C   UNL A   1      40.594  28.938  28.051  1.00  0.00     0.049 A 
ATOM     37  N   UNL A   1      40.833  29.743  31.242  1.00  0.00    -0.248 NA
ATOM     38  C   UNL A   1      39.312  28.003  31.059  1.00  0.00     0.031 C 
ATOM     39  C   UNL A   1      40.393  28.882  26.595  1.00  0.00     0.029 A 
ATOM     40  N   UNL A   1      41.766  28.264  28.206  1.00  0.00    -0.354 N 
ATOM     41  C   UNL A   1      40.874  28.984  32.405  1.00  0.00     0.074 A 
ATOM     42  C   UNL A   1      39.764  28.065  32.314  1.00  0.00     0.031 C 
ATOM     43  C   UNL A   1      41.249  27.995  26.047  1.00  0.00     0.029 A 
ATOM     44  C   UNL A   1      42.207  27.616  27.061  1.00  0.00     0.049 A 
ATOM     45  H   UNL A   1      42.258  28.236  29.058  1.00  0.00     0.167 HD
ATOM     46  C   UNL A   1      41.972  28.979  33.213  1.00  0.00     0.031 A 
ATOM     47  C   UNL A   1      43.312  26.847  26.926  1.00  0.00     0.031 A 
ATOM     48  C   UNL A   1      42.914  30.010  32.843  1.00  0.00     0.049 A 
ATOM     49  C   UNL A   1      44.244  27.249  28.001  1.00  0.00     0.074 A 
ATOM     50  C   UNL A   1      42.857  31.381  32.685  1.00  0.00     0.029 A 
ATOM     51  N   UNL A   1      44.043  29.604  32.168  1.00  0.00    -0.354 N 
ATOM     52  N   UNL A   1      44.809  28.423  28.055  1.00  0.00    -0.248 NA
ATOM     53  C   UNL A   1      44.244  26.501  29.246  1.00  0.00     0.031 C 
ATOM     54  C   UNL A   1      43.663  31.656  31.538  1.00  0.00     0.029 A 
ATOM     55  C   UNL A   1      44.226  30.453  31.106  1.00  0.00     0.049 A 
ATOM     56  H   UNL A   1      44.617  28.839  32.405  1.00  0.00     0.167 HD
ATOM     57  C   UNL A   1      44.831  28.743  29.403  1.00  0.00     0.074 A 
ATOM     58  C   UNL A   1      44.599  27.475  30.089  1.00  0.00     0.031 C 
ATOM     59  C   UNL A   1      44.758  30.044  29.821  1.00  0.00     0.031 A 
BRANCH  46  60
ATOM     60  C   UNL A   1      42.396  27.795  34.052  1.00  0.00    -0.014 A 
ATOM     61  C   UNL A   1      42.318  27.893  35.458  1.00  0.00     0.010 A 
ATOM     62  C   UNL A   1      43.119  26.704  33.528  1.00  0.00     0.010 A 
ATOM     63  C   UNL A   1      42.993  26.989  36.289  1.00  0.00     0.020 A 
ATOM     64  C   UNL A   1      43.753  25.768  34.348  1.00  0.00     0.020 A 
ATOM     65  C   UNL A   1      43.719  25.940  35.724  1.00  0.00     0.054 A 
BRANCH  65  66
ATOM     66  S   UNL A   1      44.681  24.844  36.796  1.00  0.00     0.124 S 
ATOM     67  O   UNL A   1      44.115  25.143  38.108  1.00  0.00    -0.237 OA
ATOM     68  O   UNL A   1      44.368  23.525  36.254  1.00  0.00    -0.237 OA
ATOM     69  O   UNL A   1      46.057  25.287  36.588  1.00  0.00    -0.744 OA
ENDBRANCH  65  66
ENDBRANCH  46  60
BRANCH  47  70
ATOM     70  C   UNL A   1      43.515  25.663  26.066  1.00  0.00    -0.014 A 
ATOM     71  C   UNL A   1      44.795  25.354  25.577  1.00  0.00     0.010 A 
ATOM     72  C   UNL A   1      42.513  24.674  25.977  1.00  0.00     0.010 A 
ATOM     73  C   UNL A   1      45.093  24.066  25.110  1.00  0.00     0.020 A 
ATOM     74  C   UNL A   1      42.801  23.389  25.502  1.00  0.00     0.020 A 
ATOM     75  C   UNL A   1      44.101  23.082  25.107  1.00  0.00     0.054 A 
BRANCH  75  76
ATOM     76  S   UNL A   1      44.559  21.365  24.732  1.00  0.00     0.124 S 
ATOM     77  O   UNL A   1      45.886  21.259  25.331  1.00  0.00    -0.237 OA
ATOM     78  O   UNL A   1      43.503  20.604  25.396  1.00  0.00    -0.237 OA
ATOM     79  O   UNL A   1      44.528  21.311  23.272  1.00  0.00    -0.744 OA
ENDBRANCH  75  76
ENDBRANCH  47  70
BRANCH  59  80
ATOM     80  C   UNL A   1      45.028  31.140  28.809  1.00  0.00    -0.014 A 
ATOM     81  C   UNL A   1      46.287  31.738  28.604  1.00  0.00     0.010 A 
ATOM     82  C   UNL A   1      43.969  31.516  27.963  1.00  0.00     0.010 A 
ATOM     83  C   UNL A   1      46.466  32.722  27.617  1.00  0.00     0.020 A 
ATOM     84  C   UNL A   1      44.144  32.479  26.964  1.00  0.00     0.020 A 
ATOM     85  C   UNL A   1      45.388  33.092  26.808  1.00  0.00     0.054 A 
BRANCH  85  86
ATOM     86  S   UNL A   1      45.622  34.364  25.535  1.00  0.00     0.124 S 
ATOM     87  O   UNL A   1      47.074  34.390  25.375  1.00  0.00    -0.237 OA
ATOM     88  O   UNL A   1      44.875  33.830  24.399  1.00  0.00    -0.237 OA
ATOM     89  O   UNL A   1      45.046  35.567  26.133  1.00  0.00    -0.744 OA
ENDBRANCH  85  86
ENDBRANCH  59  80
ENDBRANCH  33  34
ENDBRANCH  25  28
ENDBRANCH  23  24
ENDBRANCH   1  23
TORSDOF 18
ENDMDL
