MODEL 1
REMARK VINA RESULT:     -11.5      0.000      0.000
REMARK SMILES CC(C)C[C@H](NC(=O)[C@H](Cc1ccccc1)NC(=O)CNC(=O)CNC(=O)OCc1ccccc1)C(=O)NCCCNC(=O)c1ccc(-c2c3nc(c(-c4ccc(S(=O)(=O)[O-])cc4)c4ccc([nH]4)c(-c4ccc(S(=O)(=O)[O-])cc4)c4nc(c(-c5ccc(S(=O)(=O)[O-])cc5)c5ccc2[nH]5)C=C4)C=C3)cc1
REMARK SMILES IDX 6 1 7 2 8 3 5 5 4 6 2 7 1 8 3 9 36 10 37 11 38 12 39 14
REMARK SMILES IDX 40 15 41 16 42 17 43 18 44 20 45 21 46 22 104 23 47 24
REMARK SMILES IDX 103 25 48 26 49 27 50 28 97 29 51 30 102 31 96 32 98 33
REMARK SMILES IDX 52 34 101 35 95 36 94 37 53 39 83 40 64 41 82 42 65 43 68 44
REMARK SMILES IDX 81 45 99 46 66 47 67 48 80 50 100 51 69 52 54 53 55 54 63 55
REMARK SMILES IDX 56 56 62 57 57 58 58 59 59 60 60 61 61 62 84 63 85 64 93 65
REMARK SMILES IDX 86 66 92 67 87 68 88 69 89 70 90 71 91 72 70 73 71 74 79 75
REMARK SMILES IDX 72 76 78 77 73 78 74 79 75 80 76 81 77 82 9 83 17 84 18 85
REMARK SMILES IDX 19 87 20 88 21 89 22 90 23 92 24 93 25 94 26 95 27 97 28 98
REMARK SMILES IDX 29 99 30 100 31 101 35 102 32 103 34 104 33 105 10 106
REMARK SMILES IDX 11 107 12 108 16 109 13 110 15 111 14 112
REMARK H PARENT 6 4 38 13 42 19 98 38 68 49 17 86 21 91 25 96
REMARK Flexibility Score: inf
ROOT
ATOM      1  N   UNL A   1      34.573  22.202  24.092  1.00  0.00    -0.343 N 
ATOM      2  C   UNL A   1      33.261  22.249  24.468  1.00  0.00     0.243 C 
ATOM      3  O   UNL A   1      32.432  22.864  23.808  1.00  0.00    -0.273 OA
ATOM      4  H   UNL A   1      34.773  22.200  23.128  1.00  0.00     0.164 HD
ENDROOT
BRANCH   1   5
ATOM      5  C   UNL A   1      35.701  22.155  25.025  1.00  0.00     0.171 C 
BRANCH   5   6
ATOM      6  C   UNL A   1      36.793  21.261  24.347  1.00  0.00     0.038 C 
BRANCH   6   7
ATOM      7  C   UNL A   1      37.256  20.052  25.167  1.00  0.00    -0.015 C 
ATOM      8  C   UNL A   1      36.371  18.929  24.738  1.00  0.00     0.007 C 
ATOM      9  C   UNL A   1      38.710  19.603  25.041  1.00  0.00     0.007 C 
ENDBRANCH   6   7
ENDBRANCH   5   6
BRANCH   5  10
ATOM     10  C   UNL A   1      35.981  23.330  26.148  1.00  0.00     0.242 C 
ATOM     11  O   UNL A   1      35.016  23.590  26.897  1.00  0.00    -0.273 OA
ATOM     12  N   UNL A   1      37.026  24.208  26.387  1.00  0.00    -0.354 N 
ATOM     13  H   UNL A   1      36.679  25.127  26.344  1.00  0.00     0.163 HD
BRANCH  12  14
ATOM     14  C   UNL A   1      38.526  24.268  26.694  1.00  0.00     0.117 C 
BRANCH  14  15
ATOM     15  C   UNL A   1      39.681  23.181  26.509  1.00  0.00     0.042 C 
BRANCH  15  16
ATOM     16  C   UNL A   1      41.192  23.445  26.656  1.00  0.00     0.118 C 
BRANCH  16  17
ATOM     17  N   UNL A   1      41.693  24.577  25.821  1.00  0.00    -0.352 N 
ATOM     18  C   UNL A   1      41.801  25.956  25.920  1.00  0.00     0.251 C 
ATOM     19  H   UNL A   1      42.045  24.254  24.961  1.00  0.00     0.163 HD
ATOM     20  O   UNL A   1      42.235  26.540  24.922  1.00  0.00    -0.269 OA
BRANCH  18  21
ATOM     21  C   UNL A   1      41.436  26.783  27.109  1.00  0.00     0.039 A 
ATOM     22  C   UNL A   1      40.437  26.350  28.005  1.00  0.00     0.014 A 
ATOM     23  C   UNL A   1      42.011  28.016  27.352  1.00  0.00     0.014 A 
ATOM     24  C   UNL A   1      40.105  27.106  29.149  1.00  0.00     0.010 A 
ATOM     25  C   UNL A   1      41.798  28.677  28.558  1.00  0.00     0.010 A 
ATOM     26  C   UNL A   1      40.824  28.265  29.461  1.00  0.00    -0.014 A 
BRANCH  26  27
ATOM     27  C   UNL A   1      40.607  29.075  30.693  1.00  0.00     0.031 A 
ATOM     28  C   UNL A   1      41.420  28.821  31.948  1.00  0.00     0.074 A 
ATOM     29  C   UNL A   1      39.575  29.943  30.730  1.00  0.00     0.049 A 
ATOM     30  N   UNL A   1      41.400  29.461  33.090  1.00  0.00    -0.248 NA
ATOM     31  C   UNL A   1      42.329  27.658  31.950  1.00  0.00     0.031 C 
ATOM     32  C   UNL A   1      38.597  30.145  29.656  1.00  0.00     0.029 A 
ATOM     33  N   UNL A   1      39.171  30.816  31.709  1.00  0.00    -0.354 N 
ATOM     34  C   UNL A   1      42.274  28.776  33.932  1.00  0.00     0.074 A 
ATOM     35  C   UNL A   1      42.724  27.610  33.211  1.00  0.00     0.031 C 
ATOM     36  C   UNL A   1      37.744  31.120  30.009  1.00  0.00     0.029 A 
ATOM     37  C   UNL A   1      38.116  31.616  31.329  1.00  0.00     0.049 A 
ATOM     38  H   UNL A   1      39.592  30.865  32.597  1.00  0.00     0.167 HD
ATOM     39  C   UNL A   1      42.712  29.113  35.170  1.00  0.00     0.031 A 
ATOM     40  C   UNL A   1      37.554  32.670  31.949  1.00  0.00     0.031 A 
ATOM     41  C   UNL A   1      42.280  30.301  35.854  1.00  0.00     0.049 A 
ATOM     42  C   UNL A   1      38.158  33.134  33.246  1.00  0.00     0.074 A 
ATOM     43  C   UNL A   1      42.725  30.826  37.054  1.00  0.00     0.029 A 
ATOM     44  N   UNL A   1      41.299  31.159  35.379  1.00  0.00    -0.354 N 
ATOM     45  N   UNL A   1      39.108  32.572  33.959  1.00  0.00    -0.248 NA
ATOM     46  C   UNL A   1      37.661  34.403  33.791  1.00  0.00     0.031 C 
ATOM     47  C   UNL A   1      41.992  31.991  37.315  1.00  0.00     0.029 A 
ATOM     48  C   UNL A   1      41.123  32.210  36.257  1.00  0.00     0.049 A 
ATOM     49  H   UNL A   1      40.802  31.036  34.538  1.00  0.00     0.167 HD
ATOM     50  C   UNL A   1      39.343  33.435  35.022  1.00  0.00     0.074 A 
ATOM     51  C   UNL A   1      38.451  34.565  34.843  1.00  0.00     0.031 C 
ATOM     52  C   UNL A   1      40.216  33.310  36.053  1.00  0.00     0.031 A 
BRANCH  39  53
ATOM     53  C   UNL A   1      43.740  28.217  35.822  1.00  0.00    -0.014 A 
ATOM     54  C   UNL A   1      45.118  28.441  35.631  1.00  0.00     0.010 A 
ATOM     55  C   UNL A   1      43.339  27.154  36.651  1.00  0.00     0.010 A 
ATOM     56  C   UNL A   1      46.069  27.591  36.204  1.00  0.00     0.020 A 
ATOM     57  C   UNL A   1      44.289  26.319  37.256  1.00  0.00     0.020 A 
ATOM     58  C   UNL A   1      45.648  26.531  37.010  1.00  0.00     0.054 A 
BRANCH  58  59
ATOM     59  S   UNL A   1      46.904  25.456  37.758  1.00  0.00     0.124 S 
ATOM     60  O   UNL A   1      46.406  25.317  39.125  1.00  0.00    -0.237 OA
ATOM     61  O   UNL A   1      46.826  24.251  36.937  1.00  0.00    -0.237 OA
ATOM     62  O   UNL A   1      48.141  26.221  37.620  1.00  0.00    -0.744 OA
ENDBRANCH  58  59
ENDBRANCH  39  53
BRANCH  40  63
ATOM     63  C   UNL A   1      36.471  33.436  31.272  1.00  0.00    -0.014 A 
ATOM     64  C   UNL A   1      36.614  33.821  29.926  1.00  0.00     0.010 A 
ATOM     65  C   UNL A   1      35.269  33.732  31.940  1.00  0.00     0.010 A 
ATOM     66  C   UNL A   1      35.585  34.499  29.265  1.00  0.00     0.020 A 
ATOM     67  C   UNL A   1      34.227  34.391  31.274  1.00  0.00     0.020 A 
ATOM     68  C   UNL A   1      34.396  34.778  29.943  1.00  0.00     0.054 A 
BRANCH  68  69
ATOM     69  S   UNL A   1      33.048  35.594  29.040  1.00  0.00     0.124 S 
ATOM     70  O   UNL A   1      33.764  36.625  28.294  1.00  0.00    -0.237 OA
ATOM     71  O   UNL A   1      32.496  34.504  28.240  1.00  0.00    -0.237 OA
ATOM     72  O   UNL A   1      32.173  36.083  30.103  1.00  0.00    -0.744 OA
ENDBRANCH  68  69
ENDBRANCH  40  63
BRANCH  52  73
ATOM     73  C   UNL A   1      40.250  34.436  37.047  1.00  0.00    -0.014 A 
ATOM     74  C   UNL A   1      39.335  34.486  38.113  1.00  0.00     0.010 A 
ATOM     75  C   UNL A   1      41.217  35.448  36.915  1.00  0.00     0.010 A 
ATOM     76  C   UNL A   1      39.349  35.566  38.998  1.00  0.00     0.020 A 
ATOM     77  C   UNL A   1      41.250  36.514  37.814  1.00  0.00     0.020 A 
ATOM     78  C   UNL A   1      40.300  36.579  38.835  1.00  0.00     0.054 A 
BRANCH  78  79
ATOM     79  S   UNL A   1      40.294  37.975  39.990  1.00  0.00     0.124 S 
ATOM     80  O   UNL A   1      40.274  37.297  41.283  1.00  0.00    -0.237 OA
ATOM     81  O   UNL A   1      41.536  38.671  39.664  1.00  0.00    -0.237 OA
ATOM     82  O   UNL A   1      39.072  38.700  39.646  1.00  0.00    -0.744 OA
ENDBRANCH  78  79
ENDBRANCH  52  73
ENDBRANCH  26  27
ENDBRANCH  18  21
ENDBRANCH  16  17
ENDBRANCH  15  16
ENDBRANCH  14  15
ENDBRANCH  12  14
ENDBRANCH   5  10
ENDBRANCH   1   5
BRANCH   2  83
ATOM     83  C   UNL A   1      32.914  21.320  25.620  1.00  0.00     0.175 C 
BRANCH  83  84
ATOM     84  N   UNL A   1      32.280  22.106  26.743  1.00  0.00    -0.342 N 
ATOM     85  C   UNL A   1      31.572  23.309  26.785  1.00  0.00     0.240 C 
ATOM     86  H   UNL A   1      32.387  21.684  27.626  1.00  0.00     0.164 HD
ATOM     87  O   UNL A   1      30.457  23.182  27.332  1.00  0.00    -0.273 OA
BRANCH  85  88
ATOM     88  C   UNL A   1      31.883  24.904  26.280  1.00  0.00     0.216 C 
BRANCH  88  89
ATOM     89  N   UNL A   1      33.078  25.794  25.993  1.00  0.00    -0.346 N 
ATOM     90  C   UNL A   1      33.599  27.042  26.214  1.00  0.00     0.239 C 
ATOM     91  H   UNL A   1      33.716  25.285  25.445  1.00  0.00     0.164 HD
ATOM     92  O   UNL A   1      34.578  27.315  25.496  1.00  0.00    -0.273 OA
BRANCH  90  93
ATOM     93  C   UNL A   1      33.051  28.159  27.139  1.00  0.00     0.219 C 
BRANCH  93  94
ATOM     94  N   UNL A   1      32.855  29.535  26.662  1.00  0.00    -0.312 N 
ATOM     95  C   UNL A   1      31.726  29.979  25.985  1.00  0.00     0.407 C 
ATOM     96  H   UNL A   1      33.573  30.187  26.834  1.00  0.00     0.167 HD
ATOM     97  O   UNL A   1      31.513  31.142  25.751  1.00  0.00    -0.225 OA
BRANCH  95  98
ATOM     98  O   UNL A   1      30.961  28.932  25.577  1.00  0.00    -0.445 OA
BRANCH  98  99
ATOM     99  C   UNL A   1      30.642  28.681  24.190  1.00  0.00     0.270 C 
BRANCH  99 100
ATOM    100  C   UNL A   1      31.676  28.062  23.262  1.00  0.00    -0.011 A 
ATOM    101  C   UNL A   1      32.868  28.735  22.942  1.00  0.00     0.007 A 
ATOM    102  C   UNL A   1      31.518  26.757  22.782  1.00  0.00     0.007 A 
ATOM    103  C   UNL A   1      33.845  28.144  22.130  1.00  0.00     0.000 A 
ATOM    104  C   UNL A   1      32.505  26.153  21.993  1.00  0.00     0.000 A 
ATOM    105  C   UNL A   1      33.664  26.849  21.657  1.00  0.00     0.000 A 
ENDBRANCH  99 100
ENDBRANCH  98  99
ENDBRANCH  95  98
ENDBRANCH  93  94
ENDBRANCH  90  93
ENDBRANCH  88  89
ENDBRANCH  85  88
ENDBRANCH  83  84
BRANCH  83 106
ATOM    106  C   UNL A   1      32.206  20.107  24.732  1.00  0.00     0.070 C 
BRANCH 106 107
ATOM    107  C   UNL A   1      32.663  18.647  24.520  1.00  0.00    -0.045 A 
ATOM    108  C   UNL A   1      33.005  18.102  23.267  1.00  0.00     0.004 A 
ATOM    109  C   UNL A   1      32.741  17.767  25.601  1.00  0.00     0.004 A 
ATOM    110  C   UNL A   1      33.703  16.890  23.139  1.00  0.00     0.000 A 
ATOM    111  C   UNL A   1      33.297  16.484  25.449  1.00  0.00     0.000 A 
ATOM    112  C   UNL A   1      33.872  16.085  24.248  1.00  0.00     0.000 A 
ENDBRANCH 106 107
ENDBRANCH  83 106
ENDBRANCH   2  83
TORSDOF 27
ENDMDL
MODEL 2
REMARK VINA RESULT:     -10.4      6.008     11.780
REMARK SMILES CC(C)C[C@H](NC(=O)[C@H](Cc1ccccc1)NC(=O)CNC(=O)CNC(=O)OCc1ccccc1)C(=O)NCCCNC(=O)c1ccc(-c2c3nc(c(-c4ccc(S(=O)(=O)[O-])cc4)c4ccc([nH]4)c(-c4ccc(S(=O)(=O)[O-])cc4)c4nc(c(-c5ccc(S(=O)(=O)[O-])cc5)c5ccc2[nH]5)C=C4)C=C3)cc1
REMARK SMILES IDX 6 1 7 2 8 3 5 5 4 6 2 7 1 8 3 9 36 10 37 11 38 12 39 14
REMARK SMILES IDX 40 15 41 16 42 17 43 18 44 20 45 21 46 22 104 23 47 24
REMARK SMILES IDX 103 25 48 26 49 27 50 28 97 29 51 30 102 31 96 32 98 33
REMARK SMILES IDX 52 34 101 35 95 36 94 37 53 39 83 40 64 41 82 42 65 43 68 44
REMARK SMILES IDX 81 45 99 46 66 47 67 48 80 50 100 51 69 52 54 53 55 54 63 55
REMARK SMILES IDX 56 56 62 57 57 58 58 59 59 60 60 61 61 62 84 63 85 64 93 65
REMARK SMILES IDX 86 66 92 67 87 68 88 69 89 70 90 71 91 72 70 73 71 74 79 75
REMARK SMILES IDX 72 76 78 77 73 78 74 79 75 80 76 81 77 82 9 83 17 84 18 85
REMARK SMILES IDX 19 87 20 88 21 89 22 90 23 92 24 93 25 94 26 95 27 97 28 98
REMARK SMILES IDX 29 99 30 100 31 101 35 102 32 103 34 104 33 105 10 106
REMARK SMILES IDX 11 107 12 108 16 109 13 110 15 111 14 112
REMARK H PARENT 6 4 38 13 42 19 98 38 68 49 17 86 21 91 25 96
REMARK Flexibility Score: inf
ROOT
ATOM      1  N   UNL A   1      31.978  25.277  26.628  1.00  0.00    -0.343 N 
ATOM      2  C   UNL A   1      33.185  24.675  26.413  1.00  0.00     0.243 C 
ATOM      3  O   UNL A   1      33.681  23.930  27.249  1.00  0.00    -0.273 OA
ATOM      4  H   UNL A   1      31.305  24.781  27.147  1.00  0.00     0.164 HD
ENDROOT
BRANCH   1   5
ATOM      5  C   UNL A   1      31.619  26.610  26.139  1.00  0.00     0.171 C 
BRANCH   5   6
ATOM      6  C   UNL A   1      30.773  26.388  24.841  1.00  0.00     0.038 C 
BRANCH   6   7
ATOM      7  C   UNL A   1      29.756  27.489  24.521  1.00  0.00    -0.015 C 
ATOM      8  C   UNL A   1      30.514  28.496  23.721  1.00  0.00     0.007 C 
ATOM      9  C   UNL A   1      28.491  27.109  23.755  1.00  0.00     0.007 C 
ENDBRANCH   6   7
ENDBRANCH   5   6
BRANCH   5  10
ATOM     10  C   UNL A   1      31.542  27.931  27.124  1.00  0.00     0.242 C 
ATOM     11  O   UNL A   1      30.691  27.867  28.035  1.00  0.00    -0.273 OA
ATOM     12  N   UNL A   1      32.134  29.184  27.105  1.00  0.00    -0.354 N 
ATOM     13  H   UNL A   1      31.424  29.865  27.085  1.00  0.00     0.163 HD
BRANCH  12  14
ATOM     14  C   UNL A   1      33.491  29.895  27.105  1.00  0.00     0.117 C 
BRANCH  14  15
ATOM     15  C   UNL A   1      34.921  29.431  27.644  1.00  0.00     0.042 C 
BRANCH  15  16
ATOM     16  C   UNL A   1      35.885  30.292  28.482  1.00  0.00     0.118 C 
BRANCH  16  17
ATOM     17  N   UNL A   1      36.231  29.698  29.807  1.00  0.00    -0.352 N 
ATOM     18  C   UNL A   1      37.330  29.101  30.409  1.00  0.00     0.251 C 
ATOM     19  H   UNL A   1      35.468  29.742  30.426  1.00  0.00     0.163 HD
ATOM     20  O   UNL A   1      37.155  28.671  31.554  1.00  0.00    -0.269 OA
BRANCH  18  21
ATOM     21  C   UNL A   1      38.681  28.930  29.798  1.00  0.00     0.039 A 
ATOM     22  C   UNL A   1      38.884  29.177  28.424  1.00  0.00     0.014 A 
ATOM     23  C   UNL A   1      39.766  28.477  30.524  1.00  0.00     0.014 A 
ATOM     24  C   UNL A   1      40.163  29.050  27.840  1.00  0.00     0.010 A 
ATOM     25  C   UNL A   1      41.049  28.507  29.986  1.00  0.00     0.010 A 
ATOM     26  C   UNL A   1      41.275  28.755  28.636  1.00  0.00    -0.014 A 
BRANCH  26  27
ATOM     27  C   UNL A   1      42.673  28.692  28.126  1.00  0.00     0.031 A 
ATOM     28  C   UNL A   1      43.579  29.908  28.175  1.00  0.00     0.074 A 
ATOM     29  C   UNL A   1      43.083  27.581  27.480  1.00  0.00     0.049 A 
ATOM     30  N   UNL A   1      44.835  30.019  27.824  1.00  0.00    -0.248 NA
ATOM     31  C   UNL A   1      42.984  31.185  28.616  1.00  0.00     0.031 C 
ATOM     32  C   UNL A   1      42.248  26.410  27.193  1.00  0.00     0.029 A 
ATOM     33  N   UNL A   1      44.302  27.252  26.942  1.00  0.00    -0.354 N 
ATOM     34  C   UNL A   1      45.165  31.363  27.991  1.00  0.00     0.074 A 
ATOM     35  C   UNL A   1      43.954  32.049  28.368  1.00  0.00     0.031 C 
ATOM     36  C   UNL A   1      42.993  25.471  26.588  1.00  0.00     0.029 A 
ATOM     37  C   UNL A   1      44.356  25.969  26.446  1.00  0.00     0.049 A 
ATOM     38  H   UNL A   1      45.065  27.874  26.912  1.00  0.00     0.167 HD
ATOM     39  C   UNL A   1      46.376  31.965  27.898  1.00  0.00     0.031 A 
ATOM     40  C   UNL A   1      45.401  25.255  25.989  1.00  0.00     0.031 A 
ATOM     41  C   UNL A   1      47.578  31.253  27.559  1.00  0.00     0.049 A 
ATOM     42  C   UNL A   1      46.767  25.880  26.046  1.00  0.00     0.074 A 
ATOM     43  C   UNL A   1      48.885  31.707  27.543  1.00  0.00     0.029 A 
ATOM     44  N   UNL A   1      47.612  29.918  27.185  1.00  0.00    -0.354 N 
ATOM     45  N   UNL A   1      47.095  27.110  26.370  1.00  0.00    -0.248 NA
ATOM     46  C   UNL A   1      47.907  25.009  25.737  1.00  0.00     0.031 C 
ATOM     47  C   UNL A   1      49.706  30.649  27.133  1.00  0.00     0.029 A 
ATOM     48  C   UNL A   1      48.914  29.528  26.936  1.00  0.00     0.049 A 
ATOM     49  H   UNL A   1      46.823  29.334  27.109  1.00  0.00     0.167 HD
ATOM     50  C   UNL A   1      48.483  27.153  26.333  1.00  0.00     0.074 A 
ATOM     51  C   UNL A   1      48.929  25.819  25.977  1.00  0.00     0.031 C 
ATOM     52  C   UNL A   1      49.318  28.195  26.571  1.00  0.00     0.031 A 
BRANCH  39  53
ATOM     53  C   UNL A   1      46.457  33.440  28.222  1.00  0.00    -0.014 A 
ATOM     54  C   UNL A   1      46.118  34.410  27.258  1.00  0.00     0.010 A 
ATOM     55  C   UNL A   1      46.853  33.870  29.501  1.00  0.00     0.010 A 
ATOM     56  C   UNL A   1      46.228  35.774  27.544  1.00  0.00     0.020 A 
ATOM     57  C   UNL A   1      46.932  35.236  29.804  1.00  0.00     0.020 A 
ATOM     58  C   UNL A   1      46.639  36.179  28.816  1.00  0.00     0.054 A 
BRANCH  58  59
ATOM     59  S   UNL A   1      46.753  37.956  29.166  1.00  0.00     0.124 S 
ATOM     60  O   UNL A   1      46.205  38.539  27.942  1.00  0.00    -0.237 OA
ATOM     61  O   UNL A   1      45.921  38.104  30.357  1.00  0.00    -0.237 OA
ATOM     62  O   UNL A   1      48.181  38.178  29.376  1.00  0.00    -0.744 OA
ENDBRANCH  58  59
ENDBRANCH  39  53
BRANCH  40  63
ATOM     63  C   UNL A   1      45.208  23.831  25.593  1.00  0.00    -0.014 A 
ATOM     64  C   UNL A   1      45.349  22.808  26.548  1.00  0.00     0.010 A 
ATOM     65  C   UNL A   1      44.822  23.491  24.284  1.00  0.00     0.010 A 
ATOM     66  C   UNL A   1      45.125  21.472  26.201  1.00  0.00     0.020 A 
ATOM     67  C   UNL A   1      44.574  22.156  23.938  1.00  0.00     0.020 A 
ATOM     68  C   UNL A   1      44.735  21.155  24.898  1.00  0.00     0.054 A 
BRANCH  68  69
ATOM     69  S   UNL A   1      44.379  19.421  24.492  1.00  0.00     0.124 S 
ATOM     70  O   UNL A   1      45.296  18.708  25.376  1.00  0.00    -0.237 OA
ATOM     71  O   UNL A   1      42.962  19.302  24.823  1.00  0.00    -0.237 OA
ATOM     72  O   UNL A   1      44.688  19.333  23.066  1.00  0.00    -0.744 OA
ENDBRANCH  68  69
ENDBRANCH  40  63
BRANCH  52  73
ATOM     73  C   UNL A   1      50.791  27.916  26.469  1.00  0.00    -0.014 A 
ATOM     74  C   UNL A   1      51.475  28.084  25.252  1.00  0.00     0.010 A 
ATOM     75  C   UNL A   1      51.497  27.493  27.609  1.00  0.00     0.010 A 
ATOM     76  C   UNL A   1      52.833  27.771  25.164  1.00  0.00     0.020 A 
ATOM     77  C   UNL A   1      52.860  27.206  27.529  1.00  0.00     0.020 A 
ATOM     78  C   UNL A   1      53.513  27.324  26.301  1.00  0.00     0.054 A 
BRANCH  78  79
ATOM     79  S   UNL A   1      55.274  26.916  26.161  1.00  0.00     0.124 S 
ATOM     80  O   UNL A   1      55.778  27.305  27.474  1.00  0.00    -0.237 OA
ATOM     81  O   UNL A   1      55.253  25.480  25.894  1.00  0.00    -0.237 OA
ATOM     82  O   UNL A   1      55.730  27.744  25.046  1.00  0.00    -0.744 OA
ENDBRANCH  78  79
ENDBRANCH  52  73
ENDBRANCH  26  27
ENDBRANCH  18  21
ENDBRANCH  16  17
ENDBRANCH  15  16
ENDBRANCH  14  15
ENDBRANCH  12  14
ENDBRANCH   5  10
ENDBRANCH   1   5
BRANCH   2  83
ATOM     83  C   UNL A   1      33.719  24.846  25.000  1.00  0.00     0.175 C 
BRANCH  83  84
ATOM     84  N   UNL A   1      34.306  26.227  24.835  1.00  0.00    -0.342 N 
ATOM     85  C   UNL A   1      33.995  27.304  24.002  1.00  0.00     0.240 C 
ATOM     86  H   UNL A   1      35.062  26.406  25.439  1.00  0.00     0.164 HD
ATOM     87  O   UNL A   1      33.786  28.354  24.645  1.00  0.00    -0.273 OA
BRANCH  85  88
ATOM     88  C   UNL A   1      33.852  27.518  22.320  1.00  0.00     0.216 C 
BRANCH  88  89
ATOM     89  N   UNL A   1      33.375  26.736  21.110  1.00  0.00    -0.346 N 
ATOM     90  C   UNL A   1      32.957  25.498  20.693  1.00  0.00     0.239 C 
ATOM     91  H   UNL A   1      33.360  27.344  20.337  1.00  0.00     0.164 HD
ATOM     92  O   UNL A   1      32.909  25.371  19.457  1.00  0.00    -0.273 OA
BRANCH  90  93
ATOM     93  C   UNL A   1      32.665  24.245  21.558  1.00  0.00     0.219 C 
BRANCH  93  94
ATOM     94  N   UNL A   1      31.503  24.176  22.456  1.00  0.00    -0.312 N 
ATOM     95  C   UNL A   1      31.266  23.145  23.356  1.00  0.00     0.407 C 
ATOM     96  H   UNL A   1      30.849  24.911  22.417  1.00  0.00     0.167 HD
ATOM     97  O   UNL A   1      30.402  23.189  24.194  1.00  0.00    -0.225 OA
BRANCH  95  98
ATOM     98  O   UNL A   1      32.081  22.086  23.107  1.00  0.00    -0.445 OA
BRANCH  98  99
ATOM     99  C   UNL A   1      32.607  21.232  24.148  1.00  0.00     0.270 C 
BRANCH  99 100
ATOM    100  C   UNL A   1      32.935  19.776  23.857  1.00  0.00    -0.011 A 
ATOM    101  C   UNL A   1      32.323  19.086  22.796  1.00  0.00     0.007 A 
ATOM    102  C   UNL A   1      33.935  19.110  24.573  1.00  0.00     0.007 A 
ATOM    103  C   UNL A   1      32.663  17.761  22.494  1.00  0.00     0.000 A 
ATOM    104  C   UNL A   1      34.298  17.795  24.256  1.00  0.00     0.000 A 
ATOM    105  C   UNL A   1      33.655  17.115  23.224  1.00  0.00     0.000 A 
ENDBRANCH  99 100
ENDBRANCH  98  99
ENDBRANCH  95  98
ENDBRANCH  93  94
ENDBRANCH  90  93
ENDBRANCH  88  89
ENDBRANCH  85  88
ENDBRANCH  83  84
BRANCH  83 106
ATOM    106  C   UNL A   1      34.530  23.400  24.883  1.00  0.00     0.070 C 
BRANCH 106 107
ATOM    107  C   UNL A   1      35.941  23.019  25.383  1.00  0.00    -0.045 A 
ATOM    108  C   UNL A   1      36.457  21.709  25.368  1.00  0.00     0.004 A 
ATOM    109  C   UNL A   1      36.791  23.995  25.908  1.00  0.00     0.004 A 
ATOM    110  C   UNL A   1      37.824  21.436  25.531  1.00  0.00     0.000 A 
ATOM    111  C   UNL A   1      38.127  23.693  26.226  1.00  0.00     0.000 A 
ATOM    112  C   UNL A   1      38.673  22.446  25.940  1.00  0.00     0.000 A 
ENDBRANCH 106 107
ENDBRANCH  83 106
ENDBRANCH   2  83
TORSDOF 27
ENDMDL
MODEL 3
REMARK VINA RESULT:     -10.1      5.682     11.900
REMARK SMILES CC(C)C[C@H](NC(=O)[C@H](Cc1ccccc1)NC(=O)CNC(=O)CNC(=O)OCc1ccccc1)C(=O)NCCCNC(=O)c1ccc(-c2c3nc(c(-c4ccc(S(=O)(=O)[O-])cc4)c4ccc([nH]4)c(-c4ccc(S(=O)(=O)[O-])cc4)c4nc(c(-c5ccc(S(=O)(=O)[O-])cc5)c5ccc2[nH]5)C=C4)C=C3)cc1
REMARK SMILES IDX 6 1 7 2 8 3 5 5 4 6 2 7 1 8 3 9 36 10 37 11 38 12 39 14
REMARK SMILES IDX 40 15 41 16 42 17 43 18 44 20 45 21 46 22 104 23 47 24
REMARK SMILES IDX 103 25 48 26 49 27 50 28 97 29 51 30 102 31 96 32 98 33
REMARK SMILES IDX 52 34 101 35 95 36 94 37 53 39 83 40 64 41 82 42 65 43 68 44
REMARK SMILES IDX 81 45 99 46 66 47 67 48 80 50 100 51 69 52 54 53 55 54 63 55
REMARK SMILES IDX 56 56 62 57 57 58 58 59 59 60 60 61 61 62 84 63 85 64 93 65
REMARK SMILES IDX 86 66 92 67 87 68 88 69 89 70 90 71 91 72 70 73 71 74 79 75
REMARK SMILES IDX 72 76 78 77 73 78 74 79 75 80 76 81 77 82 9 83 17 84 18 85
REMARK SMILES IDX 19 87 20 88 21 89 22 90 23 92 24 93 25 94 26 95 27 97 28 98
REMARK SMILES IDX 29 99 30 100 31 101 35 102 32 103 34 104 33 105 10 106
REMARK SMILES IDX 11 107 12 108 16 109 13 110 15 111 14 112
REMARK H PARENT 6 4 38 13 42 19 98 38 68 49 17 86 21 91 25 96
REMARK Flexibility Score: inf
ROOT
ATOM      1  N   UNL A   1      34.166  28.359  24.448  1.00  0.00    -0.343 N 
ATOM      2  C   UNL A   1      33.905  28.389  23.108  1.00  0.00     0.243 C 
ATOM      3  O   UNL A   1      34.746  28.774  22.305  1.00  0.00    -0.273 OA
ATOM      4  H   UNL A   1      35.088  28.156  24.730  1.00  0.00     0.164 HD
ENDROOT
BRANCH   1   5
ATOM      5  C   UNL A   1      33.170  28.609  25.492  1.00  0.00     0.171 C 
BRANCH   5   6
ATOM      6  C   UNL A   1      33.144  27.327  26.389  1.00  0.00     0.038 C 
BRANCH   6   7
ATOM      7  C   UNL A   1      31.766  26.927  26.928  1.00  0.00    -0.015 C 
ATOM      8  C   UNL A   1      31.427  27.973  27.938  1.00  0.00     0.007 C 
ATOM      9  C   UNL A   1      30.607  26.808  25.941  1.00  0.00     0.007 C 
ENDBRANCH   6   7
ENDBRANCH   5   6
BRANCH   5  10
ATOM     10  C   UNL A   1      32.741  30.128  25.972  1.00  0.00     0.242 C 
ATOM     11  O   UNL A   1      31.666  30.551  25.498  1.00  0.00    -0.273 OA
ATOM     12  N   UNL A   1      33.370  31.123  26.703  1.00  0.00    -0.354 N 
ATOM     13  H   UNL A   1      33.429  31.931  26.145  1.00  0.00     0.163 HD
BRANCH  12  14
ATOM     14  C   UNL A   1      34.007  31.423  28.064  1.00  0.00     0.117 C 
BRANCH  14  15
ATOM     15  C   UNL A   1      35.388  32.128  28.445  1.00  0.00     0.042 C 
BRANCH  15  16
ATOM     16  C   UNL A   1      35.794  32.600  29.854  1.00  0.00     0.118 C 
BRANCH  16  17
ATOM     17  N   UNL A   1      35.840  31.506  30.870  1.00  0.00    -0.352 N 
ATOM     18  C   UNL A   1      36.710  30.495  31.250  1.00  0.00     0.251 C 
ATOM     19  H   UNL A   1      35.027  31.501  31.423  1.00  0.00     0.163 HD
ATOM     20  O   UNL A   1      36.306  29.735  32.137  1.00  0.00    -0.269 OA
BRANCH  18  21
ATOM     21  C   UNL A   1      38.069  30.246  30.683  1.00  0.00     0.039 A 
ATOM     22  C   UNL A   1      39.157  29.950  31.530  1.00  0.00     0.014 A 
ATOM     23  C   UNL A   1      38.332  30.346  29.330  1.00  0.00     0.014 A 
ATOM     24  C   UNL A   1      40.440  29.682  31.005  1.00  0.00     0.010 A 
ATOM     25  C   UNL A   1      39.551  29.927  28.806  1.00  0.00     0.010 A 
ATOM     26  C   UNL A   1      40.636  29.623  29.621  1.00  0.00    -0.014 A 
BRANCH  26  27
ATOM     27  C   UNL A   1      41.929  29.257  28.977  1.00  0.00     0.031 A 
ATOM     28  C   UNL A   1      43.020  30.291  28.771  1.00  0.00     0.074 A 
ATOM     29  C   UNL A   1      42.066  28.026  28.442  1.00  0.00     0.049 A 
ATOM     30  N   UNL A   1      44.223  30.136  28.277  1.00  0.00    -0.248 NA
ATOM     31  C   UNL A   1      42.704  31.694  29.103  1.00  0.00     0.031 C 
ATOM     32  C   UNL A   1      41.021  26.998  28.402  1.00  0.00     0.029 A 
ATOM     33  N   UNL A   1      43.137  27.429  27.826  1.00  0.00    -0.354 N 
ATOM     34  C   UNL A   1      44.787  31.411  28.231  1.00  0.00     0.074 A 
ATOM     35  C   UNL A   1      43.762  32.339  28.641  1.00  0.00     0.031 C 
ATOM     36  C   UNL A   1      41.519  25.881  27.848  1.00  0.00     0.029 A 
ATOM     37  C   UNL A   1      42.917  26.109  27.499  1.00  0.00     0.049 A 
ATOM     38  H   UNL A   1      43.981  27.898  27.634  1.00  0.00     0.167 HD
ATOM     39  C   UNL A   1      46.059  31.774  27.932  1.00  0.00     0.031 A 
ATOM     40  C   UNL A   1      43.763  25.175  27.030  1.00  0.00     0.031 A 
ATOM     41  C   UNL A   1      47.075  30.827  27.563  1.00  0.00     0.049 A 
ATOM     42  C   UNL A   1      45.210  25.550  26.860  1.00  0.00     0.074 A 
ATOM     43  C   UNL A   1      48.425  31.036  27.349  1.00  0.00     0.029 A 
ATOM     44  N   UNL A   1      46.842  29.474  27.365  1.00  0.00    -0.354 N 
ATOM     45  N   UNL A   1      45.773  26.730  26.983  1.00  0.00    -0.248 NA
ATOM     46  C   UNL A   1      46.143  24.461  26.548  1.00  0.00     0.031 C 
ATOM     47  C   UNL A   1      49.003  29.810  26.996  1.00  0.00     0.029 A 
ATOM     48  C   UNL A   1      48.020  28.833  27.033  1.00  0.00     0.049 A 
ATOM     49  H   UNL A   1      45.965  29.034  27.450  1.00  0.00     0.167 HD
ATOM     50  C   UNL A   1      47.133  26.520  26.793  1.00  0.00     0.074 A 
ATOM     51  C   UNL A   1      47.306  25.097  26.569  1.00  0.00     0.031 C 
ATOM     52  C   UNL A   1      48.151  27.418  26.803  1.00  0.00     0.031 A 
BRANCH  39  53
ATOM     53  C   UNL A   1      46.420  33.237  28.050  1.00  0.00    -0.014 A 
ATOM     54  C   UNL A   1      46.415  34.076  26.917  1.00  0.00     0.010 A 
ATOM     55  C   UNL A   1      46.747  33.794  29.299  1.00  0.00     0.010 A 
ATOM     56  C   UNL A   1      46.785  35.419  27.019  1.00  0.00     0.020 A 
ATOM     57  C   UNL A   1      47.086  35.149  29.412  1.00  0.00     0.020 A 
ATOM     58  C   UNL A   1      47.123  35.948  28.267  1.00  0.00     0.054 A 
BRANCH  58  59
ATOM     59  S   UNL A   1      47.579  37.702  28.372  1.00  0.00     0.124 S 
ATOM     60  O   UNL A   1      46.536  38.231  29.248  1.00  0.00    -0.237 OA
ATOM     61  O   UNL A   1      48.918  37.652  28.952  1.00  0.00    -0.237 OA
ATOM     62  O   UNL A   1      47.520  38.159  26.985  1.00  0.00    -0.744 OA
ENDBRANCH  58  59
ENDBRANCH  39  53
BRANCH  40  63
ATOM     63  C   UNL A   1      43.291  23.774  26.846  1.00  0.00    -0.014 A 
ATOM     64  C   UNL A   1      43.003  23.290  25.556  1.00  0.00     0.010 A 
ATOM     65  C   UNL A   1      43.185  22.897  27.940  1.00  0.00     0.010 A 
ATOM     66  C   UNL A   1      42.604  21.964  25.364  1.00  0.00     0.020 A 
ATOM     67  C   UNL A   1      42.809  21.561  27.749  1.00  0.00     0.020 A 
ATOM     68  C   UNL A   1      42.512  21.106  26.463  1.00  0.00     0.054 A 
BRANCH  68  69
ATOM     69  S   UNL A   1      42.063  19.370  26.178  1.00  0.00     0.124 S 
ATOM     70  O   UNL A   1      42.977  18.991  25.105  1.00  0.00    -0.237 OA
ATOM     71  O   UNL A   1      42.326  18.757  27.478  1.00  0.00    -0.237 OA
ATOM     72  O   UNL A   1      40.652  19.438  25.804  1.00  0.00    -0.744 OA
ENDBRANCH  68  69
ENDBRANCH  40  63
BRANCH  52  73
ATOM     73  C   UNL A   1      49.533  26.872  26.583  1.00  0.00    -0.014 A 
ATOM     74  C   UNL A   1      50.064  26.752  25.287  1.00  0.00     0.010 A 
ATOM     75  C   UNL A   1      50.311  26.485  27.689  1.00  0.00     0.010 A 
ATOM     76  C   UNL A   1      51.330  26.196  25.098  1.00  0.00     0.020 A 
ATOM     77  C   UNL A   1      51.587  25.954  27.503  1.00  0.00     0.020 A 
ATOM     78  C   UNL A   1      52.079  25.790  26.207  1.00  0.00     0.054 A 
BRANCH  78  79
ATOM     79  S   UNL A   1      53.716  25.063  25.936  1.00  0.00     0.124 S 
ATOM     80  O   UNL A   1      54.332  26.033  25.036  1.00  0.00    -0.237 OA
ATOM     81  O   UNL A   1      54.275  25.014  27.285  1.00  0.00    -0.237 OA
ATOM     82  O   UNL A   1      53.420  23.760  25.344  1.00  0.00    -0.744 OA
ENDBRANCH  78  79
ENDBRANCH  52  73
ENDBRANCH  26  27
ENDBRANCH  18  21
ENDBRANCH  16  17
ENDBRANCH  15  16
ENDBRANCH  14  15
ENDBRANCH  12  14
ENDBRANCH   5  10
ENDBRANCH   1   5
BRANCH   2  83
ATOM     83  C   UNL A   1      32.598  27.719  22.717  1.00  0.00     0.175 C 
BRANCH  83  84
ATOM     84  N   UNL A   1      32.428  26.432  23.490  1.00  0.00    -0.342 N 
ATOM     85  C   UNL A   1      32.950  25.148  23.332  1.00  0.00     0.240 C 
ATOM     86  H   UNL A   1      31.825  26.518  24.264  1.00  0.00     0.164 HD
ATOM     87  O   UNL A   1      33.526  24.741  24.363  1.00  0.00    -0.273 OA
BRANCH  85  88
ATOM     88  C   UNL A   1      32.972  24.006  22.070  1.00  0.00     0.216 C 
BRANCH  88  89
ATOM     89  N   UNL A   1      32.439  22.615  21.786  1.00  0.00    -0.346 N 
ATOM     90  C   UNL A   1      32.130  21.413  22.369  1.00  0.00     0.239 C 
ATOM     91  H   UNL A   1      32.241  22.551  20.824  1.00  0.00     0.164 HD
ATOM     92  O   UNL A   1      31.931  20.493  21.556  1.00  0.00    -0.273 OA
BRANCH  90  93
ATOM     93  C   UNL A   1      32.120  21.056  23.878  1.00  0.00     0.219 C 
BRANCH  93  94
ATOM     94  N   UNL A   1      32.164  19.663  24.346  1.00  0.00    -0.312 N 
ATOM     95  C   UNL A   1      32.763  19.251  25.529  1.00  0.00     0.407 C 
ATOM     96  H   UNL A   1      31.741  18.976  23.782  1.00  0.00     0.167 HD
ATOM     97  O   UNL A   1      32.645  18.137  25.974  1.00  0.00    -0.225 OA
BRANCH  95  98
ATOM     98  O   UNL A   1      33.536  20.240  26.053  1.00  0.00    -0.445 OA
BRANCH  98  99
ATOM     99  C   UNL A   1      33.670  21.543  25.443  1.00  0.00     0.270 C 
BRANCH  99 100
ATOM    100  C   UNL A   1      35.042  22.179  25.279  1.00  0.00    -0.011 A 
ATOM    101  C   UNL A   1      35.695  22.200  24.034  1.00  0.00     0.007 A 
ATOM    102  C   UNL A   1      35.649  22.856  26.342  1.00  0.00     0.007 A 
ATOM    103  C   UNL A   1      36.934  22.832  23.870  1.00  0.00     0.000 A 
ATOM    104  C   UNL A   1      36.875  23.513  26.175  1.00  0.00     0.000 A 
ATOM    105  C   UNL A   1      37.524  23.493  24.942  1.00  0.00     0.000 A 
ENDBRANCH  99 100
ENDBRANCH  98  99
ENDBRANCH  95  98
ENDBRANCH  93  94
ENDBRANCH  90  93
ENDBRANCH  88  89
ENDBRANCH  85  88
ENDBRANCH  83  84
BRANCH  83 106
ATOM    106  C   UNL A   1      31.619  29.060  22.792  1.00  0.00     0.070 C 
BRANCH 106 107
ATOM    107  C   UNL A   1      30.087  29.171  22.637  1.00  0.00    -0.045 A 
ATOM    108  C   UNL A   1      29.177  28.186  23.067  1.00  0.00     0.004 A 
ATOM    109  C   UNL A   1      29.518  30.289  22.023  1.00  0.00     0.004 A 
ATOM    110  C   UNL A   1      27.802  28.437  23.199  1.00  0.00     0.000 A 
ATOM    111  C   UNL A   1      28.124  30.474  22.009  1.00  0.00     0.000 A 
ATOM    112  C   UNL A   1      27.274  29.607  22.686  1.00  0.00     0.000 A 
ENDBRANCH 106 107
ENDBRANCH  83 106
ENDBRANCH   2  83
TORSDOF 27
ENDMDL
