MODEL 1
REMARK VINA RESULT:     -10.8      0.000      0.000
REMARK SMILES CC(C)[C@@H](Nc1cc(Cl)c(Cl)cc1[N+](=O)[O-])C(=O)NCCCNC(=O)c1ccc(-c2c3nc(c(-c4ccc(S(=O)(=O)[O-])cc4)c4ccc([nH]4)c(-c4ccc(S(=O)(=O)[O-])cc4)c4nc(c(-c5ccc(S(=O)(=O)[O-])cc5)c5ccc2[nH]5)C=C4)C=C3)cc1
REMARK SMILES IDX 21 1 20 2 19 3 17 4 18 5 4 7 2 8 1 9 3 10 5 11 6 13 7 14
REMARK SMILES IDX 13 15 8 16 12 17 9 18 10 19 11 20 14 21 15 22 16 23 22 24
REMARK SMILES IDX 23 25 24 26 25 28 26 29 27 30 85 31 28 32 84 33 29 34 30 35
REMARK SMILES IDX 31 36 78 37 32 38 83 39 77 40 79 41 33 42 82 43 76 44 75 45
REMARK SMILES IDX 34 47 64 48 45 49 63 50 46 51 49 52 62 53 80 54 47 55 48 56
REMARK SMILES IDX 61 58 81 59 50 60 35 61 36 62 44 63 37 64 43 65 38 66 39 67
REMARK SMILES IDX 40 68 41 69 42 70 65 71 66 72 74 73 67 74 73 75 68 76 69 77
REMARK SMILES IDX 70 78 71 79 72 80 51 81 52 82 60 83 53 84 59 85 54 86 55 87
REMARK SMILES IDX 56 88 57 89 58 90
REMARK H PARENT 19 6 5 12 23 27 79 46 49 57
REMARK Flexibility Score: inf
ROOT
ATOM      1  C   UNL A   1      33.634  28.021  25.656  1.00  0.00     0.042 C 
ENDROOT
BRANCH   1   2
ATOM      2  C   UNL A   1      33.856  26.552  25.362  1.00  0.00     0.117 C 
BRANCH   2   3
ATOM      3  N   UNL A   1      33.143  26.112  24.179  1.00  0.00    -0.354 N 
ATOM      4  C   UNL A   1      32.290  25.056  24.023  1.00  0.00     0.242 C 
ATOM      5  O   UNL A   1      31.733  24.926  22.929  1.00  0.00    -0.273 OA
ATOM      6  H   UNL A   1      33.295  26.652  23.370  1.00  0.00     0.163 HD
BRANCH   4   7
ATOM      7  C   UNL A   1      32.026  24.054  25.176  1.00  0.00     0.171 C 
BRANCH   7   8
ATOM      8  C   UNL A   1      30.541  24.166  25.647  1.00  0.00     0.015 C 
ATOM      9  C   UNL A   1      30.207  23.238  26.820  1.00  0.00     0.010 C 
ATOM     10  C   UNL A   1      30.175  25.604  26.047  1.00  0.00     0.010 C 
ENDBRANCH   7   8
BRANCH   7  11
ATOM     11  N   UNL A   1      32.386  22.648  24.839  1.00  0.00    -0.368 N 
ATOM     12  H   UNL A   1      31.686  22.119  24.394  1.00  0.00     0.161 HD
BRANCH  11  13
ATOM     13  C   UNL A   1      33.588  21.991  25.073  1.00  0.00     0.115 A 
ATOM     14  C   UNL A   1      34.741  22.704  25.445  1.00  0.00     0.055 A 
ATOM     15  C   UNL A   1      33.759  20.615  24.774  1.00  0.00     0.293 A 
ATOM     16  C   UNL A   1      36.016  22.120  25.418  1.00  0.00     0.062 A 
ATOM     17  C   UNL A   1      35.036  20.021  24.746  1.00  0.00     0.110 A 
ATOM     18  Cl  UNL A   1      37.369  23.120  25.810  1.00  0.00    -0.083 Cl
ATOM     19  C   UNL A   1      36.164  20.783  25.045  1.00  0.00     0.066 A 
ATOM     20  Cl  UNL A   1      37.707  20.018  24.915  1.00  0.00    -0.082 Cl
BRANCH  15  21
ATOM     21  N   UNL A   1      32.612  19.766  24.400  1.00  0.00     0.065 N 
ATOM     22  O   UNL A   1      32.172  19.875  23.248  1.00  0.00    -0.258 OA
ATOM     23  O   UNL A   1      32.158  18.984  25.249  1.00  0.00    -0.258 OA
ENDBRANCH  15  21
ENDBRANCH  11  13
ENDBRANCH   7  11
ENDBRANCH   4   7
ENDBRANCH   2   3
ENDBRANCH   1   2
BRANCH   1  24
ATOM     24  C   UNL A   1      33.544  28.313  27.143  1.00  0.00     0.118 C 
BRANCH  24  25
ATOM     25  N   UNL A   1      33.490  29.744  27.428  1.00  0.00    -0.352 N 
ATOM     26  C   UNL A   1      34.420  30.547  28.038  1.00  0.00     0.251 C 
ATOM     27  H   UNL A   1      32.666  30.199  27.140  1.00  0.00     0.163 HD
ATOM     28  O   UNL A   1      34.111  31.684  28.387  1.00  0.00    -0.269 OA
BRANCH  26  29
ATOM     29  C   UNL A   1      35.779  30.028  28.285  1.00  0.00     0.039 A 
ATOM     30  C   UNL A   1      36.727  30.078  27.262  1.00  0.00     0.014 A 
ATOM     31  C   UNL A   1      36.120  29.514  29.538  1.00  0.00     0.014 A 
ATOM     32  C   UNL A   1      38.039  29.677  27.522  1.00  0.00     0.010 A 
ATOM     33  C   UNL A   1      37.445  29.220  29.825  1.00  0.00     0.010 A 
ATOM     34  C   UNL A   1      38.417  29.285  28.818  1.00  0.00    -0.014 A 
BRANCH  34  35
ATOM     35  C   UNL A   1      39.820  28.930  29.142  1.00  0.00     0.031 A 
ATOM     36  C   UNL A   1      40.726  29.952  29.775  1.00  0.00     0.074 A 
ATOM     37  C   UNL A   1      40.296  27.716  28.802  1.00  0.00     0.049 A 
ATOM     38  N   UNL A   1      41.996  29.855  30.072  1.00  0.00    -0.248 NA
ATOM     39  C   UNL A   1      40.137  31.266  30.086  1.00  0.00     0.031 C 
ATOM     40  C   UNL A   1      39.528  26.658  28.138  1.00  0.00     0.029 A 
ATOM     41  N   UNL A   1      41.543  27.168  28.960  1.00  0.00    -0.354 N 
ATOM     42  C   UNL A   1      42.359  31.095  30.586  1.00  0.00     0.074 A 
ATOM     43  C   UNL A   1      41.194  31.946  30.504  1.00  0.00     0.031 C 
ATOM     44  C   UNL A   1      40.311  25.579  27.979  1.00  0.00     0.029 A 
ATOM     45  C   UNL A   1      41.647  25.882  28.483  1.00  0.00     0.049 A 
ATOM     46  H   UNL A   1      42.294  27.649  29.377  1.00  0.00     0.167 HD
ATOM     47  C   UNL A   1      43.549  31.483  31.101  1.00  0.00     0.031 A 
ATOM     48  C   UNL A   1      42.700  25.043  28.447  1.00  0.00     0.031 A 
ATOM     49  C   UNL A   1      44.701  30.626  31.190  1.00  0.00     0.049 A 
ATOM     50  C   UNL A   1      44.015  25.500  29.017  1.00  0.00     0.074 A 
ATOM     51  C   UNL A   1      45.935  30.902  31.750  1.00  0.00     0.029 A 
ATOM     52  N   UNL A   1      44.761  29.327  30.706  1.00  0.00    -0.354 N 
ATOM     53  N   UNL A   1      44.319  26.653  29.565  1.00  0.00    -0.248 NA
ATOM     54  C   UNL A   1      45.125  24.540  28.976  1.00  0.00     0.031 C 
ATOM     55  C   UNL A   1      46.762  29.792  31.550  1.00  0.00     0.029 A 
ATOM     56  C   UNL A   1      46.021  28.799  30.928  1.00  0.00     0.049 A 
ATOM     57  H   UNL A   1      44.018  28.852  30.270  1.00  0.00     0.167 HD
ATOM     58  C   UNL A   1      45.649  26.546  29.959  1.00  0.00     0.074 A 
ATOM     59  C   UNL A   1      46.083  25.210  29.602  1.00  0.00     0.031 C 
ATOM     60  C   UNL A   1      46.437  27.468  30.564  1.00  0.00     0.031 A 
BRANCH  47  61
ATOM     61  C   UNL A   1      43.664  32.899  31.602  1.00  0.00    -0.014 A 
ATOM     62  C   UNL A   1      44.075  33.943  30.753  1.00  0.00     0.010 A 
ATOM     63  C   UNL A   1      43.319  33.199  32.933  1.00  0.00     0.010 A 
ATOM     64  C   UNL A   1      44.179  35.250  31.234  1.00  0.00     0.020 A 
ATOM     65  C   UNL A   1      43.390  34.511  33.410  1.00  0.00     0.020 A 
ATOM     66  C   UNL A   1      43.836  35.525  32.561  1.00  0.00     0.054 A 
BRANCH  66  67
ATOM     67  S   UNL A   1      43.954  37.236  33.150  1.00  0.00     0.124 S 
ATOM     68  O   UNL A   1      42.766  37.347  33.992  1.00  0.00    -0.237 OA
ATOM     69  O   UNL A   1      45.230  37.242  33.861  1.00  0.00    -0.237 OA
ATOM     70  O   UNL A   1      43.923  38.029  31.923  1.00  0.00    -0.744 OA
ENDBRANCH  66  67
ENDBRANCH  47  61
BRANCH  48  71
ATOM     71  C   UNL A   1      42.548  23.683  27.861  1.00  0.00    -0.014 A 
ATOM     72  C   UNL A   1      43.068  23.390  26.588  1.00  0.00     0.010 A 
ATOM     73  C   UNL A   1      41.892  22.666  28.581  1.00  0.00     0.010 A 
ATOM     74  C   UNL A   1      42.918  22.114  26.037  1.00  0.00     0.020 A 
ATOM     75  C   UNL A   1      41.769  21.381  28.046  1.00  0.00     0.020 A 
ATOM     76  C   UNL A   1      42.272  21.116  26.772  1.00  0.00     0.054 A 
BRANCH  76  77
ATOM     77  S   UNL A   1      42.133  19.455  26.056  1.00  0.00     0.124 S 
ATOM     78  O   UNL A   1      42.703  18.621  27.110  1.00  0.00    -0.237 OA
ATOM     79  O   UNL A   1      40.693  19.320  25.852  1.00  0.00    -0.237 OA
ATOM     80  O   UNL A   1      42.922  19.544  24.830  1.00  0.00    -0.744 OA
ENDBRANCH  76  77
ENDBRANCH  48  71
BRANCH  60  81
ATOM     81  C   UNL A   1      47.844  27.057  30.911  1.00  0.00    -0.014 A 
ATOM     82  C   UNL A   1      48.128  26.343  32.088  1.00  0.00     0.010 A 
ATOM     83  C   UNL A   1      48.888  27.341  30.011  1.00  0.00     0.010 A 
ATOM     84  C   UNL A   1      49.439  25.950  32.375  1.00  0.00     0.020 A 
ATOM     85  C   UNL A   1      50.193  26.921  30.280  1.00  0.00     0.020 A 
ATOM     86  C   UNL A   1      50.462  26.241  31.468  1.00  0.00     0.054 A 
BRANCH  86  87
ATOM     87  S   UNL A   1      52.146  25.680  31.843  1.00  0.00     0.124 S 
ATOM     88  O   UNL A   1      52.504  26.530  32.974  1.00  0.00    -0.237 OA
ATOM     89  O   UNL A   1      51.948  24.266  32.157  1.00  0.00    -0.237 OA
ATOM     90  O   UNL A   1      52.883  25.941  30.609  1.00  0.00    -0.744 OA
ENDBRANCH  86  87
ENDBRANCH  60  81
ENDBRANCH  34  35
ENDBRANCH  26  29
ENDBRANCH  24  25
ENDBRANCH   1  24
TORSDOF 17
ENDMDL
MODEL 2
REMARK VINA RESULT:     -10.4      3.777      5.109
REMARK SMILES CC(C)[C@@H](Nc1cc(Cl)c(Cl)cc1[N+](=O)[O-])C(=O)NCCCNC(=O)c1ccc(-c2c3nc(c(-c4ccc(S(=O)(=O)[O-])cc4)c4ccc([nH]4)c(-c4ccc(S(=O)(=O)[O-])cc4)c4nc(c(-c5ccc(S(=O)(=O)[O-])cc5)c5ccc2[nH]5)C=C4)C=C3)cc1
REMARK SMILES IDX 21 1 20 2 19 3 17 4 18 5 4 7 2 8 1 9 3 10 5 11 6 13 7 14
REMARK SMILES IDX 13 15 8 16 12 17 9 18 10 19 11 20 14 21 15 22 16 23 22 24
REMARK SMILES IDX 23 25 24 26 25 28 26 29 27 30 85 31 28 32 84 33 29 34 30 35
REMARK SMILES IDX 31 36 78 37 32 38 83 39 77 40 79 41 33 42 82 43 76 44 75 45
REMARK SMILES IDX 34 47 64 48 45 49 63 50 46 51 49 52 62 53 80 54 47 55 48 56
REMARK SMILES IDX 61 58 81 59 50 60 35 61 36 62 44 63 37 64 43 65 38 66 39 67
REMARK SMILES IDX 40 68 41 69 42 70 65 71 66 72 74 73 67 74 73 75 68 76 69 77
REMARK SMILES IDX 70 78 71 79 72 80 51 81 52 82 60 83 53 84 59 85 54 86 55 87
REMARK SMILES IDX 56 88 57 89 58 90
REMARK H PARENT 19 6 5 12 23 27 79 46 49 57
REMARK Flexibility Score: inf
ROOT
ATOM      1  C   UNL A   1      33.834  29.337  27.119  1.00  0.00     0.042 C 
ENDROOT
BRANCH   1   2
ATOM      2  C   UNL A   1      33.606  28.141  26.219  1.00  0.00     0.117 C 
BRANCH   2   3
ATOM      3  N   UNL A   1      32.566  27.263  26.722  1.00  0.00    -0.354 N 
ATOM      4  C   UNL A   1      32.124  26.070  26.225  1.00  0.00     0.242 C 
ATOM      5  O   UNL A   1      31.273  25.457  26.877  1.00  0.00    -0.273 OA
ATOM      6  H   UNL A   1      32.113  27.572  27.539  1.00  0.00     0.163 HD
BRANCH   4   7
ATOM      7  C   UNL A   1      32.667  25.498  24.890  1.00  0.00     0.171 C 
BRANCH   7   8
ATOM      8  C   UNL A   1      32.914  23.963  25.032  1.00  0.00     0.015 C 
ATOM      9  C   UNL A   1      33.045  23.244  23.685  1.00  0.00     0.010 C 
ATOM     10  C   UNL A   1      34.169  23.660  25.867  1.00  0.00     0.010 C 
ENDBRANCH   7   8
BRANCH   7  11
ATOM     11  N   UNL A   1      31.806  25.805  23.714  1.00  0.00    -0.368 N 
ATOM     12  H   UNL A   1      31.691  25.076  23.063  1.00  0.00     0.161 HD
BRANCH  11  13
ATOM     13  C   UNL A   1      31.144  26.992  23.422  1.00  0.00     0.115 A 
ATOM     14  C   UNL A   1      29.767  27.129  23.666  1.00  0.00     0.055 A 
ATOM     15  C   UNL A   1      31.772  28.042  22.704  1.00  0.00     0.293 A 
ATOM     16  C   UNL A   1      29.022  28.193  23.136  1.00  0.00     0.062 A 
ATOM     17  C   UNL A   1      31.031  29.113  22.169  1.00  0.00     0.110 A 
ATOM     18  Cl  UNL A   1      27.319  28.209  23.429  1.00  0.00    -0.083 Cl
ATOM     19  C   UNL A   1      29.653  29.173  22.367  1.00  0.00     0.066 A 
ATOM     20  Cl  UNL A   1      28.789  30.468  21.619  1.00  0.00    -0.082 Cl
BRANCH  15  21
ATOM     21  N   UNL A   1      33.219  28.012  22.417  1.00  0.00     0.065 N 
ATOM     22  O   UNL A   1      33.650  27.063  21.749  1.00  0.00    -0.258 OA
ATOM     23  O   UNL A   1      33.922  28.939  22.847  1.00  0.00    -0.258 OA
ENDBRANCH  15  21
ENDBRANCH  11  13
ENDBRANCH   7  11
ENDBRANCH   4   7
ENDBRANCH   2   3
ENDBRANCH   1   2
BRANCH   1  24
ATOM     24  C   UNL A   1      35.264  29.424  27.624  1.00  0.00     0.118 C 
BRANCH  24  25
ATOM     25  N   UNL A   1      35.366  30.157  28.883  1.00  0.00    -0.352 N 
ATOM     26  C   UNL A   1      36.413  30.227  29.767  1.00  0.00     0.251 C 
ATOM     27  H   UNL A   1      34.569  30.676  29.133  1.00  0.00     0.163 HD
ATOM     28  O   UNL A   1      36.239  30.718  30.881  1.00  0.00    -0.269 OA
BRANCH  26  29
ATOM     29  C   UNL A   1      37.732  29.694  29.377  1.00  0.00     0.039 A 
ATOM     30  C   UNL A   1      38.120  29.740  28.038  1.00  0.00     0.014 A 
ATOM     31  C   UNL A   1      38.594  29.170  30.344  1.00  0.00     0.014 A 
ATOM     32  C   UNL A   1      39.404  29.326  27.681  1.00  0.00     0.010 A 
ATOM     33  C   UNL A   1      39.904  28.862  30.005  1.00  0.00     0.010 A 
ATOM     34  C   UNL A   1      40.320  28.924  28.669  1.00  0.00    -0.014 A 
BRANCH  34  35
ATOM     35  C   UNL A   1      41.715  28.554  28.329  1.00  0.00     0.031 A 
ATOM     36  C   UNL A   1      42.781  29.616  28.271  1.00  0.00     0.074 A 
ATOM     37  C   UNL A   1      42.006  27.279  28.003  1.00  0.00     0.049 A 
ATOM     38  N   UNL A   1      44.038  29.502  27.930  1.00  0.00    -0.248 NA
ATOM     39  C   UNL A   1      42.373  30.990  28.610  1.00  0.00     0.031 C 
ATOM     40  C   UNL A   1      41.048  26.170  27.973  1.00  0.00     0.029 A 
ATOM     41  N   UNL A   1      43.192  26.700  27.626  1.00  0.00    -0.354 N 
ATOM     42  C   UNL A   1      44.564  30.788  27.996  1.00  0.00     0.074 A 
ATOM     43  C   UNL A   1      43.478  31.673  28.350  1.00  0.00     0.031 C 
ATOM     44  C   UNL A   1      41.691  25.042  27.633  1.00  0.00     0.029 A 
ATOM     45  C   UNL A   1      43.093  25.352  27.373  1.00  0.00     0.049 A 
ATOM     46  H   UNL A   1      44.034  27.202  27.544  1.00  0.00     0.167 HD
ATOM     47  C   UNL A   1      45.841  31.192  27.803  1.00  0.00     0.031 A 
ATOM     48  C   UNL A   1      44.025  24.466  26.970  1.00  0.00     0.031 A 
ATOM     49  C   UNL A   1      46.920  30.303  27.462  1.00  0.00     0.049 A 
ATOM     50  C   UNL A   1      45.435  24.940  26.752  1.00  0.00     0.074 A 
ATOM     51  C   UNL A   1      48.261  30.601  27.304  1.00  0.00     0.029 A 
ATOM     52  N   UNL A   1      46.780  28.943  27.227  1.00  0.00    -0.354 N 
ATOM     53  N   UNL A   1      45.928  26.148  26.891  1.00  0.00    -0.248 NA
ATOM     54  C   UNL A   1      46.417  23.930  26.337  1.00  0.00     0.031 C 
ATOM     55  C   UNL A   1      48.923  29.433  26.913  1.00  0.00     0.029 A 
ATOM     56  C   UNL A   1      48.007  28.393  26.895  1.00  0.00     0.049 A 
ATOM     57  H   UNL A   1      45.935  28.443  27.287  1.00  0.00     0.167 HD
ATOM     58  C   UNL A   1      47.286  26.037  26.606  1.00  0.00     0.074 A 
ATOM     59  C   UNL A   1      47.536  24.642  26.305  1.00  0.00     0.031 C 
ATOM     60  C   UNL A   1      48.238  27.003  26.597  1.00  0.00     0.031 A 
BRANCH  47  61
ATOM     61  C   UNL A   1      46.139  32.661  27.950  1.00  0.00    -0.014 A 
ATOM     62  C   UNL A   1      46.503  33.212  29.192  1.00  0.00     0.010 A 
ATOM     63  C   UNL A   1      46.093  33.499  26.820  1.00  0.00     0.010 A 
ATOM     64  C   UNL A   1      46.773  34.577  29.311  1.00  0.00     0.020 A 
ATOM     65  C   UNL A   1      46.394  34.861  26.929  1.00  0.00     0.020 A 
ATOM     66  C   UNL A   1      46.716  35.393  28.178  1.00  0.00     0.054 A 
BRANCH  66  67
ATOM     67  S   UNL A   1      47.099  37.156  28.359  1.00  0.00     0.124 S 
ATOM     68  O   UNL A   1      47.166  37.593  26.966  1.00  0.00    -0.237 OA
ATOM     69  O   UNL A   1      45.957  37.655  29.119  1.00  0.00    -0.237 OA
ATOM     70  O   UNL A   1      48.373  37.164  29.075  1.00  0.00    -0.744 OA
ENDBRANCH  66  67
ENDBRANCH  47  61
BRANCH  48  71
ATOM     71  C   UNL A   1      43.652  23.040  26.759  1.00  0.00    -0.014 A 
ATOM     72  C   UNL A   1      42.848  22.364  27.694  1.00  0.00     0.010 A 
ATOM     73  C   UNL A   1      44.088  22.352  25.611  1.00  0.00     0.010 A 
ATOM     74  C   UNL A   1      42.505  21.024  27.497  1.00  0.00     0.020 A 
ATOM     75  C   UNL A   1      43.721  21.021  25.395  1.00  0.00     0.020 A 
ATOM     76  C   UNL A   1      42.941  20.361  26.346  1.00  0.00     0.054 A 
BRANCH  76  77
ATOM     77  S   UNL A   1      42.442  18.636  26.088  1.00  0.00     0.124 S 
ATOM     78  O   UNL A   1      43.324  18.224  25.001  1.00  0.00    -0.237 OA
ATOM     79  O   UNL A   1      42.714  18.032  27.390  1.00  0.00    -0.237 OA
ATOM     80  O   UNL A   1      41.026  18.739  25.741  1.00  0.00    -0.744 OA
ENDBRANCH  76  77
ENDBRANCH  48  71
BRANCH  60  81
ATOM     81  C   UNL A   1      49.649  26.581  26.284  1.00  0.00    -0.014 A 
ATOM     82  C   UNL A   1      50.469  25.986  27.258  1.00  0.00     0.010 A 
ATOM     83  C   UNL A   1      50.140  26.731  24.973  1.00  0.00     0.010 A 
ATOM     84  C   UNL A   1      51.767  25.579  26.936  1.00  0.00     0.020 A 
ATOM     85  C   UNL A   1      51.425  26.296  24.639  1.00  0.00     0.020 A 
ATOM     86  C   UNL A   1      52.235  25.736  25.628  1.00  0.00     0.054 A 
BRANCH  86  87
ATOM     87  S   UNL A   1      53.907  25.158  25.225  1.00  0.00     0.124 S 
ATOM     88  O   UNL A   1      53.700  23.723  25.056  1.00  0.00    -0.237 OA
ATOM     89  O   UNL A   1      54.214  25.897  24.003  1.00  0.00    -0.237 OA
ATOM     90  O   UNL A   1      54.698  25.540  26.393  1.00  0.00    -0.744 OA
ENDBRANCH  86  87
ENDBRANCH  60  81
ENDBRANCH  34  35
ENDBRANCH  26  29
ENDBRANCH  24  25
ENDBRANCH   1  24
TORSDOF 17
ENDMDL
MODEL 3
REMARK VINA RESULT:     -10.2      3.564      9.328
REMARK SMILES CC(C)[C@@H](Nc1cc(Cl)c(Cl)cc1[N+](=O)[O-])C(=O)NCCCNC(=O)c1ccc(-c2c3nc(c(-c4ccc(S(=O)(=O)[O-])cc4)c4ccc([nH]4)c(-c4ccc(S(=O)(=O)[O-])cc4)c4nc(c(-c5ccc(S(=O)(=O)[O-])cc5)c5ccc2[nH]5)C=C4)C=C3)cc1
REMARK SMILES IDX 21 1 20 2 19 3 17 4 18 5 4 7 2 8 1 9 3 10 5 11 6 13 7 14
REMARK SMILES IDX 13 15 8 16 12 17 9 18 10 19 11 20 14 21 15 22 16 23 22 24
REMARK SMILES IDX 23 25 24 26 25 28 26 29 27 30 85 31 28 32 84 33 29 34 30 35
REMARK SMILES IDX 31 36 78 37 32 38 83 39 77 40 79 41 33 42 82 43 76 44 75 45
REMARK SMILES IDX 34 47 64 48 45 49 63 50 46 51 49 52 62 53 80 54 47 55 48 56
REMARK SMILES IDX 61 58 81 59 50 60 35 61 36 62 44 63 37 64 43 65 38 66 39 67
REMARK SMILES IDX 40 68 41 69 42 70 65 71 66 72 74 73 67 74 73 75 68 76 69 77
REMARK SMILES IDX 70 78 71 79 72 80 51 81 52 82 60 83 53 84 59 85 54 86 55 87
REMARK SMILES IDX 56 88 57 89 58 90
REMARK H PARENT 19 6 5 12 23 27 79 46 49 57
REMARK Flexibility Score: inf
ROOT
ATOM      1  C   UNL A   1      38.332  20.263  25.153  1.00  0.00     0.042 C 
ENDROOT
BRANCH   1   2
ATOM      2  C   UNL A   1      37.408  21.443  24.937  1.00  0.00     0.117 C 
BRANCH   2   3
ATOM      3  N   UNL A   1      36.408  21.559  25.981  1.00  0.00    -0.354 N 
ATOM      4  C   UNL A   1      35.094  21.185  25.969  1.00  0.00     0.242 C 
ATOM      5  O   UNL A   1      34.452  21.311  27.016  1.00  0.00    -0.273 OA
ATOM      6  H   UNL A   1      36.721  21.968  26.820  1.00  0.00     0.163 HD
BRANCH   4   7
ATOM      7  C   UNL A   1      34.426  20.619  24.690  1.00  0.00     0.171 C 
BRANCH   7   8
ATOM      8  C   UNL A   1      33.926  19.163  24.951  1.00  0.00     0.015 C 
ATOM      9  C   UNL A   1      32.578  18.859  24.290  1.00  0.00     0.010 C 
ATOM     10  C   UNL A   1      34.945  18.115  24.477  1.00  0.00     0.010 C 
ENDBRANCH   7   8
BRANCH   7  11
ATOM     11  N   UNL A   1      33.336  21.482  24.153  1.00  0.00    -0.368 N 
ATOM     12  H   UNL A   1      33.013  21.256  23.252  1.00  0.00     0.161 HD
BRANCH  11  13
ATOM     13  C   UNL A   1      32.718  22.564  24.768  1.00  0.00     0.115 A 
ATOM     14  C   UNL A   1      31.638  22.376  25.646  1.00  0.00     0.055 A 
ATOM     15  C   UNL A   1      33.019  23.902  24.404  1.00  0.00     0.293 A 
ATOM     16  C   UNL A   1      30.824  23.441  26.061  1.00  0.00     0.062 A 
ATOM     17  C   UNL A   1      32.207  24.977  24.816  1.00  0.00     0.110 A 
ATOM     18  Cl  UNL A   1      29.471  23.076  27.071  1.00  0.00    -0.083 Cl
ATOM     19  C   UNL A   1      31.097  24.739  25.625  1.00  0.00     0.066 A 
ATOM     20  Cl  UNL A   1      30.096  26.086  26.031  1.00  0.00    -0.082 Cl
BRANCH  15  21
ATOM     21  N   UNL A   1      34.149  24.216  23.510  1.00  0.00     0.065 N 
ATOM     22  O   UNL A   1      35.283  23.895  23.887  1.00  0.00    -0.258 OA
ATOM     23  O   UNL A   1      33.905  24.771  22.428  1.00  0.00    -0.258 OA
ENDBRANCH  15  21
ENDBRANCH  11  13
ENDBRANCH   7  11
ENDBRANCH   4   7
ENDBRANCH   2   3
ENDBRANCH   1   2
BRANCH   1  24
ATOM     24  C   UNL A   1      39.499  20.595  26.067  1.00  0.00     0.118 C 
BRANCH  24  25
ATOM     25  N   UNL A   1      40.494  19.526  26.110  1.00  0.00    -0.352 N 
ATOM     26  C   UNL A   1      41.862  19.612  26.146  1.00  0.00     0.251 C 
ATOM     27  H   UNL A   1      40.129  18.613  26.115  1.00  0.00     0.163 HD
ATOM     28  O   UNL A   1      42.542  18.605  25.960  1.00  0.00    -0.269 OA
BRANCH  26  29
ATOM     29  C   UNL A   1      42.504  20.918  26.389  1.00  0.00     0.039 A 
ATOM     30  C   UNL A   1      42.880  21.709  25.303  1.00  0.00     0.014 A 
ATOM     31  C   UNL A   1      42.712  21.367  27.695  1.00  0.00     0.014 A 
ATOM     32  C   UNL A   1      43.399  22.985  25.530  1.00  0.00     0.010 A 
ATOM     33  C   UNL A   1      43.125  22.674  27.917  1.00  0.00     0.010 A 
ATOM     34  C   UNL A   1      43.485  23.492  26.839  1.00  0.00    -0.014 A 
BRANCH  34  35
ATOM     35  C   UNL A   1      43.958  24.873  27.105  1.00  0.00     0.031 A 
ATOM     36  C   UNL A   1      45.413  25.215  26.930  1.00  0.00     0.074 A 
ATOM     37  C   UNL A   1      43.092  25.794  27.572  1.00  0.00     0.049 A 
ATOM     38  N   UNL A   1      46.028  26.343  27.174  1.00  0.00    -0.248 NA
ATOM     39  C   UNL A   1      46.298  24.142  26.446  1.00  0.00     0.031 C 
ATOM     40  C   UNL A   1      41.667  25.568  27.831  1.00  0.00     0.029 A 
ATOM     41  N   UNL A   1      43.286  27.107  27.920  1.00  0.00    -0.354 N 
ATOM     42  C   UNL A   1      47.370  26.110  26.893  1.00  0.00     0.074 A 
ATOM     43  C   UNL A   1      47.489  24.719  26.518  1.00  0.00     0.031 C 
ATOM     44  C   UNL A   1      41.111  26.711  28.263  1.00  0.00     0.029 A 
ATOM     45  C   UNL A   1      42.144  27.737  28.358  1.00  0.00     0.049 A 
ATOM     46  H   UNL A   1      44.159  27.557  27.862  1.00  0.00     0.167 HD
ATOM     47  C   UNL A   1      48.405  26.980  26.921  1.00  0.00     0.031 A 
ATOM     48  C   UNL A   1      41.952  28.997  28.794  1.00  0.00     0.031 A 
ATOM     49  C   UNL A   1      48.277  28.367  27.283  1.00  0.00     0.049 A 
ATOM     50  C   UNL A   1      43.119  29.944  28.826  1.00  0.00     0.074 A 
ATOM     51  C   UNL A   1      49.252  29.347  27.286  1.00  0.00     0.029 A 
ATOM     52  N   UNL A   1      47.102  28.968  27.709  1.00  0.00    -0.354 N 
ATOM     53  N   UNL A   1      44.368  29.723  28.486  1.00  0.00    -0.248 NA
ATOM     54  C   UNL A   1      42.851  31.312  29.287  1.00  0.00     0.031 C 
ATOM     55  C   UNL A   1      48.681  30.528  27.771  1.00  0.00     0.029 A 
ATOM     56  C   UNL A   1      47.334  30.300  28.005  1.00  0.00     0.049 A 
ATOM     57  H   UNL A   1      46.232  28.514  27.789  1.00  0.00     0.167 HD
ATOM     58  C   UNL A   1      45.028  30.934  28.666  1.00  0.00     0.074 A 
ATOM     59  C   UNL A   1      44.037  31.885  29.128  1.00  0.00     0.031 C 
ATOM     60  C   UNL A   1      46.336  31.232  28.465  1.00  0.00     0.031 A 
BRANCH  47  61
ATOM     61  C   UNL A   1      49.769  26.455  26.555  1.00  0.00    -0.014 A 
ATOM     62  C   UNL A   1      50.648  25.961  27.536  1.00  0.00     0.010 A 
ATOM     63  C   UNL A   1      50.164  26.418  25.205  1.00  0.00     0.010 A 
ATOM     64  C   UNL A   1      51.910  25.480  27.179  1.00  0.00     0.020 A 
ATOM     65  C   UNL A   1      51.414  25.908  24.840  1.00  0.00     0.020 A 
ATOM     66  C   UNL A   1      52.285  25.457  25.833  1.00  0.00     0.054 A 
BRANCH  66  67
ATOM     67  S   UNL A   1      53.918  24.801  25.399  1.00  0.00     0.124 S 
ATOM     68  O   UNL A   1      53.575  23.514  24.798  1.00  0.00    -0.237 OA
ATOM     69  O   UNL A   1      54.432  25.808  24.474  1.00  0.00    -0.237 OA
ATOM     70  O   UNL A   1      54.615  24.723  26.680  1.00  0.00    -0.744 OA
ENDBRANCH  66  67
ENDBRANCH  47  61
BRANCH  48  71
ATOM     71  C   UNL A   1      40.595  29.435  29.224  1.00  0.00    -0.014 A 
ATOM     72  C   UNL A   1      40.331  29.726  30.575  1.00  0.00     0.010 A 
ATOM     73  C   UNL A   1      39.560  29.578  28.281  1.00  0.00     0.010 A 
ATOM     74  C   UNL A   1      39.056  30.131  30.977  1.00  0.00     0.020 A 
ATOM     75  C   UNL A   1      38.291  30.014  28.675  1.00  0.00     0.020 A 
ATOM     76  C   UNL A   1      38.044  30.276  30.024  1.00  0.00     0.054 A 
BRANCH  76  77
ATOM     77  S   UNL A   1      36.410  30.850  30.562  1.00  0.00     0.124 S 
ATOM     78  O   UNL A   1      35.951  29.735  31.384  1.00  0.00    -0.237 OA
ATOM     79  O   UNL A   1      36.731  32.079  31.284  1.00  0.00    -0.237 OA
ATOM     80  O   UNL A   1      35.686  31.045  29.308  1.00  0.00    -0.744 OA
ENDBRANCH  76  77
ENDBRANCH  48  71
BRANCH  60  81
ATOM     81  C   UNL A   1      46.768  32.654  28.710  1.00  0.00    -0.014 A 
ATOM     82  C   UNL A   1      47.261  33.064  29.961  1.00  0.00     0.010 A 
ATOM     83  C   UNL A   1      46.734  33.579  27.649  1.00  0.00     0.010 A 
ATOM     84  C   UNL A   1      47.680  34.383  30.156  1.00  0.00     0.020 A 
ATOM     85  C   UNL A   1      47.182  34.889  27.832  1.00  0.00     0.020 A 
ATOM     86  C   UNL A   1      47.639  35.286  29.090  1.00  0.00     0.054 A 
BRANCH  86  87
ATOM     87  S   UNL A   1      48.232  36.979  29.358  1.00  0.00     0.124 S 
ATOM     88  O   UNL A   1      48.557  37.406  28.000  1.00  0.00    -0.237 OA
ATOM     89  O   UNL A   1      47.072  37.632  29.961  1.00  0.00    -0.237 OA
ATOM     90  O   UNL A   1      49.377  36.810  30.249  1.00  0.00    -0.744 OA
ENDBRANCH  86  87
ENDBRANCH  60  81
ENDBRANCH  34  35
ENDBRANCH  26  29
ENDBRANCH  24  25
ENDBRANCH   1  24
TORSDOF 17
ENDMDL
