MODEL 1
REMARK VINA RESULT:     -12.4      0.000      0.000
REMARK SMILES O=C(NCCCNC(=O)[C@@H]1[C@@H](C(=O)Nc2ccc(OC(F)F)c(Cl)c2)[C@@H]2C=C[C@H]1O2)c1ccc(-c2c3nc(c(-c4ccc(S(=O)(=O)[O-])cc4)c4ccc([nH]4)c(-c4ccc(S(=O)(=O)[O-])cc4)c4nc(c(-c5ccc(S(=O)(=O)[O-])cc5)c5ccc2[nH]5)C=C4)C=C3)cc1
REMARK SMILES IDX 5 1 4 2 3 3 1 4 2 5 31 7 32 8 90 9 33 10 89 11 34 12 35 13
REMARK SMILES IDX 36 14 83 15 37 16 88 17 82 18 84 19 38 20 87 21 81 22 80 23
REMARK SMILES IDX 39 25 69 26 50 27 68 28 51 29 54 30 67 31 85 32 52 33 53 34
REMARK SMILES IDX 66 36 86 37 55 38 40 39 41 40 49 41 42 42 48 43 43 44 44 45
REMARK SMILES IDX 45 46 46 47 47 48 70 49 71 50 79 51 72 52 78 53 73 54 74 55
REMARK SMILES IDX 75 56 76 57 77 58 56 59 57 60 65 61 58 62 64 63 59 64 60 65
REMARK SMILES IDX 61 66 62 67 63 68 6 69 7 70 8 71 9 73 10 74 11 75 29 76
REMARK SMILES IDX 26 77 28 78 30 79 27 80 12 81 13 82 14 83 15 85 16 86 25 87
REMARK SMILES IDX 17 88 23 89 18 90 24 91 19 92 20 93 21 94 22 95
REMARK H PARENT 3 6 84 24 54 35 7 72 14 84
REMARK Flexibility Score: inf
ROOT
ATOM      1  C   UNL A   1      37.514  23.424  25.741  1.00  0.00     0.042 C 
ENDROOT
BRANCH   1   2
ATOM      2  C   UNL A   1      38.562  24.047  26.648  1.00  0.00     0.118 C 
BRANCH   2   3
ATOM      3  N   UNL A   1      39.762  24.463  25.930  1.00  0.00    -0.352 N 
ATOM      4  O   UNL A   1      41.460  25.780  25.272  1.00  0.00    -0.269 OA
ATOM      5  C   UNL A   1      40.618  25.521  26.131  1.00  0.00     0.251 C 
ATOM      6  H   UNL A   1      40.001  23.885  25.169  1.00  0.00     0.163 HD
BRANCH   5   7
ATOM      7  C   UNL A   1      40.516  26.365  27.343  1.00  0.00     0.039 A 
ATOM      8  C   UNL A   1      41.200  27.574  27.426  1.00  0.00     0.014 A 
ATOM      9  C   UNL A   1      39.692  25.971  28.403  1.00  0.00     0.014 A 
ATOM     10  C   UNL A   1      41.239  28.272  28.622  1.00  0.00     0.010 A 
ATOM     11  C   UNL A   1      39.607  26.761  29.558  1.00  0.00     0.010 A 
ATOM     12  C   UNL A   1      40.404  27.906  29.688  1.00  0.00    -0.014 A 
BRANCH  12  13
ATOM     13  C   UNL A   1      40.316  28.824  30.854  1.00  0.00     0.031 A 
ATOM     14  C   UNL A   1      41.261  28.715  32.019  1.00  0.00     0.074 A 
ATOM     15  C   UNL A   1      39.396  29.811  30.812  1.00  0.00     0.049 A 
ATOM     16  N   UNL A   1      41.333  29.472  33.083  1.00  0.00    -0.248 NA
ATOM     17  C   UNL A   1      42.242  27.618  31.999  1.00  0.00     0.031 C 
ATOM     18  C   UNL A   1      38.416  30.005  29.735  1.00  0.00     0.029 A 
ATOM     19  N   UNL A   1      39.151  30.857  31.664  1.00  0.00    -0.354 N 
ATOM     20  C   UNL A   1      42.339  28.930  33.874  1.00  0.00     0.074 A 
ATOM     21  C   UNL A   1      42.847  27.773  33.171  1.00  0.00     0.031 C 
ATOM     22  C   UNL A   1      37.739  31.140  29.949  1.00  0.00     0.029 A 
ATOM     23  C   UNL A   1      38.162  31.704  31.222  1.00  0.00     0.049 A 
ATOM     24  H   UNL A   1      39.637  30.989  32.509  1.00  0.00     0.167 HD
ATOM     25  C   UNL A   1      42.790  29.362  35.076  1.00  0.00     0.031 A 
ATOM     26  C   UNL A   1      37.624  32.801  31.788  1.00  0.00     0.031 A 
ATOM     27  C   UNL A   1      42.286  30.528  35.756  1.00  0.00     0.049 A 
ATOM     28  C   UNL A   1      38.138  33.241  33.125  1.00  0.00     0.074 A 
ATOM     29  C   UNL A   1      42.707  31.067  36.961  1.00  0.00     0.029 A 
ATOM     30  N   UNL A   1      41.253  31.332  35.298  1.00  0.00    -0.354 N 
ATOM     31  N   UNL A   1      39.110  32.727  33.839  1.00  0.00    -0.248 NA
ATOM     32  C   UNL A   1      37.478  34.399  33.738  1.00  0.00     0.031 C 
ATOM     33  C   UNL A   1      41.892  32.165  37.257  1.00  0.00     0.029 A 
ATOM     34  C   UNL A   1      41.002  32.343  36.211  1.00  0.00     0.049 A 
ATOM     35  H   UNL A   1      40.770  31.203  34.451  1.00  0.00     0.167 HD
ATOM     36  C   UNL A   1      39.179  33.501  34.989  1.00  0.00     0.074 A 
ATOM     37  C   UNL A   1      38.174  34.539  34.857  1.00  0.00     0.031 C 
ATOM     38  C   UNL A   1      39.993  33.361  36.063  1.00  0.00     0.031 A 
BRANCH  25  39
ATOM     39  C   UNL A   1      43.866  28.562  35.763  1.00  0.00    -0.014 A 
ATOM     40  C   UNL A   1      45.225  28.884  35.616  1.00  0.00     0.010 A 
ATOM     41  C   UNL A   1      43.500  27.531  36.649  1.00  0.00     0.010 A 
ATOM     42  C   UNL A   1      46.200  28.183  36.333  1.00  0.00     0.020 A 
ATOM     43  C   UNL A   1      44.469  26.842  37.385  1.00  0.00     0.020 A 
ATOM     44  C   UNL A   1      45.815  27.169  37.215  1.00  0.00     0.054 A 
BRANCH  44  45
ATOM     45  S   UNL A   1      47.096  26.318  38.180  1.00  0.00     0.124 S 
ATOM     46  O   UNL A   1      46.481  26.251  39.503  1.00  0.00    -0.237 OA
ATOM     47  O   UNL A   1      47.226  25.040  37.483  1.00  0.00    -0.237 OA
ATOM     48  O   UNL A   1      48.254  27.202  38.076  1.00  0.00    -0.744 OA
ENDBRANCH  44  45
ENDBRANCH  25  39
BRANCH  26  49
ATOM     49  C   UNL A   1      36.502  33.511  31.116  1.00  0.00    -0.014 A 
ATOM     50  C   UNL A   1      36.625  33.973  29.795  1.00  0.00     0.010 A 
ATOM     51  C   UNL A   1      35.292  33.721  31.804  1.00  0.00     0.010 A 
ATOM     52  C   UNL A   1      35.568  34.655  29.185  1.00  0.00     0.020 A 
ATOM     53  C   UNL A   1      34.222  34.369  31.187  1.00  0.00     0.020 A 
ATOM     54  C   UNL A   1      34.373  34.850  29.886  1.00  0.00     0.054 A 
BRANCH  54  55
ATOM     55  S   UNL A   1      33.001  35.710  29.070  1.00  0.00     0.124 S 
ATOM     56  O   UNL A   1      32.212  36.168  30.209  1.00  0.00    -0.237 OA
ATOM     57  O   UNL A   1      33.686  36.754  28.312  1.00  0.00    -0.237 OA
ATOM     58  O   UNL A   1      32.381  34.666  28.256  1.00  0.00    -0.744 OA
ENDBRANCH  54  55
ENDBRANCH  26  49
BRANCH  38  59
ATOM     59  C   UNL A   1      39.836  34.367  37.168  1.00  0.00    -0.014 A 
ATOM     60  C   UNL A   1      38.992  34.112  38.263  1.00  0.00     0.010 A 
ATOM     61  C   UNL A   1      40.565  35.569  37.123  1.00  0.00     0.010 A 
ATOM     62  C   UNL A   1      38.851  35.060  39.278  1.00  0.00     0.020 A 
ATOM     63  C   UNL A   1      40.447  36.507  38.150  1.00  0.00     0.020 A 
ATOM     64  C   UNL A   1      39.578  36.253  39.213  1.00  0.00     0.054 A 
BRANCH  64  65
ATOM     65  S   UNL A   1      39.402  37.455  40.559  1.00  0.00     0.124 S 
ATOM     66  O   UNL A   1      40.711  38.104  40.558  1.00  0.00    -0.237 OA
ATOM     67  O   UNL A   1      38.289  38.286  40.106  1.00  0.00    -0.237 OA
ATOM     68  O   UNL A   1      39.119  36.627  41.728  1.00  0.00    -0.744 OA
ENDBRANCH  64  65
ENDBRANCH  38  59
ENDBRANCH  12  13
ENDBRANCH   5   7
ENDBRANCH   2   3
ENDBRANCH   1   2
BRANCH   1  69
ATOM     69  C   UNL A   1      36.229  24.227  25.666  1.00  0.00     0.117 C 
BRANCH  69  70
ATOM     70  N   UNL A   1      35.420  23.927  24.501  1.00  0.00    -0.356 N 
ATOM     71  C   UNL A   1      34.424  24.617  23.894  1.00  0.00     0.227 C 
ATOM     72  H   UNL A   1      35.632  23.066  24.073  1.00  0.00     0.163 HD
ATOM     73  O   UNL A   1      34.131  24.236  22.754  1.00  0.00    -0.275 OA
BRANCH  71  74
ATOM     74  C   UNL A   1      33.606  25.701  24.570  1.00  0.00     0.127 C 
ATOM     75  C   UNL A   1      32.070  25.348  24.466  1.00  0.00     0.127 C 
ATOM     76  C   UNL A   1      33.614  27.136  24.036  1.00  0.00     0.155 C 
ATOM     77  C   UNL A   1      31.503  26.669  23.921  1.00  0.00     0.155 C 
ATOM     78  C   UNL A   1      33.251  27.204  22.582  1.00  0.00     0.004 C 
ATOM     79  O   UNL A   1      32.363  27.621  24.592  1.00  0.00    -0.365 OA
ATOM     80  C   UNL A   1      31.955  26.884  22.508  1.00  0.00     0.004 C 
BRANCH  75  81
ATOM     81  C   UNL A   1      31.460  25.003  25.817  1.00  0.00     0.231 C 
ATOM     82  O   UNL A   1      30.863  25.837  26.501  1.00  0.00    -0.274 OA
ATOM     83  N   UNL A   1      31.522  23.726  26.308  1.00  0.00    -0.326 N 
ATOM     84  H   UNL A   1      30.949  23.565  27.093  1.00  0.00     0.169 HD
BRANCH  83  85
ATOM     85  C   UNL A   1      32.257  22.608  25.891  1.00  0.00     0.042 A 
ATOM     86  C   UNL A   1      33.316  22.073  26.610  1.00  0.00     0.030 A 
ATOM     87  C   UNL A   1      31.894  22.016  24.680  1.00  0.00     0.050 A 
ATOM     88  C   UNL A   1      34.033  20.994  26.086  1.00  0.00     0.050 A 
ATOM     89  C   UNL A   1      32.632  20.949  24.134  1.00  0.00     0.085 A 
ATOM     90  C   UNL A   1      33.718  20.419  24.841  1.00  0.00     0.144 A 
ATOM     91  Cl  UNL A   1      32.102  20.452  22.568  1.00  0.00    -0.080 Cl
BRANCH  90  92
ATOM     92  O   UNL A   1      34.587  19.411  24.546  1.00  0.00    -0.433 OA
BRANCH  92  93
ATOM     93  C   UNL A   1      34.188  18.059  24.429  1.00  0.00     0.542 C 
ATOM     94  F   UNL A   1      33.751  17.800  23.177  1.00  0.00    -0.167 F 
ATOM     95  F   UNL A   1      35.218  17.243  24.741  1.00  0.00    -0.167 F 
ENDBRANCH  92  93
ENDBRANCH  90  92
ENDBRANCH  83  85
ENDBRANCH  75  81
ENDBRANCH  71  74
ENDBRANCH  69  70
ENDBRANCH   1  69
TORSDOF 17
ENDMDL
MODEL 2
REMARK VINA RESULT:     -12.3      2.371      3.763
REMARK SMILES O=C(NCCCNC(=O)[C@@H]1[C@@H](C(=O)Nc2ccc(OC(F)F)c(Cl)c2)[C@@H]2C=C[C@H]1O2)c1ccc(-c2c3nc(c(-c4ccc(S(=O)(=O)[O-])cc4)c4ccc([nH]4)c(-c4ccc(S(=O)(=O)[O-])cc4)c4nc(c(-c5ccc(S(=O)(=O)[O-])cc5)c5ccc2[nH]5)C=C4)C=C3)cc1
REMARK SMILES IDX 5 1 4 2 3 3 1 4 2 5 31 7 32 8 90 9 33 10 89 11 34 12 35 13
REMARK SMILES IDX 36 14 83 15 37 16 88 17 82 18 84 19 38 20 87 21 81 22 80 23
REMARK SMILES IDX 39 25 69 26 50 27 68 28 51 29 54 30 67 31 85 32 52 33 53 34
REMARK SMILES IDX 66 36 86 37 55 38 40 39 41 40 49 41 42 42 48 43 43 44 44 45
REMARK SMILES IDX 45 46 46 47 47 48 70 49 71 50 79 51 72 52 78 53 73 54 74 55
REMARK SMILES IDX 75 56 76 57 77 58 56 59 57 60 65 61 58 62 64 63 59 64 60 65
REMARK SMILES IDX 61 66 62 67 63 68 6 69 7 70 8 71 9 73 10 74 11 75 29 76
REMARK SMILES IDX 26 77 28 78 30 79 27 80 12 81 13 82 14 83 15 85 16 86 25 87
REMARK SMILES IDX 17 88 23 89 18 90 24 91 19 92 20 93 21 94 22 95
REMARK H PARENT 3 6 84 24 54 35 7 72 14 84
REMARK Flexibility Score: inf
ROOT
ATOM      1  C   UNL A   1      38.713  22.454  26.236  1.00  0.00     0.042 C 
ENDROOT
BRANCH   1   2
ATOM      2  C   UNL A   1      38.994  23.905  26.588  1.00  0.00     0.118 C 
BRANCH   2   3
ATOM      3  N   UNL A   1      40.081  24.481  25.804  1.00  0.00    -0.352 N 
ATOM      4  O   UNL A   1      41.550  26.015  25.068  1.00  0.00    -0.269 OA
ATOM      5  C   UNL A   1      40.806  25.638  25.973  1.00  0.00     0.251 C 
ATOM      6  H   UNL A   1      40.342  23.949  25.018  1.00  0.00     0.163 HD
BRANCH   5   7
ATOM      7  C   UNL A   1      40.678  26.446  27.207  1.00  0.00     0.039 A 
ATOM      8  C   UNL A   1      41.355  27.654  27.339  1.00  0.00     0.014 A 
ATOM      9  C   UNL A   1      39.835  26.018  28.240  1.00  0.00     0.014 A 
ATOM     10  C   UNL A   1      41.368  28.318  28.555  1.00  0.00     0.010 A 
ATOM     11  C   UNL A   1      39.724  26.774  29.415  1.00  0.00     0.010 A 
ATOM     12  C   UNL A   1      40.515  27.918  29.593  1.00  0.00    -0.014 A 
BRANCH  12  13
ATOM     13  C   UNL A   1      40.400  28.801  30.784  1.00  0.00     0.031 A 
ATOM     14  C   UNL A   1      41.337  28.677  31.953  1.00  0.00     0.074 A 
ATOM     15  C   UNL A   1      39.462  29.771  30.762  1.00  0.00     0.049 A 
ATOM     16  N   UNL A   1      41.387  29.405  33.038  1.00  0.00    -0.248 NA
ATOM     17  C   UNL A   1      42.340  27.600  31.911  1.00  0.00     0.031 C 
ATOM     18  C   UNL A   1      38.486  29.977  29.682  1.00  0.00     0.029 A 
ATOM     19  N   UNL A   1      39.190  30.788  31.640  1.00  0.00    -0.354 N 
ATOM     20  C   UNL A   1      42.397  28.860  33.822  1.00  0.00     0.074 A 
ATOM     21  C   UNL A   1      42.933  27.732  33.092  1.00  0.00     0.031 C 
ATOM     22  C   UNL A   1      37.786  31.093  29.922  1.00  0.00     0.029 A 
ATOM     23  C   UNL A   1      38.189  31.628  31.214  1.00  0.00     0.049 A 
ATOM     24  H   UNL A   1      39.667  30.905  32.493  1.00  0.00     0.167 HD
ATOM     25  C   UNL A   1      42.831  29.267  35.039  1.00  0.00     0.031 A 
ATOM     26  C   UNL A   1      37.626  32.699  31.806  1.00  0.00     0.031 A 
ATOM     27  C   UNL A   1      42.300  30.403  35.748  1.00  0.00     0.049 A 
ATOM     28  C   UNL A   1      38.121  33.111  33.159  1.00  0.00     0.074 A 
ATOM     29  C   UNL A   1      42.701  30.916  36.971  1.00  0.00     0.029 A 
ATOM     30  N   UNL A   1      41.255  31.200  35.304  1.00  0.00    -0.354 N 
ATOM     31  N   UNL A   1      39.097  32.595  33.867  1.00  0.00    -0.248 NA
ATOM     32  C   UNL A   1      37.434  34.239  33.799  1.00  0.00     0.031 C 
ATOM     33  C   UNL A   1      41.863  31.990  37.290  1.00  0.00     0.029 A 
ATOM     34  C   UNL A   1      40.978  32.181  36.242  1.00  0.00     0.049 A 
ATOM     35  H   UNL A   1      40.781  31.086  34.449  1.00  0.00     0.167 HD
ATOM     36  C   UNL A   1      39.143  33.338  35.038  1.00  0.00     0.074 A 
ATOM     37  C   UNL A   1      38.120  34.360  34.926  1.00  0.00     0.031 C 
ATOM     38  C   UNL A   1      39.951  33.184  36.114  1.00  0.00     0.031 A 
BRANCH  25  39
ATOM     39  C   UNL A   1      43.916  28.468  35.713  1.00  0.00    -0.014 A 
ATOM     40  C   UNL A   1      45.271  28.816  35.580  1.00  0.00     0.010 A 
ATOM     41  C   UNL A   1      43.563  27.410  36.572  1.00  0.00     0.010 A 
ATOM     42  C   UNL A   1      46.254  28.114  36.286  1.00  0.00     0.020 A 
ATOM     43  C   UNL A   1      44.540  26.720  37.296  1.00  0.00     0.020 A 
ATOM     44  C   UNL A   1      45.881  27.072  37.142  1.00  0.00     0.054 A 
BRANCH  44  45
ATOM     45  S   UNL A   1      47.171  26.220  38.093  1.00  0.00     0.124 S 
ATOM     46  O   UNL A   1      48.315  26.303  37.188  1.00  0.00    -0.237 OA
ATOM     47  O   UNL A   1      47.268  27.034  39.302  1.00  0.00    -0.237 OA
ATOM     48  O   UNL A   1      46.630  24.878  38.290  1.00  0.00    -0.744 OA
ENDBRANCH  44  45
ENDBRANCH  25  39
BRANCH  26  49
ATOM     49  C   UNL A   1      36.496  33.406  31.145  1.00  0.00    -0.014 A 
ATOM     50  C   UNL A   1      35.272  33.596  31.809  1.00  0.00     0.010 A 
ATOM     51  C   UNL A   1      36.647  33.901  29.836  1.00  0.00     0.010 A 
ATOM     52  C   UNL A   1      34.214  34.245  31.167  1.00  0.00     0.020 A 
ATOM     53  C   UNL A   1      35.605  34.582  29.204  1.00  0.00     0.020 A 
ATOM     54  C   UNL A   1      34.387  34.733  29.868  1.00  0.00     0.054 A 
BRANCH  54  55
ATOM     55  S   UNL A   1      33.014  35.600  29.060  1.00  0.00     0.124 S 
ATOM     56  O   UNL A   1      32.208  36.017  30.202  1.00  0.00    -0.237 OA
ATOM     57  O   UNL A   1      33.696  36.672  28.339  1.00  0.00    -0.237 OA
ATOM     58  O   UNL A   1      32.416  34.572  28.211  1.00  0.00    -0.744 OA
ENDBRANCH  54  55
ENDBRANCH  26  49
BRANCH  38  59
ATOM     59  C   UNL A   1      39.766  34.155  37.246  1.00  0.00    -0.014 A 
ATOM     60  C   UNL A   1      38.988  33.819  38.367  1.00  0.00     0.010 A 
ATOM     61  C   UNL A   1      40.404  35.407  37.198  1.00  0.00     0.010 A 
ATOM     62  C   UNL A   1      38.820  34.736  39.407  1.00  0.00     0.020 A 
ATOM     63  C   UNL A   1      40.260  36.316  38.248  1.00  0.00     0.020 A 
ATOM     64  C   UNL A   1      39.456  35.980  39.339  1.00  0.00     0.054 A 
BRANCH  64  65
ATOM     65  S   UNL A   1      39.248  37.141  40.715  1.00  0.00     0.124 S 
ATOM     66  O   UNL A   1      40.626  37.548  40.979  1.00  0.00    -0.237 OA
ATOM     67  O   UNL A   1      38.388  38.173  40.140  1.00  0.00    -0.237 OA
ATOM     68  O   UNL A   1      38.626  36.331  41.760  1.00  0.00    -0.744 OA
ENDBRANCH  64  65
ENDBRANCH  38  59
ENDBRANCH  12  13
ENDBRANCH   5   7
ENDBRANCH   2   3
ENDBRANCH   1   2
BRANCH   1  69
ATOM     69  C   UNL A   1      37.629  22.288  25.188  1.00  0.00     0.117 C 
BRANCH  69  70
ATOM     70  N   UNL A   1      36.799  23.465  25.016  1.00  0.00    -0.356 N 
ATOM     71  C   UNL A   1      35.458  23.640  25.095  1.00  0.00     0.227 C 
ATOM     72  H   UNL A   1      37.300  24.285  24.804  1.00  0.00     0.163 HD
ATOM     73  O   UNL A   1      35.078  24.814  25.188  1.00  0.00    -0.275 OA
BRANCH  71  74
ATOM     74  C   UNL A   1      34.443  22.520  24.951  1.00  0.00     0.127 C 
ATOM     75  C   UNL A   1      32.985  23.126  24.920  1.00  0.00     0.127 C 
ATOM     76  C   UNL A   1      34.296  21.453  26.040  1.00  0.00     0.155 C 
ATOM     77  C   UNL A   1      32.286  22.259  25.979  1.00  0.00     0.155 C 
ATOM     78  C   UNL A   1      34.045  22.052  27.393  1.00  0.00     0.004 C 
ATOM     79  O   UNL A   1      32.948  20.990  25.758  1.00  0.00    -0.365 OA
ATOM     80  C   UNL A   1      32.817  22.577  27.345  1.00  0.00     0.004 C 
BRANCH  75  81
ATOM     81  C   UNL A   1      32.322  22.974  23.559  1.00  0.00     0.231 C 
ATOM     82  O   UNL A   1      32.377  21.925  22.914  1.00  0.00    -0.274 OA
ATOM     83  N   UNL A   1      31.597  24.002  23.014  1.00  0.00    -0.326 N 
ATOM     84  H   UNL A   1      31.064  23.749  22.226  1.00  0.00     0.169 HD
BRANCH  83  85
ATOM     85  C   UNL A   1      31.483  25.350  23.380  1.00  0.00     0.042 A 
ATOM     86  C   UNL A   1      30.416  25.861  24.106  1.00  0.00     0.030 A 
ATOM     87  C   UNL A   1      32.504  26.213  22.981  1.00  0.00     0.050 A 
ATOM     88  C   UNL A   1      30.354  27.231  24.373  1.00  0.00     0.050 A 
ATOM     89  C   UNL A   1      32.432  27.598  23.221  1.00  0.00     0.085 A 
ATOM     90  C   UNL A   1      31.346  28.126  23.930  1.00  0.00     0.144 A 
ATOM     91  Cl  UNL A   1      33.728  28.505  22.529  1.00  0.00    -0.080 Cl
BRANCH  90  92
ATOM     92  O   UNL A   1      31.031  29.403  24.288  1.00  0.00    -0.433 OA
BRANCH  92  93
ATOM     93  C   UNL A   1      31.565  30.035  25.437  1.00  0.00     0.542 C 
ATOM     94  F   UNL A   1      32.909  30.129  25.345  1.00  0.00    -0.167 F 
ATOM     95  F   UNL A   1      31.021  31.261  25.586  1.00  0.00    -0.167 F 
ENDBRANCH  92  93
ENDBRANCH  90  92
ENDBRANCH  83  85
ENDBRANCH  75  81
ENDBRANCH  71  74
ENDBRANCH  69  70
ENDBRANCH   1  69
TORSDOF 17
ENDMDL
MODEL 3
REMARK VINA RESULT:     -12.2      6.594     11.209
REMARK SMILES O=C(NCCCNC(=O)[C@@H]1[C@@H](C(=O)Nc2ccc(OC(F)F)c(Cl)c2)[C@@H]2C=C[C@H]1O2)c1ccc(-c2c3nc(c(-c4ccc(S(=O)(=O)[O-])cc4)c4ccc([nH]4)c(-c4ccc(S(=O)(=O)[O-])cc4)c4nc(c(-c5ccc(S(=O)(=O)[O-])cc5)c5ccc2[nH]5)C=C4)C=C3)cc1
REMARK SMILES IDX 5 1 4 2 3 3 1 4 2 5 31 7 32 8 90 9 33 10 89 11 34 12 35 13
REMARK SMILES IDX 36 14 83 15 37 16 88 17 82 18 84 19 38 20 87 21 81 22 80 23
REMARK SMILES IDX 39 25 69 26 50 27 68 28 51 29 54 30 67 31 85 32 52 33 53 34
REMARK SMILES IDX 66 36 86 37 55 38 40 39 41 40 49 41 42 42 48 43 43 44 44 45
REMARK SMILES IDX 45 46 46 47 47 48 70 49 71 50 79 51 72 52 78 53 73 54 74 55
REMARK SMILES IDX 75 56 76 57 77 58 56 59 57 60 65 61 58 62 64 63 59 64 60 65
REMARK SMILES IDX 61 66 62 67 63 68 6 69 7 70 8 71 9 73 10 74 11 75 29 76
REMARK SMILES IDX 26 77 28 78 30 79 27 80 12 81 13 82 14 83 15 85 16 86 25 87
REMARK SMILES IDX 17 88 23 89 18 90 24 91 19 92 20 93 21 94 22 95
REMARK H PARENT 3 6 84 24 54 35 7 72 14 84
REMARK Flexibility Score: inf
ROOT
ATOM      1  C   UNL A   1      34.307  29.155  27.455  1.00  0.00     0.042 C 
ENDROOT
BRANCH   1   2
ATOM      2  C   UNL A   1      35.473  29.987  27.962  1.00  0.00     0.118 C 
BRANCH   2   3
ATOM      3  N   UNL A   1      35.524  30.068  29.418  1.00  0.00    -0.352 N 
ATOM      4  O   UNL A   1      36.274  29.733  31.511  1.00  0.00    -0.269 OA
ATOM      5  C   UNL A   1      36.531  29.768  30.308  1.00  0.00     0.251 C 
ATOM      6  H   UNL A   1      34.695  30.394  29.837  1.00  0.00     0.163 HD
BRANCH   5   7
ATOM      7  C   UNL A   1      37.899  29.458  29.836  1.00  0.00     0.039 A 
ATOM      8  C   UNL A   1      38.819  28.843  30.680  1.00  0.00     0.014 A 
ATOM      9  C   UNL A   1      38.266  29.743  28.515  1.00  0.00     0.014 A 
ATOM     10  C   UNL A   1      40.143  28.712  30.291  1.00  0.00     0.010 A 
ATOM     11  C   UNL A   1      39.566  29.464  28.072  1.00  0.00     0.010 A 
ATOM     12  C   UNL A   1      40.525  28.972  28.968  1.00  0.00    -0.014 A 
BRANCH  12  13
ATOM     13  C   UNL A   1      41.901  28.593  28.550  1.00  0.00     0.031 A 
ATOM     14  C   UNL A   1      42.221  27.216  28.040  1.00  0.00     0.074 A 
ATOM     15  C   UNL A   1      42.855  29.547  28.582  1.00  0.00     0.049 A 
ATOM     16  N   UNL A   1      43.363  26.755  27.598  1.00  0.00    -0.248 NA
ATOM     17  C   UNL A   1      41.133  26.223  28.028  1.00  0.00     0.031 C 
ATOM     18  C   UNL A   1      42.660  30.919  29.072  1.00  0.00     0.029 A 
ATOM     19  N   UNL A   1      44.161  29.536  28.164  1.00  0.00    -0.354 N 
ATOM     20  C   UNL A   1      43.145  25.418  27.287  1.00  0.00     0.074 A 
ATOM     21  C   UNL A   1      41.761  25.135  27.598  1.00  0.00     0.031 C 
ATOM     22  C   UNL A   1      43.772  31.632  28.851  1.00  0.00     0.029 A 
ATOM     23  C   UNL A   1      44.790  30.752  28.297  1.00  0.00     0.049 A 
ATOM     24  H   UNL A   1      44.604  28.735  27.803  1.00  0.00     0.167 HD
ATOM     25  C   UNL A   1      44.024  24.514  26.792  1.00  0.00     0.031 A 
ATOM     26  C   UNL A   1      46.057  31.121  28.034  1.00  0.00     0.031 A 
ATOM     27  C   UNL A   1      45.396  24.815  26.470  1.00  0.00     0.049 A 
ATOM     28  C   UNL A   1      47.006  30.091  27.501  1.00  0.00     0.074 A 
ATOM     29  C   UNL A   1      46.354  23.974  25.927  1.00  0.00     0.029 A 
ATOM     30  N   UNL A   1      46.007  26.044  26.663  1.00  0.00    -0.354 N 
ATOM     31  N   UNL A   1      46.767  28.840  27.189  1.00  0.00    -0.248 NA
ATOM     32  C   UNL A   1      48.395  30.516  27.294  1.00  0.00     0.031 C 
ATOM     33  C   UNL A   1      47.558  24.681  25.842  1.00  0.00     0.029 A 
ATOM     34  C   UNL A   1      47.336  25.976  26.278  1.00  0.00     0.049 A 
ATOM     35  H   UNL A   1      45.563  26.847  27.019  1.00  0.00     0.167 HD
ATOM     36  C   UNL A   1      47.979  28.327  26.747  1.00  0.00     0.074 A 
ATOM     37  C   UNL A   1      48.938  29.413  26.799  1.00  0.00     0.031 C 
ATOM     38  C   UNL A   1      48.275  27.068  26.345  1.00  0.00     0.031 A 
BRANCH  25  39
ATOM     39  C   UNL A   1      43.552  23.098  26.589  1.00  0.00    -0.014 A 
ATOM     40  C   UNL A   1      43.751  22.427  25.370  1.00  0.00     0.010 A 
ATOM     41  C   UNL A   1      42.988  22.397  27.671  1.00  0.00     0.010 A 
ATOM     42  C   UNL A   1      43.385  21.084  25.234  1.00  0.00     0.020 A 
ATOM     43  C   UNL A   1      42.640  21.048  27.546  1.00  0.00     0.020 A 
ATOM     44  C   UNL A   1      42.834  20.402  26.324  1.00  0.00     0.054 A 
BRANCH  44  45
ATOM     45  S   UNL A   1      42.426  18.644  26.138  1.00  0.00     0.124 S 
ATOM     46  O   UNL A   1      42.674  18.133  27.484  1.00  0.00    -0.237 OA
ATOM     47  O   UNL A   1      41.023  18.682  25.730  1.00  0.00    -0.237 OA
ATOM     48  O   UNL A   1      43.357  18.176  25.115  1.00  0.00    -0.744 OA
ENDBRANCH  44  45
ENDBRANCH  25  39
BRANCH  26  49
ATOM     49  C   UNL A   1      46.506  32.508  28.333  1.00  0.00    -0.014 A 
ATOM     50  C   UNL A   1      46.475  33.508  27.347  1.00  0.00     0.010 A 
ATOM     51  C   UNL A   1      46.964  32.835  29.623  1.00  0.00     0.010 A 
ATOM     52  C   UNL A   1      46.918  34.801  27.638  1.00  0.00     0.020 A 
ATOM     53  C   UNL A   1      47.373  34.133  29.929  1.00  0.00     0.020 A 
ATOM     54  C   UNL A   1      47.366  35.105  28.928  1.00  0.00     0.054 A 
BRANCH  54  55
ATOM     55  S   UNL A   1      47.909  36.795  29.298  1.00  0.00     0.124 S 
ATOM     56  O   UNL A   1      47.085  37.583  28.388  1.00  0.00    -0.237 OA
ATOM     57  O   UNL A   1      47.590  36.927  30.718  1.00  0.00    -0.237 OA
ATOM     58  O   UNL A   1      49.337  36.769  28.990  1.00  0.00    -0.744 OA
ENDBRANCH  54  55
ENDBRANCH  26  49
BRANCH  38  59
ATOM     59  C   UNL A   1      49.691  26.808  25.914  1.00  0.00    -0.014 A 
ATOM     60  C   UNL A   1      50.112  27.092  24.604  1.00  0.00     0.010 A 
ATOM     61  C   UNL A   1      50.618  26.301  26.843  1.00  0.00     0.010 A 
ATOM     62  C   UNL A   1      51.429  26.837  24.216  1.00  0.00     0.020 A 
ATOM     63  C   UNL A   1      51.943  26.071  26.466  1.00  0.00     0.020 A 
ATOM     64  C   UNL A   1      52.336  26.326  25.151  1.00  0.00     0.054 A 
BRANCH  64  65
ATOM     65  S   UNL A   1      54.048  26.033  24.634  1.00  0.00     0.124 S 
ATOM     66  O   UNL A   1      53.982  26.300  23.200  1.00  0.00    -0.237 OA
ATOM     67  O   UNL A   1      54.794  27.012  25.421  1.00  0.00    -0.237 OA
ATOM     68  O   UNL A   1      54.286  24.639  24.998  1.00  0.00    -0.744 OA
ENDBRANCH  64  65
ENDBRANCH  38  59
ENDBRANCH  12  13
ENDBRANCH   5   7
ENDBRANCH   2   3
ENDBRANCH   1   2
BRANCH   1  69
ATOM     69  C   UNL A   1      33.361  29.929  26.558  1.00  0.00     0.117 C 
BRANCH  69  70
ATOM     70  N   UNL A   1      33.518  29.630  25.148  1.00  0.00    -0.356 N 
ATOM     71  C   UNL A   1      32.668  29.088  24.242  1.00  0.00     0.227 C 
ATOM     72  H   UNL A   1      34.402  29.863  24.782  1.00  0.00     0.163 HD
ATOM     73  O   UNL A   1      32.992  29.230  23.057  1.00  0.00    -0.275 OA
BRANCH  71  74
ATOM     74  C   UNL A   1      31.462  28.242  24.607  1.00  0.00     0.127 C 
ATOM     75  C   UNL A   1      31.899  26.732  24.757  1.00  0.00     0.127 C 
ATOM     76  C   UNL A   1      30.278  28.111  23.645  1.00  0.00     0.155 C 
ATOM     77  C   UNL A   1      30.853  26.036  23.871  1.00  0.00     0.155 C 
ATOM     78  C   UNL A   1      30.700  27.645  22.283  1.00  0.00     0.004 C 
ATOM     79  O   UNL A   1      29.697  26.870  24.126  1.00  0.00    -0.365 OA
ATOM     80  C   UNL A   1      31.086  26.373  22.429  1.00  0.00     0.004 C 
BRANCH  75  81
ATOM     81  C   UNL A   1      31.816  26.243  26.195  1.00  0.00     0.231 C 
ATOM     82  O   UNL A   1      31.127  26.811  27.045  1.00  0.00    -0.274 OA
ATOM     83  N   UNL A   1      32.485  25.114  26.591  1.00  0.00    -0.326 N 
ATOM     84  H   UNL A   1      32.227  24.781  27.481  1.00  0.00     0.169 HD
BRANCH  83  85
ATOM     85  C   UNL A   1      33.471  24.350  25.952  1.00  0.00     0.042 A 
ATOM     86  C   UNL A   1      34.764  24.801  25.725  1.00  0.00     0.030 A 
ATOM     87  C   UNL A   1      33.116  23.071  25.523  1.00  0.00     0.050 A 
ATOM     88  C   UNL A   1      35.665  23.994  25.024  1.00  0.00     0.050 A 
ATOM     89  C   UNL A   1      34.009  22.267  24.791  1.00  0.00     0.085 A 
ATOM     90  C   UNL A   1      35.308  22.724  24.534  1.00  0.00     0.144 A 
ATOM     91  Cl  UNL A   1      33.331  20.778  24.238  1.00  0.00    -0.080 Cl
BRANCH  90  92
ATOM     92  O   UNL A   1      36.350  22.163  23.859  1.00  0.00    -0.433 OA
BRANCH  92  93
ATOM     93  C   UNL A   1      37.245  21.241  24.452  1.00  0.00     0.542 C 
ATOM     94  F   UNL A   1      38.274  21.890  25.039  1.00  0.00    -0.167 F 
ATOM     95  F   UNL A   1      36.595  20.481  25.359  1.00  0.00    -0.167 F 
ENDBRANCH  92  93
ENDBRANCH  90  92
ENDBRANCH  83  85
ENDBRANCH  75  81
ENDBRANCH  71  74
ENDBRANCH  69  70
ENDBRANCH   1  69
TORSDOF 17
ENDMDL
