MODEL 1
REMARK VINA RESULT:     -12.3      0.000      0.000
REMARK SMILES Cc1cc2[nH]ccc2nc1C(=O)NCCCNC(=O)c1ccc(-c2c3nc(c(-c4ccc(S(=O)(=O)[O-])cc4)c4ccc([nH]4)c(-c4ccc(S(=O)(=O)[O-])cc4)c4nc(c(-c5ccc(S(=O)(=O)[O-])cc5)c5ccc2[nH]5)C=C4)C=C3)cc1
REMARK SMILES IDX 17 1 18 2 19 3 16 5 15 6 14 7 13 8 11 9 12 10 10 12 1 13
REMARK SMILES IDX 2 14 3 15 4 16 9 17 5 18 8 19 6 20 7 22 20 23 21 24 79 25
REMARK SMILES IDX 22 26 78 27 23 28 24 29 25 30 72 31 26 32 77 33 71 34 73 35
REMARK SMILES IDX 27 36 76 37 70 38 69 39 28 41 58 42 39 43 57 44 40 45 43 46
REMARK SMILES IDX 56 47 74 48 41 49 42 50 55 52 75 53 44 54 29 55 30 56 38 57
REMARK SMILES IDX 31 58 37 59 32 60 33 61 34 62 35 63 36 64 59 65 60 66 68 67
REMARK SMILES IDX 61 68 67 69 62 70 63 71 64 72 65 73 66 74 45 75 46 76 54 77
REMARK SMILES IDX 47 78 53 79 48 80 49 81 50 82 51 83 52 84
REMARK H PARENT 17 4 13 11 5 21 73 40 43 51
REMARK Flexibility Score: inf
ROOT
ATOM      1  N   UNL A   1      39.794  22.565  26.268  1.00  0.00    -0.352 N 
ATOM      2  C   UNL A   1      41.161  22.815  26.219  1.00  0.00     0.251 C 
ATOM      3  O   UNL A   1      41.945  21.982  25.806  1.00  0.00    -0.269 OA
ATOM      4  H   UNL A   1      39.508  21.635  26.115  1.00  0.00     0.163 HD
ENDROOT
BRANCH   1   5
ATOM      5  C   UNL A   1      38.740  23.547  26.523  1.00  0.00     0.118 C 
BRANCH   5   6
ATOM      6  C   UNL A   1      37.561  23.482  25.576  1.00  0.00     0.042 C 
BRANCH   6   7
ATOM      7  C   UNL A   1      36.655  22.279  25.761  1.00  0.00     0.118 C 
BRANCH   7   8
ATOM      8  N   UNL A   1      35.571  22.381  26.708  1.00  0.00    -0.351 N 
ATOM      9  C   UNL A   1      34.294  21.848  26.653  1.00  0.00     0.270 C 
ATOM     10  O   UNL A   1      33.646  21.875  27.703  1.00  0.00    -0.268 OA
ATOM     11  H   UNL A   1      35.770  22.909  27.515  1.00  0.00     0.163 HD
BRANCH   9  12
ATOM     12  C   UNL A   1      33.628  21.338  25.382  1.00  0.00     0.131 A 
ATOM     13  C   UNL A   1      33.101  23.607  24.235  1.00  0.00     0.047 C 
ATOM     14  C   UNL A   1      33.025  22.114  24.373  1.00  0.00    -0.018 A 
ATOM     15  C   UNL A   1      32.326  21.457  23.342  1.00  0.00     0.034 A 
ATOM     16  C   UNL A   1      32.456  20.077  23.279  1.00  0.00     0.064 A 
ATOM     17  N   UNL A   1      33.735  19.981  25.310  1.00  0.00    -0.241 NA
ATOM     18  N   UNL A   1      32.003  19.157  22.366  1.00  0.00    -0.360 N 
ATOM     19  C   UNL A   1      33.188  19.386  24.232  1.00  0.00     0.089 A 
ATOM     20  C   UNL A   1      32.516  17.918  22.658  1.00  0.00     0.085 A 
ATOM     21  H   UNL A   1      31.401  19.356  21.613  1.00  0.00     0.166 HD
ATOM     22  C   UNL A   1      33.245  18.032  23.824  1.00  0.00     0.048 A 
ENDBRANCH   9  12
ENDBRANCH   7   8
ENDBRANCH   6   7
ENDBRANCH   5   6
ENDBRANCH   1   5
BRANCH   2  23
ATOM     23  C   UNL A   1      41.608  24.163  26.634  1.00  0.00     0.039 A 
ATOM     24  C   UNL A   1      41.502  25.234  25.750  1.00  0.00     0.014 A 
ATOM     25  C   UNL A   1      41.889  24.371  27.980  1.00  0.00     0.014 A 
ATOM     26  C   UNL A   1      41.532  26.528  26.267  1.00  0.00     0.010 A 
ATOM     27  C   UNL A   1      41.765  25.644  28.502  1.00  0.00     0.010 A 
ATOM     28  C   UNL A   1      41.587  26.740  27.659  1.00  0.00    -0.014 A 
BRANCH  28  29
ATOM     29  C   UNL A   1      41.342  28.088  28.196  1.00  0.00     0.031 A 
ATOM     30  C   UNL A   1      42.386  29.118  27.906  1.00  0.00     0.074 A 
ATOM     31  C   UNL A   1      40.221  28.519  28.814  1.00  0.00     0.049 A 
ATOM     32  N   UNL A   1      43.281  29.568  28.724  1.00  0.00    -0.248 NA
ATOM     33  C   UNL A   1      42.516  29.642  26.538  1.00  0.00     0.031 C 
ATOM     34  C   UNL A   1      38.935  27.840  28.999  1.00  0.00     0.029 A 
ATOM     35  N   UNL A   1      39.991  29.747  29.366  1.00  0.00    -0.354 N 
ATOM     36  C   UNL A   1      43.959  30.579  28.051  1.00  0.00     0.074 A 
ATOM     37  C   UNL A   1      43.547  30.482  26.671  1.00  0.00     0.031 C 
ATOM     38  C   UNL A   1      38.002  28.730  29.402  1.00  0.00     0.029 A 
ATOM     39  C   UNL A   1      38.668  29.980  29.704  1.00  0.00     0.049 A 
ATOM     40  H   UNL A   1      40.704  30.410  29.511  1.00  0.00     0.167 HD
ATOM     41  C   UNL A   1      44.649  31.551  28.714  1.00  0.00     0.031 A 
ATOM     42  C   UNL A   1      38.142  31.107  30.234  1.00  0.00     0.031 A 
ATOM     43  C   UNL A   1      44.813  31.240  30.111  1.00  0.00     0.049 A 
ATOM     44  C   UNL A   1      39.240  31.806  30.940  1.00  0.00     0.074 A 
ATOM     45  C   UNL A   1      45.379  30.206  30.829  1.00  0.00     0.029 A 
ATOM     46  N   UNL A   1      44.011  31.919  30.997  1.00  0.00    -0.354 N 
ATOM     47  N   UNL A   1      39.835  31.330  31.999  1.00  0.00    -0.248 NA
ATOM     48  C   UNL A   1      39.943  32.883  30.262  1.00  0.00     0.031 C 
ATOM     49  C   UNL A   1      44.527  30.034  31.959  1.00  0.00     0.029 A 
ATOM     50  C   UNL A   1      43.522  31.002  31.887  1.00  0.00     0.049 A 
ATOM     51  H   UNL A   1      43.822  32.886  30.992  1.00  0.00     0.167 HD
ATOM     52  C   UNL A   1      41.152  31.749  31.888  1.00  0.00     0.074 A 
ATOM     53  C   UNL A   1      41.126  32.798  30.874  1.00  0.00     0.031 C 
ATOM     54  C   UNL A   1      42.178  31.027  32.431  1.00  0.00     0.031 A 
BRANCH  41  55
ATOM     55  C   UNL A   1      44.834  32.962  28.209  1.00  0.00    -0.014 A 
ATOM     56  C   UNL A   1      46.120  33.544  28.263  1.00  0.00     0.010 A 
ATOM     57  C   UNL A   1      43.749  33.830  27.971  1.00  0.00     0.010 A 
ATOM     58  C   UNL A   1      46.297  34.931  28.175  1.00  0.00     0.020 A 
ATOM     59  C   UNL A   1      43.920  35.209  27.837  1.00  0.00     0.020 A 
ATOM     60  C   UNL A   1      45.190  35.755  27.983  1.00  0.00     0.054 A 
BRANCH  60  61
ATOM     61  S   UNL A   1      45.406  37.553  28.015  1.00  0.00     0.124 S 
ATOM     62  O   UNL A   1      44.740  37.909  29.265  1.00  0.00    -0.237 OA
ATOM     63  O   UNL A   1      46.860  37.691  28.010  1.00  0.00    -0.237 OA
ATOM     64  O   UNL A   1      44.738  37.999  26.796  1.00  0.00    -0.744 OA
ENDBRANCH  60  61
ENDBRANCH  41  55
BRANCH  42  65
ATOM     65  C   UNL A   1      36.817  31.709  29.962  1.00  0.00    -0.014 A 
ATOM     66  C   UNL A   1      36.085  32.333  30.986  1.00  0.00     0.010 A 
ATOM     67  C   UNL A   1      36.397  31.917  28.630  1.00  0.00     0.010 A 
ATOM     68  C   UNL A   1      35.021  33.198  30.687  1.00  0.00     0.020 A 
ATOM     69  C   UNL A   1      35.331  32.771  28.325  1.00  0.00     0.020 A 
ATOM     70  C   UNL A   1      34.668  33.433  29.355  1.00  0.00     0.054 A 
BRANCH  70  71
ATOM     71  S   UNL A   1      33.429  34.705  28.976  1.00  0.00     0.124 S 
ATOM     72  O   UNL A   1      32.846  34.974  30.287  1.00  0.00    -0.237 OA
ATOM     73  O   UNL A   1      34.243  35.779  28.414  1.00  0.00    -0.237 OA
ATOM     74  O   UNL A   1      32.537  34.046  28.023  1.00  0.00    -0.744 OA
ENDBRANCH  70  71
ENDBRANCH  42  65
BRANCH  54  75
ATOM     75  C   UNL A   1      41.872  29.975  33.471  1.00  0.00    -0.014 A 
ATOM     76  C   UNL A   1      41.450  28.670  33.157  1.00  0.00     0.010 A 
ATOM     77  C   UNL A   1      42.226  30.266  34.801  1.00  0.00     0.010 A 
ATOM     78  C   UNL A   1      41.395  27.679  34.151  1.00  0.00     0.020 A 
ATOM     79  C   UNL A   1      42.190  29.281  35.791  1.00  0.00     0.020 A 
ATOM     80  C   UNL A   1      41.779  27.990  35.460  1.00  0.00     0.054 A 
BRANCH  80  81
ATOM     81  S   UNL A   1      41.824  26.676  36.713  1.00  0.00     0.124 S 
ATOM     82  O   UNL A   1      43.010  27.020  37.492  1.00  0.00    -0.237 OA
ATOM     83  O   UNL A   1      40.548  26.842  37.404  1.00  0.00    -0.237 OA
ATOM     84  O   UNL A   1      41.936  25.447  35.927  1.00  0.00    -0.744 OA
ENDBRANCH  80  81
ENDBRANCH  54  75
ENDBRANCH  28  29
ENDBRANCH   2  23
TORSDOF 13
ENDMDL
MODEL 2
REMARK VINA RESULT:     -12.3      1.306      1.851
REMARK SMILES Cc1cc2[nH]ccc2nc1C(=O)NCCCNC(=O)c1ccc(-c2c3nc(c(-c4ccc(S(=O)(=O)[O-])cc4)c4ccc([nH]4)c(-c4ccc(S(=O)(=O)[O-])cc4)c4nc(c(-c5ccc(S(=O)(=O)[O-])cc5)c5ccc2[nH]5)C=C4)C=C3)cc1
REMARK SMILES IDX 17 1 18 2 19 3 16 5 15 6 14 7 13 8 11 9 12 10 10 12 1 13
REMARK SMILES IDX 2 14 3 15 4 16 9 17 5 18 8 19 6 20 7 22 20 23 21 24 79 25
REMARK SMILES IDX 22 26 78 27 23 28 24 29 25 30 72 31 26 32 77 33 71 34 73 35
REMARK SMILES IDX 27 36 76 37 70 38 69 39 28 41 58 42 39 43 57 44 40 45 43 46
REMARK SMILES IDX 56 47 74 48 41 49 42 50 55 52 75 53 44 54 29 55 30 56 38 57
REMARK SMILES IDX 31 58 37 59 32 60 33 61 34 62 35 63 36 64 59 65 60 66 68 67
REMARK SMILES IDX 61 68 67 69 62 70 63 71 64 72 65 73 66 74 45 75 46 76 54 77
REMARK SMILES IDX 47 78 53 79 48 80 49 81 50 82 51 83 52 84
REMARK H PARENT 17 4 13 11 5 21 73 40 43 51
REMARK Flexibility Score: inf
ROOT
ATOM      1  N   UNL A   1      40.822  22.634  26.442  1.00  0.00    -0.352 N 
ATOM      2  C   UNL A   1      41.993  23.188  25.935  1.00  0.00     0.251 C 
ATOM      3  O   UNL A   1      42.675  22.597  25.121  1.00  0.00    -0.269 OA
ATOM      4  H   UNL A   1      40.660  21.684  26.245  1.00  0.00     0.163 HD
ENDROOT
BRANCH   1   5
ATOM      5  C   UNL A   1      39.808  23.326  27.239  1.00  0.00     0.118 C 
BRANCH   5   6
ATOM      6  C   UNL A   1      38.886  24.234  26.454  1.00  0.00     0.042 C 
BRANCH   6   7
ATOM      7  C   UNL A   1      37.618  23.574  25.944  1.00  0.00     0.118 C 
BRANCH   7   8
ATOM      8  N   UNL A   1      37.508  23.309  24.530  1.00  0.00    -0.351 N 
ATOM      9  C   UNL A   1      36.410  22.907  23.787  1.00  0.00     0.270 C 
ATOM     10  O   UNL A   1      36.521  22.993  22.561  1.00  0.00    -0.268 OA
ATOM     11  H   UNL A   1      38.338  23.435  24.016  1.00  0.00     0.163 HD
BRANCH   9  12
ATOM     12  C   UNL A   1      35.151  22.289  24.378  1.00  0.00     0.131 A 
ATOM     13  C   UNL A   1      36.056  19.918  24.930  1.00  0.00     0.047 C 
ATOM     14  C   UNL A   1      34.977  20.953  24.789  1.00  0.00    -0.018 A 
ATOM     15  C   UNL A   1      33.691  20.525  25.173  1.00  0.00     0.034 A 
ATOM     16  C   UNL A   1      32.723  21.508  25.316  1.00  0.00     0.064 A 
ATOM     17  N   UNL A   1      34.183  23.238  24.515  1.00  0.00    -0.241 NA
ATOM     18  N   UNL A   1      31.425  21.455  25.763  1.00  0.00    -0.360 N 
ATOM     19  C   UNL A   1      33.004  22.835  25.029  1.00  0.00     0.089 A 
ATOM     20  C   UNL A   1      30.914  22.724  25.864  1.00  0.00     0.085 A 
ATOM     21  H   UNL A   1      30.934  20.629  25.979  1.00  0.00     0.166 HD
ATOM     22  C   UNL A   1      31.873  23.600  25.398  1.00  0.00     0.048 A 
ENDBRANCH   9  12
ENDBRANCH   7   8
ENDBRANCH   6   7
ENDBRANCH   5   6
ENDBRANCH   1   5
BRANCH   2  23
ATOM     23  C   UNL A   1      42.333  24.556  26.387  1.00  0.00     0.039 A 
ATOM     24  C   UNL A   1      42.111  25.642  25.545  1.00  0.00     0.014 A 
ATOM     25  C   UNL A   1      42.635  24.742  27.732  1.00  0.00     0.014 A 
ATOM     26  C   UNL A   1      42.045  26.916  26.108  1.00  0.00     0.010 A 
ATOM     27  C   UNL A   1      42.416  25.981  28.302  1.00  0.00     0.010 A 
ATOM     28  C   UNL A   1      42.121  27.086  27.504  1.00  0.00    -0.014 A 
BRANCH  28  29
ATOM     29  C   UNL A   1      41.777  28.388  28.095  1.00  0.00     0.031 A 
ATOM     30  C   UNL A   1      42.790  29.476  27.940  1.00  0.00     0.074 A 
ATOM     31  C   UNL A   1      40.596  28.735  28.652  1.00  0.00     0.049 A 
ATOM     32  N   UNL A   1      43.603  29.916  28.845  1.00  0.00    -0.248 NA
ATOM     33  C   UNL A   1      42.992  30.084  26.616  1.00  0.00     0.031 C 
ATOM     34  C   UNL A   1      39.333  27.993  28.704  1.00  0.00     0.029 A 
ATOM     35  N   UNL A   1      40.271  29.918  29.252  1.00  0.00    -0.354 N 
ATOM     36  C   UNL A   1      44.280  30.991  28.280  1.00  0.00     0.074 A 
ATOM     37  C   UNL A   1      43.972  30.957  26.870  1.00  0.00     0.031 C 
ATOM     38  C   UNL A   1      38.333  28.818  29.086  1.00  0.00     0.029 A 
ATOM     39  C   UNL A   1      38.918  30.075  29.504  1.00  0.00     0.049 A 
ATOM     40  H   UNL A   1      40.941  30.601  29.485  1.00  0.00     0.167 HD
ATOM     41  C   UNL A   1      44.875  31.951  29.045  1.00  0.00     0.031 A 
ATOM     42  C   UNL A   1      38.304  31.147  30.056  1.00  0.00     0.031 A 
ATOM     43  C   UNL A   1      44.954  31.567  30.430  1.00  0.00     0.049 A 
ATOM     44  C   UNL A   1      39.316  31.849  30.878  1.00  0.00     0.074 A 
ATOM     45  C   UNL A   1      45.515  30.517  31.129  1.00  0.00     0.029 A 
ATOM     46  N   UNL A   1      44.061  32.159  31.291  1.00  0.00    -0.354 N 
ATOM     47  N   UNL A   1      39.856  31.337  31.950  1.00  0.00    -0.248 NA
ATOM     48  C   UNL A   1      40.015  32.992  30.313  1.00  0.00     0.031 C 
ATOM     49  C   UNL A   1      44.594  30.244  32.183  1.00  0.00     0.029 A 
ATOM     50  C   UNL A   1      43.552  31.171  32.091  1.00  0.00     0.049 A 
ATOM     51  H   UNL A   1      43.828  33.116  31.325  1.00  0.00     0.167 HD
ATOM     52  C   UNL A   1      41.157  31.816  31.959  1.00  0.00     0.074 A 
ATOM     53  C   UNL A   1      41.154  32.922  31.005  1.00  0.00     0.031 C 
ATOM     54  C   UNL A   1      42.173  31.108  32.535  1.00  0.00     0.031 A 
BRANCH  41  55
ATOM     55  C   UNL A   1      45.030  33.396  28.632  1.00  0.00    -0.014 A 
ATOM     56  C   UNL A   1      46.276  34.032  28.829  1.00  0.00     0.010 A 
ATOM     57  C   UNL A   1      43.926  34.225  28.347  1.00  0.00     0.010 A 
ATOM     58  C   UNL A   1      46.389  35.429  28.831  1.00  0.00     0.020 A 
ATOM     59  C   UNL A   1      44.038  35.616  28.301  1.00  0.00     0.020 A 
ATOM     60  C   UNL A   1      45.261  36.211  28.587  1.00  0.00     0.054 A 
BRANCH  60  61
ATOM     61  S   UNL A   1      45.382  38.012  28.732  1.00  0.00     0.124 S 
ATOM     62  O   UNL A   1      44.061  38.435  28.276  1.00  0.00    -0.237 OA
ATOM     63  O   UNL A   1      45.649  38.191  30.157  1.00  0.00    -0.237 OA
ATOM     64  O   UNL A   1      46.493  38.352  27.847  1.00  0.00    -0.744 OA
ENDBRANCH  60  61
ENDBRANCH  41  55
BRANCH  42  65
ATOM     65  C   UNL A   1      36.975  31.706  29.720  1.00  0.00    -0.014 A 
ATOM     66  C   UNL A   1      36.037  31.987  30.728  1.00  0.00     0.010 A 
ATOM     67  C   UNL A   1      36.735  32.229  28.431  1.00  0.00     0.010 A 
ATOM     68  C   UNL A   1      34.940  32.826  30.478  1.00  0.00     0.020 A 
ATOM     69  C   UNL A   1      35.638  33.058  28.172  1.00  0.00     0.020 A 
ATOM     70  C   UNL A   1      34.762  33.378  29.206  1.00  0.00     0.054 A 
BRANCH  70  71
ATOM     71  S   UNL A   1      33.460  34.618  28.950  1.00  0.00     0.124 S 
ATOM     72  O   UNL A   1      34.209  35.750  28.412  1.00  0.00    -0.237 OA
ATOM     73  O   UNL A   1      32.567  33.947  28.010  1.00  0.00    -0.237 OA
ATOM     74  O   UNL A   1      32.906  34.820  30.288  1.00  0.00    -0.744 OA
ENDBRANCH  70  71
ENDBRANCH  42  65
BRANCH  54  75
ATOM     75  C   UNL A   1      41.844  29.986  33.490  1.00  0.00    -0.014 A 
ATOM     76  C   UNL A   1      41.703  28.643  33.094  1.00  0.00     0.010 A 
ATOM     77  C   UNL A   1      41.882  30.281  34.865  1.00  0.00     0.010 A 
ATOM     78  C   UNL A   1      41.616  27.621  34.054  1.00  0.00     0.020 A 
ATOM     79  C   UNL A   1      41.812  29.268  35.825  1.00  0.00     0.020 A 
ATOM     80  C   UNL A   1      41.684  27.941  35.414  1.00  0.00     0.054 A 
BRANCH  80  81
ATOM     81  S   UNL A   1      41.695  26.607  36.646  1.00  0.00     0.124 S 
ATOM     82  O   UNL A   1      42.956  26.831  37.348  1.00  0.00    -0.237 OA
ATOM     83  O   UNL A   1      40.486  26.873  37.424  1.00  0.00    -0.237 OA
ATOM     84  O   UNL A   1      41.645  25.387  35.841  1.00  0.00    -0.744 OA
ENDBRANCH  80  81
ENDBRANCH  54  75
ENDBRANCH  28  29
ENDBRANCH   2  23
TORSDOF 13
ENDMDL
MODEL 3
REMARK VINA RESULT:     -12.3      1.673      2.537
REMARK SMILES Cc1cc2[nH]ccc2nc1C(=O)NCCCNC(=O)c1ccc(-c2c3nc(c(-c4ccc(S(=O)(=O)[O-])cc4)c4ccc([nH]4)c(-c4ccc(S(=O)(=O)[O-])cc4)c4nc(c(-c5ccc(S(=O)(=O)[O-])cc5)c5ccc2[nH]5)C=C4)C=C3)cc1
REMARK SMILES IDX 17 1 18 2 19 3 16 5 15 6 14 7 13 8 11 9 12 10 10 12 1 13
REMARK SMILES IDX 2 14 3 15 4 16 9 17 5 18 8 19 6 20 7 22 20 23 21 24 79 25
REMARK SMILES IDX 22 26 78 27 23 28 24 29 25 30 72 31 26 32 77 33 71 34 73 35
REMARK SMILES IDX 27 36 76 37 70 38 69 39 28 41 58 42 39 43 57 44 40 45 43 46
REMARK SMILES IDX 56 47 74 48 41 49 42 50 55 52 75 53 44 54 29 55 30 56 38 57
REMARK SMILES IDX 31 58 37 59 32 60 33 61 34 62 35 63 36 64 59 65 60 66 68 67
REMARK SMILES IDX 61 68 67 69 62 70 63 71 64 72 65 73 66 74 45 75 46 76 54 77
REMARK SMILES IDX 47 78 53 79 48 80 49 81 50 82 51 83 52 84
REMARK H PARENT 17 4 13 11 5 21 73 40 43 51
REMARK Flexibility Score: inf
ROOT
ATOM      1  N   UNL A   1      40.235  21.564  25.728  1.00  0.00    -0.352 N 
ATOM      2  C   UNL A   1      41.251  22.463  26.037  1.00  0.00     0.251 C 
ATOM      3  O   UNL A   1      42.353  22.375  25.529  1.00  0.00    -0.269 OA
ATOM      4  H   UNL A   1      40.493  20.763  25.217  1.00  0.00     0.163 HD
ENDROOT
BRANCH   1   5
ATOM      5  C   UNL A   1      38.823  21.693  26.088  1.00  0.00     0.118 C 
BRANCH   5   6
ATOM      6  C   UNL A   1      37.849  21.446  24.957  1.00  0.00     0.042 C 
BRANCH   6   7
ATOM      7  C   UNL A   1      36.453  21.037  25.391  1.00  0.00     0.118 C 
BRANCH   7   8
ATOM      8  N   UNL A   1      35.747  21.895  26.312  1.00  0.00    -0.351 N 
ATOM      9  C   UNL A   1      34.559  22.588  26.144  1.00  0.00     0.270 C 
ATOM     10  O   UNL A   1      34.046  23.047  27.168  1.00  0.00    -0.268 OA
ATOM     11  H   UNL A   1      36.173  22.003  27.193  1.00  0.00     0.163 HD
BRANCH   9  12
ATOM     12  C   UNL A   1      33.924  22.892  24.794  1.00  0.00     0.131 A 
ATOM     13  C   UNL A   1      32.676  20.650  24.394  1.00  0.00     0.047 C 
ATOM     14  C   UNL A   1      33.178  22.006  23.992  1.00  0.00    -0.018 A 
ATOM     15  C   UNL A   1      32.795  22.423  22.702  1.00  0.00     0.034 A 
ATOM     16  C   UNL A   1      33.002  23.758  22.389  1.00  0.00     0.064 A 
ATOM     17  N   UNL A   1      34.128  24.198  24.465  1.00  0.00    -0.241 NA
ATOM     18  N   UNL A   1      32.662  24.502  21.285  1.00  0.00    -0.360 N 
ATOM     19  C   UNL A   1      33.618  24.615  23.288  1.00  0.00     0.089 A 
ATOM     20  C   UNL A   1      32.952  25.825  21.507  1.00  0.00     0.085 A 
ATOM     21  H   UNL A   1      32.268  24.141  20.458  1.00  0.00     0.166 HD
ATOM     22  C   UNL A   1      33.562  25.918  22.741  1.00  0.00     0.048 A 
ENDBRANCH   9  12
ENDBRANCH   7   8
ENDBRANCH   6   7
ENDBRANCH   5   6
ENDBRANCH   1   5
BRANCH   2  23
ATOM     23  C   UNL A   1      40.908  23.564  26.963  1.00  0.00     0.039 A 
ATOM     24  C   UNL A   1      41.670  23.771  28.110  1.00  0.00     0.014 A 
ATOM     25  C   UNL A   1      39.988  24.515  26.533  1.00  0.00     0.014 A 
ATOM     26  C   UNL A   1      41.603  25.014  28.737  1.00  0.00     0.010 A 
ATOM     27  C   UNL A   1      40.042  25.788  27.066  1.00  0.00     0.010 A 
ATOM     28  C   UNL A   1      40.845  26.060  28.173  1.00  0.00    -0.014 A 
BRANCH  28  29
ATOM     29  C   UNL A   1      41.005  27.429  28.687  1.00  0.00     0.031 A 
ATOM     30  C   UNL A   1      42.254  28.146  28.288  1.00  0.00     0.074 A 
ATOM     31  C   UNL A   1      40.089  28.143  29.378  1.00  0.00     0.049 A 
ATOM     32  N   UNL A   1      43.298  28.353  29.021  1.00  0.00    -0.248 NA
ATOM     33  C   UNL A   1      42.402  28.607  26.899  1.00  0.00     0.031 C 
ATOM     34  C   UNL A   1      38.691  27.826  29.681  1.00  0.00     0.029 A 
ATOM     35  N   UNL A   1      40.233  29.393  29.910  1.00  0.00    -0.354 N 
ATOM     36  C   UNL A   1      44.159  29.146  28.269  1.00  0.00     0.074 A 
ATOM     37  C   UNL A   1      43.624  29.149  26.928  1.00  0.00     0.031 C 
ATOM     38  C   UNL A   1      38.058  28.932  30.130  1.00  0.00     0.029 A 
ATOM     39  C   UNL A   1      39.049  29.966  30.342  1.00  0.00     0.049 A 
ATOM     40  H   UNL A   1      41.104  29.846  29.980  1.00  0.00     0.167 HD
ATOM     41  C   UNL A   1      45.130  29.907  28.848  1.00  0.00     0.031 A 
ATOM     42  C   UNL A   1      38.881  31.196  30.879  1.00  0.00     0.031 A 
ATOM     43  C   UNL A   1      45.323  29.575  30.236  1.00  0.00     0.049 A 
ATOM     44  C   UNL A   1      40.177  31.589  31.477  1.00  0.00     0.074 A 
ATOM     45  C   UNL A   1      45.656  28.434  30.938  1.00  0.00     0.029 A 
ATOM     46  N   UNL A   1      44.801  30.448  31.162  1.00  0.00    -0.354 N 
ATOM     47  N   UNL A   1      40.713  30.981  32.501  1.00  0.00    -0.248 NA
ATOM     48  C   UNL A   1      41.078  32.438  30.716  1.00  0.00     0.031 C 
ATOM     49  C   UNL A   1      44.885  28.500  32.135  1.00  0.00     0.029 A 
ATOM     50  C   UNL A   1      44.164  29.697  32.114  1.00  0.00     0.049 A 
ATOM     51  H   UNL A   1      44.871  31.430  31.143  1.00  0.00     0.167 HD
ATOM     52  C   UNL A   1      42.079  31.039  32.276  1.00  0.00     0.074 A 
ATOM     53  C   UNL A   1      42.245  32.051  31.237  1.00  0.00     0.031 C 
ATOM     54  C   UNL A   1      42.922  30.078  32.758  1.00  0.00     0.031 A 
BRANCH  41  55
ATOM     55  C   UNL A   1      45.634  31.217  28.289  1.00  0.00    -0.014 A 
ATOM     56  C   UNL A   1      44.728  32.291  28.142  1.00  0.00     0.010 A 
ATOM     57  C   UNL A   1      46.874  31.332  27.629  1.00  0.00     0.010 A 
ATOM     58  C   UNL A   1      45.013  33.376  27.304  1.00  0.00     0.020 A 
ATOM     59  C   UNL A   1      47.187  32.433  26.828  1.00  0.00     0.020 A 
ATOM     60  C   UNL A   1      46.236  33.427  26.636  1.00  0.00     0.054 A 
BRANCH  60  61
ATOM     61  S   UNL A   1      46.541  34.757  25.445  1.00  0.00     0.124 S 
ATOM     62  O   UNL A   1      45.501  34.508  24.451  1.00  0.00    -0.237 OA
ATOM     63  O   UNL A   1      46.363  35.954  26.263  1.00  0.00    -0.237 OA
ATOM     64  O   UNL A   1      47.910  34.509  25.001  1.00  0.00    -0.744 OA
ENDBRANCH  60  61
ENDBRANCH  41  55
BRANCH  42  65
ATOM     65  C   UNL A   1      37.740  32.122  30.693  1.00  0.00    -0.014 A 
ATOM     66  C   UNL A   1      37.876  33.286  29.917  1.00  0.00     0.010 A 
ATOM     67  C   UNL A   1      36.436  31.714  31.047  1.00  0.00     0.010 A 
ATOM     68  C   UNL A   1      36.747  33.972  29.444  1.00  0.00     0.020 A 
ATOM     69  C   UNL A   1      35.306  32.400  30.587  1.00  0.00     0.020 A 
ATOM     70  C   UNL A   1      35.467  33.509  29.761  1.00  0.00     0.054 A 
BRANCH  70  71
ATOM     71  S   UNL A   1      34.023  34.284  28.979  1.00  0.00     0.124 S 
ATOM     72  O   UNL A   1      33.217  34.676  30.131  1.00  0.00    -0.237 OA
ATOM     73  O   UNL A   1      34.624  35.381  28.226  1.00  0.00    -0.237 OA
ATOM     74  O   UNL A   1      33.457  33.213  28.160  1.00  0.00    -0.744 OA
ENDBRANCH  70  71
ENDBRANCH  42  65
BRANCH  54  75
ATOM     75  C   UNL A   1      42.440  29.151  33.849  1.00  0.00    -0.014 A 
ATOM     76  C   UNL A   1      41.675  27.995  33.606  1.00  0.00     0.010 A 
ATOM     77  C   UNL A   1      42.959  29.356  35.141  1.00  0.00     0.010 A 
ATOM     78  C   UNL A   1      41.447  27.062  34.630  1.00  0.00     0.020 A 
ATOM     79  C   UNL A   1      42.749  28.423  36.160  1.00  0.00     0.020 A 
ATOM     80  C   UNL A   1      41.997  27.277  35.898  1.00  0.00     0.054 A 
BRANCH  80  81
ATOM     81  S   UNL A   1      41.802  26.009  37.184  1.00  0.00     0.124 S 
ATOM     82  O   UNL A   1      40.421  26.203  37.616  1.00  0.00    -0.237 OA
ATOM     83  O   UNL A   1      42.066  24.768  36.459  1.00  0.00    -0.237 OA
ATOM     84  O   UNL A   1      42.815  26.361  38.178  1.00  0.00    -0.744 OA
ENDBRANCH  80  81
ENDBRANCH  54  75
ENDBRANCH  28  29
ENDBRANCH   2  23
TORSDOF 13
ENDMDL
