MODEL 1
REMARK VINA RESULT:     -13.5      0.000      0.000
REMARK SMILES O=C(NCCCNC(=O)c1ccccc1-c1ccccc1C(=O)N1CC[NH+](Cc2ccc3c(c2)OCO3)CC1)c1ccc(-c2c3nc(c(-c4ccc(S(=O)(=O)[O-])cc4)c4ccc([nH]4)c(-c4ccc(S(=O)(=O)[O-])cc4)c4nc(c(-c5ccc(S(=O)(=O)[O-])cc5)c5ccc2[nH]5)C=C4)C=C3)cc1
REMARK SMILES IDX 5 1 4 2 3 3 1 4 2 5 40 7 41 8 99 9 42 10 98 11 43 12 44 13
REMARK SMILES IDX 45 14 92 15 46 16 97 17 91 18 93 19 47 20 96 21 90 22 89 23
REMARK SMILES IDX 48 25 78 26 59 27 77 28 60 29 63 30 76 31 94 32 61 33 62 34
REMARK SMILES IDX 75 36 95 37 64 38 49 39 50 40 58 41 51 42 57 43 52 44 53 45
REMARK SMILES IDX 54 46 55 47 56 48 79 49 80 50 88 51 81 52 87 53 82 54 83 55
REMARK SMILES IDX 84 56 85 57 86 58 65 59 66 60 74 61 67 62 73 63 68 64 69 65
REMARK SMILES IDX 70 66 71 67 72 68 6 69 7 70 8 71 9 73 10 74 11 75 15 76
REMARK SMILES IDX 12 77 14 78 13 79 16 80 17 81 21 82 18 83 20 84 19 85 22 86
REMARK SMILES IDX 23 87 24 88 25 89 39 90 26 91 38 92 27 93 28 95 29 96 30 97
REMARK SMILES IDX 34 98 31 99 33 100 32 101 35 102 37 103 36 104
REMARK H PARENT 3 6 93 24 63 35 7 72 27 94
REMARK Flexibility Score: inf
ROOT
ATOM      1  C   UNL A   1      34.338  29.847  27.488  1.00  0.00     0.042 C 
ENDROOT
BRANCH   1   2
ATOM      2  C   UNL A   1      35.614  29.464  28.219  1.00  0.00     0.118 C 
BRANCH   2   3
ATOM      3  N   UNL A   1      35.605  29.977  29.588  1.00  0.00    -0.352 N 
ATOM      4  O   UNL A   1      36.382  30.008  31.715  1.00  0.00    -0.269 OA
ATOM      5  C   UNL A   1      36.615  29.902  30.520  1.00  0.00     0.251 C 
ATOM      6  H   UNL A   1      34.780  30.429  29.877  1.00  0.00     0.163 HD
BRANCH   5   7
ATOM      7  C   UNL A   1      37.982  29.669  30.021  1.00  0.00     0.039 A 
ATOM      8  C   UNL A   1      38.939  29.191  30.915  1.00  0.00     0.014 A 
ATOM      9  C   UNL A   1      38.323  29.959  28.700  1.00  0.00     0.014 A 
ATOM     10  C   UNL A   1      40.271  29.201  30.561  1.00  0.00     0.010 A 
ATOM     11  C   UNL A   1      39.648  29.791  28.292  1.00  0.00     0.010 A 
ATOM     12  C   UNL A   1      40.629  29.420  29.226  1.00  0.00    -0.014 A 
BRANCH  12  13
ATOM     13  C   UNL A   1      42.008  29.070  28.822  1.00  0.00     0.031 A 
ATOM     14  C   UNL A   1      43.104  30.089  28.805  1.00  0.00     0.074 A 
ATOM     15  C   UNL A   1      42.239  27.784  28.482  1.00  0.00     0.049 A 
ATOM     16  N   UNL A   1      44.348  29.934  28.438  1.00  0.00    -0.248 NA
ATOM     17  C   UNL A   1      42.771  31.455  29.243  1.00  0.00     0.031 C 
ATOM     18  C   UNL A   1      41.225  26.719  28.471  1.00  0.00     0.029 A 
ATOM     19  N   UNL A   1      43.385  27.143  28.101  1.00  0.00    -0.354 N 
ATOM     20  C   UNL A   1      44.939  31.185  28.558  1.00  0.00     0.074 A 
ATOM     21  C   UNL A   1      43.917  32.091  29.037  1.00  0.00     0.031 C 
ATOM     22  C   UNL A   1      41.805  25.554  28.158  1.00  0.00     0.029 A 
ATOM     23  C   UNL A   1      43.198  25.808  27.833  1.00  0.00     0.049 A 
ATOM     24  H   UNL A   1      44.257  27.593  28.026  1.00  0.00     0.167 HD
ATOM     25  C   UNL A   1      46.217  31.532  28.280  1.00  0.00     0.031 A 
ATOM     26  C   UNL A   1      44.038  24.890  27.323  1.00  0.00     0.031 A 
ATOM     27  C   UNL A   1      47.213  30.600  27.814  1.00  0.00     0.049 A 
ATOM     28  C   UNL A   1      45.430  25.323  26.983  1.00  0.00     0.074 A 
ATOM     29  C   UNL A   1      48.553  30.837  27.558  1.00  0.00     0.029 A 
ATOM     30  N   UNL A   1      46.978  29.265  27.520  1.00  0.00    -0.354 N 
ATOM     31  N   UNL A   1      45.987  26.497  27.158  1.00  0.00    -0.248 NA
ATOM     32  C   UNL A   1      46.303  24.318  26.366  1.00  0.00     0.031 C 
ATOM     33  C   UNL A   1      49.108  29.665  27.037  1.00  0.00     0.029 A 
ATOM     34  C   UNL A   1      48.135  28.678  27.036  1.00  0.00     0.049 A 
ATOM     35  H   UNL A   1      46.117  28.804  27.638  1.00  0.00     0.167 HD
ATOM     36  C   UNL A   1      47.284  26.371  26.679  1.00  0.00     0.074 A 
ATOM     37  C   UNL A   1      47.434  24.998  26.239  1.00  0.00     0.031 C 
ATOM     38  C   UNL A   1      48.257  27.309  26.602  1.00  0.00     0.031 A 
BRANCH  25  39
ATOM     39  C   UNL A   1      46.613  32.978  28.418  1.00  0.00    -0.014 A 
ATOM     40  C   UNL A   1      46.455  33.892  27.363  1.00  0.00     0.010 A 
ATOM     41  C   UNL A   1      47.062  33.447  29.669  1.00  0.00     0.010 A 
ATOM     42  C   UNL A   1      46.752  35.246  27.551  1.00  0.00     0.020 A 
ATOM     43  C   UNL A   1      47.336  34.803  29.867  1.00  0.00     0.020 A 
ATOM     44  C   UNL A   1      47.186  35.693  28.804  1.00  0.00     0.054 A 
BRANCH  44  45
ATOM     45  S   UNL A   1      47.506  37.465  29.033  1.00  0.00     0.124 S 
ATOM     46  O   UNL A   1      46.874  38.041  27.848  1.00  0.00    -0.237 OA
ATOM     47  O   UNL A   1      46.837  37.748  30.301  1.00  0.00    -0.237 OA
ATOM     48  O   UNL A   1      48.963  37.555  29.066  1.00  0.00    -0.744 OA
ENDBRANCH  44  45
ENDBRANCH  25  39
BRANCH  26  49
ATOM     49  C   UNL A   1      43.549  23.517  27.030  1.00  0.00    -0.014 A 
ATOM     50  C   UNL A   1      43.349  22.586  28.063  1.00  0.00     0.010 A 
ATOM     51  C   UNL A   1      43.267  23.138  25.703  1.00  0.00     0.010 A 
ATOM     52  C   UNL A   1      42.909  21.291  27.769  1.00  0.00     0.020 A 
ATOM     53  C   UNL A   1      42.791  21.860  25.409  1.00  0.00     0.020 A 
ATOM     54  C   UNL A   1      42.636  20.937  26.443  1.00  0.00     0.054 A 
BRANCH  54  55
ATOM     55  S   UNL A   1      42.058  19.256  26.088  1.00  0.00     0.124 S 
ATOM     56  O   UNL A   1      40.630  19.470  25.871  1.00  0.00    -0.237 OA
ATOM     57  O   UNL A   1      42.833  18.900  24.902  1.00  0.00    -0.237 OA
ATOM     58  O   UNL A   1      42.404  18.512  27.296  1.00  0.00    -0.744 OA
ENDBRANCH  54  55
ENDBRANCH  26  49
BRANCH  38  59
ATOM     59  C   UNL A   1      49.578  26.874  26.033  1.00  0.00    -0.014 A 
ATOM     60  C   UNL A   1      49.932  27.186  24.709  1.00  0.00     0.010 A 
ATOM     61  C   UNL A   1      50.501  26.203  26.855  1.00  0.00     0.010 A 
ATOM     62  C   UNL A   1      51.184  26.821  24.212  1.00  0.00     0.020 A 
ATOM     63  C   UNL A   1      51.765  25.866  26.371  1.00  0.00     0.020 A 
ATOM     64  C   UNL A   1      52.096  26.171  25.050  1.00  0.00     0.054 A 
BRANCH  64  65
ATOM     65  S   UNL A   1      53.743  25.778  24.402  1.00  0.00     0.124 S 
ATOM     66  O   UNL A   1      54.572  26.797  25.040  1.00  0.00    -0.237 OA
ATOM     67  O   UNL A   1      53.952  24.411  24.873  1.00  0.00    -0.237 OA
ATOM     68  O   UNL A   1      53.589  25.917  22.955  1.00  0.00    -0.744 OA
ENDBRANCH  64  65
ENDBRANCH  38  59
ENDBRANCH  12  13
ENDBRANCH   5   7
ENDBRANCH   2   3
ENDBRANCH   1   2
BRANCH   1  69
ATOM     69  C   UNL A   1      33.461  28.630  27.288  1.00  0.00     0.118 C 
BRANCH  69  70
ATOM     70  N   UNL A   1      32.165  29.058  26.809  1.00  0.00    -0.352 N 
ATOM     71  C   UNL A   1      32.009  29.680  25.607  1.00  0.00     0.251 C 
ATOM     72  H   UNL A   1      31.372  28.895  27.369  1.00  0.00     0.163 HD
ATOM     73  O   UNL A   1      31.443  30.768  25.562  1.00  0.00    -0.269 OA
BRANCH  71  74
ATOM     74  C   UNL A   1      32.512  28.992  24.386  1.00  0.00     0.047 A 
ATOM     75  C   UNL A   1      33.844  29.275  24.040  1.00  0.00     0.014 A 
ATOM     76  C   UNL A   1      31.708  28.165  23.558  1.00  0.00    -0.005 A 
ATOM     77  C   UNL A   1      34.415  28.720  22.898  1.00  0.00     0.001 A 
ATOM     78  C   UNL A   1      32.326  27.603  22.418  1.00  0.00     0.009 A 
ATOM     79  C   UNL A   1      33.659  27.875  22.094  1.00  0.00     0.001 A 
BRANCH  76  80
ATOM     80  C   UNL A   1      30.293  27.790  23.834  1.00  0.00    -0.005 A 
ATOM     81  C   UNL A   1      29.323  28.400  22.990  1.00  0.00     0.009 A 
ATOM     82  C   UNL A   1      29.840  26.796  24.739  1.00  0.00     0.047 A 
ATOM     83  C   UNL A   1      27.990  27.991  22.960  1.00  0.00     0.001 A 
ATOM     84  C   UNL A   1      28.475  26.412  24.703  1.00  0.00     0.014 A 
ATOM     85  C   UNL A   1      27.567  26.985  23.812  1.00  0.00     0.001 A 
BRANCH  82  86
ATOM     86  C   UNL A   1      30.708  25.913  25.596  1.00  0.00     0.254 C 
ATOM     87  O   UNL A   1      31.022  26.321  26.718  1.00  0.00    -0.269 OA
ATOM     88  N   UNL A   1      31.054  24.631  25.185  1.00  0.00    -0.327 N 
ATOM     89  C   UNL A   1      31.273  23.639  26.230  1.00  0.00     0.181 C 
ATOM     90  C   UNL A   1      31.802  24.377  23.965  1.00  0.00     0.181 C 
ATOM     91  C   UNL A   1      31.051  22.194  25.736  1.00  0.00     0.284 C 
ATOM     92  C   UNL A   1      31.705  22.909  23.473  1.00  0.00     0.284 C 
ATOM     93  N   UNL A   1      31.685  21.821  24.461  1.00  0.00    -0.328 N 
ATOM     94  H   UNL A   1      31.049  21.142  24.042  1.00  0.00     0.348 HD
BRANCH  93  95
ATOM     95  C   UNL A   1      32.895  20.998  24.569  1.00  0.00     0.299 C 
BRANCH  95  96
ATOM     96  C   UNL A   1      32.617  19.526  24.371  1.00  0.00     0.010 A 
ATOM     97  C   UNL A   1      32.507  19.018  23.057  1.00  0.00     0.013 A 
ATOM     98  C   UNL A   1      32.815  18.658  25.456  1.00  0.00     0.060 A 
ATOM     99  C   UNL A   1      32.832  17.689  22.790  1.00  0.00     0.051 A 
ATOM    100  C   UNL A   1      33.201  17.377  25.151  1.00  0.00     0.166 A 
ATOM    101  C   UNL A   1      33.255  16.922  23.852  1.00  0.00     0.165 A 
ATOM    102  O   UNL A   1      33.801  16.519  26.025  1.00  0.00    -0.454 OA
ATOM    103  O   UNL A   1      33.909  15.730  23.762  1.00  0.00    -0.454 OA
ATOM    104  C   UNL A   1      34.499  15.679  25.080  1.00  0.00     0.468 C 
ENDBRANCH  95  96
ENDBRANCH  93  95
ENDBRANCH  82  86
ENDBRANCH  76  80
ENDBRANCH  71  74
ENDBRANCH  69  70
ENDBRANCH   1  69
TORSDOF 17
ENDMDL
MODEL 2
REMARK VINA RESULT:     -13.2      0.507      7.674
REMARK SMILES O=C(NCCCNC(=O)c1ccccc1-c1ccccc1C(=O)N1CC[NH+](Cc2ccc3c(c2)OCO3)CC1)c1ccc(-c2c3nc(c(-c4ccc(S(=O)(=O)[O-])cc4)c4ccc([nH]4)c(-c4ccc(S(=O)(=O)[O-])cc4)c4nc(c(-c5ccc(S(=O)(=O)[O-])cc5)c5ccc2[nH]5)C=C4)C=C3)cc1
REMARK SMILES IDX 5 1 4 2 3 3 1 4 2 5 40 7 41 8 99 9 42 10 98 11 43 12 44 13
REMARK SMILES IDX 45 14 92 15 46 16 97 17 91 18 93 19 47 20 96 21 90 22 89 23
REMARK SMILES IDX 48 25 78 26 59 27 77 28 60 29 63 30 76 31 94 32 61 33 62 34
REMARK SMILES IDX 75 36 95 37 64 38 49 39 50 40 58 41 51 42 57 43 52 44 53 45
REMARK SMILES IDX 54 46 55 47 56 48 79 49 80 50 88 51 81 52 87 53 82 54 83 55
REMARK SMILES IDX 84 56 85 57 86 58 65 59 66 60 74 61 67 62 73 63 68 64 69 65
REMARK SMILES IDX 70 66 71 67 72 68 6 69 7 70 8 71 9 73 10 74 11 75 15 76
REMARK SMILES IDX 12 77 14 78 13 79 16 80 17 81 21 82 18 83 20 84 19 85 22 86
REMARK SMILES IDX 23 87 24 88 25 89 39 90 26 91 38 92 27 93 28 95 29 96 30 97
REMARK SMILES IDX 34 98 31 99 33 100 32 101 35 102 37 103 36 104
REMARK H PARENT 3 6 93 24 63 35 7 72 27 94
REMARK Flexibility Score: inf
ROOT
ATOM      1  C   UNL A   1      34.388  29.900  27.509  1.00  0.00     0.042 C 
ENDROOT
BRANCH   1   2
ATOM      2  C   UNL A   1      35.613  29.561  28.344  1.00  0.00     0.118 C 
BRANCH   2   3
ATOM      3  N   UNL A   1      35.670  30.392  29.546  1.00  0.00    -0.352 N 
ATOM      4  O   UNL A   1      36.490  30.880  31.599  1.00  0.00    -0.269 OA
ATOM      5  C   UNL A   1      36.690  30.466  30.467  1.00  0.00     0.251 C 
ATOM      6  H   UNL A   1      34.889  30.966  29.714  1.00  0.00     0.163 HD
BRANCH   5   7
ATOM      7  C   UNL A   1      38.025  30.009  30.040  1.00  0.00     0.039 A 
ATOM      8  C   UNL A   1      38.418  30.255  28.725  1.00  0.00     0.014 A 
ATOM      9  C   UNL A   1      38.859  29.313  30.915  1.00  0.00     0.014 A 
ATOM     10  C   UNL A   1      39.536  29.631  28.218  1.00  0.00     0.010 A 
ATOM     11  C   UNL A   1      40.084  28.836  30.444  1.00  0.00     0.010 A 
ATOM     12  C   UNL A   1      40.423  28.987  29.089  1.00  0.00    -0.014 A 
BRANCH  12  13
ATOM     13  C   UNL A   1      41.767  28.651  28.572  1.00  0.00     0.031 A 
ATOM     14  C   UNL A   1      42.087  27.288  28.044  1.00  0.00     0.074 A 
ATOM     15  C   UNL A   1      42.691  29.635  28.584  1.00  0.00     0.049 A 
ATOM     16  N   UNL A   1      43.230  26.841  27.595  1.00  0.00    -0.248 NA
ATOM     17  C   UNL A   1      41.002  26.293  28.020  1.00  0.00     0.031 C 
ATOM     18  C   UNL A   1      42.464  31.000  29.082  1.00  0.00     0.029 A 
ATOM     19  N   UNL A   1      43.989  29.660  28.156  1.00  0.00    -0.354 N 
ATOM     20  C   UNL A   1      43.018  25.507  27.275  1.00  0.00     0.074 A 
ATOM     21  C   UNL A   1      41.634  25.214  27.578  1.00  0.00     0.031 C 
ATOM     22  C   UNL A   1      43.562  31.737  28.879  1.00  0.00     0.029 A 
ATOM     23  C   UNL A   1      44.603  30.874  28.349  1.00  0.00     0.049 A 
ATOM     24  H   UNL A   1      44.439  28.884  27.749  1.00  0.00     0.167 HD
ATOM     25  C   UNL A   1      43.912  24.616  26.784  1.00  0.00     0.031 A 
ATOM     26  C   UNL A   1      45.883  31.247  28.178  1.00  0.00     0.031 A 
ATOM     27  C   UNL A   1      45.283  24.946  26.484  1.00  0.00     0.049 A 
ATOM     28  C   UNL A   1      46.853  30.221  27.678  1.00  0.00     0.074 A 
ATOM     29  C   UNL A   1      46.255  24.133  25.928  1.00  0.00     0.029 A 
ATOM     30  N   UNL A   1      45.878  26.175  26.727  1.00  0.00    -0.354 N 
ATOM     31  N   UNL A   1      46.621  28.979  27.326  1.00  0.00    -0.248 NA
ATOM     32  C   UNL A   1      48.255  30.636  27.565  1.00  0.00     0.031 C 
ATOM     33  C   UNL A   1      47.457  24.847  25.907  1.00  0.00     0.029 A 
ATOM     34  C   UNL A   1      47.218  26.127  26.381  1.00  0.00     0.049 A 
ATOM     35  H   UNL A   1      45.416  26.964  27.091  1.00  0.00     0.167 HD
ATOM     36  C   UNL A   1      47.850  28.464  26.939  1.00  0.00     0.074 A 
ATOM     37  C   UNL A   1      48.813  29.540  27.071  1.00  0.00     0.031 C 
ATOM     38  C   UNL A   1      48.156  27.212  26.523  1.00  0.00     0.031 A 
BRANCH  25  39
ATOM     39  C   UNL A   1      43.468  23.192  26.583  1.00  0.00    -0.014 A 
ATOM     40  C   UNL A   1      43.743  22.492  25.397  1.00  0.00     0.010 A 
ATOM     41  C   UNL A   1      42.847  22.513  27.650  1.00  0.00     0.010 A 
ATOM     42  C   UNL A   1      43.392  21.143  25.275  1.00  0.00     0.020 A 
ATOM     43  C   UNL A   1      42.517  21.159  27.541  1.00  0.00     0.020 A 
ATOM     44  C   UNL A   1      42.786  20.485  26.351  1.00  0.00     0.054 A 
BRANCH  44  45
ATOM     45  S   UNL A   1      42.398  18.720  26.183  1.00  0.00     0.124 S 
ATOM     46  O   UNL A   1      43.353  18.296  25.162  1.00  0.00    -0.237 OA
ATOM     47  O   UNL A   1      42.650  18.209  27.528  1.00  0.00    -0.237 OA
ATOM     48  O   UNL A   1      40.998  18.708  25.767  1.00  0.00    -0.744 OA
ENDBRANCH  44  45
ENDBRANCH  25  39
BRANCH  26  49
ATOM     49  C   UNL A   1      46.318  32.615  28.564  1.00  0.00    -0.014 A 
ATOM     50  C   UNL A   1      46.874  32.866  29.829  1.00  0.00     0.010 A 
ATOM     51  C   UNL A   1      46.186  33.679  27.651  1.00  0.00     0.010 A 
ATOM     52  C   UNL A   1      47.259  34.163  30.184  1.00  0.00     0.020 A 
ATOM     53  C   UNL A   1      46.604  34.967  27.987  1.00  0.00     0.020 A 
ATOM     54  C   UNL A   1      47.117  35.205  29.261  1.00  0.00     0.054 A 
BRANCH  54  55
ATOM     55  S   UNL A   1      47.632  36.876  29.742  1.00  0.00     0.124 S 
ATOM     56  O   UNL A   1      47.695  37.553  28.450  1.00  0.00    -0.237 OA
ATOM     57  O   UNL A   1      46.548  37.297  30.626  1.00  0.00    -0.237 OA
ATOM     58  O   UNL A   1      48.917  36.662  30.401  1.00  0.00    -0.744 OA
ENDBRANCH  54  55
ENDBRANCH  26  49
BRANCH  38  59
ATOM     59  C   UNL A   1      49.590  26.945  26.165  1.00  0.00    -0.014 A 
ATOM     60  C   UNL A   1      50.489  26.430  27.115  1.00  0.00     0.010 A 
ATOM     61  C   UNL A   1      50.024  27.149  24.843  1.00  0.00     0.010 A 
ATOM     62  C   UNL A   1      51.804  26.138  26.753  1.00  0.00     0.020 A 
ATOM     63  C   UNL A   1      51.329  26.827  24.469  1.00  0.00     0.020 A 
ATOM     64  C   UNL A   1      52.213  26.329  25.429  1.00  0.00     0.054 A 
BRANCH  64  65
ATOM     65  S   UNL A   1      53.904  25.867  24.967  1.00  0.00     0.124 S 
ATOM     66  O   UNL A   1      53.761  24.444  24.673  1.00  0.00    -0.237 OA
ATOM     67  O   UNL A   1      54.164  26.724  23.813  1.00  0.00    -0.237 OA
ATOM     68  O   UNL A   1      54.688  26.181  26.160  1.00  0.00    -0.744 OA
ENDBRANCH  64  65
ENDBRANCH  38  59
ENDBRANCH  12  13
ENDBRANCH   5   7
ENDBRANCH   2   3
ENDBRANCH   1   2
BRANCH   1  69
ATOM     69  C   UNL A   1      33.580  28.651  27.231  1.00  0.00     0.118 C 
BRANCH  69  70
ATOM     70  N   UNL A   1      32.257  29.036  26.791  1.00  0.00    -0.352 N 
ATOM     71  C   UNL A   1      32.045  29.651  25.594  1.00  0.00     0.251 C 
ATOM     72  H   UNL A   1      31.486  28.849  27.375  1.00  0.00     0.163 HD
ATOM     73  O   UNL A   1      31.443  30.720  25.565  1.00  0.00    -0.269 OA
BRANCH  71  74
ATOM     74  C   UNL A   1      32.532  28.977  24.359  1.00  0.00     0.047 A 
ATOM     75  C   UNL A   1      33.861  29.262  24.001  1.00  0.00     0.014 A 
ATOM     76  C   UNL A   1      31.717  28.161  23.529  1.00  0.00    -0.005 A 
ATOM     77  C   UNL A   1      34.417  28.720  22.846  1.00  0.00     0.001 A 
ATOM     78  C   UNL A   1      32.321  27.613  22.376  1.00  0.00     0.009 A 
ATOM     79  C   UNL A   1      33.650  27.886  22.041  1.00  0.00     0.001 A 
BRANCH  76  80
ATOM     80  C   UNL A   1      30.305  27.786  23.818  1.00  0.00    -0.005 A 
ATOM     81  C   UNL A   1      29.329  28.387  22.974  1.00  0.00     0.009 A 
ATOM     82  C   UNL A   1      29.860  26.798  24.733  1.00  0.00     0.047 A 
ATOM     83  C   UNL A   1      27.996  27.975  22.956  1.00  0.00     0.001 A 
ATOM     84  C   UNL A   1      28.495  26.411  24.708  1.00  0.00     0.014 A 
ATOM     85  C   UNL A   1      27.580  26.975  23.818  1.00  0.00     0.001 A 
BRANCH  82  86
ATOM     86  C   UNL A   1      30.735  25.924  25.592  1.00  0.00     0.254 C 
ATOM     87  O   UNL A   1      31.066  26.348  26.703  1.00  0.00    -0.269 OA
ATOM     88  N   UNL A   1      31.068  24.634  25.196  1.00  0.00    -0.327 N 
ATOM     89  C   UNL A   1      31.297  23.657  26.253  1.00  0.00     0.181 C 
ATOM     90  C   UNL A   1      31.799  24.357  23.970  1.00  0.00     0.181 C 
ATOM     91  C   UNL A   1      31.060  22.205  25.785  1.00  0.00     0.284 C 
ATOM     92  C   UNL A   1      31.687  22.882  23.503  1.00  0.00     0.284 C 
ATOM     93  N   UNL A   1      31.674  21.809  24.507  1.00  0.00    -0.328 N 
ATOM     94  H   UNL A   1      31.029  21.127  24.108  1.00  0.00     0.348 HD
BRANCH  93  95
ATOM     95  C   UNL A   1      32.882  20.982  24.612  1.00  0.00     0.299 C 
BRANCH  95  96
ATOM     96  C   UNL A   1      32.599  19.512  24.406  1.00  0.00     0.010 A 
ATOM     97  C   UNL A   1      32.470  19.015  23.089  1.00  0.00     0.013 A 
ATOM     98  C   UNL A   1      32.810  18.635  25.481  1.00  0.00     0.060 A 
ATOM     99  C   UNL A   1      32.790  17.688  22.806  1.00  0.00     0.051 A 
ATOM    100  C   UNL A   1      33.190  17.356  25.160  1.00  0.00     0.166 A 
ATOM    101  C   UNL A   1      33.226  16.912  23.856  1.00  0.00     0.165 A 
ATOM    102  O   UNL A   1      33.800  16.489  26.018  1.00  0.00    -0.454 OA
ATOM    103  O   UNL A   1      33.877  15.719  23.748  1.00  0.00    -0.454 OA
ATOM    104  C   UNL A   1      34.485  15.657  25.057  1.00  0.00     0.468 C 
ENDBRANCH  95  96
ENDBRANCH  93  95
ENDBRANCH  82  86
ENDBRANCH  76  80
ENDBRANCH  71  74
ENDBRANCH  69  70
ENDBRANCH   1  69
TORSDOF 17
ENDMDL
MODEL 3
REMARK VINA RESULT:     -12.0      1.694      7.959
REMARK SMILES O=C(NCCCNC(=O)c1ccccc1-c1ccccc1C(=O)N1CC[NH+](Cc2ccc3c(c2)OCO3)CC1)c1ccc(-c2c3nc(c(-c4ccc(S(=O)(=O)[O-])cc4)c4ccc([nH]4)c(-c4ccc(S(=O)(=O)[O-])cc4)c4nc(c(-c5ccc(S(=O)(=O)[O-])cc5)c5ccc2[nH]5)C=C4)C=C3)cc1
REMARK SMILES IDX 5 1 4 2 3 3 1 4 2 5 40 7 41 8 99 9 42 10 98 11 43 12 44 13
REMARK SMILES IDX 45 14 92 15 46 16 97 17 91 18 93 19 47 20 96 21 90 22 89 23
REMARK SMILES IDX 48 25 78 26 59 27 77 28 60 29 63 30 76 31 94 32 61 33 62 34
REMARK SMILES IDX 75 36 95 37 64 38 49 39 50 40 58 41 51 42 57 43 52 44 53 45
REMARK SMILES IDX 54 46 55 47 56 48 79 49 80 50 88 51 81 52 87 53 82 54 83 55
REMARK SMILES IDX 84 56 85 57 86 58 65 59 66 60 74 61 67 62 73 63 68 64 69 65
REMARK SMILES IDX 70 66 71 67 72 68 6 69 7 70 8 71 9 73 10 74 11 75 15 76
REMARK SMILES IDX 12 77 14 78 13 79 16 80 17 81 21 82 18 83 20 84 19 85 22 86
REMARK SMILES IDX 23 87 24 88 25 89 39 90 26 91 38 92 27 93 28 95 29 96 30 97
REMARK SMILES IDX 34 98 31 99 33 100 32 101 35 102 37 103 36 104
REMARK H PARENT 3 6 93 24 63 35 7 72 27 94
REMARK Flexibility Score: inf
ROOT
ATOM      1  C   UNL A   1      34.330  30.134  27.641  1.00  0.00     0.042 C 
ENDROOT
BRANCH   1   2
ATOM      2  C   UNL A   1      35.607  29.757  28.374  1.00  0.00     0.118 C 
BRANCH   2   3
ATOM      3  N   UNL A   1      35.605  30.292  29.734  1.00  0.00    -0.352 N 
ATOM      4  O   UNL A   1      36.282  30.259  31.895  1.00  0.00    -0.269 OA
ATOM      5  C   UNL A   1      36.553  30.099  30.714  1.00  0.00     0.251 C 
ATOM      6  H   UNL A   1      34.837  30.857  29.977  1.00  0.00     0.163 HD
BRANCH   5   7
ATOM      7  C   UNL A   1      37.897  29.675  30.284  1.00  0.00     0.039 A 
ATOM      8  C   UNL A   1      38.338  30.060  29.019  1.00  0.00     0.014 A 
ATOM      9  C   UNL A   1      38.692  28.873  31.102  1.00  0.00     0.014 A 
ATOM     10  C   UNL A   1      39.467  29.481  28.482  1.00  0.00     0.010 A 
ATOM     11  C   UNL A   1      39.929  28.435  30.623  1.00  0.00     0.010 A 
ATOM     12  C   UNL A   1      40.316  28.732  29.305  1.00  0.00    -0.014 A 
BRANCH  12  13
ATOM     13  C   UNL A   1      41.674  28.437  28.799  1.00  0.00     0.031 A 
ATOM     14  C   UNL A   1      42.029  27.097  28.237  1.00  0.00     0.074 A 
ATOM     15  C   UNL A   1      42.578  29.439  28.853  1.00  0.00     0.049 A 
ATOM     16  N   UNL A   1      43.188  26.686  27.793  1.00  0.00    -0.248 NA
ATOM     17  C   UNL A   1      40.964  26.082  28.168  1.00  0.00     0.031 C 
ATOM     18  C   UNL A   1      42.317  30.784  29.387  1.00  0.00     0.029 A 
ATOM     19  N   UNL A   1      43.882  29.501  28.446  1.00  0.00    -0.354 N 
ATOM     20  C   UNL A   1      43.007  25.357  27.431  1.00  0.00     0.074 A 
ATOM     21  C   UNL A   1      41.624  25.029  27.705  1.00  0.00     0.031 C 
ATOM     22  C   UNL A   1      43.403  31.548  29.223  1.00  0.00     0.029 A 
ATOM     23  C   UNL A   1      44.469  30.721  28.684  1.00  0.00     0.049 A 
ATOM     24  H   UNL A   1      44.353  28.746  28.024  1.00  0.00     0.167 HD
ATOM     25  C   UNL A   1      43.925  24.499  26.929  1.00  0.00     0.031 A 
ATOM     26  C   UNL A   1      45.744  31.123  28.543  1.00  0.00     0.031 A 
ATOM     27  C   UNL A   1      45.293  24.863  26.659  1.00  0.00     0.049 A 
ATOM     28  C   UNL A   1      46.741  30.131  28.028  1.00  0.00     0.074 A 
ATOM     29  C   UNL A   1      46.290  24.086  26.096  1.00  0.00     0.029 A 
ATOM     30  N   UNL A   1      45.860  26.096  26.946  1.00  0.00    -0.354 N 
ATOM     31  N   UNL A   1      46.538  28.896  27.637  1.00  0.00    -0.248 NA
ATOM     32  C   UNL A   1      48.136  30.577  27.948  1.00  0.00     0.031 C 
ATOM     33  C   UNL A   1      47.477  24.823  26.113  1.00  0.00     0.029 A 
ATOM     34  C   UNL A   1      47.206  26.084  26.620  1.00  0.00     0.049 A 
ATOM     35  H   UNL A   1      45.378  26.865  27.326  1.00  0.00     0.167 HD
ATOM     36  C   UNL A   1      47.783  28.416  27.255  1.00  0.00     0.074 A 
ATOM     37  C   UNL A   1      48.723  29.506  27.432  1.00  0.00     0.031 C 
ATOM     38  C   UNL A   1      48.120  27.183  26.808  1.00  0.00     0.031 A 
BRANCH  25  39
ATOM     39  C   UNL A   1      43.512  23.073  26.680  1.00  0.00    -0.014 A 
ATOM     40  C   UNL A   1      43.798  22.420  25.470  1.00  0.00     0.010 A 
ATOM     41  C   UNL A   1      42.911  22.344  27.725  1.00  0.00     0.010 A 
ATOM     42  C   UNL A   1      43.478  21.069  25.303  1.00  0.00     0.020 A 
ATOM     43  C   UNL A   1      42.611  20.987  27.571  1.00  0.00     0.020 A 
ATOM     44  C   UNL A   1      42.891  20.360  26.357  1.00  0.00     0.054 A 
BRANCH  44  45
ATOM     45  S   UNL A   1      42.542  18.594  26.130  1.00  0.00     0.124 S 
ATOM     46  O   UNL A   1      43.460  18.241  25.050  1.00  0.00    -0.237 OA
ATOM     47  O   UNL A   1      42.869  18.034  27.439  1.00  0.00    -0.237 OA
ATOM     48  O   UNL A   1      41.125  18.560  25.776  1.00  0.00    -0.744 OA
ENDBRANCH  44  45
ENDBRANCH  25  39
BRANCH  26  49
ATOM     49  C   UNL A   1      46.145  32.488  28.975  1.00  0.00    -0.014 A 
ATOM     50  C   UNL A   1      46.119  33.567  28.076  1.00  0.00     0.010 A 
ATOM     51  C   UNL A   1      46.546  32.715  30.306  1.00  0.00     0.010 A 
ATOM     52  C   UNL A   1      46.520  34.840  28.493  1.00  0.00     0.020 A 
ATOM     53  C   UNL A   1      46.910  33.991  30.736  1.00  0.00     0.020 A 
ATOM     54  C   UNL A   1      46.915  35.042  29.820  1.00  0.00     0.054 A 
BRANCH  54  55
ATOM     55  S   UNL A   1      47.421  36.704  30.339  1.00  0.00     0.124 S 
ATOM     56  O   UNL A   1      47.896  36.462  31.698  1.00  0.00    -0.237 OA
ATOM     57  O   UNL A   1      48.450  37.041  29.359  1.00  0.00    -0.237 OA
ATOM     58  O   UNL A   1      46.191  37.485  30.234  1.00  0.00    -0.744 OA
ENDBRANCH  54  55
ENDBRANCH  26  49
BRANCH  38  59
ATOM     59  C   UNL A   1      49.564  26.954  26.464  1.00  0.00    -0.014 A 
ATOM     60  C   UNL A   1      50.472  26.486  27.429  1.00  0.00     0.010 A 
ATOM     61  C   UNL A   1      50.001  27.147  25.141  1.00  0.00     0.010 A 
ATOM     62  C   UNL A   1      51.798  26.228  27.081  1.00  0.00     0.020 A 
ATOM     63  C   UNL A   1      51.318  26.858  24.782  1.00  0.00     0.020 A 
ATOM     64  C   UNL A   1      52.210  26.407  25.756  1.00  0.00     0.054 A 
BRANCH  64  65
ATOM     65  S   UNL A   1      53.918  25.990  25.315  1.00  0.00     0.124 S 
ATOM     66  O   UNL A   1      54.283  27.096  24.433  1.00  0.00    -0.237 OA
ATOM     67  O   UNL A   1      54.588  25.975  26.614  1.00  0.00    -0.237 OA
ATOM     68  O   UNL A   1      53.800  24.687  24.664  1.00  0.00    -0.744 OA
ENDBRANCH  64  65
ENDBRANCH  38  59
ENDBRANCH  12  13
ENDBRANCH   5   7
ENDBRANCH   2   3
ENDBRANCH   1   2
BRANCH   1  69
ATOM     69  C   UNL A   1      33.527  28.893  27.314  1.00  0.00     0.118 C 
BRANCH  69  70
ATOM     70  N   UNL A   1      32.192  29.287  26.921  1.00  0.00    -0.352 N 
ATOM     71  C   UNL A   1      31.920  29.778  25.679  1.00  0.00     0.251 C 
ATOM     72  H   UNL A   1      31.457  29.200  27.570  1.00  0.00     0.163 HD
ATOM     73  O   UNL A   1      31.359  30.863  25.571  1.00  0.00    -0.269 OA
BRANCH  71  74
ATOM     74  C   UNL A   1      32.294  28.953  24.498  1.00  0.00     0.047 A 
ATOM     75  C   UNL A   1      33.659  28.632  24.394  1.00  0.00     0.014 A 
ATOM     76  C   UNL A   1      31.381  28.566  23.482  1.00  0.00    -0.005 A 
ATOM     77  C   UNL A   1      34.136  27.897  23.313  1.00  0.00     0.001 A 
ATOM     78  C   UNL A   1      31.897  27.804  22.410  1.00  0.00     0.009 A 
ATOM     79  C   UNL A   1      33.253  27.473  22.328  1.00  0.00     0.001 A 
BRANCH  76  80
ATOM     80  C   UNL A   1      29.917  28.841  23.495  1.00  0.00    -0.005 A 
ATOM     81  C   UNL A   1      29.543  30.180  23.190  1.00  0.00     0.009 A 
ATOM     82  C   UNL A   1      28.876  27.887  23.634  1.00  0.00     0.047 A 
ATOM     83  C   UNL A   1      28.223  30.552  22.936  1.00  0.00     0.001 A 
ATOM     84  C   UNL A   1      27.540  28.296  23.391  1.00  0.00     0.014 A 
ATOM     85  C   UNL A   1      27.219  29.604  23.025  1.00  0.00     0.001 A 
BRANCH  82  86
ATOM     86  C   UNL A   1      29.049  26.399  23.788  1.00  0.00     0.254 C 
ATOM     87  O   UNL A   1      28.316  25.658  23.127  1.00  0.00    -0.269 OA
ATOM     88  N   UNL A   1      30.075  25.873  24.565  1.00  0.00    -0.327 N 
ATOM     89  C   UNL A   1      30.605  24.575  24.168  1.00  0.00     0.181 C 
ATOM     90  C   UNL A   1      30.199  26.150  25.986  1.00  0.00     0.181 C 
ATOM     91  C   UNL A   1      32.053  24.349  24.649  1.00  0.00     0.284 C 
ATOM     92  C   UNL A   1      31.609  25.842  26.556  1.00  0.00     0.284 C 
ATOM     93  N   UNL A   1      32.346  24.672  26.056  1.00  0.00    -0.328 N 
ATOM     94  H   UNL A   1      33.314  24.994  26.054  1.00  0.00     0.348 HD
BRANCH  93  95
ATOM     95  C   UNL A   1      32.464  23.524  26.960  1.00  0.00     0.299 C 
BRANCH  95  96
ATOM     96  C   UNL A   1      33.686  22.682  26.674  1.00  0.00     0.010 A 
ATOM     97  C   UNL A   1      33.525  21.434  26.030  1.00  0.00     0.013 A 
ATOM     98  C   UNL A   1      34.947  23.293  26.738  1.00  0.00     0.060 A 
ATOM     99  C   UNL A   1      34.553  20.912  25.246  1.00  0.00     0.051 A 
ATOM    100  C   UNL A   1      35.911  22.793  25.900  1.00  0.00     0.166 A 
ATOM    101  C   UNL A   1      35.702  21.664  25.139  1.00  0.00     0.165 A 
ATOM    102  O   UNL A   1      37.042  23.461  25.532  1.00  0.00    -0.454 OA
ATOM    103  O   UNL A   1      36.673  21.503  24.197  1.00  0.00    -0.454 OA
ATOM    104  C   UNL A   1      37.299  22.803  24.273  1.00  0.00     0.468 C 
ENDBRANCH  95  96
ENDBRANCH  93  95
ENDBRANCH  82  86
ENDBRANCH  76  80
ENDBRANCH  71  74
ENDBRANCH  69  70
ENDBRANCH   1  69
TORSDOF 17
ENDMDL
