MODEL 1
REMARK VINA RESULT:     -10.8      0.000      0.000
REMARK SMILES NC(=O)c1ccsc1NS(=O)(=O)c1ccc(C(=O)NCCCNC(=O)c2ccc(-c3c4nc(c(-c5ccc(S(=O)(=O)[O-])cc5)c5ccc([nH]5)c(-c5ccc(S(=O)(=O)[O-])cc5)c5nc(c(-c6ccc(S(=O)(=O)[O-])cc6)c6ccc3[nH]6)C=C5)C=C4)cc2)cc1
REMARK SMILES IDX 20 1 19 2 17 3 18 4 16 6 13 7 14 8 87 9 15 10 86 11 10 12
REMARK SMILES IDX 11 13 12 14 9 15 8 17 4 18 5 19 6 20 7 21 2 22 1 23 3 26
REMARK SMILES IDX 21 27 22 28 23 29 24 30 25 32 26 33 27 34 85 35 28 36 84 37
REMARK SMILES IDX 29 38 30 39 31 40 78 41 32 42 83 43 77 44 79 45 33 46 82 47
REMARK SMILES IDX 76 48 75 49 34 51 64 52 45 53 63 54 46 55 49 56 62 57 80 58
REMARK SMILES IDX 47 59 48 60 61 62 81 63 50 64 35 65 36 66 44 67 37 68 43 69
REMARK SMILES IDX 38 70 39 71 40 72 41 73 42 74 65 75 66 76 74 77 67 78 73 79
REMARK SMILES IDX 68 80 69 81 70 82 71 83 72 84 51 85 52 86 60 87 53 88 59 89
REMARK SMILES IDX 54 90 55 91 56 92 57 93 58 94
REMARK H PARENT 19 5 9 16 1 24 1 25 23 31 79 50 49 61
REMARK Flexibility Score: inf
ROOT
ATOM      1  C   UNL A   1      37.301  20.899  24.942  1.00  0.00     0.118 C 
ENDROOT
BRANCH   1   2
ATOM      2  N   UNL A   1      37.753  22.183  25.433  1.00  0.00    -0.352 N 
ATOM      3  C   UNL A   1      37.155  23.367  25.763  1.00  0.00     0.251 C 
ATOM      4  O   UNL A   1      37.915  24.248  26.176  1.00  0.00    -0.269 OA
ATOM      5  H   UNL A   1      38.729  22.210  25.562  1.00  0.00     0.163 HD
BRANCH   3   6
ATOM      6  C   UNL A   1      35.700  23.690  25.625  1.00  0.00     0.039 A 
ATOM      7  C   UNL A   1      32.986  24.145  24.999  1.00  0.00     0.087 A 
ATOM      8  C   UNL A   1      33.982  24.505  24.089  1.00  0.00     0.023 A 
ATOM      9  C   UNL A   1      33.342  23.714  26.271  1.00  0.00     0.023 A 
ATOM     10  C   UNL A   1      35.325  24.294  24.411  1.00  0.00     0.015 A 
ATOM     11  C   UNL A   1      34.690  23.449  26.562  1.00  0.00     0.015 A 
BRANCH   7  12
ATOM     12  S   UNL A   1      31.313  24.095  24.398  1.00  0.00     0.262 S 
ATOM     13  O   UNL A   1      30.595  23.141  25.217  1.00  0.00    -0.201 OA
ATOM     14  O   UNL A   1      31.432  23.897  22.966  1.00  0.00    -0.201 OA
BRANCH  12  15
ATOM     15  N   UNL A   1      30.582  25.578  24.583  1.00  0.00    -0.270 N 
ATOM     16  H   UNL A   1      29.603  25.591  24.487  1.00  0.00     0.181 HD
BRANCH  15  17
ATOM     17  C   UNL A   1      31.198  26.831  24.862  1.00  0.00     0.115 A 
ATOM     18  C   UNL A   1      31.492  27.726  23.835  1.00  0.00     0.074 A 
ATOM     19  C   UNL A   1      32.418  28.724  24.305  1.00  0.00     0.028 A 
ATOM     20  C   UNL A   1      32.654  28.634  25.659  1.00  0.00     0.068 A 
ATOM     21  S   UNL A   1      31.671  27.440  26.382  1.00  0.00    -0.125 S 
BRANCH  18  22
ATOM     22  C   UNL A   1      30.963  27.576  22.478  1.00  0.00     0.251 C 
ATOM     23  N   UNL A   1      31.656  26.774  21.622  1.00  0.00    -0.366 N 
ATOM     24  H   UNL A   1      31.337  26.646  20.701  1.00  0.00     0.159 HD
ATOM     25  H   UNL A   1      32.478  26.325  21.926  1.00  0.00     0.159 HD
ATOM     26  O   UNL A   1      29.933  28.128  22.095  1.00  0.00    -0.269 OA
ENDBRANCH  18  22
ENDBRANCH  15  17
ENDBRANCH  12  15
ENDBRANCH   7  12
ENDBRANCH   3   6
ENDBRANCH   1   2
BRANCH   1  27
ATOM     27  C   UNL A   1      38.348  19.800  25.101  1.00  0.00     0.042 C 
BRANCH  27  28
ATOM     28  C   UNL A   1      39.400  20.147  26.153  1.00  0.00     0.118 C 
BRANCH  28  29
ATOM     29  N   UNL A   1      40.571  19.283  26.039  1.00  0.00    -0.352 N 
ATOM     30  C   UNL A   1      41.905  19.581  25.981  1.00  0.00     0.251 C 
ATOM     31  H   UNL A   1      40.366  18.321  25.997  1.00  0.00     0.163 HD
ATOM     32  O   UNL A   1      42.692  18.701  25.636  1.00  0.00    -0.269 OA
BRANCH  30  33
ATOM     33  C   UNL A   1      42.402  20.927  26.324  1.00  0.00     0.039 A 
ATOM     34  C   UNL A   1      42.656  21.826  25.284  1.00  0.00     0.014 A 
ATOM     35  C   UNL A   1      42.684  21.286  27.645  1.00  0.00     0.014 A 
ATOM     36  C   UNL A   1      43.162  23.093  25.572  1.00  0.00     0.010 A 
ATOM     37  C   UNL A   1      43.113  22.577  27.937  1.00  0.00     0.010 A 
ATOM     38  C   UNL A   1      43.373  23.486  26.903  1.00  0.00    -0.014 A 
BRANCH  38  39
ATOM     39  C   UNL A   1      43.875  24.844  27.219  1.00  0.00     0.031 A 
ATOM     40  C   UNL A   1      45.328  25.182  27.027  1.00  0.00     0.074 A 
ATOM     41  C   UNL A   1      43.020  25.763  27.707  1.00  0.00     0.049 A 
ATOM     42  N   UNL A   1      45.945  26.315  27.239  1.00  0.00    -0.248 NA
ATOM     43  C   UNL A   1      46.208  24.100  26.553  1.00  0.00     0.031 C 
ATOM     44  C   UNL A   1      41.596  25.539  27.970  1.00  0.00     0.029 A 
ATOM     45  N   UNL A   1      43.220  27.073  28.058  1.00  0.00    -0.354 N 
ATOM     46  C   UNL A   1      47.282  26.083  26.934  1.00  0.00     0.074 A 
ATOM     47  C   UNL A   1      47.397  24.685  26.582  1.00  0.00     0.031 C 
ATOM     48  C   UNL A   1      41.042  26.684  28.396  1.00  0.00     0.029 A 
ATOM     49  C   UNL A   1      42.076  27.710  28.477  1.00  0.00     0.049 A 
ATOM     50  H   UNL A   1      44.098  27.515  28.016  1.00  0.00     0.167 HD
ATOM     51  C   UNL A   1      48.315  26.959  26.924  1.00  0.00     0.031 A 
ATOM     52  C   UNL A   1      41.880  28.981  28.875  1.00  0.00     0.031 A 
ATOM     53  C   UNL A   1      48.192  28.348  27.281  1.00  0.00     0.049 A 
ATOM     54  C   UNL A   1      43.046  29.930  28.876  1.00  0.00     0.074 A 
ATOM     55  C   UNL A   1      49.166  29.330  27.273  1.00  0.00     0.029 A 
ATOM     56  N   UNL A   1      47.020  28.952  27.714  1.00  0.00    -0.354 N 
ATOM     57  N   UNL A   1      44.292  29.705  28.531  1.00  0.00    -0.248 NA
ATOM     58  C   UNL A   1      42.775  31.307  29.305  1.00  0.00     0.031 C 
ATOM     59  C   UNL A   1      48.596  30.515  27.751  1.00  0.00     0.029 A 
ATOM     60  C   UNL A   1      47.251  30.288  27.994  1.00  0.00     0.049 A 
ATOM     61  H   UNL A   1      46.152  28.497  27.807  1.00  0.00     0.167 HD
ATOM     62  C   UNL A   1      44.947  30.924  28.669  1.00  0.00     0.074 A 
ATOM     63  C   UNL A   1      43.954  31.882  29.115  1.00  0.00     0.031 C 
ATOM     64  C   UNL A   1      46.251  31.225  28.444  1.00  0.00     0.031 A 
BRANCH  51  65
ATOM     65  C   UNL A   1      49.668  26.429  26.520  1.00  0.00    -0.014 A 
ATOM     66  C   UNL A   1      50.541  25.865  27.468  1.00  0.00     0.010 A 
ATOM     67  C   UNL A   1      50.068  26.481  25.171  1.00  0.00     0.010 A 
ATOM     68  C   UNL A   1      51.807  25.412  27.087  1.00  0.00     0.020 A 
ATOM     69  C   UNL A   1      51.322  25.999  24.781  1.00  0.00     0.020 A 
ATOM     70  C   UNL A   1      52.192  25.488  25.746  1.00  0.00     0.054 A 
BRANCH  70  71
ATOM     71  S   UNL A   1      53.841  24.890  25.281  1.00  0.00     0.124 S 
ATOM     72  O   UNL A   1      53.605  23.456  25.123  1.00  0.00    -0.237 OA
ATOM     73  O   UNL A   1      54.109  25.621  24.046  1.00  0.00    -0.237 OA
ATOM     74  O   UNL A   1      54.678  25.262  26.418  1.00  0.00    -0.744 OA
ENDBRANCH  70  71
ENDBRANCH  51  65
BRANCH  52  75
ATOM     75  C   UNL A   1      40.517  29.435  29.266  1.00  0.00    -0.014 A 
ATOM     76  C   UNL A   1      40.193  29.626  30.620  1.00  0.00     0.010 A 
ATOM     77  C   UNL A   1      39.544  29.702  28.285  1.00  0.00     0.010 A 
ATOM     78  C   UNL A   1      38.916  30.058  30.989  1.00  0.00     0.020 A 
ATOM     79  C   UNL A   1      38.276  30.162  28.649  1.00  0.00     0.020 A 
ATOM     80  C   UNL A   1      37.967  30.327  30.000  1.00  0.00     0.054 A 
BRANCH  80  81
ATOM     81  S   UNL A   1      36.335  30.942  30.500  1.00  0.00     0.124 S 
ATOM     82  O   UNL A   1      35.580  30.848  29.256  1.00  0.00    -0.237 OA
ATOM     83  O   UNL A   1      35.951  29.998  31.548  1.00  0.00    -0.237 OA
ATOM     84  O   UNL A   1      36.610  32.299  30.968  1.00  0.00    -0.744 OA
ENDBRANCH  80  81
ENDBRANCH  52  75
BRANCH  64  85
ATOM     85  C   UNL A   1      46.666  32.660  28.636  1.00  0.00    -0.014 A 
ATOM     86  C   UNL A   1      46.580  33.596  27.590  1.00  0.00     0.010 A 
ATOM     87  C   UNL A   1      47.127  33.082  29.897  1.00  0.00     0.010 A 
ATOM     88  C   UNL A   1      46.993  34.916  27.789  1.00  0.00     0.020 A 
ATOM     89  C   UNL A   1      47.510  34.408  30.109  1.00  0.00     0.020 A 
ATOM     90  C   UNL A   1      47.460  35.313  29.047  1.00  0.00     0.054 A 
BRANCH  90  91
ATOM     91  S   UNL A   1      47.973  37.035  29.285  1.00  0.00     0.124 S 
ATOM     92  O   UNL A   1      49.422  36.943  29.131  1.00  0.00    -0.237 OA
ATOM     93  O   UNL A   1      47.269  37.731  28.211  1.00  0.00    -0.237 OA
ATOM     94  O   UNL A   1      47.507  37.352  30.634  1.00  0.00    -0.744 OA
ENDBRANCH  90  91
ENDBRANCH  64  85
ENDBRANCH  38  39
ENDBRANCH  30  33
ENDBRANCH  28  29
ENDBRANCH  27  28
ENDBRANCH   1  27
TORSDOF 17
ENDMDL
MODEL 2
REMARK VINA RESULT:     -10.8      6.062     11.837
REMARK SMILES NC(=O)c1ccsc1NS(=O)(=O)c1ccc(C(=O)NCCCNC(=O)c2ccc(-c3c4nc(c(-c5ccc(S(=O)(=O)[O-])cc5)c5ccc([nH]5)c(-c5ccc(S(=O)(=O)[O-])cc5)c5nc(c(-c6ccc(S(=O)(=O)[O-])cc6)c6ccc3[nH]6)C=C5)C=C4)cc2)cc1
REMARK SMILES IDX 20 1 19 2 17 3 18 4 16 6 13 7 14 8 87 9 15 10 86 11 10 12
REMARK SMILES IDX 11 13 12 14 9 15 8 17 4 18 5 19 6 20 7 21 2 22 1 23 3 26
REMARK SMILES IDX 21 27 22 28 23 29 24 30 25 32 26 33 27 34 85 35 28 36 84 37
REMARK SMILES IDX 29 38 30 39 31 40 78 41 32 42 83 43 77 44 79 45 33 46 82 47
REMARK SMILES IDX 76 48 75 49 34 51 64 52 45 53 63 54 46 55 49 56 62 57 80 58
REMARK SMILES IDX 47 59 48 60 61 62 81 63 50 64 35 65 36 66 44 67 37 68 43 69
REMARK SMILES IDX 38 70 39 71 40 72 41 73 42 74 65 75 66 76 74 77 67 78 73 79
REMARK SMILES IDX 68 80 69 81 70 82 71 83 72 84 51 85 52 86 60 87 53 88 59 89
REMARK SMILES IDX 54 90 55 91 56 92 57 93 58 94
REMARK H PARENT 19 5 9 16 1 24 1 25 23 31 79 50 49 61
REMARK Flexibility Score: inf
ROOT
ATOM      1  C   UNL A   1      31.963  30.417  25.933  1.00  0.00     0.118 C 
ENDROOT
BRANCH   1   2
ATOM      2  N   UNL A   1      31.079  30.309  24.793  1.00  0.00    -0.352 N 
ATOM      3  C   UNL A   1      30.552  29.282  24.060  1.00  0.00     0.251 C 
ATOM      4  O   UNL A   1      29.797  29.618  23.143  1.00  0.00    -0.269 OA
ATOM      5  H   UNL A   1      30.784  31.189  24.465  1.00  0.00     0.163 HD
BRANCH   3   6
ATOM      6  C   UNL A   1      30.844  27.826  24.245  1.00  0.00     0.039 A 
ATOM      7  C   UNL A   1      31.763  25.194  24.686  1.00  0.00     0.087 A 
ATOM      8  C   UNL A   1      32.516  26.075  23.907  1.00  0.00     0.023 A 
ATOM      9  C   UNL A   1      30.491  25.565  25.106  1.00  0.00     0.023 A 
ATOM     10  C   UNL A   1      32.048  27.371  23.677  1.00  0.00     0.015 A 
ATOM     11  C   UNL A   1      30.057  26.887  24.921  1.00  0.00     0.015 A 
BRANCH   7  12
ATOM     12  S   UNL A   1      32.567  23.708  25.242  1.00  0.00     0.262 S 
ATOM     13  O   UNL A   1      31.525  22.755  25.562  1.00  0.00    -0.201 OA
ATOM     14  O   UNL A   1      33.506  24.144  26.257  1.00  0.00    -0.201 OA
BRANCH  12  15
ATOM     15  N   UNL A   1      33.497  23.058  24.025  1.00  0.00    -0.270 N 
ATOM     16  H   UNL A   1      33.156  23.180  23.110  1.00  0.00     0.181 HD
BRANCH  15  17
ATOM     17  C   UNL A   1      34.725  22.348  24.144  1.00  0.00     0.115 A 
ATOM     18  C   UNL A   1      34.766  21.087  24.736  1.00  0.00     0.074 A 
ATOM     19  C   UNL A   1      36.125  20.744  25.066  1.00  0.00     0.028 A 
ATOM     20  C   UNL A   1      37.036  21.660  24.587  1.00  0.00     0.068 A 
ATOM     21  S   UNL A   1      36.271  22.855  23.636  1.00  0.00    -0.125 S 
BRANCH  18  22
ATOM     22  C   UNL A   1      33.560  20.307  25.020  1.00  0.00     0.251 C 
ATOM     23  N   UNL A   1      33.279  20.045  26.327  1.00  0.00    -0.366 N 
ATOM     24  H   UNL A   1      32.480  19.523  26.564  1.00  0.00     0.159 HD
ATOM     25  H   UNL A   1      33.878  20.376  27.036  1.00  0.00     0.159 HD
ATOM     26  O   UNL A   1      32.803  19.896  24.141  1.00  0.00    -0.269 OA
ENDBRANCH  18  22
ENDBRANCH  15  17
ENDBRANCH  12  15
ENDBRANCH   7  12
ENDBRANCH   3   6
ENDBRANCH   1   2
BRANCH   1  27
ATOM     27  C   UNL A   1      31.748  31.699  26.733  1.00  0.00     0.042 C 
BRANCH  27  28
ATOM     28  C   UNL A   1      33.054  32.260  27.294  1.00  0.00     0.118 C 
BRANCH  28  29
ATOM     29  N   UNL A   1      32.884  33.631  27.767  1.00  0.00    -0.352 N 
ATOM     30  C   UNL A   1      33.443  34.292  28.826  1.00  0.00     0.251 C 
ATOM     31  H   UNL A   1      32.260  34.172  27.232  1.00  0.00     0.163 HD
ATOM     32  O   UNL A   1      32.959  35.368  29.172  1.00  0.00    -0.269 OA
BRANCH  30  33
ATOM     33  C   UNL A   1      34.605  33.736  29.545  1.00  0.00     0.039 A 
ATOM     34  C   UNL A   1      35.882  34.172  29.182  1.00  0.00     0.014 A 
ATOM     35  C   UNL A   1      34.454  32.744  30.519  1.00  0.00     0.014 A 
ATOM     36  C   UNL A   1      37.003  33.637  29.815  1.00  0.00     0.010 A 
ATOM     37  C   UNL A   1      35.567  32.269  31.205  1.00  0.00     0.010 A 
ATOM     38  C   UNL A   1      36.853  32.697  30.848  1.00  0.00    -0.014 A 
BRANCH  38  39
ATOM     39  C   UNL A   1      38.038  32.152  31.552  1.00  0.00     0.031 A 
ATOM     40  C   UNL A   1      38.440  32.694  32.896  1.00  0.00     0.074 A 
ATOM     41  C   UNL A   1      38.765  31.186  30.961  1.00  0.00     0.049 A 
ATOM     42  N   UNL A   1      39.436  32.337  33.664  1.00  0.00    -0.248 NA
ATOM     43  C   UNL A   1      37.630  33.797  33.441  1.00  0.00     0.031 C 
ATOM     44  C   UNL A   1      38.492  30.607  29.642  1.00  0.00     0.029 A 
ATOM     45  N   UNL A   1      39.876  30.510  31.395  1.00  0.00    -0.354 N 
ATOM     46  C   UNL A   1      39.379  33.171  34.774  1.00  0.00     0.074 A 
ATOM     47  C   UNL A   1      38.288  34.094  34.552  1.00  0.00     0.031 C 
ATOM     48  C   UNL A   1      39.382  29.633  29.397  1.00  0.00     0.029 A 
ATOM     49  C   UNL A   1      40.312  29.546  30.517  1.00  0.00     0.049 A 
ATOM     50  H   UNL A   1      40.321  30.698  32.253  1.00  0.00     0.167 HD
ATOM     51  C   UNL A   1      40.148  33.155  35.889  1.00  0.00     0.031 A 
ATOM     52  C   UNL A   1      41.341  28.683  30.608  1.00  0.00     0.031 A 
ATOM     53  C   UNL A   1      41.236  32.235  36.099  1.00  0.00     0.049 A 
ATOM     54  C   UNL A   1      42.194  28.698  31.845  1.00  0.00     0.074 A 
ATOM     55  C   UNL A   1      42.058  32.110  37.205  1.00  0.00     0.029 A 
ATOM     56  N   UNL A   1      41.656  31.284  35.180  1.00  0.00    -0.354 N 
ATOM     57  N   UNL A   1      42.090  29.458  32.910  1.00  0.00    -0.248 NA
ATOM     58  C   UNL A   1      43.294  27.728  31.899  1.00  0.00     0.031 C 
ATOM     59  C   UNL A   1      43.007  31.118  36.933  1.00  0.00     0.029 A 
ATOM     60  C   UNL A   1      42.736  30.580  35.685  1.00  0.00     0.049 A 
ATOM     61  H   UNL A   1      41.244  31.131  34.299  1.00  0.00     0.167 HD
ATOM     62  C   UNL A   1      43.091  29.033  33.776  1.00  0.00     0.074 A 
ATOM     63  C   UNL A   1      43.778  27.941  33.114  1.00  0.00     0.031 C 
ATOM     64  C   UNL A   1      43.411  29.501  35.009  1.00  0.00     0.031 A 
BRANCH  51  65
ATOM     65  C   UNL A   1      39.839  34.171  36.959  1.00  0.00    -0.014 A 
ATOM     66  C   UNL A   1      40.264  35.507  36.838  1.00  0.00     0.010 A 
ATOM     67  C   UNL A   1      39.099  33.792  38.095  1.00  0.00     0.010 A 
ATOM     68  C   UNL A   1      40.003  36.431  37.854  1.00  0.00     0.020 A 
ATOM     69  C   UNL A   1      38.808  34.722  39.099  1.00  0.00     0.020 A 
ATOM     70  C   UNL A   1      39.282  36.030  38.981  1.00  0.00     0.054 A 
BRANCH  70  71
ATOM     71  S   UNL A   1      38.956  37.251  40.283  1.00  0.00     0.124 S 
ATOM     72  O   UNL A   1      38.154  36.476  41.227  1.00  0.00    -0.237 OA
ATOM     73  O   UNL A   1      40.299  37.599  40.739  1.00  0.00    -0.237 OA
ATOM     74  O   UNL A   1      38.242  38.317  39.587  1.00  0.00    -0.744 OA
ENDBRANCH  70  71
ENDBRANCH  51  65
BRANCH  52  75
ATOM     75  C   UNL A   1      41.592  27.709  29.510  1.00  0.00    -0.014 A 
ATOM     76  C   UNL A   1      40.820  26.539  29.409  1.00  0.00     0.010 A 
ATOM     77  C   UNL A   1      42.588  27.958  28.548  1.00  0.00     0.010 A 
ATOM     78  C   UNL A   1      41.050  25.625  28.376  1.00  0.00     0.020 A 
ATOM     79  C   UNL A   1      42.799  27.061  27.497  1.00  0.00     0.020 A 
ATOM     80  C   UNL A   1      42.036  25.895  27.424  1.00  0.00     0.054 A 
BRANCH  80  81
ATOM     81  S   UNL A   1      42.276  24.724  26.060  1.00  0.00     0.124 S 
ATOM     82  O   UNL A   1      43.559  24.118  26.402  1.00  0.00    -0.237 OA
ATOM     83  O   UNL A   1      41.109  23.852  26.186  1.00  0.00    -0.237 OA
ATOM     84  O   UNL A   1      42.280  25.577  24.874  1.00  0.00    -0.744 OA
ENDBRANCH  80  81
ENDBRANCH  52  75
BRANCH  64  85
ATOM     85  C   UNL A   1      44.529  28.802  35.738  1.00  0.00    -0.014 A 
ATOM     86  C   UNL A   1      45.869  29.195  35.578  1.00  0.00     0.010 A 
ATOM     87  C   UNL A   1      44.224  27.748  36.621  1.00  0.00     0.010 A 
ATOM     88  C   UNL A   1      46.888  28.514  36.250  1.00  0.00     0.020 A 
ATOM     89  C   UNL A   1      45.236  27.088  37.319  1.00  0.00     0.020 A 
ATOM     90  C   UNL A   1      46.566  27.462  37.113  1.00  0.00     0.054 A 
BRANCH  90  91
ATOM     91  S   UNL A   1      47.904  26.607  37.987  1.00  0.00     0.124 S 
ATOM     92  O   UNL A   1      49.087  27.105  37.291  1.00  0.00    -0.237 OA
ATOM     93  O   UNL A   1      47.740  27.075  39.361  1.00  0.00    -0.237 OA
ATOM     94  O   UNL A   1      47.606  25.192  37.778  1.00  0.00    -0.744 OA
ENDBRANCH  90  91
ENDBRANCH  64  85
ENDBRANCH  38  39
ENDBRANCH  30  33
ENDBRANCH  28  29
ENDBRANCH  27  28
ENDBRANCH   1  27
TORSDOF 17
ENDMDL
MODEL 3
REMARK VINA RESULT:     -10.7      1.200      8.262
REMARK SMILES NC(=O)c1ccsc1NS(=O)(=O)c1ccc(C(=O)NCCCNC(=O)c2ccc(-c3c4nc(c(-c5ccc(S(=O)(=O)[O-])cc5)c5ccc([nH]5)c(-c5ccc(S(=O)(=O)[O-])cc5)c5nc(c(-c6ccc(S(=O)(=O)[O-])cc6)c6ccc3[nH]6)C=C5)C=C4)cc2)cc1
REMARK SMILES IDX 20 1 19 2 17 3 18 4 16 6 13 7 14 8 87 9 15 10 86 11 10 12
REMARK SMILES IDX 11 13 12 14 9 15 8 17 4 18 5 19 6 20 7 21 2 22 1 23 3 26
REMARK SMILES IDX 21 27 22 28 23 29 24 30 25 32 26 33 27 34 85 35 28 36 84 37
REMARK SMILES IDX 29 38 30 39 31 40 78 41 32 42 83 43 77 44 79 45 33 46 82 47
REMARK SMILES IDX 76 48 75 49 34 51 64 52 45 53 63 54 46 55 49 56 62 57 80 58
REMARK SMILES IDX 47 59 48 60 61 62 81 63 50 64 35 65 36 66 44 67 37 68 43 69
REMARK SMILES IDX 38 70 39 71 40 72 41 73 42 74 65 75 66 76 74 77 67 78 73 79
REMARK SMILES IDX 68 80 69 81 70 82 71 83 72 84 51 85 52 86 60 87 53 88 59 89
REMARK SMILES IDX 54 90 55 91 56 92 57 93 58 94
REMARK H PARENT 19 5 9 16 1 24 1 25 23 31 79 50 49 61
REMARK Flexibility Score: inf
ROOT
ATOM      1  C   UNL A   1      36.944  20.634  24.962  1.00  0.00     0.118 C 
ENDROOT
BRANCH   1   2
ATOM      2  N   UNL A   1      35.727  19.852  25.003  1.00  0.00    -0.352 N 
ATOM      3  C   UNL A   1      34.389  20.126  24.948  1.00  0.00     0.251 C 
ATOM      4  O   UNL A   1      33.644  19.144  24.996  1.00  0.00    -0.269 OA
ATOM      5  H   UNL A   1      35.906  18.888  25.090  1.00  0.00     0.163 HD
BRANCH   3   6
ATOM      6  C   UNL A   1      33.768  21.487  24.881  1.00  0.00     0.039 A 
ATOM      7  C   UNL A   1      32.281  23.868  24.601  1.00  0.00     0.087 A 
ATOM      8  C   UNL A   1      32.354  22.963  23.542  1.00  0.00     0.023 A 
ATOM      9  C   UNL A   1      33.070  23.671  25.728  1.00  0.00     0.023 A 
ATOM     10  C   UNL A   1      33.106  21.794  23.679  1.00  0.00     0.015 A 
ATOM     11  C   UNL A   1      33.773  22.466  25.881  1.00  0.00     0.015 A 
BRANCH   7  12
ATOM     12  S   UNL A   1      31.035  25.134  24.506  1.00  0.00     0.262 S 
ATOM     13  O   UNL A   1      30.404  25.208  25.808  1.00  0.00    -0.201 OA
ATOM     14  O   UNL A   1      30.257  24.812  23.326  1.00  0.00    -0.201 OA
BRANCH  12  15
ATOM     15  N   UNL A   1      31.729  26.613  24.192  1.00  0.00    -0.270 N 
ATOM     16  H   UNL A   1      32.352  26.643  23.429  1.00  0.00     0.181 HD
BRANCH  15  17
ATOM     17  C   UNL A   1      31.535  27.839  24.888  1.00  0.00     0.115 A 
ATOM     18  C   UNL A   1      31.066  28.970  24.223  1.00  0.00     0.074 A 
ATOM     19  C   UNL A   1      31.300  30.143  25.027  1.00  0.00     0.028 A 
ATOM     20  C   UNL A   1      31.777  29.840  26.283  1.00  0.00     0.068 A 
ATOM     21  S   UNL A   1      31.821  28.152  26.539  1.00  0.00    -0.125 S 
BRANCH  18  22
ATOM     22  C   UNL A   1      30.496  28.918  22.876  1.00  0.00     0.251 C 
ATOM     23  N   UNL A   1      31.031  29.749  21.938  1.00  0.00    -0.366 N 
ATOM     24  H   UNL A   1      30.678  29.747  21.020  1.00  0.00     0.159 HD
ATOM     25  H   UNL A   1      31.770  30.354  22.180  1.00  0.00     0.159 HD
ATOM     26  O   UNL A   1      29.578  28.160  22.564  1.00  0.00    -0.269 OA
ENDBRANCH  18  22
ENDBRANCH  15  17
ENDBRANCH  12  15
ENDBRANCH   7  12
ENDBRANCH   3   6
ENDBRANCH   1   2
BRANCH   1  27
ATOM     27  C   UNL A   1      38.204  19.775  25.020  1.00  0.00     0.042 C 
BRANCH  27  28
ATOM     28  C   UNL A   1      39.340  20.458  25.781  1.00  0.00     0.118 C 
BRANCH  28  29
ATOM     29  N   UNL A   1      40.397  19.512  26.123  1.00  0.00    -0.352 N 
ATOM     30  C   UNL A   1      41.731  19.702  26.362  1.00  0.00     0.251 C 
ATOM     31  H   UNL A   1      40.099  18.576  26.192  1.00  0.00     0.163 HD
ATOM     32  O   UNL A   1      42.471  18.721  26.387  1.00  0.00    -0.269 OA
BRANCH  30  33
ATOM     33  C   UNL A   1      42.280  21.052  26.588  1.00  0.00     0.039 A 
ATOM     34  C   UNL A   1      42.585  21.840  25.474  1.00  0.00     0.014 A 
ATOM     35  C   UNL A   1      42.560  21.520  27.875  1.00  0.00     0.014 A 
ATOM     36  C   UNL A   1      43.141  23.106  25.652  1.00  0.00     0.010 A 
ATOM     37  C   UNL A   1      43.041  22.813  28.054  1.00  0.00     0.010 A 
ATOM     38  C   UNL A   1      43.353  23.611  26.945  1.00  0.00    -0.014 A 
BRANCH  38  39
ATOM     39  C   UNL A   1      43.908  24.971  27.143  1.00  0.00     0.031 A 
ATOM     40  C   UNL A   1      43.021  26.096  27.603  1.00  0.00     0.074 A 
ATOM     41  C   UNL A   1      45.210  25.193  26.880  1.00  0.00     0.049 A 
ATOM     42  N   UNL A   1      43.331  27.344  27.840  1.00  0.00    -0.248 NA
ATOM     43  C   UNL A   1      41.596  25.783  27.803  1.00  0.00     0.031 C 
ATOM     44  C   UNL A   1      46.159  24.187  26.394  1.00  0.00     0.029 A 
ATOM     45  N   UNL A   1      45.964  26.332  26.994  1.00  0.00    -0.354 N 
ATOM     46  C   UNL A   1      42.143  27.966  28.208  1.00  0.00     0.074 A 
ATOM     47  C   UNL A   1      41.097  26.974  28.104  1.00  0.00     0.031 C 
ATOM     48  C   UNL A   1      47.377  24.742  26.297  1.00  0.00     0.029 A 
ATOM     49  C   UNL A   1      47.288  26.149  26.671  1.00  0.00     0.049 A 
ATOM     50  H   UNL A   1      45.594  27.198  27.279  1.00  0.00     0.167 HD
ATOM     51  C   UNL A   1      41.945  29.241  28.620  1.00  0.00     0.031 A 
ATOM     52  C   UNL A   1      48.318  27.017  26.683  1.00  0.00     0.031 A 
ATOM     53  C   UNL A   1      42.992  30.224  28.716  1.00  0.00     0.049 A 
ATOM     54  C   UNL A   1      48.069  28.432  27.123  1.00  0.00     0.074 A 
ATOM     55  C   UNL A   1      42.908  31.534  29.154  1.00  0.00     0.029 A 
ATOM     56  N   UNL A   1      44.317  30.005  28.366  1.00  0.00    -0.354 N 
ATOM     57  N   UNL A   1      46.949  28.988  27.521  1.00  0.00    -0.248 NA
ATOM     58  C   UNL A   1      49.228  29.333  27.131  1.00  0.00     0.031 C 
ATOM     59  C   UNL A   1      44.170  32.122  29.018  1.00  0.00     0.029 A 
ATOM     60  C   UNL A   1      45.056  31.160  28.559  1.00  0.00     0.049 A 
ATOM     61  H   UNL A   1      44.679  29.153  28.031  1.00  0.00     0.167 HD
ATOM     62  C   UNL A   1      47.276  30.296  27.859  1.00  0.00     0.074 A 
ATOM     63  C   UNL A   1      48.701  30.441  27.632  1.00  0.00     0.031 C 
ATOM     64  C   UNL A   1      46.473  31.287  28.321  1.00  0.00     0.031 A 
BRANCH  51  65
ATOM     65  C   UNL A   1      40.538  29.640  28.988  1.00  0.00    -0.014 A 
ATOM     66  C   UNL A   1      39.515  29.670  28.023  1.00  0.00     0.010 A 
ATOM     67  C   UNL A   1      40.228  29.973  30.320  1.00  0.00     0.010 A 
ATOM     68  C   UNL A   1      38.223  30.077  28.369  1.00  0.00     0.020 A 
ATOM     69  C   UNL A   1      38.929  30.350  30.676  1.00  0.00     0.020 A 
ATOM     70  C   UNL A   1      37.941  30.420  29.693  1.00  0.00     0.054 A 
BRANCH  70  71
ATOM     71  S   UNL A   1      36.254  30.942  30.114  1.00  0.00     0.124 S 
ATOM     72  O   UNL A   1      35.577  30.834  28.823  1.00  0.00    -0.237 OA
ATOM     73  O   UNL A   1      35.856  29.959  31.116  1.00  0.00    -0.237 OA
ATOM     74  O   UNL A   1      36.427  32.303  30.613  1.00  0.00    -0.744 OA
ENDBRANCH  70  71
ENDBRANCH  51  65
BRANCH  52  75
ATOM     75  C   UNL A   1      49.681  26.556  26.302  1.00  0.00    -0.014 A 
ATOM     76  C   UNL A   1      50.518  25.951  27.256  1.00  0.00     0.010 A 
ATOM     77  C   UNL A   1      50.140  26.698  24.980  1.00  0.00     0.010 A 
ATOM     78  C   UNL A   1      51.797  25.512  26.899  1.00  0.00     0.020 A 
ATOM     79  C   UNL A   1      51.406  26.233  24.614  1.00  0.00     0.020 A 
ATOM     80  C   UNL A   1      52.230  25.652  25.579  1.00  0.00     0.054 A 
BRANCH  80  81
ATOM     81  S   UNL A   1      53.871  25.023  25.127  1.00  0.00     0.124 S 
ATOM     82  O   UNL A   1      54.678  25.429  26.272  1.00  0.00    -0.237 OA
ATOM     83  O   UNL A   1      53.631  23.587  24.998  1.00  0.00    -0.237 OA
ATOM     84  O   UNL A   1      54.167  25.711  23.873  1.00  0.00    -0.744 OA
ENDBRANCH  80  81
ENDBRANCH  52  75
BRANCH  64  85
ATOM     85  C   UNL A   1      47.127  32.603  28.650  1.00  0.00    -0.014 A 
ATOM     86  C   UNL A   1      47.669  32.857  29.922  1.00  0.00     0.010 A 
ATOM     87  C   UNL A   1      47.222  33.595  27.654  1.00  0.00     0.010 A 
ATOM     88  C   UNL A   1      48.250  34.095  30.207  1.00  0.00     0.020 A 
ATOM     89  C   UNL A   1      47.832  34.821  27.926  1.00  0.00     0.020 A 
ATOM     90  C   UNL A   1      48.324  35.071  29.209  1.00  0.00     0.054 A 
BRANCH  90  91
ATOM     91  S   UNL A   1      49.100  36.662  29.598  1.00  0.00     0.124 S 
ATOM     92  O   UNL A   1      50.215  36.695  28.655  1.00  0.00    -0.237 OA
ATOM     93  O   UNL A   1      48.026  37.616  29.334  1.00  0.00    -0.237 OA
ATOM     94  O   UNL A   1      49.476  36.530  31.004  1.00  0.00    -0.744 OA
ENDBRANCH  90  91
ENDBRANCH  64  85
ENDBRANCH  38  39
ENDBRANCH  30  33
ENDBRANCH  28  29
ENDBRANCH  27  28
ENDBRANCH   1  27
TORSDOF 17
ENDMDL
