MODEL 1
REMARK VINA RESULT:     -12.1      0.000      0.000
REMARK SMILES CC(C)Cc1ccc(-c2cc(Cl)cc3c2O[C@H](C(F)(F)F)C(C(=O)NCCCNC(=O)c2ccc(-c4c5nc(c(-c6ccc(S(=O)(=O)[O-])cc6)c6ccc([nH]6)c(-c6ccc(S(=O)(=O)[O-])cc6)c6nc(c(-c7ccc(S(=O)(=O)[O-])cc7)c7ccc4[nH]7)C=C6)C=C5)cc2)=C3)cc1
REMARK SMILES IDX 27 1 26 2 25 3 23 4 24 5 22 7 9 8 10 9 15 10 11 11 14 12
REMARK SMILES IDX 16 13 12 14 13 15 92 16 17 17 8 18 5 19 6 20 94 21 7 22
REMARK SMILES IDX 93 23 4 24 2 25 1 26 3 27 18 28 19 29 20 30 21 31 28 32
REMARK SMILES IDX 29 33 30 34 31 36 32 37 33 38 91 39 34 40 90 41 35 42 36 43
REMARK SMILES IDX 37 44 84 45 38 46 89 47 83 48 85 49 39 50 88 51 82 52 81 53
REMARK SMILES IDX 40 55 70 56 51 57 69 58 52 59 55 60 68 61 86 62 53 63 54 64
REMARK SMILES IDX 67 66 87 67 56 68 41 69 42 70 50 71 43 72 49 73 44 74 45 75
REMARK SMILES IDX 46 76 47 77 48 78 71 79 72 80 80 81 73 82 79 83 74 84 75 85
REMARK SMILES IDX 76 86 77 87 78 88 57 89 58 90 66 91 59 92 65 93 60 94 61 95
REMARK SMILES IDX 62 96 63 97 64 98
REMARK H PARENT 25 6 29 35 85 54 55 65
REMARK Flexibility Score: inf
ROOT
ATOM      1  C   UNL A   1      37.732  21.065  25.144  1.00  0.00     0.042 C 
ENDROOT
BRANCH   1   2
ATOM      2  C   UNL A   1      36.455  21.630  25.770  1.00  0.00     0.118 C 
BRANCH   2   3
ATOM      3  N   UNL A   1      36.269  23.012  25.370  1.00  0.00    -0.352 N 
ATOM      4  C   UNL A   1      35.326  23.488  24.521  1.00  0.00     0.251 C 
ATOM      5  O   UNL A   1      35.622  24.342  23.693  1.00  0.00    -0.270 OA
ATOM      6  H   UNL A   1      36.891  23.670  25.755  1.00  0.00     0.163 HD
BRANCH   4   7
ATOM      7  C   UNL A   1      33.917  23.049  24.752  1.00  0.00     0.067 C 
ATOM      8  C   UNL A   1      31.964  26.538  23.950  1.00  0.00     0.026 A 
ATOM      9  C   UNL A   1      32.705  27.572  24.581  1.00  0.00     0.033 A 
ATOM     10  C   UNL A   1      32.289  25.221  24.323  1.00  0.00     0.135 A 
ATOM     11  C   UNL A   1      33.564  27.333  25.649  1.00  0.00     0.042 A 
ATOM     12  C   UNL A   1      33.075  25.009  25.485  1.00  0.00     0.019 A 
ATOM     13  O   UNL A   1      31.931  24.100  23.586  1.00  0.00    -0.475 OA
ATOM     14  Cl  UNL A   1      34.415  28.641  26.368  1.00  0.00    -0.084 Cl
ATOM     15  C   UNL A   1      33.695  26.056  26.158  1.00  0.00     0.032 A 
ATOM     16  C   UNL A   1      33.392  23.612  25.858  1.00  0.00     0.025 C 
ATOM     17  C   UNL A   1      33.022  23.075  23.516  1.00  0.00     0.314 C 
BRANCH   8  18
ATOM     18  C   UNL A   1      30.771  27.033  23.207  1.00  0.00    -0.015 A 
ATOM     19  C   UNL A   1      28.650  28.904  22.755  1.00  0.00    -0.048 A 
ATOM     20  C   UNL A   1      29.848  28.984  22.035  1.00  0.00     0.004 A 
ATOM     21  C   UNL A   1      28.472  27.796  23.593  1.00  0.00     0.004 A 
ATOM     22  C   UNL A   1      30.889  28.060  22.251  1.00  0.00     0.009 A 
ATOM     23  C   UNL A   1      29.508  26.864  23.801  1.00  0.00     0.009 A 
BRANCH  19  24
ATOM     24  C   UNL A   1      27.568  29.962  22.618  1.00  0.00     0.038 C 
BRANCH  24  25
ATOM     25  C   UNL A   1      27.875  31.391  23.145  1.00  0.00    -0.013 C 
ATOM     26  C   UNL A   1      29.082  31.459  24.084  1.00  0.00     0.008 C 
ATOM     27  C   UNL A   1      28.138  32.332  21.956  1.00  0.00     0.008 C 
ENDBRANCH  24  25
ENDBRANCH  19  24
ENDBRANCH   8  18
BRANCH  17  28
ATOM     28  C   UNL A   1      32.467  21.648  23.299  1.00  0.00     0.429 C 
ATOM     29  F   UNL A   1      33.358  20.684  23.621  1.00  0.00    -0.167 F 
ATOM     30  F   UNL A   1      31.351  21.439  24.037  1.00  0.00    -0.167 F 
ATOM     31  F   UNL A   1      32.111  21.418  22.005  1.00  0.00    -0.167 F 
ENDBRANCH  17  28
ENDBRANCH   4   7
ENDBRANCH   2   3
ENDBRANCH   1   2
BRANCH   1  32
ATOM     32  C   UNL A   1      38.995  21.243  25.987  1.00  0.00     0.118 C 
BRANCH  32  33
ATOM     33  N   UNL A   1      39.848  20.066  26.003  1.00  0.00    -0.352 N 
ATOM     34  C   UNL A   1      41.213  19.987  26.139  1.00  0.00     0.251 C 
ATOM     35  H   UNL A   1      39.383  19.204  25.903  1.00  0.00     0.163 HD
ATOM     36  O   UNL A   1      41.783  18.909  25.987  1.00  0.00    -0.269 OA
BRANCH  34  37
ATOM     37  C   UNL A   1      41.994  21.207  26.436  1.00  0.00     0.039 A 
ATOM     38  C   UNL A   1      42.346  22.058  25.385  1.00  0.00     0.014 A 
ATOM     39  C   UNL A   1      42.358  21.523  27.748  1.00  0.00     0.014 A 
ATOM     40  C   UNL A   1      43.001  23.261  25.660  1.00  0.00     0.010 A 
ATOM     41  C   UNL A   1      42.939  22.758  28.026  1.00  0.00     0.010 A 
ATOM     42  C   UNL A   1      43.266  23.642  26.986  1.00  0.00    -0.014 A 
BRANCH  42  43
ATOM     43  C   UNL A   1      43.881  24.957  27.304  1.00  0.00     0.031 A 
ATOM     44  C   UNL A   1      43.031  26.080  27.839  1.00  0.00     0.074 A 
ATOM     45  C   UNL A   1      45.188  25.166  27.047  1.00  0.00     0.049 A 
ATOM     46  N   UNL A   1      43.371  27.315  28.112  1.00  0.00    -0.248 NA
ATOM     47  C   UNL A   1      41.608  25.786  28.074  1.00  0.00     0.031 C 
ATOM     48  C   UNL A   1      46.111  24.176  26.486  1.00  0.00     0.029 A 
ATOM     49  N   UNL A   1      45.969  26.282  27.218  1.00  0.00    -0.354 N 
ATOM     50  C   UNL A   1      42.204  27.946  28.527  1.00  0.00     0.074 A 
ATOM     51  C   UNL A   1      41.138  26.975  28.421  1.00  0.00     0.031 C 
ATOM     52  C   UNL A   1      47.335  24.719  26.388  1.00  0.00     0.029 A 
ATOM     53  C   UNL A   1      47.279  26.107  26.835  1.00  0.00     0.049 A 
ATOM     54  H   UNL A   1      45.623  27.130  27.581  1.00  0.00     0.167 HD
ATOM     55  C   UNL A   1      42.037  29.213  28.977  1.00  0.00     0.031 A 
ATOM     56  C   UNL A   1      48.317  26.965  26.836  1.00  0.00     0.031 A 
ATOM     57  C   UNL A   1      43.103  30.172  29.097  1.00  0.00     0.049 A 
ATOM     58  C   UNL A   1      48.107  28.369  27.337  1.00  0.00     0.074 A 
ATOM     59  C   UNL A   1      43.048  31.461  29.597  1.00  0.00     0.029 A 
ATOM     60  N   UNL A   1      44.417  29.948  28.713  1.00  0.00    -0.354 N 
ATOM     61  N   UNL A   1      47.008  28.927  27.789  1.00  0.00    -0.248 NA
ATOM     62  C   UNL A   1      49.278  29.255  27.342  1.00  0.00     0.031 C 
ATOM     63  C   UNL A   1      44.316  32.036  29.466  1.00  0.00     0.029 A 
ATOM     64  C   UNL A   1      45.177  31.082  28.944  1.00  0.00     0.049 A 
ATOM     65  H   UNL A   1      44.759  29.107  28.332  1.00  0.00     0.167 HD
ATOM     66  C   UNL A   1      47.364  30.219  28.159  1.00  0.00     0.074 A 
ATOM     67  C   UNL A   1      48.782  30.355  27.892  1.00  0.00     0.031 C 
ATOM     68  C   UNL A   1      46.588  31.203  28.676  1.00  0.00     0.031 A 
BRANCH  55  69
ATOM     69  C   UNL A   1      40.646  29.635  29.371  1.00  0.00    -0.014 A 
ATOM     70  C   UNL A   1      39.622  29.753  28.414  1.00  0.00     0.010 A 
ATOM     71  C   UNL A   1      40.346  29.880  30.725  1.00  0.00     0.010 A 
ATOM     72  C   UNL A   1      38.337  30.149  28.793  1.00  0.00     0.020 A 
ATOM     73  C   UNL A   1      39.054  30.246  31.113  1.00  0.00     0.020 A 
ATOM     74  C   UNL A   1      38.062  30.395  30.142  1.00  0.00     0.054 A 
BRANCH  74  75
ATOM     75  S   UNL A   1      36.379  30.886  30.608  1.00  0.00     0.124 S 
ATOM     76  O   UNL A   1      35.968  29.776  31.465  1.00  0.00    -0.237 OA
ATOM     77  O   UNL A   1      36.596  32.158  31.293  1.00  0.00    -0.237 OA
ATOM     78  O   UNL A   1      35.678  30.980  29.331  1.00  0.00    -0.744 OA
ENDBRANCH  74  75
ENDBRANCH  55  69
BRANCH  56  79
ATOM     79  C   UNL A   1      49.656  26.518  26.361  1.00  0.00    -0.014 A 
ATOM     80  C   UNL A   1      50.073  26.783  25.046  1.00  0.00     0.010 A 
ATOM     81  C   UNL A   1      50.526  25.831  27.228  1.00  0.00     0.010 A 
ATOM     82  C   UNL A   1      51.326  26.354  24.597  1.00  0.00     0.020 A 
ATOM     83  C   UNL A   1      51.792  25.425  26.792  1.00  0.00     0.020 A 
ATOM     84  C   UNL A   1      52.179  25.678  25.476  1.00  0.00     0.054 A 
BRANCH  84  85
ATOM     85  S   UNL A   1      53.820  25.174  24.887  1.00  0.00     0.124 S 
ATOM     86  O   UNL A   1      53.699  23.720  24.861  1.00  0.00    -0.237 OA
ATOM     87  O   UNL A   1      53.901  25.827  23.583  1.00  0.00    -0.237 OA
ATOM     88  O   UNL A   1      54.726  25.710  25.901  1.00  0.00    -0.744 OA
ENDBRANCH  84  85
ENDBRANCH  56  79
BRANCH  68  89
ATOM     89  C   UNL A   1      47.258  32.506  29.027  1.00  0.00    -0.014 A 
ATOM     90  C   UNL A   1      47.326  33.565  28.106  1.00  0.00     0.010 A 
ATOM     91  C   UNL A   1      47.774  32.688  30.323  1.00  0.00     0.010 A 
ATOM     92  C   UNL A   1      47.928  34.774  28.467  1.00  0.00     0.020 A 
ATOM     93  C   UNL A   1      48.349  33.905  30.697  1.00  0.00     0.020 A 
ATOM     94  C   UNL A   1      48.434  34.937  29.760  1.00  0.00     0.054 A 
BRANCH  94  95
ATOM     95  S   UNL A   1      49.166  36.532  30.217  1.00  0.00     0.124 S 
ATOM     96  O   UNL A   1      49.232  37.216  28.928  1.00  0.00    -0.237 OA
ATOM     97  O   UNL A   1      48.196  37.070  31.167  1.00  0.00    -0.237 OA
ATOM     98  O   UNL A   1      50.458  36.167  30.795  1.00  0.00    -0.744 OA
ENDBRANCH  94  95
ENDBRANCH  68  89
ENDBRANCH  42  43
ENDBRANCH  34  37
ENDBRANCH  32  33
ENDBRANCH   1  32
TORSDOF 17
ENDMDL
MODEL 2
REMARK VINA RESULT:     -12.1      6.232     10.212
REMARK SMILES CC(C)Cc1ccc(-c2cc(Cl)cc3c2O[C@H](C(F)(F)F)C(C(=O)NCCCNC(=O)c2ccc(-c4c5nc(c(-c6ccc(S(=O)(=O)[O-])cc6)c6ccc([nH]6)c(-c6ccc(S(=O)(=O)[O-])cc6)c6nc(c(-c7ccc(S(=O)(=O)[O-])cc7)c7ccc4[nH]7)C=C6)C=C5)cc2)=C3)cc1
REMARK SMILES IDX 27 1 26 2 25 3 23 4 24 5 22 7 9 8 10 9 15 10 11 11 14 12
REMARK SMILES IDX 16 13 12 14 13 15 92 16 17 17 8 18 5 19 6 20 94 21 7 22
REMARK SMILES IDX 93 23 4 24 2 25 1 26 3 27 18 28 19 29 20 30 21 31 28 32
REMARK SMILES IDX 29 33 30 34 31 36 32 37 33 38 91 39 34 40 90 41 35 42 36 43
REMARK SMILES IDX 37 44 84 45 38 46 89 47 83 48 85 49 39 50 88 51 82 52 81 53
REMARK SMILES IDX 40 55 70 56 51 57 69 58 52 59 55 60 68 61 86 62 53 63 54 64
REMARK SMILES IDX 67 66 87 67 56 68 41 69 42 70 50 71 43 72 49 73 44 74 45 75
REMARK SMILES IDX 46 76 47 77 48 78 71 79 72 80 80 81 73 82 79 83 74 84 75 85
REMARK SMILES IDX 76 86 77 87 78 88 57 89 58 90 66 91 59 92 65 93 60 94 61 95
REMARK SMILES IDX 62 96 63 97 64 98
REMARK H PARENT 25 6 29 35 85 54 55 65
REMARK Flexibility Score: inf
ROOT
ATOM      1  C   UNL A   1      32.653  32.107  27.346  1.00  0.00     0.042 C 
ENDROOT
BRANCH   1   2
ATOM      2  C   UNL A   1      31.313  31.943  26.624  1.00  0.00     0.118 C 
BRANCH   2   3
ATOM      3  N   UNL A   1      31.399  30.878  25.643  1.00  0.00    -0.352 N 
ATOM      4  C   UNL A   1      32.444  30.035  25.454  1.00  0.00     0.251 C 
ATOM      5  O   UNL A   1      32.798  29.743  24.317  1.00  0.00    -0.270 OA
ATOM      6  H   UNL A   1      30.619  30.755  25.056  1.00  0.00     0.163 HD
BRANCH   4   7
ATOM      7  C   UNL A   1      33.015  29.376  26.667  1.00  0.00     0.067 C 
ATOM      8  C   UNL A   1      33.327  25.549  25.293  1.00  0.00     0.026 A 
ATOM      9  C   UNL A   1      32.123  25.271  24.592  1.00  0.00     0.033 A 
ATOM     10  C   UNL A   1      33.330  26.707  26.091  1.00  0.00     0.135 A 
ATOM     11  C   UNL A   1      30.944  25.972  24.822  1.00  0.00     0.042 A 
ATOM     12  C   UNL A   1      32.095  27.335  26.398  1.00  0.00     0.019 A 
ATOM     13  O   UNL A   1      34.485  27.318  26.560  1.00  0.00    -0.475 OA
ATOM     14  Cl  UNL A   1      29.525  25.565  23.942  1.00  0.00    -0.084 Cl
ATOM     15  C   UNL A   1      30.904  26.960  25.785  1.00  0.00     0.032 A 
ATOM     16  C   UNL A   1      32.129  28.545  27.250  1.00  0.00     0.025 C 
ATOM     17  C   UNL A   1      34.423  28.814  26.493  1.00  0.00     0.314 C 
BRANCH   8  18
ATOM     18  C   UNL A   1      34.292  24.415  25.285  1.00  0.00    -0.015 A 
ATOM     19  C   UNL A   1      34.961  21.643  25.009  1.00  0.00    -0.048 A 
ATOM     20  C   UNL A   1      35.113  22.531  23.939  1.00  0.00     0.004 A 
ATOM     21  C   UNL A   1      34.611  22.184  26.254  1.00  0.00     0.004 A 
ATOM     22  C   UNL A   1      34.792  23.896  24.076  1.00  0.00     0.009 A 
ATOM     23  C   UNL A   1      34.302  23.551  26.395  1.00  0.00     0.009 A 
BRANCH  19  24
ATOM     24  C   UNL A   1      35.190  20.151  24.843  1.00  0.00     0.038 C 
BRANCH  24  25
ATOM     25  C   UNL A   1      33.947  19.219  24.839  1.00  0.00    -0.013 C 
ATOM     26  C   UNL A   1      32.765  19.766  24.036  1.00  0.00     0.008 C 
ATOM     27  C   UNL A   1      34.332  17.850  24.254  1.00  0.00     0.008 C 
ENDBRANCH  24  25
ENDBRANCH  19  24
ENDBRANCH   8  18
BRANCH  17  28
ATOM     28  C   UNL A   1      35.337  29.483  27.546  1.00  0.00     0.429 C 
ATOM     29  F   UNL A   1      35.583  30.784  27.277  1.00  0.00    -0.167 F 
ATOM     30  F   UNL A   1      34.789  29.416  28.783  1.00  0.00    -0.167 F 
ATOM     31  F   UNL A   1      36.553  28.878  27.640  1.00  0.00    -0.167 F 
ENDBRANCH  17  28
ENDBRANCH   4   7
ENDBRANCH   2   3
ENDBRANCH   1   2
BRANCH   1  32
ATOM     32  C   UNL A   1      33.357  33.442  27.102  1.00  0.00     0.118 C 
BRANCH  32  33
ATOM     33  N   UNL A   1      32.930  34.493  28.011  1.00  0.00    -0.352 N 
ATOM     34  C   UNL A   1      33.374  34.772  29.281  1.00  0.00     0.251 C 
ATOM     35  H   UNL A   1      32.225  35.089  27.668  1.00  0.00     0.163 HD
ATOM     36  O   UNL A   1      32.796  35.619  29.959  1.00  0.00    -0.269 OA
BRANCH  34  37
ATOM     37  C   UNL A   1      34.525  34.029  29.838  1.00  0.00     0.039 A 
ATOM     38  C   UNL A   1      35.818  34.429  29.496  1.00  0.00     0.014 A 
ATOM     39  C   UNL A   1      34.328  32.957  30.713  1.00  0.00     0.014 A 
ATOM     40  C   UNL A   1      36.915  33.799  30.088  1.00  0.00     0.010 A 
ATOM     41  C   UNL A   1      35.420  32.386  31.361  1.00  0.00     0.010 A 
ATOM     42  C   UNL A   1      36.726  32.799  31.057  1.00  0.00    -0.014 A 
BRANCH  42  43
ATOM     43  C   UNL A   1      37.878  32.180  31.764  1.00  0.00     0.031 A 
ATOM     44  C   UNL A   1      38.318  32.709  33.104  1.00  0.00     0.074 A 
ATOM     45  C   UNL A   1      38.573  31.188  31.171  1.00  0.00     0.049 A 
ATOM     46  N   UNL A   1      39.337  32.346  33.841  1.00  0.00    -0.248 NA
ATOM     47  C   UNL A   1      37.526  33.808  33.680  1.00  0.00     0.031 C 
ATOM     48  C   UNL A   1      38.279  30.615  29.855  1.00  0.00     0.029 A 
ATOM     49  N   UNL A   1      39.675  30.486  31.595  1.00  0.00    -0.354 N 
ATOM     50  C   UNL A   1      39.320  33.182  34.951  1.00  0.00     0.074 A 
ATOM     51  C   UNL A   1      38.223  34.106  34.766  1.00  0.00     0.031 C 
ATOM     52  C   UNL A   1      39.157  29.634  29.594  1.00  0.00     0.029 A 
ATOM     53  C   UNL A   1      40.104  29.534  30.699  1.00  0.00     0.049 A 
ATOM     54  H   UNL A   1      40.116  30.651  32.459  1.00  0.00     0.167 HD
ATOM     55  C   UNL A   1      40.131  33.171  36.036  1.00  0.00     0.031 A 
ATOM     56  C   UNL A   1      41.145  28.681  30.756  1.00  0.00     0.031 A 
ATOM     57  C   UNL A   1      41.211  32.240  36.225  1.00  0.00     0.049 A 
ATOM     58  C   UNL A   1      42.034  28.689  31.971  1.00  0.00     0.074 A 
ATOM     59  C   UNL A   1      42.052  32.108  37.316  1.00  0.00     0.029 A 
ATOM     60  N   UNL A   1      41.602  31.283  35.301  1.00  0.00    -0.354 N 
ATOM     61  N   UNL A   1      41.960  29.445  33.041  1.00  0.00    -0.248 NA
ATOM     62  C   UNL A   1      43.138  27.721  31.992  1.00  0.00     0.031 C 
ATOM     63  C   UNL A   1      42.985  31.107  37.030  1.00  0.00     0.029 A 
ATOM     64  C   UNL A   1      42.685  30.571  35.787  1.00  0.00     0.049 A 
ATOM     65  H   UNL A   1      41.172  31.131  34.428  1.00  0.00     0.167 HD
ATOM     66  C   UNL A   1      42.989  29.022  33.875  1.00  0.00     0.074 A 
ATOM     67  C   UNL A   1      43.661  27.935  33.191  1.00  0.00     0.031 C 
ATOM     68  C   UNL A   1      43.343  29.489  35.097  1.00  0.00     0.031 A 
BRANCH  55  69
ATOM     69  C   UNL A   1      39.878  34.202  37.106  1.00  0.00    -0.014 A 
ATOM     70  C   UNL A   1      39.129  33.890  38.255  1.00  0.00     0.010 A 
ATOM     71  C   UNL A   1      40.430  35.491  36.980  1.00  0.00     0.010 A 
ATOM     72  C   UNL A   1      38.899  34.857  39.237  1.00  0.00     0.020 A 
ATOM     73  C   UNL A   1      40.229  36.452  37.975  1.00  0.00     0.020 A 
ATOM     74  C   UNL A   1      39.450  36.134  39.089  1.00  0.00     0.054 A 
BRANCH  74  75
ATOM     75  S   UNL A   1      39.154  37.362  40.390  1.00  0.00     0.124 S 
ATOM     76  O   UNL A   1      40.508  37.833  40.673  1.00  0.00    -0.237 OA
ATOM     77  O   UNL A   1      38.281  38.326  39.727  1.00  0.00    -0.237 OA
ATOM     78  O   UNL A   1      38.527  36.590  41.460  1.00  0.00    -0.744 OA
ENDBRANCH  74  75
ENDBRANCH  55  69
BRANCH  56  79
ATOM     79  C   UNL A   1      41.396  27.735  29.633  1.00  0.00    -0.014 A 
ATOM     80  C   UNL A   1      42.492  27.921  28.773  1.00  0.00     0.010 A 
ATOM     81  C   UNL A   1      40.545  26.634  29.425  1.00  0.00     0.010 A 
ATOM     82  C   UNL A   1      42.722  27.038  27.713  1.00  0.00     0.020 A 
ATOM     83  C   UNL A   1      40.787  25.732  28.384  1.00  0.00     0.020 A 
ATOM     84  C   UNL A   1      41.867  25.947  27.527  1.00  0.00     0.054 A 
BRANCH  84  85
ATOM     85  S   UNL A   1      42.213  24.786  26.175  1.00  0.00     0.124 S 
ATOM     86  O   UNL A   1      41.885  25.584  24.999  1.00  0.00    -0.237 OA
ATOM     87  O   UNL A   1      43.631  24.492  26.368  1.00  0.00    -0.237 OA
ATOM     88  O   UNL A   1      41.310  23.669  26.446  1.00  0.00    -0.744 OA
ENDBRANCH  84  85
ENDBRANCH  56  79
BRANCH  68  89
ATOM     89  C   UNL A   1      44.487  28.805  35.799  1.00  0.00    -0.014 A 
ATOM     90  C   UNL A   1      45.810  29.257  35.657  1.00  0.00     0.010 A 
ATOM     91  C   UNL A   1      44.219  27.726  36.663  1.00  0.00     0.010 A 
ATOM     92  C   UNL A   1      46.849  28.622  36.342  1.00  0.00     0.020 A 
ATOM     93  C   UNL A   1      45.251  27.108  37.373  1.00  0.00     0.020 A 
ATOM     94  C   UNL A   1      46.563  27.553  37.197  1.00  0.00     0.054 A 
BRANCH  94  95
ATOM     95  S   UNL A   1      47.924  26.777  38.111  1.00  0.00     0.124 S 
ATOM     96  O   UNL A   1      48.542  25.941  37.084  1.00  0.00    -0.237 OA
ATOM     97  O   UNL A   1      48.714  27.926  38.546  1.00  0.00    -0.237 OA
ATOM     98  O   UNL A   1      47.251  26.049  39.184  1.00  0.00    -0.744 OA
ENDBRANCH  94  95
ENDBRANCH  68  89
ENDBRANCH  42  43
ENDBRANCH  34  37
ENDBRANCH  32  33
ENDBRANCH   1  32
TORSDOF 17
ENDMDL
MODEL 3
REMARK VINA RESULT:     -12.1      2.690      8.710
REMARK SMILES CC(C)Cc1ccc(-c2cc(Cl)cc3c2O[C@H](C(F)(F)F)C(C(=O)NCCCNC(=O)c2ccc(-c4c5nc(c(-c6ccc(S(=O)(=O)[O-])cc6)c6ccc([nH]6)c(-c6ccc(S(=O)(=O)[O-])cc6)c6nc(c(-c7ccc(S(=O)(=O)[O-])cc7)c7ccc4[nH]7)C=C6)C=C5)cc2)=C3)cc1
REMARK SMILES IDX 27 1 26 2 25 3 23 4 24 5 22 7 9 8 10 9 15 10 11 11 14 12
REMARK SMILES IDX 16 13 12 14 13 15 92 16 17 17 8 18 5 19 6 20 94 21 7 22
REMARK SMILES IDX 93 23 4 24 2 25 1 26 3 27 18 28 19 29 20 30 21 31 28 32
REMARK SMILES IDX 29 33 30 34 31 36 32 37 33 38 91 39 34 40 90 41 35 42 36 43
REMARK SMILES IDX 37 44 84 45 38 46 89 47 83 48 85 49 39 50 88 51 82 52 81 53
REMARK SMILES IDX 40 55 70 56 51 57 69 58 52 59 55 60 68 61 86 62 53 63 54 64
REMARK SMILES IDX 67 66 87 67 56 68 41 69 42 70 50 71 43 72 49 73 44 74 45 75
REMARK SMILES IDX 46 76 47 77 48 78 71 79 72 80 80 81 73 82 79 83 74 84 75 85
REMARK SMILES IDX 76 86 77 87 78 88 57 89 58 90 66 91 59 92 65 93 60 94 61 95
REMARK SMILES IDX 62 96 63 97 64 98
REMARK H PARENT 25 6 29 35 85 54 55 65
REMARK Flexibility Score: inf
ROOT
ATOM      1  C   UNL A   1      34.018  30.580  27.041  1.00  0.00     0.042 C 
ENDROOT
BRANCH   1   2
ATOM      2  C   UNL A   1      33.541  29.547  26.017  1.00  0.00     0.118 C 
BRANCH   2   3
ATOM      3  N   UNL A   1      33.456  28.235  26.630  1.00  0.00    -0.352 N 
ATOM      4  C   UNL A   1      32.476  27.316  26.442  1.00  0.00     0.251 C 
ATOM      5  O   UNL A   1      32.043  26.680  27.396  1.00  0.00    -0.270 OA
ATOM      6  H   UNL A   1      34.184  27.987  27.244  1.00  0.00     0.163 HD
BRANCH   4   7
ATOM      7  C   UNL A   1      32.085  27.016  25.032  1.00  0.00     0.067 C 
ATOM      8  C   UNL A   1      32.910  23.025  24.918  1.00  0.00     0.026 A 
ATOM      9  C   UNL A   1      34.161  22.851  25.568  1.00  0.00     0.033 A 
ATOM     10  C   UNL A   1      32.557  24.345  24.589  1.00  0.00     0.135 A 
ATOM     11  C   UNL A   1      35.086  23.882  25.700  1.00  0.00     0.042 A 
ATOM     12  C   UNL A   1      33.554  25.354  24.627  1.00  0.00     0.019 A 
ATOM     13  O   UNL A   1      31.264  24.744  24.278  1.00  0.00    -0.475 OA
ATOM     14  Cl  UNL A   1      36.585  23.586  26.487  1.00  0.00    -0.084 Cl
ATOM     15  C   UNL A   1      34.818  25.124  25.160  1.00  0.00     0.032 A 
ATOM     16  C   UNL A   1      33.155  26.733  24.264  1.00  0.00     0.025 C 
ATOM     17  C   UNL A   1      30.900  26.068  24.880  1.00  0.00     0.314 C 
BRANCH   8  18
ATOM     18  C   UNL A   1      32.308  21.749  24.442  1.00  0.00    -0.015 A 
ATOM     19  C   UNL A   1      32.477  19.040  23.526  1.00  0.00    -0.048 A 
ATOM     20  C   UNL A   1      32.213  19.331  24.869  1.00  0.00     0.004 A 
ATOM     21  C   UNL A   1      32.510  20.112  22.625  1.00  0.00     0.004 A 
ATOM     22  C   UNL A   1      32.122  20.663  25.319  1.00  0.00     0.009 A 
ATOM     23  C   UNL A   1      32.407  21.444  23.072  1.00  0.00     0.009 A 
BRANCH  19  24
ATOM     24  C   UNL A   1      32.695  17.613  23.050  1.00  0.00     0.038 C 
BRANCH  24  25
ATOM     25  C   UNL A   1      33.934  16.847  23.590  1.00  0.00    -0.013 C 
ATOM     26  C   UNL A   1      35.007  17.753  24.199  1.00  0.00     0.008 C 
ATOM     27  C   UNL A   1      33.489  15.841  24.665  1.00  0.00     0.008 C 
ENDBRANCH  24  25
ENDBRANCH  19  24
ENDBRANCH   8  18
BRANCH  17  28
ATOM     28  C   UNL A   1      29.806  26.797  24.065  1.00  0.00     0.429 C 
ATOM     29  F   UNL A   1      29.933  26.610  22.733  1.00  0.00    -0.167 F 
ATOM     30  F   UNL A   1      28.568  26.379  24.423  1.00  0.00    -0.167 F 
ATOM     31  F   UNL A   1      29.821  28.144  24.263  1.00  0.00    -0.167 F 
ENDBRANCH  17  28
ENDBRANCH   4   7
ENDBRANCH   2   3
ENDBRANCH   1   2
BRANCH   1  32
ATOM     32  C   UNL A   1      35.260  30.173  27.835  1.00  0.00     0.118 C 
BRANCH  32  33
ATOM     33  N   UNL A   1      35.286  30.716  29.183  1.00  0.00    -0.352 N 
ATOM     34  C   UNL A   1      36.287  30.654  30.122  1.00  0.00     0.251 C 
ATOM     35  H   UNL A   1      34.473  31.195  29.462  1.00  0.00     0.163 HD
ATOM     36  O   UNL A   1      36.078  31.051  31.267  1.00  0.00    -0.269 OA
BRANCH  34  37
ATOM     37  C   UNL A   1      37.602  30.081  29.760  1.00  0.00     0.039 A 
ATOM     38  C   UNL A   1      38.000  30.093  28.421  1.00  0.00     0.014 A 
ATOM     39  C   UNL A   1      38.447  29.554  30.740  1.00  0.00     0.014 A 
ATOM     40  C   UNL A   1      39.276  29.643  28.076  1.00  0.00     0.010 A 
ATOM     41  C   UNL A   1      39.746  29.181  30.405  1.00  0.00     0.010 A 
ATOM     42  C   UNL A   1      40.177  29.221  29.069  1.00  0.00    -0.014 A 
BRANCH  42  43
ATOM     43  C   UNL A   1      41.569  28.823  28.733  1.00  0.00     0.031 A 
ATOM     44  C   UNL A   1      42.668  29.852  28.721  1.00  0.00     0.074 A 
ATOM     45  C   UNL A   1      41.832  27.552  28.369  1.00  0.00     0.049 A 
ATOM     46  N   UNL A   1      43.927  29.712  28.389  1.00  0.00    -0.248 NA
ATOM     47  C   UNL A   1      42.302  31.224  29.107  1.00  0.00     0.031 C 
ATOM     48  C   UNL A   1      40.848  26.468  28.294  1.00  0.00     0.029 A 
ATOM     49  N   UNL A   1      43.008  26.953  27.987  1.00  0.00    -0.354 N 
ATOM     50  C   UNL A   1      44.493  30.976  28.505  1.00  0.00     0.074 A 
ATOM     51  C   UNL A   1      43.432  31.880  28.886  1.00  0.00     0.031 C 
ATOM     52  C   UNL A   1      41.466  25.336  27.922  1.00  0.00     0.029 A 
ATOM     53  C   UNL A   1      42.878  25.617  27.687  1.00  0.00     0.049 A 
ATOM     54  H   UNL A   1      43.864  27.436  27.933  1.00  0.00     0.167 HD
ATOM     55  C   UNL A   1      45.784  31.348  28.331  1.00  0.00     0.031 A 
ATOM     56  C   UNL A   1      43.789  24.719  27.264  1.00  0.00     0.031 A 
ATOM     57  C   UNL A   1      46.842  30.443  27.967  1.00  0.00     0.049 A 
ATOM     58  C   UNL A   1      45.217  25.156  27.075  1.00  0.00     0.074 A 
ATOM     59  C   UNL A   1      48.192  30.710  27.825  1.00  0.00     0.029 A 
ATOM     60  N   UNL A   1      46.669  29.095  27.688  1.00  0.00    -0.354 N 
ATOM     61  N   UNL A   1      45.745  26.344  27.255  1.00  0.00    -0.248 NA
ATOM     62  C   UNL A   1      46.173  24.131  26.638  1.00  0.00     0.031 C 
ATOM     63  C   UNL A   1      48.828  29.537  27.407  1.00  0.00     0.029 A 
ATOM     64  C   UNL A   1      47.884  28.523  27.353  1.00  0.00     0.049 A 
ATOM     65  H   UNL A   1      45.810  28.616  27.724  1.00  0.00     0.167 HD
ATOM     66  C   UNL A   1      47.101  26.200  26.983  1.00  0.00     0.074 A 
ATOM     67  C   UNL A   1      47.313  24.808  26.640  1.00  0.00     0.031 C 
ATOM     68  C   UNL A   1      48.082  27.135  27.016  1.00  0.00     0.031 A 
BRANCH  55  69
ATOM     69  C   UNL A   1      46.123  32.802  28.531  1.00  0.00    -0.014 A 
ATOM     70  C   UNL A   1      46.069  33.716  27.463  1.00  0.00     0.010 A 
ATOM     71  C   UNL A   1      46.464  33.272  29.814  1.00  0.00     0.010 A 
ATOM     72  C   UNL A   1      46.389  35.061  27.662  1.00  0.00     0.020 A 
ATOM     73  C   UNL A   1      46.755  34.623  30.024  1.00  0.00     0.020 A 
ATOM     74  C   UNL A   1      46.733  35.506  28.943  1.00  0.00     0.054 A 
BRANCH  74  75
ATOM     75  S   UNL A   1      47.122  37.262  29.176  1.00  0.00     0.124 S 
ATOM     76  O   UNL A   1      45.809  37.824  29.482  1.00  0.00    -0.237 OA
ATOM     77  O   UNL A   1      48.066  37.234  30.291  1.00  0.00    -0.237 OA
ATOM     78  O   UNL A   1      47.689  37.665  27.892  1.00  0.00    -0.744 OA
ENDBRANCH  74  75
ENDBRANCH  55  69
BRANCH  56  79
ATOM     79  C   UNL A   1      43.382  23.309  27.006  1.00  0.00    -0.014 A 
ATOM     80  C   UNL A   1      42.979  22.476  28.064  1.00  0.00     0.010 A 
ATOM     81  C   UNL A   1      43.386  22.794  25.696  1.00  0.00     0.010 A 
ATOM     82  C   UNL A   1      42.608  21.149  27.823  1.00  0.00     0.020 A 
ATOM     83  C   UNL A   1      42.987  21.478  25.447  1.00  0.00     0.020 A 
ATOM     84  C   UNL A   1      42.612  20.660  26.513  1.00  0.00     0.054 A 
BRANCH  84  85
ATOM     85  S   UNL A   1      42.079  18.950  26.217  1.00  0.00     0.124 S 
ATOM     86  O   UNL A   1      42.254  18.346  27.533  1.00  0.00    -0.237 OA
ATOM     87  O   UNL A   1      40.696  19.124  25.778  1.00  0.00    -0.237 OA
ATOM     88  O   UNL A   1      42.998  18.480  25.183  1.00  0.00    -0.744 OA
ENDBRANCH  84  85
ENDBRANCH  56  79
BRANCH  68  89
ATOM     89  C   UNL A   1      49.486  26.681  26.713  1.00  0.00    -0.014 A 
ATOM     90  C   UNL A   1      50.339  26.212  27.726  1.00  0.00     0.010 A 
ATOM     91  C   UNL A   1      49.934  26.671  25.379  1.00  0.00     0.010 A 
ATOM     92  C   UNL A   1      51.627  25.769  27.414  1.00  0.00     0.020 A 
ATOM     93  C   UNL A   1      51.210  26.202  25.059  1.00  0.00     0.020 A 
ATOM     94  C   UNL A   1      52.054  25.765  26.082  1.00  0.00     0.054 A 
BRANCH  94  95
ATOM     95  S   UNL A   1      53.713  25.141  25.698  1.00  0.00     0.124 S 
ATOM     96  O   UNL A   1      53.437  23.756  25.324  1.00  0.00    -0.237 OA
ATOM     97  O   UNL A   1      54.140  26.015  24.608  1.00  0.00    -0.237 OA
ATOM     98  O   UNL A   1      54.446  25.313  26.951  1.00  0.00    -0.744 OA
ENDBRANCH  94  95
ENDBRANCH  68  89
ENDBRANCH  42  43
ENDBRANCH  34  37
ENDBRANCH  32  33
ENDBRANCH   1  32
TORSDOF 17
ENDMDL
