MODEL 1
REMARK VINA RESULT:     -11.4      0.000      0.000
REMARK SMILES O=C(Cc1c[nH]c(=O)n(Cc2ccccc2)c1=O)NCCCNC(=O)c1ccc(-c2c3nc(c(-c4ccc(S(=O)(=O)[O-])cc4)c4ccc([nH]4)c(-c4ccc(S(=O)(=O)[O-])cc4)c4nc(c(-c5ccc(S(=O)(=O)[O-])cc5)c5ccc2[nH]5)C=C4)C=C3)cc1
REMARK SMILES IDX 21 1 20 2 19 3 1 4 2 5 3 7 4 8 5 9 17 10 6 11 9 12 18 13
REMARK SMILES IDX 7 14 8 16 10 17 11 18 12 19 16 20 13 21 15 22 14 23 22 24
REMARK SMILES IDX 23 25 24 26 25 28 26 29 27 30 85 31 28 32 84 33 29 34 30 35
REMARK SMILES IDX 31 36 78 37 32 38 83 39 77 40 79 41 33 42 82 43 76 44 75 45
REMARK SMILES IDX 34 47 64 48 45 49 63 50 46 51 49 52 62 53 80 54 47 55 48 56
REMARK SMILES IDX 61 58 81 59 50 60 35 61 36 62 44 63 37 64 43 65 38 66 39 67
REMARK SMILES IDX 40 68 41 69 42 70 65 71 66 72 74 73 67 74 73 75 68 76 69 77
REMARK SMILES IDX 70 78 71 79 72 80 51 81 52 82 60 83 53 84 59 85 54 86 55 87
REMARK SMILES IDX 56 88 57 89 58 90
REMARK H PARENT 19 6 6 15 23 27 79 46 49 57
REMARK Flexibility Score: inf
ROOT
ATOM      1  C   UNL A   1      31.976  28.622  26.614  1.00  0.00     0.042 C 
ENDROOT
BRANCH   1   2
ATOM      2  C   UNL A   1      31.562  29.504  25.445  1.00  0.00     0.117 C 
BRANCH   2   3
ATOM      3  N   UNL A   1      31.146  28.729  24.295  1.00  0.00    -0.356 N 
ATOM      4  O   UNL A   1      33.179  28.683  23.219  1.00  0.00    -0.275 OA
ATOM      5  C   UNL A   1      31.997  28.361  23.279  1.00  0.00     0.224 C 
ATOM      6  H   UNL A   1      30.203  28.450  24.238  1.00  0.00     0.163 HD
BRANCH   5   7
ATOM      7  C   UNL A   1      31.363  27.436  22.252  1.00  0.00     0.142 C 
BRANCH   7   8
ATOM      8  C   UNL A   1      31.449  26.042  22.799  1.00  0.00     0.043 A 
ATOM      9  C   UNL A   1      30.483  25.466  23.517  1.00  0.00     0.097 A 
ATOM     10  C   UNL A   1      32.655  25.233  22.457  1.00  0.00     0.260 A 
ATOM     11  N   UNL A   1      30.565  24.157  23.873  1.00  0.00    -0.314 N 
ATOM     12  N   UNL A   1      32.670  23.920  22.894  1.00  0.00    -0.256 N 
ATOM     13  O   UNL A   1      33.541  25.748  21.772  1.00  0.00    -0.269 OA
ATOM     14  C   UNL A   1      31.602  23.327  23.546  1.00  0.00     0.328 A 
ATOM     15  H   UNL A   1      29.826  23.779  24.404  1.00  0.00     0.171 HD
ATOM     16  O   UNL A   1      31.519  22.133  23.825  1.00  0.00    -0.248 OA
BRANCH  12  17
ATOM     17  C   UNL A   1      33.833  23.097  22.588  1.00  0.00     0.166 C 
BRANCH  17  18
ATOM     18  C   UNL A   1      34.920  23.220  23.637  1.00  0.00    -0.028 A 
ATOM     19  C   UNL A   1      36.260  22.965  23.308  1.00  0.00     0.005 A 
ATOM     20  C   UNL A   1      34.610  23.580  24.957  1.00  0.00     0.005 A 
ATOM     21  C   UNL A   1      37.265  23.058  24.272  1.00  0.00     0.000 A 
ATOM     22  C   UNL A   1      35.619  23.686  25.918  1.00  0.00     0.000 A 
ATOM     23  C   UNL A   1      36.945  23.421  25.576  1.00  0.00     0.000 A 
ENDBRANCH  17  18
ENDBRANCH  12  17
ENDBRANCH   7   8
ENDBRANCH   5   7
ENDBRANCH   2   3
ENDBRANCH   1   2
BRANCH   1  24
ATOM     24  C   UNL A   1      33.336  28.959  27.216  1.00  0.00     0.118 C 
BRANCH  24  25
ATOM     25  N   UNL A   1      33.420  30.305  27.771  1.00  0.00    -0.352 N 
ATOM     26  C   UNL A   1      34.491  30.930  28.370  1.00  0.00     0.251 C 
ATOM     27  H   UNL A   1      32.597  30.842  27.707  1.00  0.00     0.163 HD
ATOM     28  O   UNL A   1      34.359  32.048  28.860  1.00  0.00    -0.269 OA
BRANCH  26  29
ATOM     29  C   UNL A   1      35.788  30.224  28.464  1.00  0.00     0.039 A 
ATOM     30  C   UNL A   1      36.179  29.610  29.656  1.00  0.00     0.014 A 
ATOM     31  C   UNL A   1      36.648  30.238  27.364  1.00  0.00     0.014 A 
ATOM     32  C   UNL A   1      37.496  29.185  29.809  1.00  0.00     0.010 A 
ATOM     33  C   UNL A   1      37.947  29.738  27.496  1.00  0.00     0.010 A 
ATOM     34  C   UNL A   1      38.401  29.267  28.738  1.00  0.00    -0.014 A 
BRANCH  34  35
ATOM     35  C   UNL A   1      39.829  28.906  28.948  1.00  0.00     0.031 A 
ATOM     36  C   UNL A   1      40.765  29.866  29.640  1.00  0.00     0.074 A 
ATOM     37  C   UNL A   1      40.274  27.691  28.573  1.00  0.00     0.049 A 
ATOM     38  N   UNL A   1      42.038  29.723  29.905  1.00  0.00    -0.248 NA
ATOM     39  C   UNL A   1      40.201  31.149  30.094  1.00  0.00     0.031 C 
ATOM     40  C   UNL A   1      39.458  26.657  27.935  1.00  0.00     0.029 A 
ATOM     41  N   UNL A   1      41.511  27.109  28.698  1.00  0.00    -0.354 N 
ATOM     42  C   UNL A   1      42.430  30.896  30.542  1.00  0.00     0.074 A 
ATOM     43  C   UNL A   1      41.268  31.756  30.598  1.00  0.00     0.031 C 
ATOM     44  C   UNL A   1      40.199  25.552  27.772  1.00  0.00     0.029 A 
ATOM     45  C   UNL A   1      41.561  25.817  28.230  1.00  0.00     0.049 A 
ATOM     46  H   UNL A   1      42.288  27.573  29.085  1.00  0.00     0.167 HD
ATOM     47  C   UNL A   1      43.643  31.222  31.046  1.00  0.00     0.031 A 
ATOM     48  C   UNL A   1      42.585  24.943  28.159  1.00  0.00     0.031 A 
ATOM     49  C   UNL A   1      44.793  30.358  31.008  1.00  0.00     0.049 A 
ATOM     50  C   UNL A   1      43.940  25.354  28.659  1.00  0.00     0.074 A 
ATOM     51  C   UNL A   1      46.060  30.599  31.510  1.00  0.00     0.029 A 
ATOM     52  N   UNL A   1      44.819  29.090  30.447  1.00  0.00    -0.354 N 
ATOM     53  N   UNL A   1      44.292  26.472  29.244  1.00  0.00    -0.248 NA
ATOM     54  C   UNL A   1      45.038  24.394  28.482  1.00  0.00     0.031 C 
ATOM     55  C   UNL A   1      46.868  29.502  31.201  1.00  0.00     0.029 A 
ATOM     56  C   UNL A   1      46.089  28.550  30.562  1.00  0.00     0.049 A 
ATOM     57  H   UNL A   1      44.050  28.641  30.027  1.00  0.00     0.167 HD
ATOM     58  C   UNL A   1      45.651  26.351  29.507  1.00  0.00     0.074 A 
ATOM     59  C   UNL A   1      46.056  25.043  29.037  1.00  0.00     0.031 C 
ATOM     60  C   UNL A   1      46.486  27.251  30.082  1.00  0.00     0.031 A 
BRANCH  47  61
ATOM     61  C   UNL A   1      43.811  32.574  31.690  1.00  0.00    -0.014 A 
ATOM     62  C   UNL A   1      43.499  32.740  33.052  1.00  0.00     0.010 A 
ATOM     63  C   UNL A   1      44.159  33.701  30.925  1.00  0.00     0.010 A 
ATOM     64  C   UNL A   1      43.509  34.010  33.634  1.00  0.00     0.020 A 
ATOM     65  C   UNL A   1      44.194  34.971  31.509  1.00  0.00     0.020 A 
ATOM     66  C   UNL A   1      43.846  35.120  32.855  1.00  0.00     0.054 A 
BRANCH  66  67
ATOM     67  S   UNL A   1      43.838  36.766  33.619  1.00  0.00     0.124 S 
ATOM     68  O   UNL A   1      45.071  36.748  34.400  1.00  0.00    -0.237 OA
ATOM     69  O   UNL A   1      43.836  37.657  32.462  1.00  0.00    -0.237 OA
ATOM     70  O   UNL A   1      42.603  36.772  34.400  1.00  0.00    -0.744 OA
ENDBRANCH  66  67
ENDBRANCH  47  61
BRANCH  48  71
ATOM     71  C   UNL A   1      42.339  23.591  27.589  1.00  0.00    -0.014 A 
ATOM     72  C   UNL A   1      41.918  22.536  28.421  1.00  0.00     0.010 A 
ATOM     73  C   UNL A   1      42.620  23.326  26.238  1.00  0.00     0.010 A 
ATOM     74  C   UNL A   1      41.845  21.230  27.930  1.00  0.00     0.020 A 
ATOM     75  C   UNL A   1      42.520  22.025  25.735  1.00  0.00     0.020 A 
ATOM     76  C   UNL A   1      42.166  20.982  26.593  1.00  0.00     0.054 A 
BRANCH  76  77
ATOM     77  S   UNL A   1      42.131  19.270  25.992  1.00  0.00     0.124 S 
ATOM     78  O   UNL A   1      40.713  19.089  25.692  1.00  0.00    -0.237 OA
ATOM     79  O   UNL A   1      43.017  19.318  24.833  1.00  0.00    -0.237 OA
ATOM     80  O   UNL A   1      42.634  18.500  27.126  1.00  0.00    -0.744 OA
ENDBRANCH  76  77
ENDBRANCH  48  71
BRANCH  60  81
ATOM     81  C   UNL A   1      47.937  26.880  30.235  1.00  0.00    -0.014 A 
ATOM     82  C   UNL A   1      48.366  26.200  31.389  1.00  0.00     0.010 A 
ATOM     83  C   UNL A   1      48.892  27.341  29.313  1.00  0.00     0.010 A 
ATOM     84  C   UNL A   1      49.730  26.023  31.640  1.00  0.00     0.020 A 
ATOM     85  C   UNL A   1      50.256  27.145  29.549  1.00  0.00     0.020 A 
ATOM     86  C   UNL A   1      50.666  26.511  30.725  1.00  0.00     0.054 A 
BRANCH  86  87
ATOM     87  S   UNL A   1      52.432  26.321  31.094  1.00  0.00     0.124 S 
ATOM     88  O   UNL A   1      52.719  27.534  31.855  1.00  0.00    -0.237 OA
ATOM     89  O   UNL A   1      52.470  25.075  31.857  1.00  0.00    -0.237 OA
ATOM     90  O   UNL A   1      53.052  26.251  29.772  1.00  0.00    -0.744 OA
ENDBRANCH  86  87
ENDBRANCH  60  81
ENDBRANCH  34  35
ENDBRANCH  26  29
ENDBRANCH  24  25
ENDBRANCH   1  24
TORSDOF 16
ENDMDL
MODEL 2
REMARK VINA RESULT:     -11.3      1.693      2.271
REMARK SMILES O=C(Cc1c[nH]c(=O)n(Cc2ccccc2)c1=O)NCCCNC(=O)c1ccc(-c2c3nc(c(-c4ccc(S(=O)(=O)[O-])cc4)c4ccc([nH]4)c(-c4ccc(S(=O)(=O)[O-])cc4)c4nc(c(-c5ccc(S(=O)(=O)[O-])cc5)c5ccc2[nH]5)C=C4)C=C3)cc1
REMARK SMILES IDX 21 1 20 2 19 3 1 4 2 5 3 7 4 8 5 9 17 10 6 11 9 12 18 13
REMARK SMILES IDX 7 14 8 16 10 17 11 18 12 19 16 20 13 21 15 22 14 23 22 24
REMARK SMILES IDX 23 25 24 26 25 28 26 29 27 30 85 31 28 32 84 33 29 34 30 35
REMARK SMILES IDX 31 36 78 37 32 38 83 39 77 40 79 41 33 42 82 43 76 44 75 45
REMARK SMILES IDX 34 47 64 48 45 49 63 50 46 51 49 52 62 53 80 54 47 55 48 56
REMARK SMILES IDX 61 58 81 59 50 60 35 61 36 62 44 63 37 64 43 65 38 66 39 67
REMARK SMILES IDX 40 68 41 69 42 70 65 71 66 72 74 73 67 74 73 75 68 76 69 77
REMARK SMILES IDX 70 78 71 79 72 80 51 81 52 82 60 83 53 84 59 85 54 86 55 87
REMARK SMILES IDX 56 88 57 89 58 90
REMARK H PARENT 19 6 6 15 23 27 79 46 49 57
REMARK Flexibility Score: inf
ROOT
ATOM      1  C   UNL A   1      33.021  28.587  25.900  1.00  0.00     0.042 C 
ENDROOT
BRANCH   1   2
ATOM      2  C   UNL A   1      31.551  28.310  25.625  1.00  0.00     0.117 C 
BRANCH   2   3
ATOM      3  N   UNL A   1      31.352  27.072  24.902  1.00  0.00    -0.356 N 
ATOM      4  O   UNL A   1      31.371  25.662  26.720  1.00  0.00    -0.275 OA
ATOM      5  C   UNL A   1      31.256  25.843  25.511  1.00  0.00     0.224 C 
ATOM      6  H   UNL A   1      31.281  27.113  23.920  1.00  0.00     0.163 HD
BRANCH   5   7
ATOM      7  C   UNL A   1      30.912  24.710  24.558  1.00  0.00     0.142 C 
BRANCH   7   8
ATOM      8  C   UNL A   1      32.161  23.906  24.356  1.00  0.00     0.043 A 
ATOM      9  C   UNL A   1      33.207  24.327  23.642  1.00  0.00     0.097 A 
ATOM     10  C   UNL A   1      32.266  22.592  25.056  1.00  0.00     0.260 A 
ATOM     11  N   UNL A   1      34.361  23.609  23.604  1.00  0.00    -0.314 N 
ATOM     12  N   UNL A   1      33.464  21.912  24.931  1.00  0.00    -0.256 N 
ATOM     13  O   UNL A   1      31.315  22.207  25.740  1.00  0.00    -0.269 OA
ATOM     14  C   UNL A   1      34.563  22.430  24.267  1.00  0.00     0.328 A 
ATOM     15  H   UNL A   1      35.103  23.963  23.061  1.00  0.00     0.171 HD
ATOM     16  O   UNL A   1      35.683  21.924  24.252  1.00  0.00    -0.248 OA
BRANCH  12  17
ATOM     17  C   UNL A   1      33.605  20.621  25.592  1.00  0.00     0.166 C 
BRANCH  17  18
ATOM     18  C   UNL A   1      33.495  19.461  24.623  1.00  0.00    -0.028 A 
ATOM     19  C   UNL A   1      34.454  18.435  24.628  1.00  0.00     0.005 A 
ATOM     20  C   UNL A   1      32.444  19.392  23.698  1.00  0.00     0.005 A 
ATOM     21  C   UNL A   1      34.372  17.373  23.728  1.00  0.00     0.000 A 
ATOM     22  C   UNL A   1      32.355  18.320  22.806  1.00  0.00     0.000 A 
ATOM     23  C   UNL A   1      33.321  17.313  22.818  1.00  0.00     0.000 A 
ENDBRANCH  17  18
ENDBRANCH  12  17
ENDBRANCH   7   8
ENDBRANCH   5   7
ENDBRANCH   2   3
ENDBRANCH   1   2
BRANCH   1  24
ATOM     24  C   UNL A   1      33.375  28.742  27.375  1.00  0.00     0.118 C 
BRANCH  24  25
ATOM     25  N   UNL A   1      33.479  30.128  27.816  1.00  0.00    -0.352 N 
ATOM     26  C   UNL A   1      34.571  30.795  28.327  1.00  0.00     0.251 C 
ATOM     27  H   UNL A   1      32.655  30.661  27.736  1.00  0.00     0.163 HD
ATOM     28  O   UNL A   1      34.457  31.949  28.729  1.00  0.00    -0.269 OA
BRANCH  26  29
ATOM     29  C   UNL A   1      35.869  30.093  28.434  1.00  0.00     0.039 A 
ATOM     30  C   UNL A   1      36.250  29.480  29.630  1.00  0.00     0.014 A 
ATOM     31  C   UNL A   1      36.741  30.111  27.343  1.00  0.00     0.014 A 
ATOM     32  C   UNL A   1      37.566  29.061  29.796  1.00  0.00     0.010 A 
ATOM     33  C   UNL A   1      38.039  29.615  27.488  1.00  0.00     0.010 A 
ATOM     34  C   UNL A   1      38.483  29.146  28.735  1.00  0.00    -0.014 A 
BRANCH  34  35
ATOM     35  C   UNL A   1      39.910  28.790  28.959  1.00  0.00     0.031 A 
ATOM     36  C   UNL A   1      40.832  29.748  29.672  1.00  0.00     0.074 A 
ATOM     37  C   UNL A   1      40.366  27.580  28.579  1.00  0.00     0.049 A 
ATOM     38  N   UNL A   1      42.102  29.608  29.953  1.00  0.00    -0.248 NA
ATOM     39  C   UNL A   1      40.256  31.023  30.132  1.00  0.00     0.031 C 
ATOM     40  C   UNL A   1      39.562  26.548  27.920  1.00  0.00     0.029 A 
ATOM     41  N   UNL A   1      41.604  27.003  28.714  1.00  0.00    -0.354 N 
ATOM     42  C   UNL A   1      42.481  30.777  30.605  1.00  0.00     0.074 A 
ATOM     43  C   UNL A   1      41.314  31.630  30.654  1.00  0.00     0.031 C 
ATOM     44  C   UNL A   1      40.312  25.448  27.757  1.00  0.00     0.029 A 
ATOM     45  C   UNL A   1      41.666  25.716  28.235  1.00  0.00     0.049 A 
ATOM     46  H   UNL A   1      42.373  27.467  29.116  1.00  0.00     0.167 HD
ATOM     47  C   UNL A   1      43.685  31.104  31.128  1.00  0.00     0.031 A 
ATOM     48  C   UNL A   1      42.695  24.848  28.169  1.00  0.00     0.031 A 
ATOM     49  C   UNL A   1      44.840  30.245  31.097  1.00  0.00     0.049 A 
ATOM     50  C   UNL A   1      44.042  25.260  28.690  1.00  0.00     0.074 A 
ATOM     51  C   UNL A   1      46.099  30.487  31.617  1.00  0.00     0.029 A 
ATOM     52  N   UNL A   1      44.880  28.983  30.524  1.00  0.00    -0.354 N 
ATOM     53  N   UNL A   1      44.381  26.375  29.290  1.00  0.00    -0.248 NA
ATOM     54  C   UNL A   1      45.146  24.307  28.517  1.00  0.00     0.031 C 
ATOM     55  C   UNL A   1      46.916  29.398  31.308  1.00  0.00     0.029 A 
ATOM     56  C   UNL A   1      46.150  28.449  30.650  1.00  0.00     0.049 A 
ATOM     57  H   UNL A   1      44.118  28.535  30.090  1.00  0.00     0.167 HD
ATOM     58  C   UNL A   1      45.737  26.258  29.569  1.00  0.00     0.074 A 
ATOM     59  C   UNL A   1      46.154  24.956  29.091  1.00  0.00     0.031 C 
ATOM     60  C   UNL A   1      46.560  27.156  30.163  1.00  0.00     0.031 A 
BRANCH  47  61
ATOM     61  C   UNL A   1      43.838  32.450  31.787  1.00  0.00    -0.014 A 
ATOM     62  C   UNL A   1      44.289  33.548  31.031  1.00  0.00     0.010 A 
ATOM     63  C   UNL A   1      43.654  32.602  33.172  1.00  0.00     0.010 A 
ATOM     64  C   UNL A   1      44.576  34.767  31.650  1.00  0.00     0.020 A 
ATOM     65  C   UNL A   1      43.917  33.828  33.792  1.00  0.00     0.020 A 
ATOM     66  C   UNL A   1      44.398  34.896  33.030  1.00  0.00     0.054 A 
BRANCH  66  67
ATOM     67  S   UNL A   1      44.790  36.481  33.823  1.00  0.00     0.124 S 
ATOM     68  O   UNL A   1      44.673  36.153  35.240  1.00  0.00    -0.237 OA
ATOM     69  O   UNL A   1      46.144  36.752  33.346  1.00  0.00    -0.237 OA
ATOM     70  O   UNL A   1      43.766  37.384  33.303  1.00  0.00    -0.744 OA
ENDBRANCH  66  67
ENDBRANCH  47  61
BRANCH  48  71
ATOM     71  C   UNL A   1      42.463  23.500  27.583  1.00  0.00    -0.014 A 
ATOM     72  C   UNL A   1      41.990  22.447  28.389  1.00  0.00     0.010 A 
ATOM     73  C   UNL A   1      42.807  23.236  26.247  1.00  0.00     0.010 A 
ATOM     74  C   UNL A   1      41.927  21.144  27.891  1.00  0.00     0.020 A 
ATOM     75  C   UNL A   1      42.719  21.937  25.735  1.00  0.00     0.020 A 
ATOM     76  C   UNL A   1      42.311  20.895  26.571  1.00  0.00     0.054 A 
BRANCH  76  77
ATOM     77  S   UNL A   1      42.287  19.186  25.963  1.00  0.00     0.124 S 
ATOM     78  O   UNL A   1      40.868  18.990  25.680  1.00  0.00    -0.237 OA
ATOM     79  O   UNL A   1      43.159  19.248  24.793  1.00  0.00    -0.237 OA
ATOM     80  O   UNL A   1      42.814  18.417  27.088  1.00  0.00    -0.744 OA
ENDBRANCH  76  77
ENDBRANCH  48  71
BRANCH  60  81
ATOM     81  C   UNL A   1      48.011  26.791  30.331  1.00  0.00    -0.014 A 
ATOM     82  C   UNL A   1      48.425  26.084  31.475  1.00  0.00     0.010 A 
ATOM     83  C   UNL A   1      48.978  27.281  29.437  1.00  0.00     0.010 A 
ATOM     84  C   UNL A   1      49.786  25.910  31.744  1.00  0.00     0.020 A 
ATOM     85  C   UNL A   1      50.339  27.087  29.691  1.00  0.00     0.020 A 
ATOM     86  C   UNL A   1      50.733  26.427  30.857  1.00  0.00     0.054 A 
BRANCH  86  87
ATOM     87  S   UNL A   1      52.495  26.238  31.251  1.00  0.00     0.124 S 
ATOM     88  O   UNL A   1      52.762  27.437  32.042  1.00  0.00    -0.237 OA
ATOM     89  O   UNL A   1      52.528  24.978  31.988  1.00  0.00    -0.237 OA
ATOM     90  O   UNL A   1      53.136  26.200  29.938  1.00  0.00    -0.744 OA
ENDBRANCH  86  87
ENDBRANCH  60  81
ENDBRANCH  34  35
ENDBRANCH  26  29
ENDBRANCH  24  25
ENDBRANCH   1  24
TORSDOF 16
ENDMDL
MODEL 3
REMARK VINA RESULT:     -11.2      2.751      9.593
REMARK SMILES O=C(Cc1c[nH]c(=O)n(Cc2ccccc2)c1=O)NCCCNC(=O)c1ccc(-c2c3nc(c(-c4ccc(S(=O)(=O)[O-])cc4)c4ccc([nH]4)c(-c4ccc(S(=O)(=O)[O-])cc4)c4nc(c(-c5ccc(S(=O)(=O)[O-])cc5)c5ccc2[nH]5)C=C4)C=C3)cc1
REMARK SMILES IDX 21 1 20 2 19 3 1 4 2 5 3 7 4 8 5 9 17 10 6 11 9 12 18 13
REMARK SMILES IDX 7 14 8 16 10 17 11 18 12 19 16 20 13 21 15 22 14 23 22 24
REMARK SMILES IDX 23 25 24 26 25 28 26 29 27 30 85 31 28 32 84 33 29 34 30 35
REMARK SMILES IDX 31 36 78 37 32 38 83 39 77 40 79 41 33 42 82 43 76 44 75 45
REMARK SMILES IDX 34 47 64 48 45 49 63 50 46 51 49 52 62 53 80 54 47 55 48 56
REMARK SMILES IDX 61 58 81 59 50 60 35 61 36 62 44 63 37 64 43 65 38 66 39 67
REMARK SMILES IDX 40 68 41 69 42 70 65 71 66 72 74 73 67 74 73 75 68 76 69 77
REMARK SMILES IDX 70 78 71 79 72 80 51 81 52 82 60 83 53 84 59 85 54 86 55 87
REMARK SMILES IDX 56 88 57 89 58 90
REMARK H PARENT 19 6 6 15 23 27 79 46 49 57
REMARK Flexibility Score: inf
ROOT
ATOM      1  C   UNL A   1      35.585  22.255  25.987  1.00  0.00     0.042 C 
ENDROOT
BRANCH   1   2
ATOM      2  C   UNL A   1      34.580  23.028  26.827  1.00  0.00     0.117 C 
BRANCH   2   3
ATOM      3  N   UNL A   1      33.440  23.468  26.051  1.00  0.00    -0.356 N 
ATOM      4  O   UNL A   1      31.828  23.078  27.647  1.00  0.00    -0.275 OA
ATOM      5  C   UNL A   1      32.151  23.478  26.533  1.00  0.00     0.224 C 
ATOM      6  H   UNL A   1      33.596  23.778  25.129  1.00  0.00     0.163 HD
BRANCH   5   7
ATOM      7  C   UNL A   1      31.146  24.111  25.583  1.00  0.00     0.142 C 
BRANCH   7   8
ATOM      8  C   UNL A   1      31.400  25.588  25.591  1.00  0.00     0.043 A 
ATOM      9  C   UNL A   1      31.934  26.244  26.623  1.00  0.00     0.097 A 
ATOM     10  C   UNL A   1      31.103  26.353  24.344  1.00  0.00     0.260 A 
ATOM     11  N   UNL A   1      32.260  27.560  26.521  1.00  0.00    -0.314 N 
ATOM     12  N   UNL A   1      31.432  27.697  24.343  1.00  0.00    -0.256 N 
ATOM     13  O   UNL A   1      30.634  25.751  23.376  1.00  0.00    -0.269 OA
ATOM     14  C   UNL A   1      32.082  28.318  25.396  1.00  0.00     0.328 A 
ATOM     15  H   UNL A   1      32.650  27.998  27.312  1.00  0.00     0.171 HD
ATOM     16  O   UNL A   1      32.515  29.468  25.379  1.00  0.00    -0.248 OA
BRANCH  12  17
ATOM     17  C   UNL A   1      31.152  28.481  23.148  1.00  0.00     0.166 C 
BRANCH  17  18
ATOM     18  C   UNL A   1      29.835  29.227  23.242  1.00  0.00    -0.028 A 
ATOM     19  C   UNL A   1      28.624  28.569  22.973  1.00  0.00     0.005 A 
ATOM     20  C   UNL A   1      29.800  30.585  23.587  1.00  0.00     0.005 A 
ATOM     21  C   UNL A   1      27.409  29.252  23.039  1.00  0.00     0.000 A 
ATOM     22  C   UNL A   1      28.581  31.264  23.666  1.00  0.00     0.000 A 
ATOM     23  C   UNL A   1      27.386  30.599  23.388  1.00  0.00     0.000 A 
ENDBRANCH  17  18
ENDBRANCH  12  17
ENDBRANCH   7   8
ENDBRANCH   5   7
ENDBRANCH   2   3
ENDBRANCH   1   2
BRANCH   1  24
ATOM     24  C   UNL A   1      36.866  23.017  25.665  1.00  0.00     0.118 C 
BRANCH  24  25
ATOM     25  N   UNL A   1      38.085  22.253  25.905  1.00  0.00    -0.352 N 
ATOM     26  C   UNL A   1      39.279  22.673  26.448  1.00  0.00     0.251 C 
ATOM     27  H   UNL A   1      38.048  21.304  25.644  1.00  0.00     0.163 HD
ATOM     28  O   UNL A   1      40.238  21.908  26.499  1.00  0.00    -0.269 OA
BRANCH  26  29
ATOM     29  C   UNL A   1      39.413  24.069  26.920  1.00  0.00     0.039 A 
ATOM     30  C   UNL A   1      40.021  25.037  26.118  1.00  0.00     0.014 A 
ATOM     31  C   UNL A   1      38.985  24.392  28.211  1.00  0.00     0.014 A 
ATOM     32  C   UNL A   1      40.375  26.264  26.672  1.00  0.00     0.010 A 
ATOM     33  C   UNL A   1      39.272  25.654  28.738  1.00  0.00     0.010 A 
ATOM     34  C   UNL A   1      40.026  26.577  27.996  1.00  0.00    -0.014 A 
BRANCH  34  35
ATOM     35  C   UNL A   1      40.500  27.848  28.605  1.00  0.00     0.031 A 
ATOM     36  C   UNL A   1      41.958  28.030  28.952  1.00  0.00     0.074 A 
ATOM     37  C   UNL A   1      39.636  28.865  28.792  1.00  0.00     0.049 A 
ATOM     38  N   UNL A   1      42.550  29.066  29.491  1.00  0.00    -0.248 NA
ATOM     39  C   UNL A   1      42.867  26.911  28.655  1.00  0.00     0.031 C 
ATOM     40  C   UNL A   1      38.212  28.829  28.456  1.00  0.00     0.029 A 
ATOM     41  N   UNL A   1      39.831  30.132  29.281  1.00  0.00    -0.354 N 
ATOM     42  C   UNL A   1      43.891  28.720  29.611  1.00  0.00     0.074 A 
ATOM     43  C   UNL A   1      44.025  27.367  29.116  1.00  0.00     0.031 C 
ATOM     44  C   UNL A   1      37.674  30.033  28.699  1.00  0.00     0.029 A 
ATOM     45  C   UNL A   1      38.695  30.907  29.272  1.00  0.00     0.049 A 
ATOM     46  H   UNL A   1      40.702  30.455  29.607  1.00  0.00     0.167 HD
ATOM     47  C   UNL A   1      44.920  29.465  30.076  1.00  0.00     0.031 A 
ATOM     48  C   UNL A   1      38.486  32.171  29.688  1.00  0.00     0.031 A 
ATOM     49  C   UNL A   1      44.789  30.818  30.548  1.00  0.00     0.049 A 
ATOM     50  C   UNL A   1      39.628  32.954  30.269  1.00  0.00     0.074 A 
ATOM     51  C   UNL A   1      45.782  31.657  31.023  1.00  0.00     0.029 A 
ATOM     52  N   UNL A   1      43.603  31.533  30.600  1.00  0.00    -0.354 N 
ATOM     53  N   UNL A   1      40.885  32.603  30.386  1.00  0.00    -0.248 NA
ATOM     54  C   UNL A   1      39.325  34.297  30.784  1.00  0.00     0.031 C 
ATOM     55  C   UNL A   1      45.188  32.858  31.417  1.00  0.00     0.029 A 
ATOM     56  C   UNL A   1      43.834  32.792  31.129  1.00  0.00     0.049 A 
ATOM     57  H   UNL A   1      42.726  31.196  30.306  1.00  0.00     0.167 HD
ATOM     58  C   UNL A   1      41.525  33.681  30.985  1.00  0.00     0.074 A 
ATOM     59  C   UNL A   1      40.522  34.706  31.189  1.00  0.00     0.031 C 
ATOM     60  C   UNL A   1      42.828  33.802  31.338  1.00  0.00     0.031 A 
BRANCH  47  61
ATOM     61  C   UNL A   1      46.294  28.849  30.106  1.00  0.00    -0.014 A 
ATOM     62  C   UNL A   1      47.120  28.931  28.970  1.00  0.00     0.010 A 
ATOM     63  C   UNL A   1      46.722  28.088  31.209  1.00  0.00     0.010 A 
ATOM     64  C   UNL A   1      48.337  28.245  28.924  1.00  0.00     0.020 A 
ATOM     65  C   UNL A   1      47.950  27.420  31.176  1.00  0.00     0.020 A 
ATOM     66  C   UNL A   1      48.739  27.485  30.025  1.00  0.00     0.054 A 
BRANCH  66  67
ATOM     67  S   UNL A   1      50.313  26.586  29.945  1.00  0.00     0.124 S 
ATOM     68  O   UNL A   1      49.892  25.269  29.477  1.00  0.00    -0.237 OA
ATOM     69  O   UNL A   1      51.087  27.378  28.992  1.00  0.00    -0.237 OA
ATOM     70  O   UNL A   1      50.803  26.635  31.321  1.00  0.00    -0.744 OA
ENDBRANCH  66  67
ENDBRANCH  47  61
BRANCH  48  71
ATOM     71  C   UNL A   1      37.124  32.757  29.556  1.00  0.00    -0.014 A 
ATOM     72  C   UNL A   1      36.747  33.415  28.370  1.00  0.00     0.010 A 
ATOM     73  C   UNL A   1      36.237  32.748  30.645  1.00  0.00     0.010 A 
ATOM     74  C   UNL A   1      35.537  34.109  28.297  1.00  0.00     0.020 A 
ATOM     75  C   UNL A   1      35.011  33.417  30.566  1.00  0.00     0.020 A 
ATOM     76  C   UNL A   1      34.686  34.121  29.404  1.00  0.00     0.054 A 
BRANCH  76  77
ATOM     77  S   UNL A   1      33.151  35.084  29.314  1.00  0.00     0.124 S 
ATOM     78  O   UNL A   1      33.642  36.386  28.872  1.00  0.00    -0.237 OA
ATOM     79  O   UNL A   1      32.363  34.343  28.333  1.00  0.00    -0.237 OA
ATOM     80  O   UNL A   1      32.639  35.038  30.682  1.00  0.00    -0.744 OA
ENDBRANCH  76  77
ENDBRANCH  48  71
BRANCH  60  81
ATOM     81  C   UNL A   1      43.271  35.080  32.000  1.00  0.00    -0.014 A 
ATOM     82  C   UNL A   1      43.059  35.263  33.379  1.00  0.00     0.010 A 
ATOM     83  C   UNL A   1      43.753  36.152  31.230  1.00  0.00     0.010 A 
ATOM     84  C   UNL A   1      43.282  36.510  33.969  1.00  0.00     0.020 A 
ATOM     85  C   UNL A   1      44.000  37.394  31.822  1.00  0.00     0.020 A 
ATOM     86  C   UNL A   1      43.736  37.571  33.183  1.00  0.00     0.054 A 
BRANCH  86  87
ATOM     87  S   UNL A   1      43.968  39.197  33.955  1.00  0.00     0.124 S 
ATOM     88  O   UNL A   1      44.101  38.849  35.368  1.00  0.00    -0.237 OA
ATOM     89  O   UNL A   1      45.183  39.690  33.311  1.00  0.00    -0.237 OA
ATOM     90  O   UNL A   1      42.748  39.920  33.603  1.00  0.00    -0.744 OA
ENDBRANCH  86  87
ENDBRANCH  60  81
ENDBRANCH  34  35
ENDBRANCH  26  29
ENDBRANCH  24  25
ENDBRANCH   1  24
TORSDOF 16
ENDMDL
