MODEL 1
REMARK VINA RESULT:     -13.3      0.000      0.000
REMARK SMILES NC(=O)c1cc(NC(=O)/C=C\C(=O)NCCCNC(=O)c2ccc(-c3c4nc(c(-c5ccc(S(=O)(=O)[O-])cc5)c5ccc([nH]5)c(-c5ccc(S(=O)(=O)[O-])cc5)c5nc(c(-c6ccc(S(=O)(=O)[O-])cc6)c6ccc3[nH]6)C=C5)C=C4)cc2)ccc1N1CCOCC1
REMARK SMILES IDX 16 1 15 2 14 3 12 4 13 5 11 7 10 8 8 9 7 10 9 12 6 13 4 14
REMARK SMILES IDX 5 15 83 16 82 17 81 18 2 19 1 20 3 23 84 24 85 25 89 26
REMARK SMILES IDX 86 27 88 28 87 29 17 30 18 31 19 32 20 34 21 35 22 36 80 37
REMARK SMILES IDX 23 38 79 39 24 40 25 41 26 42 73 43 27 44 78 45 72 46 74 47
REMARK SMILES IDX 28 48 77 49 71 50 70 51 29 53 59 54 40 55 58 56 41 57 44 58
REMARK SMILES IDX 57 59 75 60 42 61 43 62 56 64 76 65 45 66 30 67 31 68 39 69
REMARK SMILES IDX 32 70 38 71 33 72 34 73 35 74 36 75 37 76 60 77 61 78 69 79
REMARK SMILES IDX 62 80 68 81 63 82 64 83 65 84 66 85 67 86 46 87 47 88 55 89
REMARK SMILES IDX 48 90 54 91 49 92 50 93 51 94 52 95 53 96
REMARK H PARENT 14 6 7 11 1 21 1 22 18 33 74 52 44 63
REMARK Flexibility Score: inf
ROOT
ATOM      1  C   UNL A   1      41.302  22.182  27.424  1.00  0.00     0.042 C 
ENDROOT
BRANCH   1   2
ATOM      2  C   UNL A   1      39.782  22.501  27.256  1.00  0.00     0.118 C 
BRANCH   2   3
ATOM      3  N   UNL A   1      39.064  22.721  25.724  1.00  0.00    -0.352 N 
ATOM      4  C   UNL A   1      37.339  22.819  24.775  1.00  0.00     0.244 C 
ATOM      5  O   UNL A   1      37.081  22.909  23.540  1.00  0.00    -0.270 OA
ATOM      6  H   UNL A   1      39.784  22.849  25.063  1.00  0.00     0.163 HD
BRANCH   4   7
ATOM      7  C   UNL A   1      35.736  22.969  25.413  1.00  0.00     0.077 C 
ATOM      8  C   UNL A   1      34.601  22.241  25.500  1.00  0.00     0.077 C 
BRANCH   8   9
ATOM      9  C   UNL A   1      34.360  20.906  24.891  1.00  0.00     0.248 C 
ATOM     10  N   UNL A   1      33.069  20.678  24.539  1.00  0.00    -0.322 N 
ATOM     11  H   UNL A   1      32.718  19.760  24.473  1.00  0.00     0.170 HD
ATOM     12  O   UNL A   1      35.237  20.057  24.849  1.00  0.00    -0.270 OA
BRANCH  10  13
ATOM     13  C   UNL A   1      32.261  21.768  24.276  1.00  0.00     0.042 A 
ATOM     14  C   UNL A   1      31.880  24.396  22.538  1.00  0.00     0.064 A 
ATOM     15  C   UNL A   1      32.457  22.666  22.655  1.00  0.00     0.042 A 
ATOM     16  C   UNL A   1      31.044  25.207  23.945  1.00  0.00     0.050 A 
ATOM     17  C   UNL A   1      30.782  24.257  25.500  1.00  0.00     0.029 A 
ATOM     18  C   UNL A   1      31.419  22.568  25.677  1.00  0.00     0.028 A 
BRANCH  14  19
ATOM     19  C   UNL A   1      32.774  25.189  21.669  1.00  0.00     0.250 C 
ATOM     20  N   UNL A   1      32.148  25.677  20.556  1.00  0.00    -0.366 N 
ATOM     21  H   UNL A   1      32.651  26.220  19.906  1.00  0.00     0.159 HD
ATOM     22  H   UNL A   1      31.195  25.484  20.404  1.00  0.00     0.159 HD
ATOM     23  O   UNL A   1      33.908  25.499  21.993  1.00  0.00    -0.269 OA
ENDBRANCH  14  19
BRANCH  16  24
ATOM     24  N   UNL A   1      30.826  26.592  23.991  1.00  0.00    -0.366 N 
ATOM     25  C   UNL A   1      29.589  27.303  23.607  1.00  0.00     0.145 C 
ATOM     26  C   UNL A   1      31.929  27.502  24.353  1.00  0.00     0.145 C 
ATOM     27  C   UNL A   1      29.885  28.440  22.593  1.00  0.00     0.181 C 
ATOM     28  C   UNL A   1      32.138  28.547  23.248  1.00  0.00     0.181 C 
ATOM     29  O   UNL A   1      30.941  29.310  23.032  1.00  0.00    -0.378 OA
ENDBRANCH  16  24
ENDBRANCH  10  13
ENDBRANCH   8   9
ENDBRANCH   4   7
ENDBRANCH   2   3
ENDBRANCH   1   2
BRANCH   1  30
ATOM     30  C   UNL A   1      42.242  23.363  27.647  1.00  0.00     0.118 C 
BRANCH  30  31
ATOM     31  N   UNL A   1      42.407  24.114  26.422  1.00  0.00    -0.352 N 
ATOM     32  C   UNL A   1      41.908  25.359  26.135  1.00  0.00     0.251 C 
ATOM     33  H   UNL A   1      42.938  23.683  25.713  1.00  0.00     0.163 HD
ATOM     34  O   UNL A   1      41.760  25.696  24.965  1.00  0.00    -0.269 OA
BRANCH  32  35
ATOM     35  C   UNL A   1      41.568  26.295  27.232  1.00  0.00     0.039 A 
ATOM     36  C   UNL A   1      42.401  27.391  27.464  1.00  0.00     0.014 A 
ATOM     37  C   UNL A   1      40.487  26.041  28.085  1.00  0.00     0.014 A 
ATOM     38  C   UNL A   1      42.159  28.226  28.557  1.00  0.00     0.010 A 
ATOM     39  C   UNL A   1      40.216  26.909  29.145  1.00  0.00     0.010 A 
ATOM     40  C   UNL A   1      41.064  27.995  29.407  1.00  0.00    -0.014 A 
BRANCH  40  41
ATOM     41  C   UNL A   1      40.827  28.873  30.583  1.00  0.00     0.031 A 
ATOM     42  C   UNL A   1      41.665  28.727  31.827  1.00  0.00     0.074 A 
ATOM     43  C   UNL A   1      39.855  29.806  30.528  1.00  0.00     0.049 A 
ATOM     44  N   UNL A   1      41.610  29.412  32.942  1.00  0.00    -0.248 NA
ATOM     45  C   UNL A   1      42.688  27.668  31.827  1.00  0.00     0.031 C 
ATOM     46  C   UNL A   1      38.964  30.030  29.387  1.00  0.00     0.029 A 
ATOM     47  N   UNL A   1      39.457  30.744  31.447  1.00  0.00    -0.354 N 
ATOM     48  C   UNL A   1      42.585  28.867  33.772  1.00  0.00     0.074 A 
ATOM     49  C   UNL A   1      43.177  27.759  33.055  1.00  0.00     0.031 C 
ATOM     50  C   UNL A   1      38.149  31.060  29.660  1.00  0.00     0.029 A 
ATOM     51  C   UNL A   1      38.421  31.539  31.011  1.00  0.00     0.049 A 
ATOM     52  H   UNL A   1      39.871  30.840  32.334  1.00  0.00     0.167 HD
ATOM     53  C   UNL A   1      42.966  29.266  35.009  1.00  0.00     0.031 A 
ATOM     54  C   UNL A   1      37.757  32.534  31.632  1.00  0.00     0.031 A 
ATOM     55  C   UNL A   1      42.369  30.368  35.717  1.00  0.00     0.049 A 
ATOM     56  C   UNL A   1      38.168  32.924  33.027  1.00  0.00     0.074 A 
ATOM     57  C   UNL A   1      42.707  30.875  36.961  1.00  0.00     0.029 A 
ATOM     58  N   UNL A   1      41.308  31.132  35.251  1.00  0.00    -0.354 N 
ATOM     59  N   UNL A   1      39.136  32.436  33.768  1.00  0.00    -0.248 NA
ATOM     60  C   UNL A   1      37.409  34.007  33.664  1.00  0.00     0.031 C 
ATOM     61  C   UNL A   1      41.805  31.894  37.277  1.00  0.00     0.029 A 
ATOM     62  C   UNL A   1      40.958  32.082  36.196  1.00  0.00     0.049 A 
ATOM     63  H   UNL A   1      40.869  31.014  34.378  1.00  0.00     0.167 HD
ATOM     64  C   UNL A   1      39.120  33.178  34.945  1.00  0.00     0.074 A 
ATOM     65  C   UNL A   1      38.064  34.160  34.806  1.00  0.00     0.031 C 
ATOM     66  C   UNL A   1      39.907  33.056  36.043  1.00  0.00     0.031 A 
BRANCH  53  67
ATOM     67  C   UNL A   1      44.078  28.506  35.688  1.00  0.00    -0.014 A 
ATOM     68  C   UNL A   1      45.424  28.886  35.529  1.00  0.00     0.010 A 
ATOM     69  C   UNL A   1      43.770  27.443  36.558  1.00  0.00     0.010 A 
ATOM     70  C   UNL A   1      46.438  28.203  36.204  1.00  0.00     0.020 A 
ATOM     71  C   UNL A   1      44.779  26.779  37.262  1.00  0.00     0.020 A 
ATOM     72  C   UNL A   1      46.109  27.158  37.072  1.00  0.00     0.054 A 
BRANCH  72  73
ATOM     73  S   UNL A   1      47.445  26.327  37.974  1.00  0.00     0.124 S 
ATOM     74  O   UNL A   1      48.570  27.232  37.748  1.00  0.00    -0.237 OA
ATOM     75  O   UNL A   1      46.931  26.293  39.341  1.00  0.00    -0.237 OA
ATOM     76  O   UNL A   1      47.552  25.026  37.319  1.00  0.00    -0.744 OA
ENDBRANCH  72  73
ENDBRANCH  53  67
BRANCH  54  77
ATOM     77  C   UNL A   1      36.624  33.221  30.950  1.00  0.00    -0.014 A 
ATOM     78  C   UNL A   1      36.839  34.024  29.817  1.00  0.00     0.010 A 
ATOM     79  C   UNL A   1      35.315  33.093  31.454  1.00  0.00     0.010 A 
ATOM     80  C   UNL A   1      35.777  34.714  29.224  1.00  0.00     0.020 A 
ATOM     81  C   UNL A   1      34.246  33.748  30.841  1.00  0.00     0.020 A 
ATOM     82  C   UNL A   1      34.486  34.572  29.740  1.00  0.00     0.054 A 
BRANCH  82  83
ATOM     83  S   UNL A   1      33.122  35.464  28.945  1.00  0.00     0.124 S 
ATOM     84  O   UNL A   1      32.480  34.406  28.170  1.00  0.00    -0.237 OA
ATOM     85  O   UNL A   1      32.364  35.962  30.089  1.00  0.00    -0.237 OA
ATOM     86  O   UNL A   1      33.799  36.493  28.158  1.00  0.00    -0.744 OA
ENDBRANCH  82  83
ENDBRANCH  54  77
BRANCH  66  87
ATOM     87  C   UNL A   1      39.692  34.039  37.165  1.00  0.00    -0.014 A 
ATOM     88  C   UNL A   1      38.908  33.714  38.288  1.00  0.00     0.010 A 
ATOM     89  C   UNL A   1      40.330  35.293  37.117  1.00  0.00     0.010 A 
ATOM     90  C   UNL A   1      38.736  34.640  39.321  1.00  0.00     0.020 A 
ATOM     91  C   UNL A   1      40.193  36.205  38.166  1.00  0.00     0.020 A 
ATOM     92  C   UNL A   1      39.383  35.878  39.254  1.00  0.00     0.054 A 
BRANCH  92  93
ATOM     93  S   UNL A   1      39.179  37.041  40.630  1.00  0.00     0.124 S 
ATOM     94  O   UNL A   1      38.308  38.056  40.045  1.00  0.00    -0.237 OA
ATOM     95  O   UNL A   1      38.568  36.207  41.662  1.00  0.00    -0.237 OA
ATOM     96  O   UNL A   1      40.542  37.481  40.918  1.00  0.00    -0.744 OA
ENDBRANCH  92  93
ENDBRANCH  66  87
ENDBRANCH  40  41
ENDBRANCH  32  35
ENDBRANCH  30  31
ENDBRANCH   1  30
TORSDOF 17
ENDMDL
MODEL 2
REMARK VINA RESULT:     -13.3      6.098     12.128
REMARK SMILES NC(=O)c1cc(NC(=O)/C=C\C(=O)NCCCNC(=O)c2ccc(-c3c4nc(c(-c5ccc(S(=O)(=O)[O-])cc5)c5ccc([nH]5)c(-c5ccc(S(=O)(=O)[O-])cc5)c5nc(c(-c6ccc(S(=O)(=O)[O-])cc6)c6ccc3[nH]6)C=C5)C=C4)cc2)ccc1N1CCOCC1
REMARK SMILES IDX 16 1 15 2 14 3 12 4 13 5 11 7 10 8 8 9 7 10 9 12 6 13 4 14
REMARK SMILES IDX 5 15 83 16 82 17 81 18 2 19 1 20 3 23 84 24 85 25 89 26
REMARK SMILES IDX 86 27 88 28 87 29 17 30 18 31 19 32 20 34 21 35 22 36 80 37
REMARK SMILES IDX 23 38 79 39 24 40 25 41 26 42 73 43 27 44 78 45 72 46 74 47
REMARK SMILES IDX 28 48 77 49 71 50 70 51 29 53 59 54 40 55 58 56 41 57 44 58
REMARK SMILES IDX 57 59 75 60 42 61 43 62 56 64 76 65 45 66 30 67 31 68 39 69
REMARK SMILES IDX 32 70 38 71 33 72 34 73 35 74 36 75 37 76 60 77 61 78 69 79
REMARK SMILES IDX 62 80 68 81 63 82 64 83 65 84 66 85 67 86 46 87 47 88 55 89
REMARK SMILES IDX 48 90 54 91 49 92 50 93 51 94 52 95 53 96
REMARK H PARENT 14 6 7 11 1 21 1 22 18 33 74 52 44 63
REMARK Flexibility Score: inf
ROOT
ATOM      1  C   UNL A   1      35.581  32.987  28.627  1.00  0.00     0.042 C 
ENDROOT
BRANCH   1   2
ATOM      2  C   UNL A   1      35.279  31.762  27.707  1.00  0.00     0.118 C 
BRANCH   2   3
ATOM      3  N   UNL A   1      34.027  30.655  28.049  1.00  0.00    -0.352 N 
ATOM      4  C   UNL A   1      32.879  29.260  27.261  1.00  0.00     0.244 C 
ATOM      5  O   UNL A   1      31.906  28.617  27.753  1.00  0.00    -0.270 OA
ATOM      6  H   UNL A   1      33.787  30.748  29.000  1.00  0.00     0.163 HD
BRANCH   4   7
ATOM      7  C   UNL A   1      33.019  28.444  25.740  1.00  0.00     0.077 C 
ATOM      8  C   UNL A   1      32.347  28.341  24.572  1.00  0.00     0.077 C 
BRANCH   8   9
ATOM      9  C   UNL A   1      31.028  28.950  24.257  1.00  0.00     0.248 C 
ATOM     10  N   UNL A   1      30.265  28.220  23.405  1.00  0.00    -0.322 N 
ATOM     11  H   UNL A   1      29.572  28.650  22.853  1.00  0.00     0.170 HD
ATOM     12  O   UNL A   1      30.738  30.075  24.636  1.00  0.00    -0.270 OA
BRANCH  10  13
ATOM     13  C   UNL A   1      30.486  26.858  23.333  1.00  0.00     0.042 A 
ATOM     14  C   UNL A   1      30.651  24.135  24.957  1.00  0.00     0.064 A 
ATOM     15  C   UNL A   1      29.870  25.770  24.715  1.00  0.00     0.042 A 
ATOM     16  C   UNL A   1      31.944  23.532  23.816  1.00  0.00     0.050 A 
ATOM     17  C   UNL A   1      32.461  24.595  22.405  1.00  0.00     0.029 A 
ATOM     18  C   UNL A   1      31.767  26.256  22.189  1.00  0.00     0.028 A 
BRANCH  14  19
ATOM     19  C   UNL A   1      30.736  23.803  26.394  1.00  0.00     0.250 C 
ATOM     20  N   UNL A   1      30.024  22.685  26.729  1.00  0.00    -0.366 N 
ATOM     21  H   UNL A   1      30.011  22.372  27.663  1.00  0.00     0.159 HD
ATOM     22  H   UNL A   1      29.524  22.195  26.038  1.00  0.00     0.159 HD
ATOM     23  O   UNL A   1      31.487  24.378  27.163  1.00  0.00    -0.269 OA
ENDBRANCH  14  19
BRANCH  16  24
ATOM     24  N   UNL A   1      32.745  22.419  24.111  1.00  0.00    -0.366 N 
ATOM     25  C   UNL A   1      32.479  21.016  23.730  1.00  0.00     0.145 C 
ATOM     26  C   UNL A   1      33.934  22.570  24.971  1.00  0.00     0.145 C 
ATOM     27  C   UNL A   1      32.543  20.075  24.962  1.00  0.00     0.181 C 
ATOM     28  C   UNL A   1      33.848  21.613  26.167  1.00  0.00     0.181 C 
ATOM     29  O   UNL A   1      33.748  20.250  25.727  1.00  0.00    -0.378 OA
ENDBRANCH  16  24
ENDBRANCH  10  13
ENDBRANCH   8   9
ENDBRANCH   4   7
ENDBRANCH   2   3
ENDBRANCH   1   2
BRANCH   1  30
ATOM     30  C   UNL A   1      36.693  32.828  29.660  1.00  0.00     0.118 C 
BRANCH  30  31
ATOM     31  N   UNL A   1      36.266  31.953  30.730  1.00  0.00    -0.352 N 
ATOM     32  C   UNL A   1      36.641  30.651  30.941  1.00  0.00     0.251 C 
ATOM     33  H   UNL A   1      35.635  32.337  31.382  1.00  0.00     0.163 HD
ATOM     34  O   UNL A   1      35.918  29.914  31.604  1.00  0.00    -0.269 OA
BRANCH  32  35
ATOM     35  C   UNL A   1      37.918  30.146  30.386  1.00  0.00     0.039 A 
ATOM     36  C   UNL A   1      38.981  29.904  31.257  1.00  0.00     0.014 A 
ATOM     37  C   UNL A   1      38.094  29.998  29.004  1.00  0.00     0.014 A 
ATOM     38  C   UNL A   1      40.225  29.528  30.745  1.00  0.00     0.010 A 
ATOM     39  C   UNL A   1      39.323  29.569  28.500  1.00  0.00     0.010 A 
ATOM     40  C   UNL A   1      40.409  29.355  29.362  1.00  0.00    -0.014 A 
BRANCH  40  41
ATOM     41  C   UNL A   1      41.741  28.979  28.822  1.00  0.00     0.031 A 
ATOM     42  C   UNL A   1      42.839  30.007  28.711  1.00  0.00     0.074 A 
ATOM     43  C   UNL A   1      41.964  27.708  28.433  1.00  0.00     0.049 A 
ATOM     44  N   UNL A   1      44.065  29.858  28.277  1.00  0.00    -0.248 NA
ATOM     45  C   UNL A   1      42.515  31.381  29.127  1.00  0.00     0.031 C 
ATOM     46  C   UNL A   1      40.974  26.628  28.473  1.00  0.00     0.029 A 
ATOM     47  N   UNL A   1      43.091  27.104  27.935  1.00  0.00    -0.354 N 
ATOM     48  C   UNL A   1      44.655  31.114  28.366  1.00  0.00     0.074 A 
ATOM     49  C   UNL A   1      43.638  32.026  28.841  1.00  0.00     0.031 C 
ATOM     50  C   UNL A   1      41.547  25.490  28.052  1.00  0.00     0.029 A 
ATOM     51  C   UNL A   1      42.927  25.765  27.664  1.00  0.00     0.049 A 
ATOM     52  H   UNL A   1      43.938  27.583  27.785  1.00  0.00     0.167 HD
ATOM     53  C   UNL A   1      45.934  31.472  28.098  1.00  0.00     0.031 A 
ATOM     54  C   UNL A   1      43.785  24.862  27.151  1.00  0.00     0.031 A 
ATOM     55  C   UNL A   1      46.941  30.560  27.622  1.00  0.00     0.049 A 
ATOM     56  C   UNL A   1      45.186  25.298  26.813  1.00  0.00     0.074 A 
ATOM     57  C   UNL A   1      48.276  30.815  27.354  1.00  0.00     0.029 A 
ATOM     58  N   UNL A   1      46.728  29.218  27.339  1.00  0.00    -0.354 N 
ATOM     59  N   UNL A   1      45.741  26.478  26.966  1.00  0.00    -0.248 NA
ATOM     60  C   UNL A   1      46.081  24.280  26.248  1.00  0.00     0.031 C 
ATOM     61  C   UNL A   1      48.848  29.650  26.839  1.00  0.00     0.029 A 
ATOM     62  C   UNL A   1      47.896  28.643  26.866  1.00  0.00     0.049 A 
ATOM     63  H   UNL A   1      45.872  28.746  27.455  1.00  0.00     0.167 HD
ATOM     64  C   UNL A   1      47.060  26.332  26.546  1.00  0.00     0.074 A 
ATOM     65  C   UNL A   1      47.223  24.946  26.158  1.00  0.00     0.031 C 
ATOM     66  C   UNL A   1      48.046  27.261  26.487  1.00  0.00     0.031 A 
BRANCH  53  67
ATOM     67  C   UNL A   1      46.324  32.915  28.302  1.00  0.00    -0.014 A 
ATOM     68  C   UNL A   1      46.857  33.360  29.527  1.00  0.00     0.010 A 
ATOM     69  C   UNL A   1      46.230  33.824  27.231  1.00  0.00     0.010 A 
ATOM     70  C   UNL A   1      47.260  34.687  29.684  1.00  0.00     0.020 A 
ATOM     71  C   UNL A   1      46.663  35.146  27.375  1.00  0.00     0.020 A 
ATOM     72  C   UNL A   1      47.167  35.571  28.605  1.00  0.00     0.054 A 
BRANCH  72  73
ATOM     73  S   UNL A   1      47.749  37.275  28.826  1.00  0.00     0.124 S 
ATOM     74  O   UNL A   1      48.331  37.567  27.518  1.00  0.00    -0.237 OA
ATOM     75  O   UNL A   1      46.517  37.993  29.140  1.00  0.00    -0.237 OA
ATOM     76  O   UNL A   1      48.708  37.176  29.924  1.00  0.00    -0.744 OA
ENDBRANCH  72  73
ENDBRANCH  53  67
BRANCH  54  77
ATOM     77  C   UNL A   1      43.344  23.459  26.907  1.00  0.00    -0.014 A 
ATOM     78  C   UNL A   1      43.066  22.590  27.977  1.00  0.00     0.010 A 
ATOM     79  C   UNL A   1      43.222  22.976  25.590  1.00  0.00     0.010 A 
ATOM     80  C   UNL A   1      42.714  21.258  27.736  1.00  0.00     0.020 A 
ATOM     81  C   UNL A   1      42.832  21.659  25.345  1.00  0.00     0.020 A 
ATOM     82  C   UNL A   1      42.599  20.801  26.420  1.00  0.00     0.054 A 
BRANCH  82  83
ATOM     83  S   UNL A   1      42.125  19.074  26.133  1.00  0.00     0.124 S 
ATOM     84  O   UNL A   1      43.036  18.685  25.061  1.00  0.00    -0.237 OA
ATOM     85  O   UNL A   1      42.376  18.459  27.433  1.00  0.00    -0.237 OA
ATOM     86  O   UNL A   1      40.717  19.165  25.754  1.00  0.00    -0.744 OA
ENDBRANCH  82  83
ENDBRANCH  54  77
BRANCH  66  87
ATOM     87  C   UNL A   1      49.406  26.802  26.028  1.00  0.00    -0.014 A 
ATOM     88  C   UNL A   1      49.813  26.928  24.687  1.00  0.00     0.010 A 
ATOM     89  C   UNL A   1      50.314  26.284  26.971  1.00  0.00     0.010 A 
ATOM     90  C   UNL A   1      51.085  26.506  24.291  1.00  0.00     0.020 A 
ATOM     91  C   UNL A   1      51.600  25.899  26.587  1.00  0.00     0.020 A 
ATOM     92  C   UNL A   1      51.972  25.998  25.246  1.00  0.00     0.054 A 
BRANCH  92  93
ATOM     93  S   UNL A   1      53.632  25.502  24.713  1.00  0.00     0.124 S 
ATOM     94  O   UNL A   1      54.475  26.093  25.748  1.00  0.00    -0.237 OA
ATOM     95  O   UNL A   1      53.548  24.044  24.726  1.00  0.00    -0.237 OA
ATOM     96  O   UNL A   1      53.764  26.101  23.386  1.00  0.00    -0.744 OA
ENDBRANCH  92  93
ENDBRANCH  66  87
ENDBRANCH  40  41
ENDBRANCH  32  35
ENDBRANCH  30  31
ENDBRANCH   1  30
TORSDOF 17
ENDMDL
MODEL 3
REMARK VINA RESULT:     -13.0      6.120     11.734
REMARK SMILES NC(=O)c1cc(NC(=O)/C=C\C(=O)NCCCNC(=O)c2ccc(-c3c4nc(c(-c5ccc(S(=O)(=O)[O-])cc5)c5ccc([nH]5)c(-c5ccc(S(=O)(=O)[O-])cc5)c5nc(c(-c6ccc(S(=O)(=O)[O-])cc6)c6ccc3[nH]6)C=C5)C=C4)cc2)ccc1N1CCOCC1
REMARK SMILES IDX 16 1 15 2 14 3 12 4 13 5 11 7 10 8 8 9 7 10 9 12 6 13 4 14
REMARK SMILES IDX 5 15 83 16 82 17 81 18 2 19 1 20 3 23 84 24 85 25 89 26
REMARK SMILES IDX 86 27 88 28 87 29 17 30 18 31 19 32 20 34 21 35 22 36 80 37
REMARK SMILES IDX 23 38 79 39 24 40 25 41 26 42 73 43 27 44 78 45 72 46 74 47
REMARK SMILES IDX 28 48 77 49 71 50 70 51 29 53 59 54 40 55 58 56 41 57 44 58
REMARK SMILES IDX 57 59 75 60 42 61 43 62 56 64 76 65 45 66 30 67 31 68 39 69
REMARK SMILES IDX 32 70 38 71 33 72 34 73 35 74 36 75 37 76 60 77 61 78 69 79
REMARK SMILES IDX 62 80 68 81 63 82 64 83 65 84 66 85 67 86 46 87 47 88 55 89
REMARK SMILES IDX 48 90 54 91 49 92 50 93 51 94 52 95 53 96
REMARK H PARENT 14 6 7 11 1 21 1 22 18 33 74 52 44 63
REMARK Flexibility Score: inf
ROOT
ATOM      1  C   UNL A   1      35.109  32.158  28.390  1.00  0.00     0.042 C 
ENDROOT
BRANCH   1   2
ATOM      2  C   UNL A   1      35.170  30.773  27.671  1.00  0.00     0.118 C 
BRANCH   2   3
ATOM      3  N   UNL A   1      33.904  29.635  27.781  1.00  0.00    -0.352 N 
ATOM      4  C   UNL A   1      33.004  28.160  26.831  1.00  0.00     0.244 C 
ATOM      5  O   UNL A   1      31.964  27.504  27.124  1.00  0.00    -0.270 OA
ATOM      6  H   UNL A   1      33.451  29.763  28.646  1.00  0.00     0.163 HD
BRANCH   4   7
ATOM      7  C   UNL A   1      33.510  27.280  25.428  1.00  0.00     0.077 C 
ATOM      8  C   UNL A   1      33.196  27.182  24.117  1.00  0.00     0.077 C 
BRANCH   8   9
ATOM      9  C   UNL A   1      32.075  27.872  23.425  1.00  0.00     0.248 C 
ATOM     10  N   UNL A   1      31.391  27.089  22.553  1.00  0.00    -0.322 N 
ATOM     11  H   UNL A   1      30.895  27.485  21.800  1.00  0.00     0.170 HD
ATOM     12  O   UNL A   1      31.895  29.075  23.546  1.00  0.00    -0.270 OA
BRANCH  10  13
ATOM     13  C   UNL A   1      31.407  25.721  22.751  1.00  0.00     0.042 A 
ATOM     14  C   UNL A   1      30.930  23.361  24.818  1.00  0.00     0.064 A 
ATOM     15  C   UNL A   1      30.450  25.005  24.179  1.00  0.00     0.042 A 
ATOM     16  C   UNL A   1      32.258  22.393  24.021  1.00  0.00     0.050 A 
ATOM     17  C   UNL A   1      33.119  23.092  22.552  1.00  0.00     0.029 A 
ATOM     18  C   UNL A   1      32.724  24.756  21.947  1.00  0.00     0.028 A 
BRANCH  14  19
ATOM     19  C   UNL A   1      30.767  23.301  26.285  1.00  0.00     0.250 C 
ATOM     20  N   UNL A   1      29.893  22.330  26.689  1.00  0.00    -0.366 N 
ATOM     21  H   UNL A   1      29.709  22.202  27.648  1.00  0.00     0.159 HD
ATOM     22  H   UNL A   1      29.448  21.761  26.021  1.00  0.00     0.159 HD
ATOM     23  O   UNL A   1      31.456  23.947  27.055  1.00  0.00    -0.269 OA
ENDBRANCH  14  19
BRANCH  16  24
ATOM     24  N   UNL A   1      32.830  21.264  24.626  1.00  0.00    -0.366 N 
ATOM     25  C   UNL A   1      34.068  21.227  25.431  1.00  0.00     0.145 C 
ATOM     26  C   UNL A   1      32.250  19.927  24.396  1.00  0.00     0.145 C 
ATOM     27  C   UNL A   1      35.051  20.148  24.905  1.00  0.00     0.181 C 
ATOM     28  C   UNL A   1      33.317  18.975  23.840  1.00  0.00     0.181 C 
ATOM     29  O   UNL A   1      34.425  18.863  24.745  1.00  0.00    -0.378 OA
ENDBRANCH  16  24
ENDBRANCH  10  13
ENDBRANCH   8   9
ENDBRANCH   4   7
ENDBRANCH   2   3
ENDBRANCH   1   2
BRANCH   1  30
ATOM     30  C   UNL A   1      36.234  32.488  29.367  1.00  0.00     0.118 C 
BRANCH  30  31
ATOM     31  N   UNL A   1      36.048  31.773  30.611  1.00  0.00    -0.352 N 
ATOM     32  C   UNL A   1      36.757  30.689  31.062  1.00  0.00     0.251 C 
ATOM     33  H   UNL A   1      35.331  32.102  31.201  1.00  0.00     0.163 HD
ATOM     34  O   UNL A   1      36.252  29.940  31.893  1.00  0.00    -0.269 OA
BRANCH  32  35
ATOM     35  C   UNL A   1      38.128  30.436  30.561  1.00  0.00     0.039 A 
ATOM     36  C   UNL A   1      38.311  30.188  29.200  1.00  0.00     0.014 A 
ATOM     37  C   UNL A   1      39.213  30.354  31.442  1.00  0.00     0.014 A 
ATOM     38  C   UNL A   1      39.578  29.845  28.723  1.00  0.00     0.010 A 
ATOM     39  C   UNL A   1      40.488  30.063  30.954  1.00  0.00     0.010 A 
ATOM     40  C   UNL A   1      40.679  29.780  29.594  1.00  0.00    -0.014 A 
BRANCH  40  41
ATOM     41  C   UNL A   1      42.020  29.390  29.084  1.00  0.00     0.031 A 
ATOM     42  C   UNL A   1      42.275  27.983  28.606  1.00  0.00     0.074 A 
ATOM     43  C   UNL A   1      43.008  30.305  29.048  1.00  0.00     0.049 A 
ATOM     44  N   UNL A   1      43.375  27.466  28.118  1.00  0.00    -0.248 NA
ATOM     45  C   UNL A   1      41.159  27.028  28.702  1.00  0.00     0.031 C 
ATOM     46  C   UNL A   1      42.888  31.693  29.502  1.00  0.00     0.029 A 
ATOM     47  N   UNL A   1      44.304  30.213  28.607  1.00  0.00    -0.354 N 
ATOM     48  C   UNL A   1      43.083  26.132  27.852  1.00  0.00     0.074 A 
ATOM     49  C   UNL A   1      41.723  25.903  28.285  1.00  0.00     0.031 C 
ATOM     50  C   UNL A   1      44.049  32.330  29.283  1.00  0.00     0.029 A 
ATOM     51  C   UNL A   1      45.012  31.388  28.723  1.00  0.00     0.049 A 
ATOM     52  H   UNL A   1      44.692  29.385  28.242  1.00  0.00     0.167 HD
ATOM     53  C   UNL A   1      43.870  25.190  27.279  1.00  0.00     0.031 A 
ATOM     54  C   UNL A   1      46.294  31.672  28.423  1.00  0.00     0.031 A 
ATOM     55  C   UNL A   1      45.225  25.424  26.853  1.00  0.00     0.049 A 
ATOM     56  C   UNL A   1      47.162  30.591  27.834  1.00  0.00     0.074 A 
ATOM     57  C   UNL A   1      46.095  24.545  26.229  1.00  0.00     0.029 A 
ATOM     58  N   UNL A   1      45.912  26.619  27.009  1.00  0.00    -0.354 N 
ATOM     59  N   UNL A   1      46.845  29.354  27.531  1.00  0.00    -0.248 NA
ATOM     60  C   UNL A   1      48.554  30.948  27.533  1.00  0.00     0.031 C 
ATOM     61  C   UNL A   1      47.328  25.185  26.077  1.00  0.00     0.029 A 
ATOM     62  C   UNL A   1      47.204  26.490  26.526  1.00  0.00     0.049 A 
ATOM     63  H   UNL A   1      45.537  27.438  27.407  1.00  0.00     0.167 HD
ATOM     64  C   UNL A   1      47.992  28.797  26.973  1.00  0.00     0.074 A 
ATOM     65  C   UNL A   1      48.998  29.839  26.959  1.00  0.00     0.031 C 
ATOM     66  C   UNL A   1      48.194  27.536  26.515  1.00  0.00     0.031 A 
BRANCH  53  67
ATOM     67  C   UNL A   1      43.293  23.810  27.081  1.00  0.00    -0.014 A 
ATOM     68  C   UNL A   1      42.707  23.432  25.859  1.00  0.00     0.010 A 
ATOM     69  C   UNL A   1      43.407  22.851  28.106  1.00  0.00     0.010 A 
ATOM     70  C   UNL A   1      42.223  22.135  25.675  1.00  0.00     0.020 A 
ATOM     71  C   UNL A   1      42.954  21.542  27.913  1.00  0.00     0.020 A 
ATOM     72  C   UNL A   1      42.355  21.196  26.701  1.00  0.00     0.054 A 
BRANCH  72  73
ATOM     73  S   UNL A   1      41.765  19.505  26.411  1.00  0.00     0.124 S 
ATOM     74  O   UNL A   1      40.324  19.708  26.273  1.00  0.00    -0.237 OA
ATOM     75  O   UNL A   1      42.467  19.130  25.186  1.00  0.00    -0.237 OA
ATOM     76  O   UNL A   1      42.179  18.780  27.610  1.00  0.00    -0.744 OA
ENDBRANCH  72  73
ENDBRANCH  53  67
BRANCH  54  77
ATOM     77  C   UNL A   1      46.845  33.032  28.688  1.00  0.00    -0.014 A 
ATOM     78  C   UNL A   1      46.729  34.059  27.736  1.00  0.00     0.010 A 
ATOM     79  C   UNL A   1      47.515  33.298  29.898  1.00  0.00     0.010 A 
ATOM     80  C   UNL A   1      47.304  35.313  27.971  1.00  0.00     0.020 A 
ATOM     81  C   UNL A   1      48.056  34.559  30.153  1.00  0.00     0.020 A 
ATOM     82  C   UNL A   1      47.965  35.555  29.178  1.00  0.00     0.054 A 
BRANCH  82  83
ATOM     83  S   UNL A   1      48.689  37.191  29.467  1.00  0.00     0.124 S 
ATOM     84  O   UNL A   1      48.173  37.955  28.334  1.00  0.00    -0.237 OA
ATOM     85  O   UNL A   1      48.144  37.550  30.773  1.00  0.00    -0.237 OA
ATOM     86  O   UNL A   1      50.128  36.938  29.447  1.00  0.00    -0.744 OA
ENDBRANCH  82  83
ENDBRANCH  54  77
BRANCH  66  87
ATOM     87  C   UNL A   1      49.540  27.223  25.914  1.00  0.00    -0.014 A 
ATOM     88  C   UNL A   1      50.571  26.645  26.677  1.00  0.00     0.010 A 
ATOM     89  C   UNL A   1      49.758  27.464  24.544  1.00  0.00     0.010 A 
ATOM     90  C   UNL A   1      51.806  26.352  26.091  1.00  0.00     0.020 A 
ATOM     91  C   UNL A   1      50.976  27.136  23.946  1.00  0.00     0.020 A 
ATOM     92  C   UNL A   1      51.998  26.596  24.727  1.00  0.00     0.054 A 
BRANCH  92  93
ATOM     93  S   UNL A   1      53.594  26.164  23.984  1.00  0.00     0.124 S 
ATOM     94  O   UNL A   1      53.946  24.945  24.706  1.00  0.00    -0.237 OA
ATOM     95  O   UNL A   1      53.250  25.983  22.576  1.00  0.00    -0.237 OA
ATOM     96  O   UNL A   1      54.436  27.323  24.270  1.00  0.00    -0.744 OA
ENDBRANCH  92  93
ENDBRANCH  66  87
ENDBRANCH  40  41
ENDBRANCH  32  35
ENDBRANCH  30  31
ENDBRANCH   1  30
TORSDOF 17
ENDMDL
