MODEL 1
REMARK VINA RESULT:     -13.7      0.000      0.000
REMARK SMILES Cc1cccc(-c2cc(C(=O)NCCCNC(=O)c3ccc(-c4c5nc(c(-c6ccc(S(=O)(=O)[O-])cc6)c6ccc([nH]6)c(-c6ccc(S(=O)(=O)[O-])cc6)c6nc(c(-c7ccc(S(=O)(=O)[O-])cc7)c7ccc4[nH]7)C=C6)C=C5)cc3)ccn2)c1
REMARK SMILES IDX 15 1 14 2 13 3 12 4 10 5 11 6 9 8 7 9 8 10 81 11 80 12 79 13
REMARK SMILES IDX 6 14 1 15 2 16 3 17 82 18 4 19 5 20 16 21 17 22 18 24 19 25
REMARK SMILES IDX 20 26 78 27 21 28 77 29 22 30 23 31 24 32 71 33 25 34 76 35
REMARK SMILES IDX 70 36 72 37 26 38 75 39 69 40 68 41 27 43 57 44 38 45 56 46
REMARK SMILES IDX 39 47 42 48 55 49 73 50 40 51 41 52 54 54 74 55 43 56 28 57
REMARK SMILES IDX 29 58 37 59 30 60 36 61 31 62 32 63 33 64 34 65 35 66 58 67
REMARK SMILES IDX 59 68 67 69 60 70 66 71 61 72 62 73 63 74 64 75 65 76 44 77
REMARK SMILES IDX 45 78 53 79 46 80 52 81 47 82 48 83 49 84 50 85 51 86
REMARK H PARENT 12 7 16 23 72 42 42 53
REMARK Flexibility Score: inf
ROOT
ATOM      1  C   UNL A   1      34.764  30.194  27.421  1.00  0.00     0.118 C 
ENDROOT
BRANCH   1   2
ATOM      2  C   UNL A   1      33.303  30.578  27.238  1.00  0.00     0.042 C 
BRANCH   2   3
ATOM      3  C   UNL A   1      32.559  29.692  26.235  1.00  0.00     0.118 C 
BRANCH   3   4
ATOM      4  N   UNL A   1      33.145  29.751  24.895  1.00  0.00    -0.352 N 
ATOM      5  C   UNL A   1      33.229  28.856  23.856  1.00  0.00     0.251 C 
ATOM      6  O   UNL A   1      33.686  29.267  22.785  1.00  0.00    -0.269 OA
ATOM      7  H   UNL A   1      33.569  30.617  24.696  1.00  0.00     0.163 HD
BRANCH   5   8
ATOM      8  C   UNL A   1      32.812  27.423  23.922  1.00  0.00     0.043 A 
ATOM      9  C   UNL A   1      33.176  25.055  24.214  1.00  0.00     0.071 A 
ATOM     10  C   UNL A   1      33.662  26.362  24.189  1.00  0.00     0.042 A 
ATOM     11  N   UNL A   1      31.889  24.752  23.939  1.00  0.00    -0.256 NA
ATOM     12  C   UNL A   1      31.069  25.791  23.670  1.00  0.00     0.112 A 
ATOM     13  C   UNL A   1      31.474  27.117  23.655  1.00  0.00     0.034 A 
BRANCH   9  14
ATOM     14  C   UNL A   1      34.080  23.957  24.576  1.00  0.00     0.000 A 
ATOM     15  C   UNL A   1      37.656  23.577  25.870  1.00  0.00     0.044 C 
ATOM     16  C   UNL A   1      36.292  23.235  25.349  1.00  0.00    -0.050 A 
ATOM     17  C   UNL A   1      35.945  21.911  25.072  1.00  0.00     0.003 A 
ATOM     18  C   UNL A   1      35.355  24.244  25.102  1.00  0.00     0.013 A 
ATOM     19  C   UNL A   1      34.678  21.603  24.571  1.00  0.00     0.001 A 
ATOM     20  C   UNL A   1      33.749  22.618  24.330  1.00  0.00     0.010 A 
ENDBRANCH   9  14
ENDBRANCH   5   8
ENDBRANCH   3   4
ENDBRANCH   2   3
ENDBRANCH   1   2
BRANCH   1  21
ATOM     21  N   UNL A   1      35.537  31.204  28.144  1.00  0.00    -0.352 N 
ATOM     22  C   UNL A   1      36.733  31.027  28.826  1.00  0.00     0.251 C 
ATOM     23  H   UNL A   1      35.166  32.116  28.146  1.00  0.00     0.163 HD
ATOM     24  O   UNL A   1      37.263  31.872  29.512  1.00  0.00    -0.269 OA
BRANCH  22  25
ATOM     25  C   UNL A   1      37.423  29.750  28.554  1.00  0.00     0.039 A 
ATOM     26  C   UNL A   1      37.602  28.911  29.660  1.00  0.00     0.014 A 
ATOM     27  C   UNL A   1      38.214  29.649  27.412  1.00  0.00     0.014 A 
ATOM     28  C   UNL A   1      38.731  28.109  29.712  1.00  0.00     0.010 A 
ATOM     29  C   UNL A   1      39.381  28.917  27.504  1.00  0.00     0.010 A 
ATOM     30  C   UNL A   1      39.667  28.215  28.682  1.00  0.00    -0.014 A 
BRANCH  30  31
ATOM     31  C   UNL A   1      41.014  27.677  28.813  1.00  0.00     0.031 A 
ATOM     32  C   UNL A   1      41.241  26.260  28.472  1.00  0.00     0.074 A 
ATOM     33  C   UNL A   1      42.020  28.446  29.287  1.00  0.00     0.049 A 
ATOM     34  N   UNL A   1      42.149  25.508  28.996  1.00  0.00    -0.248 NA
ATOM     35  C   UNL A   1      40.352  25.550  27.559  1.00  0.00     0.031 C 
ATOM     36  C   UNL A   1      43.436  28.095  29.335  1.00  0.00     0.029 A 
ATOM     37  N   UNL A   1      41.927  29.604  30.066  1.00  0.00    -0.354 N 
ATOM     38  C   UNL A   1      42.171  24.340  28.266  1.00  0.00     0.074 A 
ATOM     39  C   UNL A   1      40.951  24.360  27.497  1.00  0.00     0.031 C 
ATOM     40  C   UNL A   1      44.009  28.792  30.330  1.00  0.00     0.029 A 
ATOM     41  C   UNL A   1      42.947  29.505  31.024  1.00  0.00     0.049 A 
ATOM     42  H   UNL A   1      41.278  30.339  29.963  1.00  0.00     0.167 HD
ATOM     43  C   UNL A   1      43.302  23.577  28.252  1.00  0.00     0.031 A 
ATOM     44  C   UNL A   1      42.722  29.457  32.368  1.00  0.00     0.031 A 
ATOM     45  C   UNL A   1      44.264  24.033  29.259  1.00  0.00     0.049 A 
ATOM     46  C   UNL A   1      43.278  28.203  33.010  1.00  0.00     0.074 A 
ATOM     47  C   UNL A   1      45.432  24.773  29.189  1.00  0.00     0.029 A 
ATOM     48  N   UNL A   1      43.902  24.005  30.606  1.00  0.00    -0.354 N 
ATOM     49  N   UNL A   1      43.603  27.124  32.351  1.00  0.00    -0.248 NA
ATOM     50  C   UNL A   1      43.494  28.062  34.446  1.00  0.00     0.031 C 
ATOM     51  C   UNL A   1      45.711  25.279  30.488  1.00  0.00     0.029 A 
ATOM     52  C   UNL A   1      44.738  24.813  31.355  1.00  0.00     0.049 A 
ATOM     53  H   UNL A   1      43.154  23.481  30.973  1.00  0.00     0.167 HD
ATOM     54  C   UNL A   1      44.093  26.179  33.218  1.00  0.00     0.074 A 
ATOM     55  C   UNL A   1      44.004  26.819  34.521  1.00  0.00     0.031 C 
ATOM     56  C   UNL A   1      44.538  24.957  32.796  1.00  0.00     0.031 A 
BRANCH  43  57
ATOM     57  C   UNL A   1      43.643  22.668  27.078  1.00  0.00    -0.014 A 
ATOM     58  C   UNL A   1      42.823  21.560  26.778  1.00  0.00     0.010 A 
ATOM     59  C   UNL A   1      44.817  22.775  26.306  1.00  0.00     0.010 A 
ATOM     60  C   UNL A   1      43.214  20.566  25.861  1.00  0.00     0.020 A 
ATOM     61  C   UNL A   1      45.241  21.777  25.418  1.00  0.00     0.020 A 
ATOM     62  C   UNL A   1      44.443  20.663  25.212  1.00  0.00     0.054 A 
BRANCH  62  63
ATOM     63  S   UNL A   1      44.998  19.330  24.118  1.00  0.00     0.124 S 
ATOM     64  O   UNL A   1      46.452  19.430  24.207  1.00  0.00    -0.237 OA
ATOM     65  O   UNL A   1      44.406  18.149  24.738  1.00  0.00    -0.237 OA
ATOM     66  O   UNL A   1      44.436  19.693  22.817  1.00  0.00    -0.744 OA
ENDBRANCH  62  63
ENDBRANCH  43  57
BRANCH  44  67
ATOM     67  C   UNL A   1      41.548  30.235  32.848  1.00  0.00    -0.014 A 
ATOM     68  C   UNL A   1      40.321  29.550  32.973  1.00  0.00     0.010 A 
ATOM     69  C   UNL A   1      41.701  31.468  33.505  1.00  0.00     0.010 A 
ATOM     70  C   UNL A   1      39.325  30.012  33.839  1.00  0.00     0.020 A 
ATOM     71  C   UNL A   1      40.705  31.932  34.382  1.00  0.00     0.020 A 
ATOM     72  C   UNL A   1      39.550  31.168  34.585  1.00  0.00     0.054 A 
BRANCH  72  73
ATOM     73  S   UNL A   1      38.370  31.573  35.908  1.00  0.00     0.124 S 
ATOM     74  O   UNL A   1      38.162  30.281  36.552  1.00  0.00    -0.237 OA
ATOM     75  O   UNL A   1      39.123  32.549  36.698  1.00  0.00    -0.237 OA
ATOM     76  O   UNL A   1      37.223  32.108  35.181  1.00  0.00    -0.744 OA
ENDBRANCH  72  73
ENDBRANCH  44  67
BRANCH  56  77
ATOM     77  C   UNL A   1      44.924  23.788  33.681  1.00  0.00    -0.014 A 
ATOM     78  C   UNL A   1      44.064  22.737  34.037  1.00  0.00     0.010 A 
ATOM     79  C   UNL A   1      46.276  23.663  34.093  1.00  0.00     0.010 A 
ATOM     80  C   UNL A   1      44.511  21.651  34.809  1.00  0.00     0.020 A 
ATOM     81  C   UNL A   1      46.743  22.565  34.820  1.00  0.00     0.020 A 
ATOM     82  C   UNL A   1      45.848  21.572  35.195  1.00  0.00     0.054 A 
BRANCH  82  83
ATOM     83  S   UNL A   1      46.436  20.127  36.114  1.00  0.00     0.124 S 
ATOM     84  O   UNL A   1      45.838  20.341  37.429  1.00  0.00    -0.237 OA
ATOM     85  O   UNL A   1      45.887  19.007  35.352  1.00  0.00    -0.237 OA
ATOM     86  O   UNL A   1      47.890  20.254  36.056  1.00  0.00    -0.744 OA
ENDBRANCH  82  83
ENDBRANCH  56  77
ENDBRANCH  30  31
ENDBRANCH  22  25
ENDBRANCH   1  21
TORSDOF 14
ENDMDL
MODEL 2
REMARK VINA RESULT:     -13.5      1.826      3.508
REMARK SMILES Cc1cccc(-c2cc(C(=O)NCCCNC(=O)c3ccc(-c4c5nc(c(-c6ccc(S(=O)(=O)[O-])cc6)c6ccc([nH]6)c(-c6ccc(S(=O)(=O)[O-])cc6)c6nc(c(-c7ccc(S(=O)(=O)[O-])cc7)c7ccc4[nH]7)C=C6)C=C5)cc3)ccn2)c1
REMARK SMILES IDX 15 1 14 2 13 3 12 4 10 5 11 6 9 8 7 9 8 10 81 11 80 12 79 13
REMARK SMILES IDX 6 14 1 15 2 16 3 17 82 18 4 19 5 20 16 21 17 22 18 24 19 25
REMARK SMILES IDX 20 26 78 27 21 28 77 29 22 30 23 31 24 32 71 33 25 34 76 35
REMARK SMILES IDX 70 36 72 37 26 38 75 39 69 40 68 41 27 43 57 44 38 45 56 46
REMARK SMILES IDX 39 47 42 48 55 49 73 50 40 51 41 52 54 54 74 55 43 56 28 57
REMARK SMILES IDX 29 58 37 59 30 60 36 61 31 62 32 63 33 64 34 65 35 66 58 67
REMARK SMILES IDX 59 68 67 69 60 70 66 71 61 72 62 73 63 74 64 75 65 76 44 77
REMARK SMILES IDX 45 78 53 79 46 80 52 81 47 82 48 83 49 84 50 85 51 86
REMARK H PARENT 12 7 16 23 72 42 42 53
REMARK Flexibility Score: inf
ROOT
ATOM      1  C   UNL A   1      34.656  30.072  27.555  1.00  0.00     0.118 C 
ENDROOT
BRANCH   1   2
ATOM      2  C   UNL A   1      33.376  30.590  26.917  1.00  0.00     0.042 C 
BRANCH   2   3
ATOM      3  C   UNL A   1      32.230  29.575  26.934  1.00  0.00     0.118 C 
BRANCH   3   4
ATOM      4  N   UNL A   1      32.663  28.236  26.534  1.00  0.00    -0.352 N 
ATOM      5  C   UNL A   1      32.222  27.336  25.593  1.00  0.00     0.251 C 
ATOM      6  O   UNL A   1      32.900  26.321  25.412  1.00  0.00    -0.269 OA
ATOM      7  H   UNL A   1      33.437  27.909  27.049  1.00  0.00     0.163 HD
BRANCH   5   8
ATOM      8  C   UNL A   1      30.983  27.492  24.773  1.00  0.00     0.043 A 
ATOM      9  C   UNL A   1      29.402  28.714  23.419  1.00  0.00     0.071 A 
ATOM     10  C   UNL A   1      30.587  28.666  24.152  1.00  0.00     0.042 A 
ATOM     11  N   UNL A   1      28.568  27.656  23.314  1.00  0.00    -0.256 NA
ATOM     12  C   UNL A   1      28.956  26.519  23.931  1.00  0.00     0.112 A 
ATOM     13  C   UNL A   1      30.133  26.389  24.653  1.00  0.00     0.034 A 
BRANCH   9  14
ATOM     14  C   UNL A   1      29.044  29.945  22.705  1.00  0.00     0.000 A 
ATOM     15  C   UNL A   1      29.114  33.705  23.389  1.00  0.00     0.044 C 
ATOM     16  C   UNL A   1      28.865  32.390  22.711  1.00  0.00    -0.050 A 
ATOM     17  C   UNL A   1      28.173  32.332  21.499  1.00  0.00     0.003 A 
ATOM     18  C   UNL A   1      29.297  31.197  23.299  1.00  0.00     0.013 A 
ATOM     19  C   UNL A   1      27.931  31.102  20.882  1.00  0.00     0.001 A 
ATOM     20  C   UNL A   1      28.369  29.917  21.478  1.00  0.00     0.010 A 
ENDBRANCH   9  14
ENDBRANCH   5   8
ENDBRANCH   3   4
ENDBRANCH   2   3
ENDBRANCH   1   2
BRANCH   1  21
ATOM     21  N   UNL A   1      35.415  31.112  28.249  1.00  0.00    -0.352 N 
ATOM     22  C   UNL A   1      36.644  30.985  28.881  1.00  0.00     0.251 C 
ATOM     23  H   UNL A   1      35.005  32.007  28.272  1.00  0.00     0.163 HD
ATOM     24  O   UNL A   1      37.165  31.851  29.548  1.00  0.00    -0.269 OA
BRANCH  22  25
ATOM     25  C   UNL A   1      37.377  29.741  28.574  1.00  0.00     0.039 A 
ATOM     26  C   UNL A   1      37.527  28.848  29.643  1.00  0.00     0.014 A 
ATOM     27  C   UNL A   1      38.220  29.718  27.466  1.00  0.00     0.014 A 
ATOM     28  C   UNL A   1      38.672  28.070  29.704  1.00  0.00     0.010 A 
ATOM     29  C   UNL A   1      39.400  29.008  27.573  1.00  0.00     0.010 A 
ATOM     30  C   UNL A   1      39.651  28.251  28.724  1.00  0.00    -0.014 A 
BRANCH  30  31
ATOM     31  C   UNL A   1      41.003  27.737  28.889  1.00  0.00     0.031 A 
ATOM     32  C   UNL A   1      41.268  26.331  28.532  1.00  0.00     0.074 A 
ATOM     33  C   UNL A   1      41.978  28.517  29.406  1.00  0.00     0.049 A 
ATOM     34  N   UNL A   1      42.174  25.588  29.072  1.00  0.00    -0.248 NA
ATOM     35  C   UNL A   1      40.422  25.618  27.581  1.00  0.00     0.031 C 
ATOM     36  C   UNL A   1      43.399  28.193  29.493  1.00  0.00     0.029 A 
ATOM     37  N   UNL A   1      41.838  29.660  30.201  1.00  0.00    -0.354 N 
ATOM     38  C   UNL A   1      42.242  24.432  28.325  1.00  0.00     0.074 A 
ATOM     39  C   UNL A   1      41.046  24.442  27.519  1.00  0.00     0.031 C 
ATOM     40  C   UNL A   1      43.927  28.884  30.516  1.00  0.00     0.029 A 
ATOM     41  C   UNL A   1      42.830  29.565  31.188  1.00  0.00     0.049 A 
ATOM     42  H   UNL A   1      41.178  30.384  30.090  1.00  0.00     0.167 HD
ATOM     43  C   UNL A   1      43.388  23.692  28.334  1.00  0.00     0.031 A 
ATOM     44  C   UNL A   1      42.565  29.490  32.523  1.00  0.00     0.031 A 
ATOM     45  C   UNL A   1      44.309  24.149  29.377  1.00  0.00     0.049 A 
ATOM     46  C   UNL A   1      43.126  28.236  33.163  1.00  0.00     0.074 A 
ATOM     47  C   UNL A   1      45.464  24.913  29.356  1.00  0.00     0.029 A 
ATOM     48  N   UNL A   1      43.906  24.092  30.712  1.00  0.00    -0.354 N 
ATOM     49  N   UNL A   1      43.492  27.175  32.496  1.00  0.00    -0.248 NA
ATOM     50  C   UNL A   1      43.300  28.076  34.602  1.00  0.00     0.031 C 
ATOM     51  C   UNL A   1      45.693  25.403  30.671  1.00  0.00     0.029 A 
ATOM     52  C   UNL A   1      44.703  24.904  31.500  1.00  0.00     0.049 A 
ATOM     53  H   UNL A   1      43.157  23.548  31.047  1.00  0.00     0.167 HD
ATOM     54  C   UNL A   1      43.974  26.226  33.363  1.00  0.00     0.074 A 
ATOM     55  C   UNL A   1      43.832  26.842  34.673  1.00  0.00     0.031 C 
ATOM     56  C   UNL A   1      44.456  25.019  32.936  1.00  0.00     0.031 A 
BRANCH  43  57
ATOM     57  C   UNL A   1      43.783  22.809  27.157  1.00  0.00    -0.014 A 
ATOM     58  C   UNL A   1      42.896  21.820  26.684  1.00  0.00     0.010 A 
ATOM     59  C   UNL A   1      45.054  22.819  26.549  1.00  0.00     0.010 A 
ATOM     60  C   UNL A   1      43.296  20.834  25.762  1.00  0.00     0.020 A 
ATOM     61  C   UNL A   1      45.483  21.824  25.659  1.00  0.00     0.020 A 
ATOM     62  C   UNL A   1      44.604  20.821  25.282  1.00  0.00     0.054 A 
BRANCH  62  63
ATOM     63  S   UNL A   1      45.153  19.489  24.183  1.00  0.00     0.124 S 
ATOM     64  O   UNL A   1      46.606  19.642  24.200  1.00  0.00    -0.237 OA
ATOM     65  O   UNL A   1      44.635  18.299  24.850  1.00  0.00    -0.237 OA
ATOM     66  O   UNL A   1      44.517  19.809  22.906  1.00  0.00    -0.744 OA
ENDBRANCH  62  63
ENDBRANCH  43  57
BRANCH  44  67
ATOM     67  C   UNL A   1      41.362  30.237  32.979  1.00  0.00    -0.014 A 
ATOM     68  C   UNL A   1      40.187  29.494  33.221  1.00  0.00     0.010 A 
ATOM     69  C   UNL A   1      41.458  31.535  33.511  1.00  0.00     0.010 A 
ATOM     70  C   UNL A   1      39.196  29.975  34.083  1.00  0.00     0.020 A 
ATOM     71  C   UNL A   1      40.467  32.019  34.382  1.00  0.00     0.020 A 
ATOM     72  C   UNL A   1      39.374  31.209  34.706  1.00  0.00     0.054 A 
BRANCH  72  73
ATOM     73  S   UNL A   1      38.220  31.666  36.036  1.00  0.00     0.124 S 
ATOM     74  O   UNL A   1      37.883  30.373  36.621  1.00  0.00    -0.237 OA
ATOM     75  O   UNL A   1      39.052  32.532  36.875  1.00  0.00    -0.237 OA
ATOM     76  O   UNL A   1      37.138  32.338  35.324  1.00  0.00    -0.744 OA
ENDBRANCH  72  73
ENDBRANCH  44  67
BRANCH  56  77
ATOM     77  C   UNL A   1      44.837  23.843  33.814  1.00  0.00    -0.014 A 
ATOM     78  C   UNL A   1      44.064  22.682  33.974  1.00  0.00     0.010 A 
ATOM     79  C   UNL A   1      46.114  23.842  34.432  1.00  0.00     0.010 A 
ATOM     80  C   UNL A   1      44.513  21.603  34.755  1.00  0.00     0.020 A 
ATOM     81  C   UNL A   1      46.591  22.756  35.171  1.00  0.00     0.020 A 
ATOM     82  C   UNL A   1      45.774  21.647  35.347  1.00  0.00     0.054 A 
BRANCH  82  83
ATOM     83  S   UNL A   1      46.382  20.217  36.278  1.00  0.00     0.124 S 
ATOM     84  O   UNL A   1      45.995  20.558  37.644  1.00  0.00    -0.237 OA
ATOM     85  O   UNL A   1      45.650  19.101  35.681  1.00  0.00    -0.237 OA
ATOM     86  O   UNL A   1      47.819  20.221  36.011  1.00  0.00    -0.744 OA
ENDBRANCH  82  83
ENDBRANCH  56  77
ENDBRANCH  30  31
ENDBRANCH  22  25
ENDBRANCH   1  21
TORSDOF 14
ENDMDL
MODEL 3
REMARK VINA RESULT:     -13.5      4.994     11.727
REMARK SMILES Cc1cccc(-c2cc(C(=O)NCCCNC(=O)c3ccc(-c4c5nc(c(-c6ccc(S(=O)(=O)[O-])cc6)c6ccc([nH]6)c(-c6ccc(S(=O)(=O)[O-])cc6)c6nc(c(-c7ccc(S(=O)(=O)[O-])cc7)c7ccc4[nH]7)C=C6)C=C5)cc3)ccn2)c1
REMARK SMILES IDX 15 1 14 2 13 3 12 4 10 5 11 6 9 8 7 9 8 10 81 11 80 12 79 13
REMARK SMILES IDX 6 14 1 15 2 16 3 17 82 18 4 19 5 20 16 21 17 22 18 24 19 25
REMARK SMILES IDX 20 26 78 27 21 28 77 29 22 30 23 31 24 32 71 33 25 34 76 35
REMARK SMILES IDX 70 36 72 37 26 38 75 39 69 40 68 41 27 43 57 44 38 45 56 46
REMARK SMILES IDX 39 47 42 48 55 49 73 50 40 51 41 52 54 54 74 55 43 56 28 57
REMARK SMILES IDX 29 58 37 59 30 60 36 61 31 62 32 63 33 64 34 65 35 66 58 67
REMARK SMILES IDX 59 68 67 69 60 70 66 71 61 72 62 73 63 74 64 75 65 76 44 77
REMARK SMILES IDX 45 78 53 79 46 80 52 81 47 82 48 83 49 84 50 85 51 86
REMARK H PARENT 12 7 16 23 72 42 42 53
REMARK Flexibility Score: inf
ROOT
ATOM      1  C   UNL A   1      38.777  23.274  26.307  1.00  0.00     0.118 C 
ENDROOT
BRANCH   1   2
ATOM      2  C   UNL A   1      38.331  21.914  25.792  1.00  0.00     0.042 C 
BRANCH   2   3
ATOM      3  C   UNL A   1      37.252  21.994  24.707  1.00  0.00     0.118 C 
BRANCH   3   4
ATOM      4  N   UNL A   1      36.011  21.329  25.104  1.00  0.00    -0.352 N 
ATOM      5  C   UNL A   1      34.680  21.644  24.969  1.00  0.00     0.251 C 
ATOM      6  O   UNL A   1      33.854  20.790  25.304  1.00  0.00    -0.269 OA
ATOM      7  H   UNL A   1      36.161  20.472  25.566  1.00  0.00     0.163 HD
BRANCH   5   8
ATOM      8  C   UNL A   1      34.155  22.942  24.448  1.00  0.00     0.043 A 
ATOM      9  C   UNL A   1      33.239  25.166  24.654  1.00  0.00     0.071 A 
ATOM     10  C   UNL A   1      33.729  23.998  25.238  1.00  0.00     0.042 A 
ATOM     11  N   UNL A   1      33.112  25.313  23.317  1.00  0.00    -0.256 NA
ATOM     12  C   UNL A   1      33.520  24.275  22.555  1.00  0.00     0.112 A 
ATOM     13  C   UNL A   1      34.043  23.096  23.063  1.00  0.00     0.034 A 
BRANCH   9  14
ATOM     14  C   UNL A   1      32.868  26.300  25.509  1.00  0.00     0.000 A 
ATOM     15  C   UNL A   1      34.612  29.318  27.077  1.00  0.00     0.044 C 
ATOM     16  C   UNL A   1      33.555  28.311  26.730  1.00  0.00    -0.050 A 
ATOM     17  C   UNL A   1      32.293  28.367  27.327  1.00  0.00     0.003 A 
ATOM     18  C   UNL A   1      33.828  27.281  25.825  1.00  0.00     0.013 A 
ATOM     19  C   UNL A   1      31.320  27.416  27.011  1.00  0.00     0.001 A 
ATOM     20  C   UNL A   1      31.604  26.392  26.103  1.00  0.00     0.010 A 
ENDBRANCH   9  14
ENDBRANCH   5   8
ENDBRANCH   3   4
ENDBRANCH   2   3
ENDBRANCH   1   2
BRANCH   1  21
ATOM     21  N   UNL A   1      40.157  23.280  26.793  1.00  0.00    -0.352 N 
ATOM     22  C   UNL A   1      40.888  24.367  27.251  1.00  0.00     0.251 C 
ATOM     23  H   UNL A   1      40.621  22.412  26.795  1.00  0.00     0.163 HD
ATOM     24  O   UNL A   1      42.067  24.335  27.522  1.00  0.00    -0.269 OA
BRANCH  22  25
ATOM     25  C   UNL A   1      40.094  25.581  27.530  1.00  0.00     0.039 A 
ATOM     26  C   UNL A   1      40.430  26.711  26.776  1.00  0.00     0.014 A 
ATOM     27  C   UNL A   1      39.425  25.674  28.748  1.00  0.00     0.014 A 
ATOM     28  C   UNL A   1      40.293  27.962  27.355  1.00  0.00     0.010 A 
ATOM     29  C   UNL A   1      39.371  26.913  29.355  1.00  0.00     0.010 A 
ATOM     30  C   UNL A   1      39.876  28.036  28.685  1.00  0.00    -0.014 A 
BRANCH  30  31
ATOM     31  C   UNL A   1      40.023  29.255  29.468  1.00  0.00     0.031 A 
ATOM     32  C   UNL A   1      38.997  30.305  29.332  1.00  0.00     0.074 A 
ATOM     33  C   UNL A   1      41.102  29.438  30.261  1.00  0.00     0.049 A 
ATOM     34  N   UNL A   1      39.204  31.569  29.492  1.00  0.00    -0.248 NA
ATOM     35  C   UNL A   1      37.645  29.990  28.883  1.00  0.00     0.031 C 
ATOM     36  C   UNL A   1      41.313  30.530  31.207  1.00  0.00     0.029 A 
ATOM     37  N   UNL A   1      42.350  28.810  30.178  1.00  0.00    -0.354 N 
ATOM     38  C   UNL A   1      37.970  32.181  29.490  1.00  0.00     0.074 A 
ATOM     39  C   UNL A   1      37.066  31.188  28.963  1.00  0.00     0.031 C 
ATOM     40  C   UNL A   1      42.636  30.702  31.363  1.00  0.00     0.029 A 
ATOM     41  C   UNL A   1      43.301  29.813  30.422  1.00  0.00     0.049 A 
ATOM     42  H   UNL A   1      42.525  27.860  29.987  1.00  0.00     0.167 HD
ATOM     43  C   UNL A   1      37.817  33.388  30.105  1.00  0.00     0.031 A 
ATOM     44  C   UNL A   1      44.246  30.197  29.518  1.00  0.00     0.031 A 
ATOM     45  C   UNL A   1      39.113  33.967  30.471  1.00  0.00     0.049 A 
ATOM     46  C   UNL A   1      44.158  31.669  29.169  1.00  0.00     0.074 A 
ATOM     47  C   UNL A   1      39.801  34.072  31.669  1.00  0.00     0.029 A 
ATOM     48  N   UNL A   1      40.036  34.258  29.467  1.00  0.00    -0.354 N 
ATOM     49  N   UNL A   1      43.111  32.415  29.395  1.00  0.00    -0.248 NA
ATOM     50  C   UNL A   1      45.238  32.408  28.523  1.00  0.00     0.031 C 
ATOM     51  C   UNL A   1      41.169  34.323  31.370  1.00  0.00     0.029 A 
ATOM     52  C   UNL A   1      41.304  34.413  29.995  1.00  0.00     0.049 A 
ATOM     53  H   UNL A   1      39.814  34.342  28.511  1.00  0.00     0.167 HD
ATOM     54  C   UNL A   1      43.358  33.701  28.983  1.00  0.00     0.074 A 
ATOM     55  C   UNL A   1      44.708  33.643  28.445  1.00  0.00     0.031 C 
ATOM     56  C   UNL A   1      42.442  34.706  29.125  1.00  0.00     0.031 A 
BRANCH  43  57
ATOM     57  C   UNL A   1      36.478  33.835  30.676  1.00  0.00    -0.014 A 
ATOM     58  C   UNL A   1      35.390  34.088  29.815  1.00  0.00     0.010 A 
ATOM     59  C   UNL A   1      36.255  34.141  32.033  1.00  0.00     0.010 A 
ATOM     60  C   UNL A   1      34.212  34.718  30.261  1.00  0.00     0.020 A 
ATOM     61  C   UNL A   1      35.107  34.804  32.490  1.00  0.00     0.020 A 
ATOM     62  C   UNL A   1      34.094  35.107  31.594  1.00  0.00     0.054 A 
BRANCH  62  63
ATOM     63  S   UNL A   1      32.628  36.019  32.145  1.00  0.00     0.124 S 
ATOM     64  O   UNL A   1      33.159  36.854  33.219  1.00  0.00    -0.237 OA
ATOM     65  O   UNL A   1      32.224  36.725  30.933  1.00  0.00    -0.237 OA
ATOM     66  O   UNL A   1      31.710  34.967  32.582  1.00  0.00    -0.744 OA
ENDBRANCH  62  63
ENDBRANCH  43  57
BRANCH  44  67
ATOM     67  C   UNL A   1      44.754  29.119  28.627  1.00  0.00    -0.014 A 
ATOM     68  C   UNL A   1      44.052  28.882  27.426  1.00  0.00     0.010 A 
ATOM     69  C   UNL A   1      46.059  28.613  28.755  1.00  0.00     0.010 A 
ATOM     70  C   UNL A   1      44.681  28.279  26.333  1.00  0.00     0.020 A 
ATOM     71  C   UNL A   1      46.696  28.012  27.656  1.00  0.00     0.020 A 
ATOM     72  C   UNL A   1      46.019  27.904  26.436  1.00  0.00     0.054 A 
BRANCH  72  73
ATOM     73  S   UNL A   1      46.884  27.399  24.917  1.00  0.00     0.124 S 
ATOM     74  O   UNL A   1      48.259  27.235  25.376  1.00  0.00    -0.237 OA
ATOM     75  O   UNL A   1      46.190  26.156  24.572  1.00  0.00    -0.237 OA
ATOM     76  O   UNL A   1      46.649  28.519  24.011  1.00  0.00    -0.744 OA
ENDBRANCH  72  73
ENDBRANCH  44  67
BRANCH  56  77
ATOM     77  C   UNL A   1      42.545  36.103  28.546  1.00  0.00    -0.014 A 
ATOM     78  C   UNL A   1      41.947  36.516  27.345  1.00  0.00     0.010 A 
ATOM     79  C   UNL A   1      43.186  37.111  29.310  1.00  0.00     0.010 A 
ATOM     80  C   UNL A   1      42.031  37.847  26.902  1.00  0.00     0.020 A 
ATOM     81  C   UNL A   1      43.235  38.447  28.904  1.00  0.00     0.020 A 
ATOM     82  C   UNL A   1      42.674  38.804  27.685  1.00  0.00     0.054 A 
BRANCH  82  83
ATOM     83  S   UNL A   1      42.702  40.535  27.151  1.00  0.00     0.124 S 
ATOM     84  O   UNL A   1      43.493  40.460  25.926  1.00  0.00    -0.237 OA
ATOM     85  O   UNL A   1      41.286  40.843  26.963  1.00  0.00    -0.237 OA
ATOM     86  O   UNL A   1      43.338  41.227  28.269  1.00  0.00    -0.744 OA
ENDBRANCH  82  83
ENDBRANCH  56  77
ENDBRANCH  30  31
ENDBRANCH  22  25
ENDBRANCH   1  21
TORSDOF 14
ENDMDL
