MODEL 1
REMARK VINA RESULT:     -10.0      0.000      0.000
REMARK SMILES C[C@]([NH2+]C[C@H](O)C(F)(F)F)(C(=O)NCCCNC(=O)c1ccc(-c2c3nc(c(-c4ccc(S(=O)(=O)[O-])cc4)c4ccc([nH]4)c(-c4ccc(S(=O)(=O)[O-])cc4)c4nc(c(-c5ccc(S(=O)(=O)[O-])cc5)c5ccc2[nH]5)C=C4)C=C3)cc1)C(F)(F)F
REMARK SMILES IDX 14 1 13 2 11 3 12 4 2 6 1 7 80 8 81 9 82 10 83 11 3 12 4 15
REMARK SMILES IDX 5 16 7 17 8 18 9 19 10 20 6 21 15 23 16 24 17 25 18 26 19 28
REMARK SMILES IDX 20 29 21 30 79 31 22 32 78 33 23 34 24 35 25 36 72 37 26 38
REMARK SMILES IDX 77 39 71 40 73 41 27 42 76 43 70 44 69 45 28 47 58 48 39 49
REMARK SMILES IDX 57 50 40 51 43 52 56 53 74 54 41 55 42 56 55 58 75 59 44 60
REMARK SMILES IDX 29 61 30 62 38 63 31 64 37 65 32 66 33 67 34 68 35 69 36 70
REMARK SMILES IDX 59 71 60 72 68 73 61 74 67 75 62 76 63 77 64 78 65 79 66 80
REMARK SMILES IDX 45 81 46 82 54 83 47 84 53 85 48 86 49 87 50 88 51 89 52 90
REMARK H PARENT 13 5 3 13 3 14 6 22 17 27 73 46 43 57
REMARK Flexibility Score: inf
ROOT
ATOM      1  C   UNL A   1      37.469  23.363  24.868  1.00  0.00     0.118 C 
ENDROOT
BRANCH   1   2
ATOM      2  N   UNL A   1      36.840  22.046  24.927  1.00  0.00    -0.350 N 
ATOM      3  C   UNL A   1      35.572  21.553  24.864  1.00  0.00     0.290 C 
ATOM      4  O   UNL A   1      35.517  20.334  25.075  1.00  0.00    -0.267 OA
ATOM      5  H   UNL A   1      37.505  21.330  25.043  1.00  0.00     0.163 HD
BRANCH   3   6
ATOM      6  C   UNL A   1      34.271  22.384  24.654  1.00  0.00     0.268 C 
ATOM      7  C   UNL A   1      33.062  21.545  24.206  1.00  0.00     0.101 C 
BRANCH   6   8
ATOM      8  C   UNL A   1      33.896  22.878  26.099  1.00  0.00     0.453 C 
ATOM      9  F   UNL A   1      32.571  23.107  26.249  1.00  0.00    -0.164 F 
ATOM     10  F   UNL A   1      34.220  21.937  27.027  1.00  0.00    -0.164 F 
ATOM     11  F   UNL A   1      34.568  24.000  26.451  1.00  0.00    -0.164 F 
ENDBRANCH   6   8
BRANCH   6  12
ATOM     12  N   UNL A   1      34.549  23.594  23.767  1.00  0.00    -0.324 N 
ATOM     13  H   UNL A   1      34.950  23.263  22.889  1.00  0.00     0.347 HD
ATOM     14  H   UNL A   1      35.184  24.199  24.286  1.00  0.00     0.347 HD
BRANCH  12  15
ATOM     15  C   UNL A   1      33.364  24.393  23.457  1.00  0.00     0.303 C 
BRANCH  15  16
ATOM     16  C   UNL A   1      32.807  24.287  22.024  1.00  0.00     0.275 C 
BRANCH  16  17
ATOM     17  C   UNL A   1      32.655  25.717  21.474  1.00  0.00     0.419 C 
ATOM     18  F   UNL A   1      32.507  25.744  20.136  1.00  0.00    -0.168 F 
ATOM     19  F   UNL A   1      31.560  26.311  22.018  1.00  0.00    -0.168 F 
ATOM     20  F   UNL A   1      33.717  26.491  21.800  1.00  0.00    -0.168 F 
ENDBRANCH  16  17
BRANCH  16  21
ATOM     21  O   UNL A   1      33.654  23.450  21.223  1.00  0.00    -0.379 OA
ATOM     22  H   UNL A   1      33.131  22.724  20.849  1.00  0.00     0.211 HD
ENDBRANCH  16  21
ENDBRANCH  15  16
ENDBRANCH  12  15
ENDBRANCH   6  12
ENDBRANCH   3   6
ENDBRANCH   1   2
BRANCH   1  23
ATOM     23  C   UNL A   1      37.662  23.988  26.255  1.00  0.00     0.042 C 
BRANCH  23  24
ATOM     24  C   UNL A   1      38.992  23.651  26.915  1.00  0.00     0.118 C 
BRANCH  24  25
ATOM     25  N   UNL A   1      40.117  24.006  26.070  1.00  0.00    -0.352 N 
ATOM     26  C   UNL A   1      40.858  25.166  26.038  1.00  0.00     0.251 C 
ATOM     27  H   UNL A   1      40.390  23.315  25.423  1.00  0.00     0.163 HD
ATOM     28  O   UNL A   1      41.587  25.380  25.074  1.00  0.00    -0.269 OA
BRANCH  26  29
ATOM     29  C   UNL A   1      40.774  26.158  27.139  1.00  0.00     0.039 A 
ATOM     30  C   UNL A   1      39.954  25.887  28.240  1.00  0.00     0.014 A 
ATOM     31  C   UNL A   1      41.450  27.377  27.071  1.00  0.00     0.014 A 
ATOM     32  C   UNL A   1      39.857  26.810  29.289  1.00  0.00     0.010 A 
ATOM     33  C   UNL A   1      41.427  28.253  28.154  1.00  0.00     0.010 A 
ATOM     34  C   UNL A   1      40.616  27.990  29.270  1.00  0.00    -0.014 A 
BRANCH  34  35
ATOM     35  C   UNL A   1      40.557  28.995  30.366  1.00  0.00     0.031 A 
ATOM     36  C   UNL A   1      41.473  28.855  31.556  1.00  0.00     0.074 A 
ATOM     37  C   UNL A   1      39.631  29.975  30.347  1.00  0.00     0.049 A 
ATOM     38  N   UNL A   1      41.466  29.509  32.689  1.00  0.00    -0.248 NA
ATOM     39  C   UNL A   1      42.513  27.815  31.473  1.00  0.00     0.031 C 
ATOM     40  C   UNL A   1      38.669  30.216  29.268  1.00  0.00     0.029 A 
ATOM     41  N   UNL A   1      39.331  30.940  31.277  1.00  0.00    -0.354 N 
ATOM     42  C   UNL A   1      42.468  28.934  33.465  1.00  0.00     0.074 A 
ATOM     43  C   UNL A   1      43.034  27.852  32.689  1.00  0.00     0.031 C 
ATOM     44  C   UNL A   1      37.901  31.269  29.591  1.00  0.00     0.029 A 
ATOM     45  C   UNL A   1      38.276  31.746  30.918  1.00  0.00     0.049 A 
ATOM     46  H   UNL A   1      39.827  31.046  32.121  1.00  0.00     0.167 HD
ATOM     47  C   UNL A   1      42.891  29.282  34.704  1.00  0.00     0.031 A 
ATOM     48  C   UNL A   1      37.664  32.745  31.587  1.00  0.00     0.031 A 
ATOM     49  C   UNL A   1      42.351  30.380  35.460  1.00  0.00     0.049 A 
ATOM     50  C   UNL A   1      38.152  33.118  32.961  1.00  0.00     0.074 A 
ATOM     51  C   UNL A   1      42.746  30.846  36.701  1.00  0.00     0.029 A 
ATOM     52  N   UNL A   1      41.307  31.190  35.040  1.00  0.00    -0.354 N 
ATOM     53  N   UNL A   1      39.122  32.582  33.665  1.00  0.00    -0.248 NA
ATOM     54  C   UNL A   1      37.472  34.237  33.630  1.00  0.00     0.031 C 
ATOM     55  C   UNL A   1      41.915  31.914  37.051  1.00  0.00     0.029 A 
ATOM     56  C   UNL A   1      41.038  32.148  36.003  1.00  0.00     0.049 A 
ATOM     57  H   UNL A   1      40.829  31.099  34.184  1.00  0.00     0.167 HD
ATOM     58  C   UNL A   1      39.191  33.323  34.840  1.00  0.00     0.074 A 
ATOM     59  C   UNL A   1      38.169  34.343  34.754  1.00  0.00     0.031 C 
ATOM     60  C   UNL A   1      40.030  33.172  35.893  1.00  0.00     0.031 A 
BRANCH  47  61
ATOM     61  C   UNL A   1      43.989  28.458  35.324  1.00  0.00    -0.014 A 
ATOM     62  C   UNL A   1      43.697  27.333  36.117  1.00  0.00     0.010 A 
ATOM     63  C   UNL A   1      45.335  28.793  35.083  1.00  0.00     0.010 A 
ATOM     64  C   UNL A   1      44.727  26.589  36.697  1.00  0.00     0.020 A 
ATOM     65  C   UNL A   1      46.369  28.032  35.637  1.00  0.00     0.020 A 
ATOM     66  C   UNL A   1      46.057  26.946  36.458  1.00  0.00     0.054 A 
BRANCH  66  67
ATOM     67  S   UNL A   1      47.375  25.955  37.214  1.00  0.00     0.124 S 
ATOM     68  O   UNL A   1      47.028  24.608  36.768  1.00  0.00    -0.237 OA
ATOM     69  O   UNL A   1      48.584  26.520  36.619  1.00  0.00    -0.237 OA
ATOM     70  O   UNL A   1      47.215  26.198  38.645  1.00  0.00    -0.744 OA
ENDBRANCH  66  67
ENDBRANCH  47  61
BRANCH  48  71
ATOM     71  C   UNL A   1      36.529  33.474  30.959  1.00  0.00    -0.014 A 
ATOM     72  C   UNL A   1      36.726  34.217  29.782  1.00  0.00     0.010 A 
ATOM     73  C   UNL A   1      35.241  33.418  31.525  1.00  0.00     0.010 A 
ATOM     74  C   UNL A   1      35.662  34.907  29.192  1.00  0.00     0.020 A 
ATOM     75  C   UNL A   1      34.169  34.083  30.921  1.00  0.00     0.020 A 
ATOM     76  C   UNL A   1      34.389  34.833  29.765  1.00  0.00     0.054 A 
BRANCH  76  77
ATOM     77  S   UNL A   1      33.015  35.696  28.953  1.00  0.00     0.124 S 
ATOM     78  O   UNL A   1      33.714  36.691  28.148  1.00  0.00    -0.237 OA
ATOM     79  O   UNL A   1      32.364  34.621  28.208  1.00  0.00    -0.237 OA
ATOM     80  O   UNL A   1      32.238  36.228  30.070  1.00  0.00    -0.744 OA
ENDBRANCH  76  77
ENDBRANCH  48  71
BRANCH  60  81
ATOM     81  C   UNL A   1      39.933  34.167  37.018  1.00  0.00    -0.014 A 
ATOM     82  C   UNL A   1      40.550  35.426  36.937  1.00  0.00     0.010 A 
ATOM     83  C   UNL A   1      39.131  33.864  38.134  1.00  0.00     0.010 A 
ATOM     84  C   UNL A   1      40.378  36.362  37.961  1.00  0.00     0.020 A 
ATOM     85  C   UNL A   1      38.937  34.806  39.147  1.00  0.00     0.020 A 
ATOM     86  C   UNL A   1      39.569  36.046  39.058  1.00  0.00     0.054 A 
BRANCH  86  87
ATOM     87  S   UNL A   1      39.300  37.304  40.337  1.00  0.00     0.124 S 
ATOM     88  O   UNL A   1      38.576  36.550  41.358  1.00  0.00    -0.237 OA
ATOM     89  O   UNL A   1      40.661  37.696  40.693  1.00  0.00    -0.237 OA
ATOM     90  O   UNL A   1      38.520  38.333  39.653  1.00  0.00    -0.744 OA
ENDBRANCH  86  87
ENDBRANCH  60  81
ENDBRANCH  34  35
ENDBRANCH  26  29
ENDBRANCH  24  25
ENDBRANCH  23  24
ENDBRANCH   1  23
TORSDOF 19
ENDMDL
MODEL 2
REMARK VINA RESULT:      -9.9      5.411      6.837
REMARK SMILES C[C@]([NH2+]C[C@H](O)C(F)(F)F)(C(=O)NCCCNC(=O)c1ccc(-c2c3nc(c(-c4ccc(S(=O)(=O)[O-])cc4)c4ccc([nH]4)c(-c4ccc(S(=O)(=O)[O-])cc4)c4nc(c(-c5ccc(S(=O)(=O)[O-])cc5)c5ccc2[nH]5)C=C4)C=C3)cc1)C(F)(F)F
REMARK SMILES IDX 14 1 13 2 11 3 12 4 2 6 1 7 80 8 81 9 82 10 83 11 3 12 4 15
REMARK SMILES IDX 5 16 7 17 8 18 9 19 10 20 6 21 15 23 16 24 17 25 18 26 19 28
REMARK SMILES IDX 20 29 21 30 79 31 22 32 78 33 23 34 24 35 25 36 72 37 26 38
REMARK SMILES IDX 77 39 71 40 73 41 27 42 76 43 70 44 69 45 28 47 58 48 39 49
REMARK SMILES IDX 57 50 40 51 43 52 56 53 74 54 41 55 42 56 55 58 75 59 44 60
REMARK SMILES IDX 29 61 30 62 38 63 31 64 37 65 32 66 33 67 34 68 35 69 36 70
REMARK SMILES IDX 59 71 60 72 68 73 61 74 67 75 62 76 63 77 64 78 65 79 66 80
REMARK SMILES IDX 45 81 46 82 54 83 47 84 53 85 48 86 49 87 50 88 51 89 52 90
REMARK H PARENT 13 5 3 13 3 14 6 22 17 27 73 46 43 57
REMARK Flexibility Score: inf
ROOT
ATOM      1  C   UNL A   1      35.890  22.892  23.884  1.00  0.00     0.118 C 
ENDROOT
BRANCH   1   2
ATOM      2  N   UNL A   1      35.037  23.441  24.935  1.00  0.00    -0.350 N 
ATOM      3  C   UNL A   1      33.754  23.267  25.358  1.00  0.00     0.290 C 
ATOM      4  O   UNL A   1      33.428  24.060  26.251  1.00  0.00    -0.267 OA
ATOM      5  H   UNL A   1      35.512  24.112  25.476  1.00  0.00     0.163 HD
BRANCH   3   6
ATOM      6  C   UNL A   1      32.716  22.269  24.763  1.00  0.00     0.268 C 
ATOM      7  C   UNL A   1      31.416  22.162  25.579  1.00  0.00     0.101 C 
BRANCH   6   8
ATOM      8  C   UNL A   1      32.279  22.936  23.407  1.00  0.00     0.453 C 
ATOM      9  F   UNL A   1      32.415  24.282  23.416  1.00  0.00    -0.164 F 
ATOM     10  F   UNL A   1      33.051  22.487  22.381  1.00  0.00    -0.164 F 
ATOM     11  F   UNL A   1      31.001  22.636  23.074  1.00  0.00    -0.164 F 
ENDBRANCH   6   8
BRANCH   6  12
ATOM     12  N   UNL A   1      33.376  20.925  24.470  1.00  0.00    -0.324 N 
ATOM     13  H   UNL A   1      34.005  20.702  25.242  1.00  0.00     0.347 HD
ATOM     14  H   UNL A   1      33.865  21.025  23.581  1.00  0.00     0.347 HD
BRANCH  12  15
ATOM     15  C   UNL A   1      32.434  19.818  24.312  1.00  0.00     0.303 C 
BRANCH  15  16
ATOM     16  C   UNL A   1      32.726  18.534  25.113  1.00  0.00     0.275 C 
BRANCH  16  17
ATOM     17  C   UNL A   1      33.841  17.767  24.378  1.00  0.00     0.419 C 
ATOM     18  F   UNL A   1      35.049  18.340  24.529  1.00  0.00    -0.168 F 
ATOM     19  F   UNL A   1      33.927  16.499  24.859  1.00  0.00    -0.168 F 
ATOM     20  F   UNL A   1      33.582  17.662  23.053  1.00  0.00    -0.168 F 
ENDBRANCH  16  17
BRANCH  16  21
ATOM     21  O   UNL A   1      33.052  18.861  26.472  1.00  0.00    -0.379 OA
ATOM     22  H   UNL A   1      33.739  19.546  26.483  1.00  0.00     0.211 HD
ENDBRANCH  16  21
ENDBRANCH  15  16
ENDBRANCH  12  15
ENDBRANCH   6  12
ENDBRANCH   3   6
ENDBRANCH   1   2
BRANCH   1  23
ATOM     23  C   UNL A   1      37.036  22.038  24.440  1.00  0.00     0.042 C 
BRANCH  23  24
ATOM     24  C   UNL A   1      37.835  22.708  25.548  1.00  0.00     0.118 C 
BRANCH  24  25
ATOM     25  N   UNL A   1      38.620  21.746  26.301  1.00  0.00    -0.352 N 
ATOM     26  C   UNL A   1      39.825  21.911  26.947  1.00  0.00     0.251 C 
ATOM     27  H   UNL A   1      38.233  20.842  26.359  1.00  0.00     0.163 HD
ATOM     28  O   UNL A   1      40.455  20.916  27.291  1.00  0.00    -0.269 OA
BRANCH  26  29
ATOM     29  C   UNL A   1      40.371  23.265  27.213  1.00  0.00     0.039 A 
ATOM     30  C   UNL A   1      40.068  24.309  26.331  1.00  0.00     0.014 A 
ATOM     31  C   UNL A   1      41.225  23.504  28.291  1.00  0.00     0.014 A 
ATOM     32  C   UNL A   1      40.576  25.593  26.561  1.00  0.00     0.010 A 
ATOM     33  C   UNL A   1      41.654  24.800  28.572  1.00  0.00     0.010 A 
ATOM     34  C   UNL A   1      41.350  25.858  27.701  1.00  0.00    -0.014 A 
BRANCH  34  35
ATOM     35  C   UNL A   1      41.901  27.210  27.996  1.00  0.00     0.031 A 
ATOM     36  C   UNL A   1      43.383  27.458  27.855  1.00  0.00     0.074 A 
ATOM     37  C   UNL A   1      41.102  28.185  28.474  1.00  0.00     0.049 A 
ATOM     38  N   UNL A   1      44.088  28.496  28.224  1.00  0.00    -0.248 NA
ATOM     39  C   UNL A   1      44.180  26.377  27.251  1.00  0.00     0.031 C 
ATOM     40  C   UNL A   1      39.655  28.076  28.676  1.00  0.00     0.029 A 
ATOM     41  N   UNL A   1      41.399  29.457  28.897  1.00  0.00    -0.354 N 
ATOM     42  C   UNL A   1      45.411  28.177  27.935  1.00  0.00     0.074 A 
ATOM     43  C   UNL A   1      45.414  26.834  27.399  1.00  0.00     0.031 C 
ATOM     44  C   UNL A   1      39.191  29.237  29.169  1.00  0.00     0.029 A 
ATOM     45  C   UNL A   1      40.310  30.153  29.367  1.00  0.00     0.049 A 
ATOM     46  H   UNL A   1      42.308  29.835  28.867  1.00  0.00     0.167 HD
ATOM     47  C   UNL A   1      46.522  28.936  28.088  1.00  0.00     0.031 A 
ATOM     48  C   UNL A   1      40.221  31.383  29.912  1.00  0.00     0.031 A 
ATOM     49  C   UNL A   1      46.513  30.285  28.589  1.00  0.00     0.049 A 
ATOM     50  C   UNL A   1      41.467  32.213  30.069  1.00  0.00     0.074 A 
ATOM     51  C   UNL A   1      47.578  31.157  28.731  1.00  0.00     0.029 A 
ATOM     52  N   UNL A   1      45.381  30.961  29.018  1.00  0.00    -0.354 N 
ATOM     53  N   UNL A   1      42.705  31.904  29.761  1.00  0.00    -0.248 NA
ATOM     54  C   UNL A   1      41.306  33.558  30.638  1.00  0.00     0.031 C 
ATOM     55  C   UNL A   1      47.097  32.347  29.284  1.00  0.00     0.029 A 
ATOM     56  C   UNL A   1      45.724  32.235  29.434  1.00  0.00     0.049 A 
ATOM     57  H   UNL A   1      44.469  30.590  29.024  1.00  0.00     0.167 HD
ATOM     58  C   UNL A   1      43.462  33.032  30.064  1.00  0.00     0.074 A 
ATOM     59  C   UNL A   1      42.545  34.027  30.576  1.00  0.00     0.031 C 
ATOM     60  C   UNL A   1      44.796  33.224  29.923  1.00  0.00     0.031 A 
BRANCH  47  61
ATOM     61  C   UNL A   1      47.846  28.321  27.715  1.00  0.00    -0.014 A 
ATOM     62  C   UNL A   1      48.592  27.578  28.648  1.00  0.00     0.010 A 
ATOM     63  C   UNL A   1      48.334  28.457  26.402  1.00  0.00     0.010 A 
ATOM     64  C   UNL A   1      49.825  27.027  28.290  1.00  0.00     0.020 A 
ATOM     65  C   UNL A   1      49.553  27.880  26.032  1.00  0.00     0.020 A 
ATOM     66  C   UNL A   1      50.301  27.186  26.985  1.00  0.00     0.054 A 
BRANCH  66  67
ATOM     67  S   UNL A   1      51.898  26.448  26.545  1.00  0.00     0.124 S 
ATOM     68  O   UNL A   1      51.654  25.031  26.803  1.00  0.00    -0.237 OA
ATOM     69  O   UNL A   1      52.043  26.814  25.138  1.00  0.00    -0.237 OA
ATOM     70  O   UNL A   1      52.841  27.094  27.454  1.00  0.00    -0.744 OA
ENDBRANCH  66  67
ENDBRANCH  47  61
BRANCH  48  71
ATOM     71  C   UNL A   1      38.896  31.912  30.339  1.00  0.00    -0.014 A 
ATOM     72  C   UNL A   1      38.074  32.592  29.424  1.00  0.00     0.010 A 
ATOM     73  C   UNL A   1      38.443  31.727  31.659  1.00  0.00     0.010 A 
ATOM     74  C   UNL A   1      36.832  33.094  29.823  1.00  0.00     0.020 A 
ATOM     75  C   UNL A   1      37.189  32.203  32.054  1.00  0.00     0.020 A 
ATOM     76  C   UNL A   1      36.396  32.894  31.136  1.00  0.00     0.054 A 
BRANCH  76  77
ATOM     77  S   UNL A   1      34.759  33.511  31.617  1.00  0.00     0.124 S 
ATOM     78  O   UNL A   1      35.100  34.663  32.445  1.00  0.00    -0.237 OA
ATOM     79  O   UNL A   1      34.146  33.819  30.326  1.00  0.00    -0.237 OA
ATOM     80  O   UNL A   1      34.163  32.383  32.327  1.00  0.00    -0.744 OA
ENDBRANCH  76  77
ENDBRANCH  48  71
BRANCH  60  81
ATOM     81  C   UNL A   1      45.350  34.580  30.265  1.00  0.00    -0.014 A 
ATOM     82  C   UNL A   1      45.392  35.615  29.317  1.00  0.00     0.010 A 
ATOM     83  C   UNL A   1      45.750  34.843  31.588  1.00  0.00     0.010 A 
ATOM     84  C   UNL A   1      45.839  36.888  29.683  1.00  0.00     0.020 A 
ATOM     85  C   UNL A   1      46.173  36.120  31.964  1.00  0.00     0.020 A 
ATOM     86  C   UNL A   1      46.222  37.133  31.006  1.00  0.00     0.054 A 
BRANCH  86  87
ATOM     87  S   UNL A   1      46.726  38.812  31.474  1.00  0.00     0.124 S 
ATOM     88  O   UNL A   1      45.452  39.527  31.459  1.00  0.00    -0.237 OA
ATOM     89  O   UNL A   1      47.319  38.613  32.794  1.00  0.00    -0.237 OA
ATOM     90  O   UNL A   1      47.668  39.197  30.426  1.00  0.00    -0.744 OA
ENDBRANCH  86  87
ENDBRANCH  60  81
ENDBRANCH  34  35
ENDBRANCH  26  29
ENDBRANCH  24  25
ENDBRANCH  23  24
ENDBRANCH   1  23
TORSDOF 19
ENDMDL
MODEL 3
REMARK VINA RESULT:      -9.8      1.499      8.700
REMARK SMILES C[C@]([NH2+]C[C@H](O)C(F)(F)F)(C(=O)NCCCNC(=O)c1ccc(-c2c3nc(c(-c4ccc(S(=O)(=O)[O-])cc4)c4ccc([nH]4)c(-c4ccc(S(=O)(=O)[O-])cc4)c4nc(c(-c5ccc(S(=O)(=O)[O-])cc5)c5ccc2[nH]5)C=C4)C=C3)cc1)C(F)(F)F
REMARK SMILES IDX 14 1 13 2 11 3 12 4 2 6 1 7 80 8 81 9 82 10 83 11 3 12 4 15
REMARK SMILES IDX 5 16 7 17 8 18 9 19 10 20 6 21 15 23 16 24 17 25 18 26 19 28
REMARK SMILES IDX 20 29 21 30 79 31 22 32 78 33 23 34 24 35 25 36 72 37 26 38
REMARK SMILES IDX 77 39 71 40 73 41 27 42 76 43 70 44 69 45 28 47 58 48 39 49
REMARK SMILES IDX 57 50 40 51 43 52 56 53 74 54 41 55 42 56 55 58 75 59 44 60
REMARK SMILES IDX 29 61 30 62 38 63 31 64 37 65 32 66 33 67 34 68 35 69 36 70
REMARK SMILES IDX 59 71 60 72 68 73 61 74 67 75 62 76 63 77 64 78 65 79 66 80
REMARK SMILES IDX 45 81 46 82 54 83 47 84 53 85 48 86 49 87 50 88 51 89 52 90
REMARK H PARENT 13 5 3 13 3 14 6 22 17 27 73 46 43 57
REMARK Flexibility Score: inf
ROOT
ATOM      1  C   UNL A   1      37.896  22.875  25.069  1.00  0.00     0.118 C 
ENDROOT
BRANCH   1   2
ATOM      2  N   UNL A   1      36.872  23.909  25.195  1.00  0.00    -0.350 N 
ATOM      3  C   UNL A   1      35.533  23.950  25.439  1.00  0.00     0.290 C 
ATOM      4  O   UNL A   1      35.058  25.089  25.343  1.00  0.00    -0.267 OA
ATOM      5  H   UNL A   1      37.247  24.811  25.071  1.00  0.00     0.163 HD
BRANCH   3   6
ATOM      6  C   UNL A   1      34.610  22.724  25.714  1.00  0.00     0.268 C 
ATOM      7  C   UNL A   1      34.634  22.242  27.175  1.00  0.00     0.101 C 
BRANCH   6   8
ATOM      8  C   UNL A   1      33.156  23.286  25.506  1.00  0.00     0.453 C 
ATOM      9  F   UNL A   1      32.855  23.496  24.204  1.00  0.00    -0.164 F 
ATOM     10  F   UNL A   1      32.230  22.402  25.967  1.00  0.00    -0.164 F 
ATOM     11  F   UNL A   1      32.947  24.438  26.186  1.00  0.00    -0.164 F 
ENDBRANCH   6   8
BRANCH   6  12
ATOM     12  N   UNL A   1      34.872  21.621  24.693  1.00  0.00    -0.324 N 
ATOM     13  H   UNL A   1      35.852  21.669  24.413  1.00  0.00     0.347 HD
ATOM     14  H   UNL A   1      34.232  21.782  23.915  1.00  0.00     0.347 HD
BRANCH  12  15
ATOM     15  C   UNL A   1      34.603  20.271  25.188  1.00  0.00     0.303 C 
BRANCH  15  16
ATOM     16  C   UNL A   1      33.424  19.515  24.544  1.00  0.00     0.275 C 
BRANCH  16  17
ATOM     17  C   UNL A   1      33.931  18.120  24.136  1.00  0.00     0.419 C 
ATOM     18  F   UNL A   1      35.274  18.044  24.111  1.00  0.00    -0.168 F 
ATOM     19  F   UNL A   1      33.486  17.187  25.019  1.00  0.00    -0.168 F 
ATOM     20  F   UNL A   1      33.462  17.756  22.919  1.00  0.00    -0.168 F 
ENDBRANCH  16  17
BRANCH  16  21
ATOM     21  O   UNL A   1      32.306  19.482  25.442  1.00  0.00    -0.379 OA
ATOM     22  H   UNL A   1      31.617  20.085  25.122  1.00  0.00     0.211 HD
ENDBRANCH  16  21
ENDBRANCH  15  16
ENDBRANCH  12  15
ENDBRANCH   6  12
ENDBRANCH   3   6
ENDBRANCH   1   2
BRANCH   1  23
ATOM     23  C   UNL A   1      38.425  22.399  26.426  1.00  0.00     0.042 C 
BRANCH  23  24
ATOM     24  C   UNL A   1      39.369  23.377  27.109  1.00  0.00     0.118 C 
BRANCH  24  25
ATOM     25  N   UNL A   1      40.221  24.059  26.153  1.00  0.00    -0.352 N 
ATOM     26  C   UNL A   1      40.687  25.355  26.160  1.00  0.00     0.251 C 
ATOM     27  H   UNL A   1      40.510  23.513  25.385  1.00  0.00     0.163 HD
ATOM     28  O   UNL A   1      41.166  25.820  25.130  1.00  0.00    -0.269 OA
BRANCH  26  29
ATOM     29  C   UNL A   1      40.601  26.191  27.383  1.00  0.00     0.039 A 
ATOM     30  C   UNL A   1      41.541  27.209  27.582  1.00  0.00     0.014 A 
ATOM     31  C   UNL A   1      39.640  25.945  28.365  1.00  0.00     0.014 A 
ATOM     32  C   UNL A   1      41.481  28.007  28.730  1.00  0.00     0.010 A 
ATOM     33  C   UNL A   1      39.523  26.797  29.461  1.00  0.00     0.010 A 
ATOM     34  C   UNL A   1      40.453  27.828  29.668  1.00  0.00    -0.014 A 
BRANCH  34  35
ATOM     35  C   UNL A   1      40.339  28.660  30.898  1.00  0.00     0.031 A 
ATOM     36  C   UNL A   1      39.326  29.777  30.951  1.00  0.00     0.074 A 
ATOM     37  C   UNL A   1      41.194  28.483  31.925  1.00  0.00     0.049 A 
ATOM     38  N   UNL A   1      39.181  30.722  31.843  1.00  0.00    -0.248 NA
ATOM     39  C   UNL A   1      38.372  29.860  29.832  1.00  0.00     0.031 C 
ATOM     40  C   UNL A   1      42.234  27.453  31.998  1.00  0.00     0.029 A 
ATOM     41  N   UNL A   1      41.338  29.181  33.099  1.00  0.00    -0.354 N 
ATOM     42  C   UNL A   1      38.152  31.532  31.374  1.00  0.00     0.074 A 
ATOM     43  C   UNL A   1      37.737  30.990  30.099  1.00  0.00     0.031 C 
ATOM     44  C   UNL A   1      42.896  27.578  33.160  1.00  0.00     0.029 A 
ATOM     45  C   UNL A   1      42.365  28.725  33.892  1.00  0.00     0.049 A 
ATOM     46  H   UNL A   1      40.759  29.936  33.350  1.00  0.00     0.167 HD
ATOM     47  C   UNL A   1      37.591  32.619  31.956  1.00  0.00     0.031 A 
ATOM     48  C   UNL A   1      42.841  29.186  35.067  1.00  0.00     0.031 A 
ATOM     49  C   UNL A   1      37.981  33.136  33.240  1.00  0.00     0.049 A 
ATOM     50  C   UNL A   1      42.201  30.393  35.698  1.00  0.00     0.074 A 
ATOM     51  C   UNL A   1      37.439  34.199  33.940  1.00  0.00     0.029 A 
ATOM     52  N   UNL A   1      39.002  32.619  34.023  1.00  0.00    -0.354 N 
ATOM     53  N   UNL A   1      41.208  31.126  35.252  1.00  0.00    -0.248 NA
ATOM     54  C   UNL A   1      42.737  30.831  36.995  1.00  0.00     0.031 C 
ATOM     55  C   UNL A   1      38.159  34.351  35.128  1.00  0.00     0.029 A 
ATOM     56  C   UNL A   1      39.113  33.349  35.194  1.00  0.00     0.049 A 
ATOM     57  H   UNL A   1      39.564  31.847  33.782  1.00  0.00     0.167 HD
ATOM     58  C   UNL A   1      40.978  32.087  36.232  1.00  0.00     0.074 A 
ATOM     59  C   UNL A   1      41.931  31.842  37.292  1.00  0.00     0.031 C 
ATOM     60  C   UNL A   1      40.054  33.079  36.251  1.00  0.00     0.031 A 
BRANCH  47  61
ATOM     61  C   UNL A   1      36.498  33.330  31.201  1.00  0.00    -0.014 A 
ATOM     62  C   UNL A   1      36.770  34.030  30.011  1.00  0.00     0.010 A 
ATOM     63  C   UNL A   1      35.171  33.267  31.668  1.00  0.00     0.010 A 
ATOM     64  C   UNL A   1      35.747  34.696  29.332  1.00  0.00     0.020 A 
ATOM     65  C   UNL A   1      34.140  33.907  30.974  1.00  0.00     0.020 A 
ATOM     66  C   UNL A   1      34.439  34.635  29.821  1.00  0.00     0.054 A 
BRANCH  66  67
ATOM     67  S   UNL A   1      33.128  35.498  28.911  1.00  0.00     0.124 S 
ATOM     68  O   UNL A   1      32.482  34.397  28.202  1.00  0.00    -0.237 OA
ATOM     69  O   UNL A   1      32.340  36.104  29.982  1.00  0.00    -0.237 OA
ATOM     70  O   UNL A   1      33.855  36.442  28.067  1.00  0.00    -0.744 OA
ENDBRANCH  66  67
ENDBRANCH  47  61
BRANCH  48  71
ATOM     71  C   UNL A   1      43.978  28.493  35.731  1.00  0.00    -0.014 A 
ATOM     72  C   UNL A   1      43.741  27.439  36.631  1.00  0.00     0.010 A 
ATOM     73  C   UNL A   1      45.306  28.872  35.457  1.00  0.00     0.010 A 
ATOM     74  C   UNL A   1      44.807  26.789  37.259  1.00  0.00     0.020 A 
ATOM     75  C   UNL A   1      46.376  28.205  36.063  1.00  0.00     0.020 A 
ATOM     76  C   UNL A   1      46.118  27.176  36.970  1.00  0.00     0.054 A 
BRANCH  76  77
ATOM     77  S   UNL A   1      47.487  26.284  37.761  1.00  0.00     0.124 S 
ATOM     78  O   UNL A   1      48.415  27.367  38.070  1.00  0.00    -0.237 OA
ATOM     79  O   UNL A   1      46.835  25.661  38.910  1.00  0.00    -0.237 OA
ATOM     80  O   UNL A   1      47.932  25.354  36.727  1.00  0.00    -0.744 OA
ENDBRANCH  76  77
ENDBRANCH  48  71
BRANCH  60  81
ATOM     81  C   UNL A   1      39.977  33.943  37.480  1.00  0.00    -0.014 A 
ATOM     82  C   UNL A   1      40.622  35.189  37.541  1.00  0.00     0.010 A 
ATOM     83  C   UNL A   1      39.167  33.535  38.556  1.00  0.00     0.010 A 
ATOM     84  C   UNL A   1      40.469  36.008  38.664  1.00  0.00     0.020 A 
ATOM     85  C   UNL A   1      38.991  34.361  39.669  1.00  0.00     0.020 A 
ATOM     86  C   UNL A   1      39.651  35.589  39.719  1.00  0.00     0.054 A 
BRANCH  86  87
ATOM     87  S   UNL A   1      39.408  36.701  41.132  1.00  0.00     0.124 S 
ATOM     88  O   UNL A   1      38.505  35.925  41.978  1.00  0.00    -0.237 OA
ATOM     89  O   UNL A   1      40.764  36.868  41.646  1.00  0.00    -0.237 OA
ATOM     90  O   UNL A   1      38.823  37.899  40.533  1.00  0.00    -0.744 OA
ENDBRANCH  86  87
ENDBRANCH  60  81
ENDBRANCH  34  35
ENDBRANCH  26  29
ENDBRANCH  24  25
ENDBRANCH  23  24
ENDBRANCH   1  23
TORSDOF 19
ENDMDL
