MODEL 1
REMARK VINA RESULT:      -9.7      0.000      0.000
REMARK SMILES O=C(C[NH2+]C[C@@H]1CCCO1)NCCCNC(=O)c1ccc(-c2c3nc(c(-c4ccc(S(=O)(=O)[O-])cc4)c4ccc([nH]4)c(-c4ccc(S(=O)(=O)[O-])cc4)c4nc(c(-c5ccc(S(=O)(=O)[O-])cc5)c5ccc2[nH]5)C=C4)C=C3)cc1
REMARK SMILES IDX 13 1 12 2 11 3 1 4 2 5 3 7 4 8 5 11 6 12 7 13 10 14 8 15
REMARK SMILES IDX 9 16 14 17 15 18 16 19 17 21 18 22 19 23 77 24 20 25 76 26
REMARK SMILES IDX 21 27 22 28 23 29 70 30 24 31 75 32 69 33 71 34 25 35 74 36
REMARK SMILES IDX 68 37 67 38 26 40 56 41 37 42 55 43 38 44 41 45 54 46 72 47
REMARK SMILES IDX 39 48 40 49 53 51 73 52 42 53 27 54 28 55 36 56 29 57 35 58
REMARK SMILES IDX 30 59 31 60 32 61 33 62 34 63 57 64 58 65 66 66 59 67 65 68
REMARK SMILES IDX 60 69 61 70 62 71 63 72 64 73 43 74 44 75 52 76 45 77 51 78
REMARK SMILES IDX 46 79 47 80 48 81 49 82 50 83
REMARK H PARENT 11 6 4 9 4 10 15 20 71 39 41 50
REMARK Flexibility Score: inf
ROOT
ATOM      1  C   UNL A   1      41.330  21.119  27.767  1.00  0.00     0.042 C 
ENDROOT
BRANCH   1   2
ATOM      2  C   UNL A   1      42.137  19.826  27.687  1.00  0.00     0.118 C 
BRANCH   2   3
ATOM      3  N   UNL A   1      43.003  19.829  26.529  1.00  0.00    -0.351 N 
ATOM      4  O   UNL A   1      42.533  17.692  25.819  1.00  0.00    -0.269 OA
ATOM      5  C   UNL A   1      43.210  18.713  25.756  1.00  0.00     0.275 C 
ATOM      6  H   UNL A   1      43.462  20.664  26.285  1.00  0.00     0.163 HD
BRANCH   5   7
ATOM      7  C   UNL A   1      44.382  18.854  24.789  1.00  0.00     0.361 C 
BRANCH   7   8
ATOM      8  N   UNL A   1      45.557  19.376  25.497  1.00  0.00    -0.336 N 
ATOM      9  H   UNL A   1      46.229  18.619  25.622  1.00  0.00     0.346 HD
ATOM     10  H   UNL A   1      45.249  19.745  26.396  1.00  0.00     0.346 HD
BRANCH   8  11
ATOM     11  C   UNL A   1      46.201  20.467  24.753  1.00  0.00     0.293 C 
BRANCH  11  12
ATOM     12  C   UNL A   1      45.430  21.802  24.731  1.00  0.00     0.173 C 
ATOM     13  C   UNL A   1      46.237  23.022  24.314  1.00  0.00     0.040 C 
ATOM     14  O   UNL A   1      44.925  22.106  26.049  1.00  0.00    -0.372 OA
ATOM     15  C   UNL A   1      45.471  24.142  24.964  1.00  0.00     0.031 C 
ATOM     16  C   UNL A   1      45.085  23.514  26.285  1.00  0.00     0.161 C 
ENDBRANCH  11  12
ENDBRANCH   8  11
ENDBRANCH   7   8
ENDBRANCH   5   7
ENDBRANCH   2   3
ENDBRANCH   1   2
BRANCH   1  17
ATOM     17  C   UNL A   1      41.244  21.878  26.445  1.00  0.00     0.118 C 
BRANCH  17  18
ATOM     18  N   UNL A   1      39.894  21.914  25.898  1.00  0.00    -0.352 N 
ATOM     19  C   UNL A   1      38.915  22.870  26.031  1.00  0.00     0.251 C 
ATOM     20  H   UNL A   1      39.646  21.135  25.350  1.00  0.00     0.163 HD
ATOM     21  O   UNL A   1      37.779  22.637  25.638  1.00  0.00    -0.269 OA
BRANCH  19  22
ATOM     22  C   UNL A   1      39.234  24.165  26.669  1.00  0.00     0.039 A 
ATOM     23  C   UNL A   1      38.827  24.383  27.987  1.00  0.00     0.014 A 
ATOM     24  C   UNL A   1      39.937  25.152  25.975  1.00  0.00     0.014 A 
ATOM     25  C   UNL A   1      39.197  25.564  28.636  1.00  0.00     0.010 A 
ATOM     26  C   UNL A   1      40.369  26.292  26.645  1.00  0.00     0.010 A 
ATOM     27  C   UNL A   1      40.010  26.507  27.985  1.00  0.00    -0.014 A 
BRANCH  27  28
ATOM     28  C   UNL A   1      40.520  27.708  28.695  1.00  0.00     0.031 A 
ATOM     29  C   UNL A   1      41.893  27.699  29.309  1.00  0.00     0.074 A 
ATOM     30  C   UNL A   1      39.715  28.778  28.855  1.00  0.00     0.049 A 
ATOM     31  N   UNL A   1      42.475  28.616  30.040  1.00  0.00    -0.248 NA
ATOM     32  C   UNL A   1      42.711  26.494  29.095  1.00  0.00     0.031 C 
ATOM     33  C   UNL A   1      38.351  28.897  28.333  1.00  0.00     0.029 A 
ATOM     34  N   UNL A   1      39.923  29.966  29.510  1.00  0.00    -0.354 N 
ATOM     35  C   UNL A   1      43.716  28.095  30.385  1.00  0.00     0.074 A 
ATOM     36  C   UNL A   1      43.785  26.763  29.824  1.00  0.00     0.031 C 
ATOM     37  C   UNL A   1      37.854  30.097  28.669  1.00  0.00     0.029 A 
ATOM     38  C   UNL A   1      38.840  30.814  29.472  1.00  0.00     0.049 A 
ATOM     39  H   UNL A   1      40.766  30.191  29.964  1.00  0.00     0.167 HD
ATOM     40  C   UNL A   1      44.714  28.679  31.090  1.00  0.00     0.031 A 
ATOM     41  C   UNL A   1      38.652  32.024  30.033  1.00  0.00     0.031 A 
ATOM     42  C   UNL A   1      44.640  30.005  31.645  1.00  0.00     0.049 A 
ATOM     43  C   UNL A   1      39.763  32.637  30.843  1.00  0.00     0.074 A 
ATOM     44  C   UNL A   1      45.618  30.705  32.331  1.00  0.00     0.029 A 
ATOM     45  N   UNL A   1      43.527  30.830  31.585  1.00  0.00    -0.354 N 
ATOM     46  N   UNL A   1      40.955  32.155  31.102  1.00  0.00    -0.248 NA
ATOM     47  C   UNL A   1      39.505  33.958  31.431  1.00  0.00     0.031 C 
ATOM     48  C   UNL A   1      45.074  31.926  32.740  1.00  0.00     0.029 A 
ATOM     49  C   UNL A   1      43.782  32.018  32.250  1.00  0.00     0.049 A 
ATOM     50  H   UNL A   1      42.680  30.604  31.136  1.00  0.00     0.167 HD
ATOM     51  C   UNL A   1      41.599  33.127  31.860  1.00  0.00     0.074 A 
ATOM     52  C   UNL A   1      40.670  34.229  32.005  1.00  0.00     0.031 C 
ATOM     53  C   UNL A   1      42.848  33.108  32.387  1.00  0.00     0.031 A 
BRANCH  40  54
ATOM     54  C   UNL A   1      45.972  27.879  31.316  1.00  0.00    -0.014 A 
ATOM     55  C   UNL A   1      47.055  27.957  30.421  1.00  0.00     0.010 A 
ATOM     56  C   UNL A   1      46.091  27.074  32.463  1.00  0.00     0.010 A 
ATOM     57  C   UNL A   1      48.215  27.213  30.647  1.00  0.00     0.020 A 
ATOM     58  C   UNL A   1      47.263  26.352  32.710  1.00  0.00     0.020 A 
ATOM     59  C   UNL A   1      48.311  26.414  31.791  1.00  0.00     0.054 A 
BRANCH  59  60
ATOM     60  S   UNL A   1      49.840  25.477  32.069  1.00  0.00     0.124 S 
ATOM     61  O   UNL A   1      50.738  26.513  32.574  1.00  0.00    -0.237 OA
ATOM     62  O   UNL A   1      49.427  24.474  33.047  1.00  0.00    -0.237 OA
ATOM     63  O   UNL A   1      50.174  24.955  30.747  1.00  0.00    -0.744 OA
ENDBRANCH  59  60
ENDBRANCH  40  54
BRANCH  41  64
ATOM     64  C   UNL A   1      37.358  32.738  29.848  1.00  0.00    -0.014 A 
ATOM     65  C   UNL A   1      37.157  33.577  28.737  1.00  0.00     0.010 A 
ATOM     66  C   UNL A   1      36.314  32.575  30.778  1.00  0.00     0.010 A 
ATOM     67  C   UNL A   1      35.943  34.252  28.570  1.00  0.00     0.020 A 
ATOM     68  C   UNL A   1      35.089  33.223  30.597  1.00  0.00     0.020 A 
ATOM     69  C   UNL A   1      34.916  34.068  29.499  1.00  0.00     0.054 A 
BRANCH  69  70
ATOM     70  S   UNL A   1      33.334  34.917  29.235  1.00  0.00     0.124 S 
ATOM     71  O   UNL A   1      33.765  36.196  28.680  1.00  0.00    -0.237 OA
ATOM     72  O   UNL A   1      32.650  34.021  28.305  1.00  0.00    -0.237 OA
ATOM     73  O   UNL A   1      32.750  34.978  30.573  1.00  0.00    -0.744 OA
ENDBRANCH  69  70
ENDBRANCH  41  64
BRANCH  53  74
ATOM     74  C   UNL A   1      43.305  34.327  33.145  1.00  0.00    -0.014 A 
ATOM     75  C   UNL A   1      44.008  35.363  32.506  1.00  0.00     0.010 A 
ATOM     76  C   UNL A   1      42.962  34.466  34.503  1.00  0.00     0.010 A 
ATOM     77  C   UNL A   1      44.379  36.508  33.218  1.00  0.00     0.020 A 
ATOM     78  C   UNL A   1      43.303  35.622  35.209  1.00  0.00     0.020 A 
ATOM     79  C   UNL A   1      44.020  36.632  34.563  1.00  0.00     0.054 A 
BRANCH  79  80
ATOM     80  S   UNL A   1      44.459  38.155  35.445  1.00  0.00     0.124 S 
ATOM     81  O   UNL A   1      43.669  39.157  34.735  1.00  0.00    -0.237 OA
ATOM     82  O   UNL A   1      44.027  37.868  36.811  1.00  0.00    -0.237 OA
ATOM     83  O   UNL A   1      45.905  38.259  35.263  1.00  0.00    -0.744 OA
ENDBRANCH  79  80
ENDBRANCH  53  74
ENDBRANCH  27  28
ENDBRANCH  19  22
ENDBRANCH  17  18
ENDBRANCH   1  17
TORSDOF 16
ENDMDL
MODEL 2
REMARK VINA RESULT:      -9.7      3.586     12.004
REMARK SMILES O=C(C[NH2+]C[C@@H]1CCCO1)NCCCNC(=O)c1ccc(-c2c3nc(c(-c4ccc(S(=O)(=O)[O-])cc4)c4ccc([nH]4)c(-c4ccc(S(=O)(=O)[O-])cc4)c4nc(c(-c5ccc(S(=O)(=O)[O-])cc5)c5ccc2[nH]5)C=C4)C=C3)cc1
REMARK SMILES IDX 13 1 12 2 11 3 1 4 2 5 3 7 4 8 5 11 6 12 7 13 10 14 8 15
REMARK SMILES IDX 9 16 14 17 15 18 16 19 17 21 18 22 19 23 77 24 20 25 76 26
REMARK SMILES IDX 21 27 22 28 23 29 70 30 24 31 75 32 69 33 71 34 25 35 74 36
REMARK SMILES IDX 68 37 67 38 26 40 56 41 37 42 55 43 38 44 41 45 54 46 72 47
REMARK SMILES IDX 39 48 40 49 53 51 73 52 42 53 27 54 28 55 36 56 29 57 35 58
REMARK SMILES IDX 30 59 31 60 32 61 33 62 34 63 57 64 58 65 66 66 59 67 65 68
REMARK SMILES IDX 60 69 61 70 62 71 63 72 64 73 43 74 44 75 52 76 45 77 51 78
REMARK SMILES IDX 46 79 47 80 48 81 49 82 50 83
REMARK H PARENT 11 6 4 9 4 10 15 20 71 39 41 50
REMARK Flexibility Score: inf
ROOT
ATOM      1  C   UNL A   1      34.436  34.706  28.353  1.00  0.00     0.042 C 
ENDROOT
BRANCH   1   2
ATOM      2  C   UNL A   1      33.301  35.530  28.956  1.00  0.00     0.118 C 
BRANCH   2   3
ATOM      3  N   UNL A   1      33.191  35.294  30.378  1.00  0.00    -0.351 N 
ATOM      4  O   UNL A   1      32.903  37.488  31.007  1.00  0.00    -0.269 OA
ATOM      5  C   UNL A   1      33.113  36.314  31.295  1.00  0.00     0.275 C 
ATOM      6  H   UNL A   1      33.171  34.365  30.703  1.00  0.00     0.163 HD
BRANCH   5   7
ATOM      7  C   UNL A   1      33.316  35.852  32.734  1.00  0.00     0.361 C 
BRANCH   7   8
ATOM      8  N   UNL A   1      32.901  34.452  32.876  1.00  0.00    -0.336 N 
ATOM      9  H   UNL A   1      32.517  34.130  31.988  1.00  0.00     0.346 HD
ATOM     10  H   UNL A   1      32.202  34.402  33.618  1.00  0.00     0.346 HD
BRANCH   8  11
ATOM     11  C   UNL A   1      34.027  33.585  33.251  1.00  0.00     0.293 C 
BRANCH  11  12
ATOM     12  C   UNL A   1      35.249  34.307  33.853  1.00  0.00     0.173 C 
ATOM     13  C   UNL A   1      36.548  34.164  33.075  1.00  0.00     0.040 C 
ATOM     14  O   UNL A   1      35.530  33.792  35.172  1.00  0.00    -0.372 OA
ATOM     15  C   UNL A   1      37.581  34.392  34.146  1.00  0.00     0.031 C 
ATOM     16  C   UNL A   1      36.954  33.680  35.324  1.00  0.00     0.161 C 
ENDBRANCH  11  12
ENDBRANCH   8  11
ENDBRANCH   7   8
ENDBRANCH   5   7
ENDBRANCH   2   3
ENDBRANCH   1   2
BRANCH   1  17
ATOM     17  C   UNL A   1      34.527  33.283  28.900  1.00  0.00     0.118 C 
BRANCH  17  18
ATOM     18  N   UNL A   1      33.882  32.302  28.038  1.00  0.00    -0.352 N 
ATOM     19  C   UNL A   1      34.323  31.067  27.626  1.00  0.00     0.251 C 
ATOM     20  H   UNL A   1      32.996  32.563  27.700  1.00  0.00     0.163 HD
ATOM     21  O   UNL A   1      33.711  30.461  26.756  1.00  0.00    -0.269 OA
BRANCH  19  22
ATOM     22  C   UNL A   1      35.549  30.489  28.218  1.00  0.00     0.039 A 
ATOM     23  C   UNL A   1      36.777  30.743  27.603  1.00  0.00     0.014 A 
ATOM     24  C   UNL A   1      35.487  29.710  29.376  1.00  0.00     0.014 A 
ATOM     25  C   UNL A   1      37.954  30.281  28.197  1.00  0.00     0.010 A 
ATOM     26  C   UNL A   1      36.663  29.316  30.005  1.00  0.00     0.010 A 
ATOM     27  C   UNL A   1      37.909  29.603  29.428  1.00  0.00    -0.014 A 
BRANCH  27  28
ATOM     28  C   UNL A   1      39.153  29.214  30.141  1.00  0.00     0.031 A 
ATOM     29  C   UNL A   1      39.589  29.964  31.369  1.00  0.00     0.074 A 
ATOM     30  C   UNL A   1      39.931  28.236  29.634  1.00  0.00     0.049 A 
ATOM     31  N   UNL A   1      40.685  29.828  32.072  1.00  0.00    -0.248 NA
ATOM     32  C   UNL A   1      38.689  31.021  31.859  1.00  0.00     0.031 C 
ATOM     33  C   UNL A   1      39.634  27.454  28.431  1.00  0.00     0.029 A 
ATOM     34  N   UNL A   1      41.136  27.737  30.062  1.00  0.00    -0.354 N 
ATOM     35  C   UNL A   1      40.614  30.788  33.075  1.00  0.00     0.074 A 
ATOM     36  C   UNL A   1      39.390  31.532  32.861  1.00  0.00     0.031 C 
ATOM     37  C   UNL A   1      40.616  26.563  28.230  1.00  0.00     0.029 A 
ATOM     38  C   UNL A   1      41.638  26.740  29.258  1.00  0.00     0.049 A 
ATOM     39  H   UNL A   1      41.598  28.062  30.868  1.00  0.00     0.167 HD
ATOM     40  C   UNL A   1      41.479  31.019  34.090  1.00  0.00     0.031 A 
ATOM     41  C   UNL A   1      42.797  26.057  29.325  1.00  0.00     0.031 A 
ATOM     42  C   UNL A   1      42.694  30.275  34.299  1.00  0.00     0.049 A 
ATOM     43  C   UNL A   1      43.760  26.356  30.442  1.00  0.00     0.074 A 
ATOM     44  C   UNL A   1      43.611  30.398  35.328  1.00  0.00     0.029 A 
ATOM     45  N   UNL A   1      43.166  29.275  33.462  1.00  0.00    -0.354 N 
ATOM     46  N   UNL A   1      43.643  27.224  31.420  1.00  0.00    -0.248 NA
ATOM     47  C   UNL A   1      45.008  25.581  30.469  1.00  0.00     0.031 C 
ATOM     48  C   UNL A   1      44.668  29.518  35.079  1.00  0.00     0.029 A 
ATOM     49  C   UNL A   1      44.377  28.796  33.933  1.00  0.00     0.049 A 
ATOM     50  H   UNL A   1      42.708  28.953  32.652  1.00  0.00     0.167 HD
ATOM     51  C   UNL A   1      44.789  27.079  32.193  1.00  0.00     0.074 A 
ATOM     52  C   UNL A   1      45.579  26.031  31.579  1.00  0.00     0.031 C 
ATOM     53  C   UNL A   1      45.154  27.752  33.312  1.00  0.00     0.031 A 
BRANCH  40  54
ATOM     54  C   UNL A   1      41.151  32.134  35.050  1.00  0.00    -0.014 A 
ATOM     55  C   UNL A   1      41.547  33.458  34.792  1.00  0.00     0.010 A 
ATOM     56  C   UNL A   1      40.393  31.859  36.204  1.00  0.00     0.010 A 
ATOM     57  C   UNL A   1      41.230  34.480  35.691  1.00  0.00     0.020 A 
ATOM     58  C   UNL A   1      40.045  32.885  37.089  1.00  0.00     0.020 A 
ATOM     59  C   UNL A   1      40.482  34.186  36.835  1.00  0.00     0.054 A 
BRANCH  59  60
ATOM     60  S   UNL A   1      40.065  35.538  37.970  1.00  0.00     0.124 S 
ATOM     61  O   UNL A   1      38.906  34.993  38.673  1.00  0.00    -0.237 OA
ATOM     62  O   UNL A   1      41.280  35.670  38.769  1.00  0.00    -0.237 OA
ATOM     63  O   UNL A   1      39.781  36.662  37.081  1.00  0.00    -0.744 OA
ENDBRANCH  59  60
ENDBRANCH  40  54
BRANCH  41  64
ATOM     64  C   UNL A   1      43.111  25.021  28.302  1.00  0.00    -0.014 A 
ATOM     65  C   UNL A   1      43.820  25.360  27.135  1.00  0.00     0.010 A 
ATOM     66  C   UNL A   1      42.712  23.685  28.494  1.00  0.00     0.010 A 
ATOM     67  C   UNL A   1      44.105  24.386  26.172  1.00  0.00     0.020 A 
ATOM     68  C   UNL A   1      43.024  22.704  27.549  1.00  0.00     0.020 A 
ATOM     69  C   UNL A   1      43.709  23.064  26.388  1.00  0.00     0.054 A 
BRANCH  69  70
ATOM     70  S   UNL A   1      44.134  21.810  25.147  1.00  0.00     0.124 S 
ATOM     71  O   UNL A   1      45.497  21.454  25.530  1.00  0.00    -0.237 OA
ATOM     72  O   UNL A   1      43.122  20.783  25.378  1.00  0.00    -0.237 OA
ATOM     73  O   UNL A   1      44.007  22.526  23.879  1.00  0.00    -0.744 OA
ENDBRANCH  69  70
ENDBRANCH  41  64
BRANCH  53  74
ATOM     74  C   UNL A   1      46.450  27.360  33.972  1.00  0.00    -0.014 A 
ATOM     75  C   UNL A   1      47.655  28.012  33.661  1.00  0.00     0.010 A 
ATOM     76  C   UNL A   1      46.444  26.369  34.973  1.00  0.00     0.010 A 
ATOM     77  C   UNL A   1      48.837  27.666  34.322  1.00  0.00     0.020 A 
ATOM     78  C   UNL A   1      47.617  26.042  35.658  1.00  0.00     0.020 A 
ATOM     79  C   UNL A   1      48.809  26.686  35.320  1.00  0.00     0.054 A 
BRANCH  79  80
ATOM     80  S   UNL A   1      50.345  26.301  36.206  1.00  0.00     0.124 S 
ATOM     81  O   UNL A   1      50.340  27.300  37.272  1.00  0.00    -0.237 OA
ATOM     82  O   UNL A   1      50.127  24.922  36.636  1.00  0.00    -0.237 OA
ATOM     83  O   UNL A   1      51.384  26.476  35.194  1.00  0.00    -0.744 OA
ENDBRANCH  79  80
ENDBRANCH  53  74
ENDBRANCH  27  28
ENDBRANCH  19  22
ENDBRANCH  17  18
ENDBRANCH   1  17
TORSDOF 16
ENDMDL
MODEL 3
REMARK VINA RESULT:      -9.6      1.990      2.622
REMARK SMILES O=C(C[NH2+]C[C@@H]1CCCO1)NCCCNC(=O)c1ccc(-c2c3nc(c(-c4ccc(S(=O)(=O)[O-])cc4)c4ccc([nH]4)c(-c4ccc(S(=O)(=O)[O-])cc4)c4nc(c(-c5ccc(S(=O)(=O)[O-])cc5)c5ccc2[nH]5)C=C4)C=C3)cc1
REMARK SMILES IDX 13 1 12 2 11 3 1 4 2 5 3 7 4 8 5 11 6 12 7 13 10 14 8 15
REMARK SMILES IDX 9 16 14 17 15 18 16 19 17 21 18 22 19 23 77 24 20 25 76 26
REMARK SMILES IDX 21 27 22 28 23 29 70 30 24 31 75 32 69 33 71 34 25 35 74 36
REMARK SMILES IDX 68 37 67 38 26 40 56 41 37 42 55 43 38 44 41 45 54 46 72 47
REMARK SMILES IDX 39 48 40 49 53 51 73 52 42 53 27 54 28 55 36 56 29 57 35 58
REMARK SMILES IDX 30 59 31 60 32 61 33 62 34 63 57 64 58 65 66 66 59 67 65 68
REMARK SMILES IDX 60 69 61 70 62 71 63 72 64 73 43 74 44 75 52 76 45 77 51 78
REMARK SMILES IDX 46 79 47 80 48 81 49 82 50 83
REMARK H PARENT 11 6 4 9 4 10 15 20 71 39 41 50
REMARK Flexibility Score: inf
ROOT
ATOM      1  C   UNL A   1      41.344  19.996  27.337  1.00  0.00     0.042 C 
ENDROOT
BRANCH   1   2
ATOM      2  C   UNL A   1      41.808  19.309  26.056  1.00  0.00     0.118 C 
BRANCH   2   3
ATOM      3  N   UNL A   1      42.903  20.032  25.451  1.00  0.00    -0.351 N 
ATOM      4  O   UNL A   1      44.197  18.202  24.930  1.00  0.00    -0.269 OA
ATOM      5  C   UNL A   1      44.060  19.417  25.038  1.00  0.00     0.275 C 
ATOM      6  H   UNL A   1      42.817  21.005  25.328  1.00  0.00     0.163 HD
BRANCH   5   7
ATOM      7  C   UNL A   1      45.187  20.394  24.722  1.00  0.00     0.361 C 
BRANCH   7   8
ATOM      8  N   UNL A   1      44.837  21.202  23.548  1.00  0.00    -0.336 N 
ATOM      9  H   UNL A   1      43.882  20.979  23.266  1.00  0.00     0.346 HD
ATOM     10  H   UNL A   1      45.499  20.985  22.803  1.00  0.00     0.346 HD
BRANCH   8  11
ATOM     11  C   UNL A   1      44.925  22.641  23.831  1.00  0.00     0.293 C 
BRANCH  11  12
ATOM     12  C   UNL A   1      46.174  23.089  24.616  1.00  0.00     0.173 C 
ATOM     13  C   UNL A   1      45.914  23.635  26.012  1.00  0.00     0.040 C 
ATOM     14  O   UNL A   1      46.854  24.147  23.908  1.00  0.00    -0.372 OA
ATOM     15  C   UNL A   1      47.119  24.508  26.235  1.00  0.00     0.031 C 
ATOM     16  C   UNL A   1      47.307  25.118  24.864  1.00  0.00     0.161 C 
ENDBRANCH  11  12
ENDBRANCH   8  11
ENDBRANCH   7   8
ENDBRANCH   5   7
ENDBRANCH   2   3
ENDBRANCH   1   2
BRANCH   1  17
ATOM     17  C   UNL A   1      40.928  21.452  27.144  1.00  0.00     0.118 C 
BRANCH  17  18
ATOM     18  N   UNL A   1      39.655  21.591  26.450  1.00  0.00    -0.352 N 
ATOM     19  C   UNL A   1      38.843  22.691  26.311  1.00  0.00     0.251 C 
ATOM     20  H   UNL A   1      39.327  20.772  26.014  1.00  0.00     0.163 HD
ATOM     21  O   UNL A   1      37.721  22.564  25.837  1.00  0.00    -0.269 OA
BRANCH  19  22
ATOM     22  C   UNL A   1      39.319  24.017  26.759  1.00  0.00     0.039 A 
ATOM     23  C   UNL A   1      39.128  24.386  28.092  1.00  0.00     0.014 A 
ATOM     24  C   UNL A   1      39.957  24.886  25.871  1.00  0.00     0.014 A 
ATOM     25  C   UNL A   1      39.651  25.596  28.555  1.00  0.00     0.010 A 
ATOM     26  C   UNL A   1      40.542  26.055  26.350  1.00  0.00     0.010 A 
ATOM     27  C   UNL A   1      40.402  26.419  27.698  1.00  0.00    -0.014 A 
BRANCH  27  28
ATOM     28  C   UNL A   1      41.073  27.646  28.197  1.00  0.00     0.031 A 
ATOM     29  C   UNL A   1      42.574  27.726  28.236  1.00  0.00     0.074 A 
ATOM     30  C   UNL A   1      40.329  28.657  28.690  1.00  0.00     0.049 A 
ATOM     31  N   UNL A   1      43.336  28.675  28.718  1.00  0.00    -0.248 NA
ATOM     32  C   UNL A   1      43.318  26.583  27.683  1.00  0.00     0.031 C 
ATOM     33  C   UNL A   1      38.864  28.686  28.739  1.00  0.00     0.029 A 
ATOM     34  N   UNL A   1      40.701  29.851  29.256  1.00  0.00    -0.354 N 
ATOM     35  C   UNL A   1      44.644  28.238  28.541  1.00  0.00     0.074 A 
ATOM     36  C   UNL A   1      44.571  26.918  27.951  1.00  0.00     0.031 C 
ATOM     37  C   UNL A   1      38.464  29.847  29.280  1.00  0.00     0.029 A 
ATOM     38  C   UNL A   1      39.639  30.623  29.666  1.00  0.00     0.049 A 
ATOM     39  H   UNL A   1      41.640  30.129  29.358  1.00  0.00     0.167 HD
ATOM     40  C   UNL A   1      45.800  28.883  28.828  1.00  0.00     0.031 A 
ATOM     41  C   UNL A   1      39.610  31.813  30.297  1.00  0.00     0.031 A 
ATOM     42  C   UNL A   1      45.866  30.197  29.413  1.00  0.00     0.049 A 
ATOM     43  C   UNL A   1      40.908  32.494  30.638  1.00  0.00     0.074 A 
ATOM     44  C   UNL A   1      46.988  30.956  29.694  1.00  0.00     0.029 A 
ATOM     45  N   UNL A   1      44.768  30.943  29.814  1.00  0.00    -0.354 N 
ATOM     46  N   UNL A   1      42.134  32.092  30.402  1.00  0.00    -0.248 NA
ATOM     47  C   UNL A   1      40.818  33.789  31.325  1.00  0.00     0.031 C 
ATOM     48  C   UNL A   1      46.573  32.133  30.322  1.00  0.00     0.029 A 
ATOM     49  C   UNL A   1      45.188  32.140  30.370  1.00  0.00     0.049 A 
ATOM     50  H   UNL A   1      43.829  30.664  29.717  1.00  0.00     0.167 HD
ATOM     51  C   UNL A   1      42.961  33.100  30.887  1.00  0.00     0.074 A 
ATOM     52  C   UNL A   1      42.095  34.134  31.415  1.00  0.00     0.031 C 
ATOM     53  C   UNL A   1      44.315  33.162  30.893  1.00  0.00     0.031 A 
BRANCH  40  54
ATOM     54  C   UNL A   1      47.093  28.170  28.525  1.00  0.00    -0.014 A 
ATOM     55  C   UNL A   1      47.640  27.237  29.425  1.00  0.00     0.010 A 
ATOM     56  C   UNL A   1      47.746  28.401  27.300  1.00  0.00     0.010 A 
ATOM     57  C   UNL A   1      48.837  26.582  29.126  1.00  0.00     0.020 A 
ATOM     58  C   UNL A   1      48.927  27.722  26.983  1.00  0.00     0.020 A 
ATOM     59  C   UNL A   1      49.474  26.830  27.907  1.00  0.00     0.054 A 
BRANCH  59  60
ATOM     60  S   UNL A   1      51.014  25.946  27.537  1.00  0.00     0.124 S 
ATOM     61  O   UNL A   1      50.542  24.571  27.389  1.00  0.00    -0.237 OA
ATOM     62  O   UNL A   1      51.465  26.590  26.306  1.00  0.00    -0.237 OA
ATOM     63  O   UNL A   1      51.848  26.195  28.710  1.00  0.00    -0.744 OA
ENDBRANCH  59  60
ENDBRANCH  40  54
BRANCH  41  64
ATOM     64  C   UNL A   1      38.304  32.437  30.648  1.00  0.00    -0.014 A 
ATOM     65  C   UNL A   1      37.739  32.246  31.922  1.00  0.00     0.010 A 
ATOM     66  C   UNL A   1      37.620  33.235  29.712  1.00  0.00     0.010 A 
ATOM     67  C   UNL A   1      36.508  32.827  32.246  1.00  0.00     0.020 A 
ATOM     68  C   UNL A   1      36.406  33.843  30.043  1.00  0.00     0.020 A 
ATOM     69  C   UNL A   1      35.852  33.624  31.305  1.00  0.00     0.054 A 
BRANCH  69  70
ATOM     70  S   UNL A   1      34.281  34.406  31.766  1.00  0.00     0.124 S 
ATOM     71  O   UNL A   1      33.604  34.512  30.477  1.00  0.00    -0.237 OA
ATOM     72  O   UNL A   1      33.712  33.440  32.703  1.00  0.00    -0.237 OA
ATOM     73  O   UNL A   1      34.692  35.675  32.364  1.00  0.00    -0.744 OA
ENDBRANCH  69  70
ENDBRANCH  41  64
BRANCH  53  74
ATOM     74  C   UNL A   1      44.955  34.404  31.458  1.00  0.00    -0.014 A 
ATOM     75  C   UNL A   1      45.226  35.519  30.646  1.00  0.00     0.010 A 
ATOM     76  C   UNL A   1      45.223  34.477  32.838  1.00  0.00     0.010 A 
ATOM     77  C   UNL A   1      45.775  36.679  31.202  1.00  0.00     0.020 A 
ATOM     78  C   UNL A   1      45.742  35.645  33.401  1.00  0.00     0.020 A 
ATOM     79  C   UNL A   1      46.024  36.736  32.576  1.00  0.00     0.054 A 
BRANCH  79  80
ATOM     80  S   UNL A   1      46.677  38.276  33.280  1.00  0.00     0.124 S 
ATOM     81  O   UNL A   1      47.928  38.440  32.546  1.00  0.00    -0.237 OA
ATOM     82  O   UNL A   1      45.628  39.242  32.961  1.00  0.00    -0.237 OA
ATOM     83  O   UNL A   1      46.825  37.973  34.702  1.00  0.00    -0.744 OA
ENDBRANCH  79  80
ENDBRANCH  53  74
ENDBRANCH  27  28
ENDBRANCH  19  22
ENDBRANCH  17  18
ENDBRANCH   1  17
TORSDOF 16
ENDMDL
