MODEL 1
REMARK VINA RESULT:     -12.1      0.000      0.000
REMARK SMILES O=C(NCCCNC(=O)c1cc(NC(=S)NC(=O)c2ccccc2F)ccc1Cl)c1ccc(-c2c3nc(c(-c4ccc(S(=O)(=O)[O-])cc4)c4ccc([nH]4)c(-c4ccc(S(=O)(=O)[O-])cc4)c4nc(c(-c5ccc(S(=O)(=O)[O-])cc5)c5ccc2[nH]5)C=C4)C=C3)cc1
REMARK SMILES IDX 5 1 4 2 3 3 1 4 2 5 30 7 31 8 89 9 32 10 88 11 33 12 34 13
REMARK SMILES IDX 35 14 82 15 36 16 87 17 81 18 83 19 37 20 86 21 80 22 79 23
REMARK SMILES IDX 38 25 68 26 49 27 67 28 50 29 53 30 66 31 84 32 51 33 52 34
REMARK SMILES IDX 65 36 85 37 54 38 39 39 40 40 48 41 41 42 47 43 42 44 43 45
REMARK SMILES IDX 44 46 45 47 46 48 69 49 70 50 78 51 71 52 77 53 72 54 73 55
REMARK SMILES IDX 74 56 75 57 76 58 55 59 56 60 64 61 57 62 63 63 58 64 59 65
REMARK SMILES IDX 60 66 61 67 62 68 6 69 7 70 8 71 9 73 10 74 11 75 28 76
REMARK SMILES IDX 12 77 27 78 29 79 26 80 13 81 14 83 15 84 16 85 17 86 18 88
REMARK SMILES IDX 19 89 20 90 24 91 21 92 23 93 25 94 22 95
REMARK H PARENT 3 6 83 24 53 35 7 72 13 82 16 87
REMARK Flexibility Score: inf
ROOT
ATOM      1  C   UNL A   1      38.750  22.692  26.397  1.00  0.00     0.042 C 
ENDROOT
BRANCH   1   2
ATOM      2  C   UNL A   1      39.828  23.615  26.946  1.00  0.00     0.118 C 
BRANCH   2   3
ATOM      3  N   UNL A   1      40.533  24.388  25.927  1.00  0.00    -0.352 N 
ATOM      4  O   UNL A   1      41.555  26.131  24.933  1.00  0.00    -0.269 OA
ATOM      5  C   UNL A   1      41.106  25.639  25.964  1.00  0.00     0.251 C 
ATOM      6  H   UNL A   1      40.612  23.933  25.057  1.00  0.00     0.163 HD
BRANCH   5   7
ATOM      7  C   UNL A   1      41.137  26.412  27.224  1.00  0.00     0.039 A 
ATOM      8  C   UNL A   1      40.545  25.910  28.377  1.00  0.00     0.014 A 
ATOM      9  C   UNL A   1      41.749  27.668  27.248  1.00  0.00     0.014 A 
ATOM     10  C   UNL A   1      40.331  26.751  29.460  1.00  0.00     0.010 A 
ATOM     11  C   UNL A   1      41.662  28.461  28.399  1.00  0.00     0.010 A 
ATOM     12  C   UNL A   1      40.896  28.036  29.493  1.00  0.00    -0.014 A 
BRANCH  12  13
ATOM     13  C   UNL A   1      40.682  28.883  30.697  1.00  0.00     0.031 A 
ATOM     14  C   UNL A   1      41.591  28.783  31.897  1.00  0.00     0.074 A 
ATOM     15  C   UNL A   1      39.693  29.800  30.676  1.00  0.00     0.049 A 
ATOM     16  N   UNL A   1      41.577  29.491  32.998  1.00  0.00    -0.248 NA
ATOM     17  C   UNL A   1      42.642  27.754  31.865  1.00  0.00     0.031 C 
ATOM     18  C   UNL A   1      38.747  29.996  29.570  1.00  0.00     0.029 A 
ATOM     19  N   UNL A   1      39.336  30.763  31.584  1.00  0.00    -0.354 N 
ATOM     20  C   UNL A   1      42.589  28.975  33.801  1.00  0.00     0.074 A 
ATOM     21  C   UNL A   1      43.183  27.876  33.070  1.00  0.00     0.031 C 
ATOM     22  C   UNL A   1      37.977  31.060  29.830  1.00  0.00     0.029 A 
ATOM     23  C   UNL A   1      38.308  31.568  31.155  1.00  0.00     0.049 A 
ATOM     24  H   UNL A   1      39.774  30.868  32.459  1.00  0.00     0.167 HD
ATOM     25  C   UNL A   1      42.987  29.380  35.032  1.00  0.00     0.031 A 
ATOM     26  C   UNL A   1      37.683  32.595  31.760  1.00  0.00     0.031 A 
ATOM     27  C   UNL A   1      42.395  30.480  35.750  1.00  0.00     0.049 A 
ATOM     28  C   UNL A   1      38.127  33.004  33.133  1.00  0.00     0.074 A 
ATOM     29  C   UNL A   1      42.750  30.990  36.987  1.00  0.00     0.029 A 
ATOM     30  N   UNL A   1      41.322  31.237  35.300  1.00  0.00    -0.354 N 
ATOM     31  N   UNL A   1      39.103  32.517  33.862  1.00  0.00    -0.248 NA
ATOM     32  C   UNL A   1      37.389  34.104  33.764  1.00  0.00     0.031 C 
ATOM     33  C   UNL A   1      41.852  32.011  37.313  1.00  0.00     0.029 A 
ATOM     34  C   UNL A   1      40.986  32.192  36.246  1.00  0.00     0.049 A 
ATOM     35  H   UNL A   1      40.868  31.114  34.435  1.00  0.00     0.167 HD
ATOM     36  C   UNL A   1      39.117  33.275  35.026  1.00  0.00     0.074 A 
ATOM     37  C   UNL A   1      38.063  34.259  34.895  1.00  0.00     0.031 C 
ATOM     38  C   UNL A   1      39.931  33.165  36.105  1.00  0.00     0.031 A 
BRANCH  25  39
ATOM     39  C   UNL A   1      44.095  28.604  35.705  1.00  0.00    -0.014 A 
ATOM     40  C   UNL A   1      43.836  27.428  36.431  1.00  0.00     0.010 A 
ATOM     41  C   UNL A   1      45.427  29.038  35.565  1.00  0.00     0.010 A 
ATOM     42  C   UNL A   1      44.882  26.728  37.042  1.00  0.00     0.020 A 
ATOM     43  C   UNL A   1      46.479  28.324  36.149  1.00  0.00     0.020 A 
ATOM     44  C   UNL A   1      46.197  27.183  36.900  1.00  0.00     0.054 A 
BRANCH  44  45
ATOM     45  S   UNL A   1      47.534  26.247  37.693  1.00  0.00     0.124 S 
ATOM     46  O   UNL A   1      47.974  27.173  38.732  1.00  0.00    -0.237 OA
ATOM     47  O   UNL A   1      46.846  25.049  38.171  1.00  0.00    -0.237 OA
ATOM     48  O   UNL A   1      48.491  26.023  36.613  1.00  0.00    -0.744 OA
ENDBRANCH  44  45
ENDBRANCH  25  39
BRANCH  26  49
ATOM     49  C   UNL A   1      36.565  33.294  31.069  1.00  0.00    -0.014 A 
ATOM     50  C   UNL A   1      35.228  33.007  31.395  1.00  0.00     0.010 A 
ATOM     51  C   UNL A   1      36.835  34.270  30.091  1.00  0.00     0.010 A 
ATOM     52  C   UNL A   1      34.183  33.665  30.740  1.00  0.00     0.020 A 
ATOM     53  C   UNL A   1      35.795  34.956  29.461  1.00  0.00     0.020 A 
ATOM     54  C   UNL A   1      34.474  34.639  29.779  1.00  0.00     0.054 A 
BRANCH  54  55
ATOM     55  S   UNL A   1      33.103  35.510  28.974  1.00  0.00     0.124 S 
ATOM     56  O   UNL A   1      32.406  34.420  28.298  1.00  0.00    -0.237 OA
ATOM     57  O   UNL A   1      32.399  36.105  30.107  1.00  0.00    -0.237 OA
ATOM     58  O   UNL A   1      33.773  36.466  28.096  1.00  0.00    -0.744 OA
ENDBRANCH  54  55
ENDBRANCH  26  49
BRANCH  38  59
ATOM     59  C   UNL A   1      39.751  34.176  37.207  1.00  0.00    -0.014 A 
ATOM     60  C   UNL A   1      40.284  35.474  37.113  1.00  0.00     0.010 A 
ATOM     61  C   UNL A   1      39.012  33.819  38.350  1.00  0.00     0.010 A 
ATOM     62  C   UNL A   1      40.122  36.380  38.165  1.00  0.00     0.020 A 
ATOM     63  C   UNL A   1      38.817  34.734  39.388  1.00  0.00     0.020 A 
ATOM     64  C   UNL A   1      39.392  36.003  39.297  1.00  0.00     0.054 A 
BRANCH  64  65
ATOM     65  S   UNL A   1      39.177  37.202  40.639  1.00  0.00     0.124 S 
ATOM     66  O   UNL A   1      38.291  38.188  40.025  1.00  0.00    -0.237 OA
ATOM     67  O   UNL A   1      38.579  36.394  41.699  1.00  0.00    -0.237 OA
ATOM     68  O   UNL A   1      40.535  37.668  40.909  1.00  0.00    -0.744 OA
ENDBRANCH  64  65
ENDBRANCH  38  59
ENDBRANCH  12  13
ENDBRANCH   5   7
ENDBRANCH   2   3
ENDBRANCH   1   2
BRANCH   1  69
ATOM     69  C   UNL A   1      37.558  23.401  25.777  1.00  0.00     0.118 C 
BRANCH  69  70
ATOM     70  N   UNL A   1      37.326  23.082  24.375  1.00  0.00    -0.352 N 
ATOM     71  C   UNL A   1      36.182  23.008  23.613  1.00  0.00     0.252 C 
ATOM     72  H   UNL A   1      38.148  22.880  23.874  1.00  0.00     0.163 HD
ATOM     73  O   UNL A   1      36.342  23.094  22.398  1.00  0.00    -0.269 OA
BRANCH  71  74
ATOM     74  C   UNL A   1      34.802  22.845  24.291  1.00  0.00     0.060 A 
ATOM     75  C   UNL A   1      33.238  24.033  24.766  1.00  0.00     0.041 A 
ATOM     76  C   UNL A   1      34.636  21.121  24.855  1.00  0.00     0.053 A 
ATOM     77  C   UNL A   1      31.798  23.442  25.468  1.00  0.00     0.041 A 
ATOM     78  C   UNL A   1      33.126  20.639  25.675  1.00  0.00     0.023 A 
ATOM     79  Cl  UNL A   1      35.953  20.010  24.936  1.00  0.00    -0.083 Cl
ATOM     80  C   UNL A   1      31.759  21.766  25.956  1.00  0.00     0.028 A 
BRANCH  77  81
ATOM     81  N   UNL A   1      30.719  24.269  25.124  1.00  0.00    -0.332 N 
ATOM     82  H   UNL A   1      29.924  23.795  24.787  1.00  0.00     0.169 HD
BRANCH  81  83
ATOM     83  C   UNL A   1      30.594  25.642  25.184  1.00  0.00     0.177 C 
ATOM     84  S   UNL A   1      30.004  26.382  23.790  1.00  0.00    -0.040 S 
BRANCH  83  85
ATOM     85  N   UNL A   1      30.907  26.530  26.270  1.00  0.00    -0.299 N 
ATOM     86  C   UNL A   1      31.580  27.709  26.923  1.00  0.00     0.260 C 
ATOM     87  H   UNL A   1      30.382  26.151  27.010  1.00  0.00     0.172 HD
ATOM     88  O   UNL A   1      31.533  27.813  28.147  1.00  0.00    -0.269 OA
BRANCH  86  89
ATOM     89  C   UNL A   1      32.425  28.714  26.132  1.00  0.00     0.075 A 
ATOM     90  C   UNL A   1      31.944  30.399  26.559  1.00  0.00     0.017 A 
ATOM     91  C   UNL A   1      34.043  28.110  26.313  1.00  0.00     0.135 A 
ATOM     92  C   UNL A   1      33.020  31.523  27.445  1.00  0.00     0.001 A 
ATOM     93  C   UNL A   1      35.219  29.097  27.198  1.00  0.00     0.040 A 
ATOM     94  F   UNL A   1      34.303  26.805  26.156  1.00  0.00    -0.206 F 
ATOM     95  C   UNL A   1      34.676  30.926  27.883  1.00  0.00     0.003 A 
ENDBRANCH  86  89
ENDBRANCH  83  85
ENDBRANCH  81  83
ENDBRANCH  77  81
ENDBRANCH  71  74
ENDBRANCH  69  70
ENDBRANCH   1  69
TORSDOF 17
ENDMDL
MODEL 2
REMARK VINA RESULT:     -12.0      6.164      8.317
REMARK SMILES O=C(NCCCNC(=O)c1cc(NC(=S)NC(=O)c2ccccc2F)ccc1Cl)c1ccc(-c2c3nc(c(-c4ccc(S(=O)(=O)[O-])cc4)c4ccc([nH]4)c(-c4ccc(S(=O)(=O)[O-])cc4)c4nc(c(-c5ccc(S(=O)(=O)[O-])cc5)c5ccc2[nH]5)C=C4)C=C3)cc1
REMARK SMILES IDX 5 1 4 2 3 3 1 4 2 5 30 7 31 8 89 9 32 10 88 11 33 12 34 13
REMARK SMILES IDX 35 14 82 15 36 16 87 17 81 18 83 19 37 20 86 21 80 22 79 23
REMARK SMILES IDX 38 25 68 26 49 27 67 28 50 29 53 30 66 31 84 32 51 33 52 34
REMARK SMILES IDX 65 36 85 37 54 38 39 39 40 40 48 41 41 42 47 43 42 44 43 45
REMARK SMILES IDX 44 46 45 47 46 48 69 49 70 50 78 51 71 52 77 53 72 54 73 55
REMARK SMILES IDX 74 56 75 57 76 58 55 59 56 60 64 61 57 62 63 63 58 64 59 65
REMARK SMILES IDX 60 66 61 67 62 68 6 69 7 70 8 71 9 73 10 74 11 75 28 76
REMARK SMILES IDX 12 77 27 78 29 79 26 80 13 81 14 83 15 84 16 85 17 86 18 88
REMARK SMILES IDX 19 89 20 90 24 91 21 92 23 93 25 94 22 95
REMARK H PARENT 3 6 83 24 53 35 7 72 13 82 16 87
REMARK Flexibility Score: inf
ROOT
ATOM      1  C   UNL A   1      38.058  21.377  24.897  1.00  0.00     0.042 C 
ENDROOT
BRANCH   1   2
ATOM      2  C   UNL A   1      38.938  21.197  26.125  1.00  0.00     0.118 C 
BRANCH   2   3
ATOM      3  N   UNL A   1      39.851  20.059  26.047  1.00  0.00    -0.352 N 
ATOM      4  O   UNL A   1      41.785  18.911  25.924  1.00  0.00    -0.269 OA
ATOM      5  C   UNL A   1      41.223  19.984  26.130  1.00  0.00     0.251 C 
ATOM      6  H   UNL A   1      39.406  19.192  25.912  1.00  0.00     0.163 HD
BRANCH   5   7
ATOM      7  C   UNL A   1      42.025  21.193  26.412  1.00  0.00     0.039 A 
ATOM      8  C   UNL A   1      42.410  21.501  27.712  1.00  0.00     0.014 A 
ATOM      9  C   UNL A   1      42.381  22.046  25.363  1.00  0.00     0.014 A 
ATOM     10  C   UNL A   1      42.907  22.763  27.999  1.00  0.00     0.010 A 
ATOM     11  C   UNL A   1      43.021  23.259  25.641  1.00  0.00     0.010 A 
ATOM     12  C   UNL A   1      43.232  23.659  26.968  1.00  0.00    -0.014 A 
BRANCH  12  13
ATOM     13  C   UNL A   1      43.810  24.982  27.322  1.00  0.00     0.031 A 
ATOM     14  C   UNL A   1      45.262  25.298  27.061  1.00  0.00     0.074 A 
ATOM     15  C   UNL A   1      42.994  25.932  27.825  1.00  0.00     0.049 A 
ATOM     16  N   UNL A   1      45.905  26.422  27.256  1.00  0.00    -0.248 NA
ATOM     17  C   UNL A   1      46.103  24.216  26.525  1.00  0.00     0.031 C 
ATOM     18  C   UNL A   1      41.568  25.749  28.120  1.00  0.00     0.029 A 
ATOM     19  N   UNL A   1      43.227  27.245  28.143  1.00  0.00    -0.354 N 
ATOM     20  C   UNL A   1      47.227  26.176  26.899  1.00  0.00     0.074 A 
ATOM     21  C   UNL A   1      47.301  24.787  26.499  1.00  0.00     0.031 C 
ATOM     22  C   UNL A   1      41.040  26.921  28.496  1.00  0.00     0.029 A 
ATOM     23  C   UNL A   1      42.101  27.917  28.558  1.00  0.00     0.049 A 
ATOM     24  H   UNL A   1      44.114  27.666  28.080  1.00  0.00     0.167 HD
ATOM     25  C   UNL A   1      48.282  27.028  26.904  1.00  0.00     0.031 A 
ATOM     26  C   UNL A   1      41.935  29.190  28.960  1.00  0.00     0.031 A 
ATOM     27  C   UNL A   1      48.198  28.412  27.297  1.00  0.00     0.049 A 
ATOM     28  C   UNL A   1      43.124  30.104  28.980  1.00  0.00     0.074 A 
ATOM     29  C   UNL A   1      49.201  29.366  27.303  1.00  0.00     0.029 A 
ATOM     30  N   UNL A   1      47.049  29.039  27.758  1.00  0.00    -0.354 N 
ATOM     31  N   UNL A   1      44.360  29.855  28.614  1.00  0.00    -0.248 NA
ATOM     32  C   UNL A   1      42.898  31.470  29.462  1.00  0.00     0.031 C 
ATOM     33  C   UNL A   1      48.675  30.550  27.828  1.00  0.00     0.029 A 
ATOM     34  C   UNL A   1      47.325  30.359  28.077  1.00  0.00     0.049 A 
ATOM     35  H   UNL A   1      46.168  28.609  27.845  1.00  0.00     0.167 HD
ATOM     36  C   UNL A   1      45.052  31.047  28.792  1.00  0.00     0.074 A 
ATOM     37  C   UNL A   1      44.093  32.016  29.283  1.00  0.00     0.031 C 
ATOM     38  C   UNL A   1      46.362  31.314  28.567  1.00  0.00     0.031 A 
BRANCH  25  39
ATOM     39  C   UNL A   1      49.632  26.480  26.508  1.00  0.00    -0.014 A 
ATOM     40  C   UNL A   1      50.087  26.526  25.178  1.00  0.00     0.010 A 
ATOM     41  C   UNL A   1      50.481  25.951  27.499  1.00  0.00     0.010 A 
ATOM     42  C   UNL A   1      51.344  26.013  24.841  1.00  0.00     0.020 A 
ATOM     43  C   UNL A   1      51.751  25.465  27.171  1.00  0.00     0.020 A 
ATOM     44  C   UNL A   1      52.167  25.482  25.840  1.00  0.00     0.054 A 
BRANCH  44  45
ATOM     45  S   UNL A   1      53.798  24.837  25.374  1.00  0.00     0.124 S 
ATOM     46  O   UNL A   1      54.560  25.030  26.604  1.00  0.00    -0.237 OA
ATOM     47  O   UNL A   1      53.505  23.447  25.030  1.00  0.00    -0.237 OA
ATOM     48  O   UNL A   1      54.200  25.682  24.253  1.00  0.00    -0.744 OA
ENDBRANCH  44  45
ENDBRANCH  25  39
BRANCH  26  49
ATOM     49  C   UNL A   1      40.589  29.664  29.385  1.00  0.00    -0.014 A 
ATOM     50  C   UNL A   1      39.596  29.953  28.433  1.00  0.00     0.010 A 
ATOM     51  C   UNL A   1      40.288  29.809  30.752  1.00  0.00     0.010 A 
ATOM     52  C   UNL A   1      38.335  30.399  28.839  1.00  0.00     0.020 A 
ATOM     53  C   UNL A   1      39.018  30.220  31.164  1.00  0.00     0.020 A 
ATOM     54  C   UNL A   1      38.053  30.526  30.203  1.00  0.00     0.054 A 
BRANCH  54  55
ATOM     55  S   UNL A   1      36.398  31.066  30.707  1.00  0.00     0.124 S 
ATOM     56  O   UNL A   1      36.671  32.373  31.297  1.00  0.00    -0.237 OA
ATOM     57  O   UNL A   1      35.672  31.081  29.441  1.00  0.00    -0.237 OA
ATOM     58  O   UNL A   1      35.972  30.031  31.648  1.00  0.00    -0.744 OA
ENDBRANCH  54  55
ENDBRANCH  26  49
BRANCH  38  59
ATOM     59  C   UNL A   1      46.824  32.730  28.795  1.00  0.00    -0.014 A 
ATOM     60  C   UNL A   1      47.339  33.147  30.035  1.00  0.00     0.010 A 
ATOM     61  C   UNL A   1      46.757  33.652  27.735  1.00  0.00     0.010 A 
ATOM     62  C   UNL A   1      47.734  34.474  30.223  1.00  0.00     0.020 A 
ATOM     63  C   UNL A   1      47.184  34.970  27.909  1.00  0.00     0.020 A 
ATOM     64  C   UNL A   1      47.651  35.378  29.159  1.00  0.00     0.054 A 
BRANCH  64  65
ATOM     65  S   UNL A   1      48.190  37.089  29.421  1.00  0.00     0.124 S 
ATOM     66  O   UNL A   1      49.537  36.904  29.955  1.00  0.00    -0.237 OA
ATOM     67  O   UNL A   1      48.118  37.657  28.077  1.00  0.00    -0.237 OA
ATOM     68  O   UNL A   1      47.212  37.620  30.368  1.00  0.00    -0.744 OA
ENDBRANCH  64  65
ENDBRANCH  38  59
ENDBRANCH  12  13
ENDBRANCH   5   7
ENDBRANCH   2   3
ENDBRANCH   1   2
BRANCH   1  69
ATOM     69  C   UNL A   1      36.652  20.818  25.031  1.00  0.00     0.118 C 
BRANCH  69  70
ATOM     70  N   UNL A   1      35.938  21.253  26.223  1.00  0.00    -0.352 N 
ATOM     71  C   UNL A   1      34.723  21.873  26.407  1.00  0.00     0.252 C 
ATOM     72  H   UNL A   1      36.418  21.068  27.062  1.00  0.00     0.163 HD
ATOM     73  O   UNL A   1      34.230  21.763  27.527  1.00  0.00    -0.269 OA
BRANCH  71  74
ATOM     74  C   UNL A   1      34.051  22.635  25.242  1.00  0.00     0.060 A 
ATOM     75  C   UNL A   1      33.961  24.541  24.578  1.00  0.00     0.041 A 
ATOM     76  C   UNL A   1      33.022  21.461  24.302  1.00  0.00     0.053 A 
ATOM     77  C   UNL A   1      33.144  24.992  23.147  1.00  0.00     0.041 A 
ATOM     78  C   UNL A   1      32.124  22.067  22.884  1.00  0.00     0.023 A 
ATOM     79  Cl  UNL A   1      32.605  19.887  24.870  1.00  0.00    -0.083 Cl
ATOM     80  C   UNL A   1      32.200  23.772  22.330  1.00  0.00     0.028 A 
BRANCH  77  81
ATOM     81  N   UNL A   1      33.728  26.145  22.601  1.00  0.00    -0.332 N 
ATOM     82  H   UNL A   1      34.581  25.995  22.133  1.00  0.00     0.169 HD
BRANCH  81  83
ATOM     83  C   UNL A   1      33.295  27.455  22.617  1.00  0.00     0.177 C 
ATOM     84  S   UNL A   1      34.458  28.602  23.032  1.00  0.00    -0.040 S 
BRANCH  83  85
ATOM     85  N   UNL A   1      31.985  27.977  22.337  1.00  0.00    -0.299 N 
ATOM     86  C   UNL A   1      30.553  28.322  22.654  1.00  0.00     0.260 C 
ATOM     87  H   UNL A   1      32.075  28.282  21.406  1.00  0.00     0.172 HD
ATOM     88  O   UNL A   1      29.809  28.658  21.734  1.00  0.00    -0.269 OA
BRANCH  86  89
ATOM     89  C   UNL A   1      29.959  28.153  24.056  1.00  0.00     0.075 A 
ATOM     90  C   UNL A   1      29.560  26.420  24.355  1.00  0.00     0.017 A 
ATOM     91  C   UNL A   1      31.038  29.069  25.063  1.00  0.00     0.135 A 
ATOM     92  C   UNL A   1      30.429  25.414  25.555  1.00  0.00     0.001 A 
ATOM     93  C   UNL A   1      31.994  28.208  26.280  1.00  0.00     0.040 A 
ATOM     94  F   UNL A   1      31.441  30.292  24.691  1.00  0.00    -0.206 F 
ATOM     95  C   UNL A   1      31.736  26.212  26.527  1.00  0.00     0.003 A 
ENDBRANCH  86  89
ENDBRANCH  83  85
ENDBRANCH  81  83
ENDBRANCH  77  81
ENDBRANCH  71  74
ENDBRANCH  69  70
ENDBRANCH   1  69
TORSDOF 17
ENDMDL
MODEL 3
REMARK VINA RESULT:     -11.8      1.568      2.149
REMARK SMILES O=C(NCCCNC(=O)c1cc(NC(=S)NC(=O)c2ccccc2F)ccc1Cl)c1ccc(-c2c3nc(c(-c4ccc(S(=O)(=O)[O-])cc4)c4ccc([nH]4)c(-c4ccc(S(=O)(=O)[O-])cc4)c4nc(c(-c5ccc(S(=O)(=O)[O-])cc5)c5ccc2[nH]5)C=C4)C=C3)cc1
REMARK SMILES IDX 5 1 4 2 3 3 1 4 2 5 30 7 31 8 89 9 32 10 88 11 33 12 34 13
REMARK SMILES IDX 35 14 82 15 36 16 87 17 81 18 83 19 37 20 86 21 80 22 79 23
REMARK SMILES IDX 38 25 68 26 49 27 67 28 50 29 53 30 66 31 84 32 51 33 52 34
REMARK SMILES IDX 65 36 85 37 54 38 39 39 40 40 48 41 41 42 47 43 42 44 43 45
REMARK SMILES IDX 44 46 45 47 46 48 69 49 70 50 78 51 71 52 77 53 72 54 73 55
REMARK SMILES IDX 74 56 75 57 76 58 55 59 56 60 64 61 57 62 63 63 58 64 59 65
REMARK SMILES IDX 60 66 61 67 62 68 6 69 7 70 8 71 9 73 10 74 11 75 28 76
REMARK SMILES IDX 12 77 27 78 29 79 26 80 13 81 14 83 15 84 16 85 17 86 18 88
REMARK SMILES IDX 19 89 20 90 24 91 21 92 23 93 25 94 22 95
REMARK H PARENT 3 6 83 24 53 35 7 72 13 82 16 87
REMARK Flexibility Score: inf
ROOT
ATOM      1  C   UNL A   1      38.260  24.087  26.007  1.00  0.00     0.042 C 
ENDROOT
BRANCH   1   2
ATOM      2  C   UNL A   1      39.477  23.535  26.734  1.00  0.00     0.118 C 
BRANCH   2   3
ATOM      3  N   UNL A   1      40.757  23.955  26.167  1.00  0.00    -0.352 N 
ATOM      4  O   UNL A   1      42.537  25.257  25.713  1.00  0.00    -0.269 OA
ATOM      5  C   UNL A   1      41.539  25.063  26.402  1.00  0.00     0.251 C 
ATOM      6  H   UNL A   1      41.125  23.335  25.497  1.00  0.00     0.163 HD
BRANCH   5   7
ATOM      7  C   UNL A   1      41.156  26.045  27.438  1.00  0.00     0.039 A 
ATOM      8  C   UNL A   1      41.768  27.292  27.493  1.00  0.00     0.014 A 
ATOM      9  C   UNL A   1      40.186  25.706  28.386  1.00  0.00     0.014 A 
ATOM     10  C   UNL A   1      41.612  28.084  28.620  1.00  0.00     0.010 A 
ATOM     11  C   UNL A   1      39.918  26.578  29.449  1.00  0.00     0.010 A 
ATOM     12  C   UNL A   1      40.676  27.746  29.611  1.00  0.00    -0.014 A 
BRANCH  12  13
ATOM     13  C   UNL A   1      40.507  28.652  30.779  1.00  0.00     0.031 A 
ATOM     14  C   UNL A   1      41.430  28.578  31.969  1.00  0.00     0.074 A 
ATOM     15  C   UNL A   1      39.545  29.597  30.730  1.00  0.00     0.049 A 
ATOM     16  N   UNL A   1      41.454  29.334  33.038  1.00  0.00    -0.248 NA
ATOM     17  C   UNL A   1      42.449  27.517  31.969  1.00  0.00     0.031 C 
ATOM     18  C   UNL A   1      38.589  29.773  29.630  1.00  0.00     0.029 A 
ATOM     19  N   UNL A   1      39.231  30.610  31.599  1.00  0.00    -0.354 N 
ATOM     20  C   UNL A   1      42.462  28.824  33.849  1.00  0.00     0.074 A 
ATOM     21  C   UNL A   1      43.012  27.676  33.160  1.00  0.00     0.031 C 
ATOM     22  C   UNL A   1      37.855  30.870  29.852  1.00  0.00     0.029 A 
ATOM     23  C   UNL A   1      38.221  31.426  31.148  1.00  0.00     0.049 A 
ATOM     24  H   UNL A   1      39.685  30.740  32.463  1.00  0.00     0.167 HD
ATOM     25  C   UNL A   1      42.891  29.270  35.055  1.00  0.00     0.031 A 
ATOM     26  C   UNL A   1      37.636  32.498  31.715  1.00  0.00     0.031 A 
ATOM     27  C   UNL A   1      42.343  30.419  35.731  1.00  0.00     0.049 A 
ATOM     28  C   UNL A   1      38.113  32.954  33.062  1.00  0.00     0.074 A 
ATOM     29  C   UNL A   1      42.731  30.972  36.939  1.00  0.00     0.029 A 
ATOM     30  N   UNL A   1      41.287  31.188  35.262  1.00  0.00    -0.354 N 
ATOM     31  N   UNL A   1      39.085  32.470  33.799  1.00  0.00    -0.248 NA
ATOM     32  C   UNL A   1      37.419  34.102  33.653  1.00  0.00     0.031 C 
ATOM     33  C   UNL A   1      41.869  32.034  37.231  1.00  0.00     0.029 A 
ATOM     34  C   UNL A   1      40.993  32.193  36.169  1.00  0.00     0.049 A 
ATOM     35  H   UNL A   1      40.816  31.040  34.410  1.00  0.00     0.167 HD
ATOM     36  C   UNL A   1      39.139  33.278  34.928  1.00  0.00     0.074 A 
ATOM     37  C   UNL A   1      38.113  34.288  34.767  1.00  0.00     0.031 C 
ATOM     38  C   UNL A   1      39.966  33.192  35.999  1.00  0.00     0.031 A 
BRANCH  25  39
ATOM     39  C   UNL A   1      43.984  28.491  35.747  1.00  0.00    -0.014 A 
ATOM     40  C   UNL A   1      45.343  28.808  35.568  1.00  0.00     0.010 A 
ATOM     41  C   UNL A   1      43.639  27.451  36.630  1.00  0.00     0.010 A 
ATOM     42  C   UNL A   1      46.335  28.070  36.224  1.00  0.00     0.020 A 
ATOM     43  C   UNL A   1      44.626  26.731  37.312  1.00  0.00     0.020 A 
ATOM     44  C   UNL A   1      45.969  27.034  37.089  1.00  0.00     0.054 A 
BRANCH  44  45
ATOM     45  S   UNL A   1      47.277  26.104  37.936  1.00  0.00     0.124 S 
ATOM     46  O   UNL A   1      46.717  25.949  39.276  1.00  0.00    -0.237 OA
ATOM     47  O   UNL A   1      47.361  24.878  37.146  1.00  0.00    -0.237 OA
ATOM     48  O   UNL A   1      48.442  26.981  37.847  1.00  0.00    -0.744 OA
ENDBRANCH  44  45
ENDBRANCH  25  39
BRANCH  26  49
ATOM     49  C   UNL A   1      36.530  33.199  31.008  1.00  0.00    -0.014 A 
ATOM     50  C   UNL A   1      35.236  33.236  31.558  1.00  0.00     0.010 A 
ATOM     51  C   UNL A   1      36.771  33.855  29.786  1.00  0.00     0.010 A 
ATOM     52  C   UNL A   1      34.202  33.895  30.888  1.00  0.00     0.020 A 
ATOM     53  C   UNL A   1      35.748  34.545  29.132  1.00  0.00     0.020 A 
ATOM     54  C   UNL A   1      34.465  34.548  29.680  1.00  0.00     0.054 A 
BRANCH  54  55
ATOM     55  S   UNL A   1      33.117  35.432  28.851  1.00  0.00     0.124 S 
ATOM     56  O   UNL A   1      32.353  35.950  29.982  1.00  0.00    -0.237 OA
ATOM     57  O   UNL A   1      33.833  36.428  28.060  1.00  0.00    -0.237 OA
ATOM     58  O   UNL A   1      32.452  34.389  28.072  1.00  0.00    -0.744 OA
ENDBRANCH  54  55
ENDBRANCH  26  49
BRANCH  38  59
ATOM     59  C   UNL A   1      39.833  34.255  37.057  1.00  0.00    -0.014 A 
ATOM     60  C   UNL A   1      39.063  34.050  38.216  1.00  0.00     0.010 A 
ATOM     61  C   UNL A   1      40.512  35.476  36.892  1.00  0.00     0.010 A 
ATOM     62  C   UNL A   1      38.937  35.067  39.167  1.00  0.00     0.020 A 
ATOM     63  C   UNL A   1      40.417  36.481  37.858  1.00  0.00     0.020 A 
ATOM     64  C   UNL A   1      39.613  36.278  38.980  1.00  0.00     0.054 A 
BRANCH  64  65
ATOM     65  S   UNL A   1      39.451  37.573  40.237  1.00  0.00     0.124 S 
ATOM     66  O   UNL A   1      40.822  38.065  40.343  1.00  0.00    -0.237 OA
ATOM     67  O   UNL A   1      38.497  38.495  39.626  1.00  0.00    -0.237 OA
ATOM     68  O   UNL A   1      38.954  36.858  41.410  1.00  0.00    -0.744 OA
ENDBRANCH  64  65
ENDBRANCH  38  59
ENDBRANCH  12  13
ENDBRANCH   5   7
ENDBRANCH   2   3
ENDBRANCH   1   2
BRANCH   1  69
ATOM     69  C   UNL A   1      36.942  23.433  26.382  1.00  0.00     0.118 C 
BRANCH  69  70
ATOM     70  N   UNL A   1      36.869  22.007  26.094  1.00  0.00    -0.352 N 
ATOM     71  C   UNL A   1      36.150  21.277  25.174  1.00  0.00     0.252 C 
ATOM     72  H   UNL A   1      37.447  21.457  26.669  1.00  0.00     0.163 HD
ATOM     73  O   UNL A   1      36.586  20.156  24.922  1.00  0.00    -0.269 OA
BRANCH  71  74
ATOM     74  C   UNL A   1      34.890  21.880  24.512  1.00  0.00     0.060 A 
ATOM     75  C   UNL A   1      34.477  23.327  23.164  1.00  0.00     0.041 A 
ATOM     76  C   UNL A   1      33.420  21.087  25.239  1.00  0.00     0.053 A 
ATOM     77  C   UNL A   1      32.897  23.658  22.605  1.00  0.00     0.041 A 
ATOM     78  C   UNL A   1      31.810  21.588  24.655  1.00  0.00     0.023 A 
ATOM     79  Cl  UNL A   1      33.462  20.122  26.668  1.00  0.00    -0.083 Cl
ATOM     80  C   UNL A   1      31.571  22.823  23.375  1.00  0.00     0.028 A 
BRANCH  77  81
ATOM     81  N   UNL A   1      32.945  24.199  21.313  1.00  0.00    -0.332 N 
ATOM     82  H   UNL A   1      33.294  23.591  20.622  1.00  0.00     0.169 HD
BRANCH  81  83
ATOM     83  C   UNL A   1      32.581  25.450  20.857  1.00  0.00     0.177 C 
ATOM     84  S   UNL A   1      32.362  25.584  19.191  1.00  0.00    -0.040 S 
BRANCH  83  85
ATOM     85  N   UNL A   1      32.372  26.658  21.606  1.00  0.00    -0.299 N 
ATOM     86  C   UNL A   1      32.385  27.524  22.839  1.00  0.00     0.260 C 
ATOM     87  H   UNL A   1      32.014  27.270  20.923  1.00  0.00     0.172 HD
ATOM     88  O   UNL A   1      31.804  28.607  22.807  1.00  0.00    -0.269 OA
BRANCH  86  89
ATOM     89  C   UNL A   1      32.989  27.052  24.166  1.00  0.00     0.075 A 
ATOM     90  C   UNL A   1      34.104  28.309  24.821  1.00  0.00     0.017 A 
ATOM     91  C   UNL A   1      31.615  26.449  25.041  1.00  0.00     0.135 A 
ATOM     92  C   UNL A   1      33.759  29.234  26.315  1.00  0.00     0.001 A 
ATOM     93  C   UNL A   1      31.127  27.282  26.527  1.00  0.00     0.040 A 
ATOM     94  F   UNL A   1      30.719  25.656  24.437  1.00  0.00    -0.206 F 
ATOM     95  C   UNL A   1      32.232  28.840  27.210  1.00  0.00     0.003 A 
ENDBRANCH  86  89
ENDBRANCH  83  85
ENDBRANCH  81  83
ENDBRANCH  77  81
ENDBRANCH  71  74
ENDBRANCH  69  70
ENDBRANCH   1  69
TORSDOF 17
ENDMDL
