MODEL 1
REMARK VINA RESULT:     -10.9      0.000      0.000
REMARK SMILES COc1ccc(/C=C2/SC(=S)N([C@H](C)C(=O)NCCCNC(=O)c3ccc(-c4c5nc(c(-c6ccc(S(=O)(=O)[O-])cc6)c6ccc([nH]6)c(-c6ccc(S(=O)(=O)[O-])cc6)c6nc(c(-c7ccc(S(=O)(=O)[O-])cc7)c7ccc4[nH]7)C=C6)C=C5)cc3)C2=O)cc1OC
REMARK SMILES IDX 19 1 18 2 17 3 15 4 16 5 13 7 14 8 12 9 7 10 8 11 9 12 84 13
REMARK SMILES IDX 10 14 85 15 11 16 6 17 3 18 4 19 87 20 5 21 86 22 2 23 1 24
REMARK SMILES IDX 88 25 89 26 20 27 21 28 22 29 23 31 24 32 25 33 83 34 26 35
REMARK SMILES IDX 82 36 27 37 28 38 29 39 76 40 30 41 81 42 75 43 77 44 31 45
REMARK SMILES IDX 80 46 74 47 73 48 32 50 62 51 43 52 61 53 44 54 47 55 60 56
REMARK SMILES IDX 78 57 45 58 46 59 59 61 79 62 48 63 33 64 34 65 42 66 35 67
REMARK SMILES IDX 41 68 36 69 37 70 38 71 39 72 40 73 63 74 64 75 72 76 65 77
REMARK SMILES IDX 71 78 66 79 67 80 68 81 69 82 70 83 49 84 50 85 58 86 51 87
REMARK SMILES IDX 57 88 52 89 53 90 54 91 55 92 56 93
REMARK H PARENT 17 6 21 30 77 49 47 60
REMARK Flexibility Score: inf
ROOT
ATOM      1  C   UNL A   1      32.748  28.214  25.666  1.00  0.00     0.042 C 
ENDROOT
BRANCH   1   2
ATOM      2  C   UNL A   1      32.713  28.973  24.346  1.00  0.00     0.117 C 
BRANCH   2   3
ATOM      3  N   UNL A   1      33.498  28.317  23.317  1.00  0.00    -0.354 N 
ATOM      4  C   UNL A   1      33.172  27.348  22.418  1.00  0.00     0.242 C 
ATOM      5  O   UNL A   1      34.103  26.822  21.798  1.00  0.00    -0.273 OA
ATOM      6  H   UNL A   1      34.431  28.626  23.259  1.00  0.00     0.163 HD
BRANCH   4   7
ATOM      7  C   UNL A   1      31.737  26.801  22.275  1.00  0.00     0.178 C 
ATOM      8  C   UNL A   1      31.768  25.920  21.012  1.00  0.00     0.042 C 
BRANCH   7   9
ATOM      9  N   UNL A   1      31.234  26.149  23.511  1.00  0.00    -0.281 N 
ATOM     10  C   UNL A   1      31.780  23.762  26.202  1.00  0.00     0.029 C 
ATOM     11  C   UNL A   1      31.264  24.625  25.313  1.00  0.00     0.081 C 
ATOM     12  S   UNL A   1      29.833  25.533  25.597  1.00  0.00    -0.054 SA
ATOM     13  C   UNL A   1      31.795  24.974  23.971  1.00  0.00     0.266 C 
ATOM     14  C   UNL A   1      30.011  26.439  24.094  1.00  0.00     0.149 C 
ATOM     15  O   UNL A   1      32.542  24.233  23.333  1.00  0.00    -0.268 OA
ATOM     16  S   UNL A   1      28.807  27.469  23.576  1.00  0.00    -0.052 S 
BRANCH  10  17
ATOM     17  C   UNL A   1      33.016  22.995  26.014  1.00  0.00    -0.020 A 
ATOM     18  C   UNL A   1      35.389  21.523  25.718  1.00  0.00     0.160 A 
ATOM     19  C   UNL A   1      35.415  22.821  26.247  1.00  0.00     0.051 A 
ATOM     20  C   UNL A   1      34.171  20.942  25.348  1.00  0.00     0.161 A 
ATOM     21  C   UNL A   1      34.238  23.560  26.384  1.00  0.00     0.012 A 
ATOM     22  C   UNL A   1      32.998  21.702  25.477  1.00  0.00     0.058 A 
BRANCH  18  23
ATOM     23  O   UNL A   1      36.567  20.830  25.670  1.00  0.00    -0.493 OA
ATOM     24  C   UNL A   1      37.470  21.358  24.697  1.00  0.00     0.278 C 
ENDBRANCH  18  23
BRANCH  20  25
ATOM     25  O   UNL A   1      33.929  19.690  24.852  1.00  0.00    -0.493 OA
ATOM     26  C   UNL A   1      32.616  19.370  24.419  1.00  0.00     0.278 C 
ENDBRANCH  20  25
ENDBRANCH  10  17
ENDBRANCH   7   9
ENDBRANCH   4   7
ENDBRANCH   2   3
ENDBRANCH   1   2
BRANCH   1  27
ATOM     27  C   UNL A   1      33.894  28.603  26.597  1.00  0.00     0.118 C 
BRANCH  27  28
ATOM     28  N   UNL A   1      33.790  29.971  27.083  1.00  0.00    -0.352 N 
ATOM     29  C   UNL A   1      34.648  30.692  27.878  1.00  0.00     0.251 C 
ATOM     30  H   UNL A   1      32.982  30.455  26.796  1.00  0.00     0.163 HD
ATOM     31  O   UNL A   1      34.292  31.786  28.310  1.00  0.00    -0.269 OA
BRANCH  29  32
ATOM     32  C   UNL A   1      35.981  30.155  28.236  1.00  0.00     0.039 A 
ATOM     33  C   UNL A   1      36.995  30.171  27.274  1.00  0.00     0.014 A 
ATOM     34  C   UNL A   1      36.230  29.613  29.501  1.00  0.00     0.014 A 
ATOM     35  C   UNL A   1      38.274  29.709  27.599  1.00  0.00     0.010 A 
ATOM     36  C   UNL A   1      37.520  29.214  29.844  1.00  0.00     0.010 A 
ATOM     37  C   UNL A   1      38.556  29.258  28.899  1.00  0.00    -0.014 A 
BRANCH  37  38
ATOM     38  C   UNL A   1      39.927  28.838  29.291  1.00  0.00     0.031 A 
ATOM     39  C   UNL A   1      40.855  29.812  29.966  1.00  0.00     0.074 A 
ATOM     40  C   UNL A   1      40.368  27.607  28.961  1.00  0.00     0.049 A 
ATOM     41  N   UNL A   1      42.111  29.659  30.295  1.00  0.00    -0.248 NA
ATOM     42  C   UNL A   1      40.308  31.141  30.289  1.00  0.00     0.031 C 
ATOM     43  C   UNL A   1      39.590  26.586  28.253  1.00  0.00     0.029 A 
ATOM     44  N   UNL A   1      41.588  27.010  29.160  1.00  0.00    -0.354 N 
ATOM     45  C   UNL A   1      42.517  30.878  30.826  1.00  0.00     0.074 A 
ATOM     46  C   UNL A   1      41.379  31.769  30.757  1.00  0.00     0.031 C 
ATOM     47  C   UNL A   1      40.349  25.492  28.083  1.00  0.00     0.029 A 
ATOM     48  C   UNL A   1      41.675  25.740  28.640  1.00  0.00     0.049 A 
ATOM     49  H   UNL A   1      42.332  27.452  29.630  1.00  0.00     0.167 HD
ATOM     50  C   UNL A   1      43.724  31.223  31.335  1.00  0.00     0.031 A 
ATOM     51  C   UNL A   1      42.707  24.875  28.604  1.00  0.00     0.031 A 
ATOM     52  C   UNL A   1      44.842  30.325  31.448  1.00  0.00     0.049 A 
ATOM     53  C   UNL A   1      44.019  25.265  29.225  1.00  0.00     0.074 A 
ATOM     54  C   UNL A   1      46.072  30.556  32.038  1.00  0.00     0.029 A 
ATOM     55  N   UNL A   1      44.866  29.026  30.967  1.00  0.00    -0.354 N 
ATOM     56  N   UNL A   1      44.353  26.396  29.800  1.00  0.00    -0.248 NA
ATOM     57  C   UNL A   1      45.090  24.259  29.203  1.00  0.00     0.031 C 
ATOM     58  C   UNL A   1      46.854  29.407  31.885  1.00  0.00     0.029 A 
ATOM     59  C   UNL A   1      46.096  28.449  31.232  1.00  0.00     0.049 A 
ATOM     60  H   UNL A   1      44.120  28.580  30.506  1.00  0.00     0.167 HD
ATOM     61  C   UNL A   1      45.665  26.227  30.229  1.00  0.00     0.074 A 
ATOM     62  C   UNL A   1      46.059  24.883  29.860  1.00  0.00     0.031 C 
ATOM     63  C   UNL A   1      46.470  27.108  30.870  1.00  0.00     0.031 A 
BRANCH  50  64
ATOM     64  C   UNL A   1      43.907  32.635  31.816  1.00  0.00    -0.014 A 
ATOM     65  C   UNL A   1      44.402  33.635  30.959  1.00  0.00     0.010 A 
ATOM     66  C   UNL A   1      43.508  32.983  33.119  1.00  0.00     0.010 A 
ATOM     67  C   UNL A   1      44.517  34.953  31.406  1.00  0.00     0.020 A 
ATOM     68  C   UNL A   1      43.602  34.305  33.563  1.00  0.00     0.020 A 
ATOM     69  C   UNL A   1      44.118  35.280  32.707  1.00  0.00     0.054 A 
BRANCH  69  70
ATOM     70  S   UNL A   1      44.230  37.008  33.246  1.00  0.00     0.124 S 
ATOM     71  O   UNL A   1      43.698  37.720  32.087  1.00  0.00    -0.237 OA
ATOM     72  O   UNL A   1      43.386  37.030  34.438  1.00  0.00    -0.237 OA
ATOM     73  O   UNL A   1      45.657  37.201  33.495  1.00  0.00    -0.744 OA
ENDBRANCH  69  70
ENDBRANCH  50  64
BRANCH  51  74
ATOM     74  C   UNL A   1      42.545  23.547  27.954  1.00  0.00    -0.014 A 
ATOM     75  C   UNL A   1      42.029  22.456  28.676  1.00  0.00     0.010 A 
ATOM     76  C   UNL A   1      42.920  23.365  26.611  1.00  0.00     0.010 A 
ATOM     77  C   UNL A   1      41.918  21.200  28.075  1.00  0.00     0.020 A 
ATOM     78  C   UNL A   1      42.787  22.115  25.999  1.00  0.00     0.020 A 
ATOM     79  C   UNL A   1      42.302  21.036  26.742  1.00  0.00     0.054 A 
BRANCH  79  80
ATOM     80  S   UNL A   1      42.120  19.407  25.963  1.00  0.00     0.124 S 
ATOM     81  O   UNL A   1      42.625  18.517  27.002  1.00  0.00    -0.237 OA
ATOM     82  O   UNL A   1      40.683  19.332  25.707  1.00  0.00    -0.237 OA
ATOM     83  O   UNL A   1      42.952  19.510  24.765  1.00  0.00    -0.744 OA
ENDBRANCH  79  80
ENDBRANCH  51  74
BRANCH  63  84
ATOM     84  C   UNL A   1      47.846  26.637  31.247  1.00  0.00    -0.014 A 
ATOM     85  C   UNL A   1      48.100  26.078  32.511  1.00  0.00     0.010 A 
ATOM     86  C   UNL A   1      48.887  26.706  30.303  1.00  0.00     0.010 A 
ATOM     87  C   UNL A   1      49.379  25.619  32.834  1.00  0.00     0.020 A 
ATOM     88  C   UNL A   1      50.162  26.229  30.615  1.00  0.00     0.020 A 
ATOM     89  C   UNL A   1      50.403  25.699  31.884  1.00  0.00     0.054 A 
BRANCH  89  90
ATOM     90  S   UNL A   1      52.046  25.055  32.307  1.00  0.00     0.124 S 
ATOM     91  O   UNL A   1      51.833  23.613  32.235  1.00  0.00    -0.237 OA
ATOM     92  O   UNL A   1      52.895  25.619  31.260  1.00  0.00    -0.237 OA
ATOM     93  O   UNL A   1      52.288  25.584  33.648  1.00  0.00    -0.744 OA
ENDBRANCH  89  90
ENDBRANCH  63  84
ENDBRANCH  37  38
ENDBRANCH  29  32
ENDBRANCH  27  28
ENDBRANCH   1  27
TORSDOF 17
ENDMDL
MODEL 2
REMARK VINA RESULT:     -10.6      3.685      9.455
REMARK SMILES COc1ccc(/C=C2/SC(=S)N([C@H](C)C(=O)NCCCNC(=O)c3ccc(-c4c5nc(c(-c6ccc(S(=O)(=O)[O-])cc6)c6ccc([nH]6)c(-c6ccc(S(=O)(=O)[O-])cc6)c6nc(c(-c7ccc(S(=O)(=O)[O-])cc7)c7ccc4[nH]7)C=C6)C=C5)cc3)C2=O)cc1OC
REMARK SMILES IDX 19 1 18 2 17 3 15 4 16 5 13 7 14 8 12 9 7 10 8 11 9 12 84 13
REMARK SMILES IDX 10 14 85 15 11 16 6 17 3 18 4 19 87 20 5 21 86 22 2 23 1 24
REMARK SMILES IDX 88 25 89 26 20 27 21 28 22 29 23 31 24 32 25 33 83 34 26 35
REMARK SMILES IDX 82 36 27 37 28 38 29 39 76 40 30 41 81 42 75 43 77 44 31 45
REMARK SMILES IDX 80 46 74 47 73 48 32 50 62 51 43 52 61 53 44 54 47 55 60 56
REMARK SMILES IDX 78 57 45 58 46 59 59 61 79 62 48 63 33 64 34 65 42 66 35 67
REMARK SMILES IDX 41 68 36 69 37 70 38 71 39 72 40 73 63 74 64 75 72 76 65 77
REMARK SMILES IDX 71 78 66 79 67 80 68 81 69 82 70 83 49 84 50 85 58 86 51 87
REMARK SMILES IDX 57 88 52 89 53 90 54 91 55 92 56 93
REMARK H PARENT 17 6 21 30 77 49 47 60
REMARK Flexibility Score: inf
ROOT
ATOM      1  C   UNL A   1      37.994  19.973  24.891  1.00  0.00     0.042 C 
ENDROOT
BRANCH   1   2
ATOM      2  C   UNL A   1      37.027  21.027  24.365  1.00  0.00     0.117 C 
BRANCH   2   3
ATOM      3  N   UNL A   1      36.836  22.113  25.308  1.00  0.00    -0.354 N 
ATOM      4  C   UNL A   1      35.785  22.433  26.111  1.00  0.00     0.242 C 
ATOM      5  O   UNL A   1      35.813  23.541  26.657  1.00  0.00    -0.273 OA
ATOM      6  H   UNL A   1      37.602  22.729  25.377  1.00  0.00     0.163 HD
BRANCH   4   7
ATOM      7  C   UNL A   1      34.532  21.541  26.227  1.00  0.00     0.178 C 
ATOM      8  C   UNL A   1      33.955  21.840  27.623  1.00  0.00     0.042 C 
BRANCH   7   9
ATOM      9  N   UNL A   1      33.593  21.701  25.087  1.00  0.00    -0.281 N 
ATOM     10  C   UNL A   1      31.516  23.899  23.064  1.00  0.00     0.029 C 
ATOM     11  C   UNL A   1      32.102  22.851  23.664  1.00  0.00     0.081 C 
ATOM     12  S   UNL A   1      32.157  21.277  22.977  1.00  0.00    -0.054 SA
ATOM     13  C   UNL A   1      32.803  22.828  24.973  1.00  0.00     0.266 C 
ATOM     14  C   UNL A   1      33.184  20.659  24.272  1.00  0.00     0.149 C 
ATOM     15  O   UNL A   1      32.594  23.655  25.859  1.00  0.00    -0.268 OA
ATOM     16  S   UNL A   1      33.539  19.033  24.370  1.00  0.00    -0.052 S 
BRANCH  10  17
ATOM     17  C   UNL A   1      31.478  25.264  23.598  1.00  0.00    -0.020 A 
ATOM     18  C   UNL A   1      31.407  27.855  24.679  1.00  0.00     0.160 A 
ATOM     19  C   UNL A   1      30.328  26.977  24.856  1.00  0.00     0.051 A 
ATOM     20  C   UNL A   1      32.540  27.439  23.973  1.00  0.00     0.161 A 
ATOM     21  C   UNL A   1      30.356  25.692  24.309  1.00  0.00     0.012 A 
ATOM     22  C   UNL A   1      32.548  26.150  23.416  1.00  0.00     0.058 A 
BRANCH  18  23
ATOM     23  O   UNL A   1      31.344  29.075  25.293  1.00  0.00    -0.493 OA
ATOM     24  C   UNL A   1      31.815  29.032  26.641  1.00  0.00     0.278 C 
ENDBRANCH  18  23
BRANCH  20  25
ATOM     25  O   UNL A   1      33.699  28.121  23.722  1.00  0.00    -0.493 OA
ATOM     26  C   UNL A   1      33.986  28.512  22.388  1.00  0.00     0.278 C 
ENDBRANCH  20  25
ENDBRANCH  10  17
ENDBRANCH   7   9
ENDBRANCH   4   7
ENDBRANCH   2   3
ENDBRANCH   1   2
BRANCH   1  27
ATOM     27  C   UNL A   1      39.130  20.521  25.752  1.00  0.00     0.118 C 
BRANCH  27  28
ATOM     28  N   UNL A   1      40.116  19.509  26.099  1.00  0.00    -0.352 N 
ATOM     29  C   UNL A   1      41.451  19.645  26.400  1.00  0.00     0.251 C 
ATOM     30  H   UNL A   1      39.775  18.586  26.124  1.00  0.00     0.163 HD
ATOM     31  O   UNL A   1      42.148  18.639  26.504  1.00  0.00    -0.269 OA
BRANCH  29  32
ATOM     32  C   UNL A   1      42.056  20.985  26.572  1.00  0.00     0.039 A 
ATOM     33  C   UNL A   1      42.389  21.725  25.434  1.00  0.00     0.014 A 
ATOM     34  C   UNL A   1      42.322  21.504  27.843  1.00  0.00     0.014 A 
ATOM     35  C   UNL A   1      42.921  23.011  25.568  1.00  0.00     0.010 A 
ATOM     36  C   UNL A   1      42.792  22.810  27.976  1.00  0.00     0.010 A 
ATOM     37  C   UNL A   1      43.097  23.578  26.841  1.00  0.00    -0.014 A 
BRANCH  37  38
ATOM     38  C   UNL A   1      43.585  24.971  27.007  1.00  0.00     0.031 A 
ATOM     39  C   UNL A   1      45.030  25.306  26.748  1.00  0.00     0.074 A 
ATOM     40  C   UNL A   1      42.748  25.920  27.475  1.00  0.00     0.049 A 
ATOM     41  N   UNL A   1      45.658  26.438  26.930  1.00  0.00    -0.248 NA
ATOM     42  C   UNL A   1      45.887  24.218  26.245  1.00  0.00     0.031 C 
ATOM     43  C   UNL A   1      41.339  25.715  27.822  1.00  0.00     0.029 A 
ATOM     44  N   UNL A   1      42.967  27.245  27.761  1.00  0.00    -0.354 N 
ATOM     45  C   UNL A   1      46.986  26.193  26.604  1.00  0.00     0.074 A 
ATOM     46  C   UNL A   1      47.080  24.798  26.232  1.00  0.00     0.031 C 
ATOM     47  C   UNL A   1      40.822  26.872  28.267  1.00  0.00     0.029 A 
ATOM     48  C   UNL A   1      41.865  27.892  28.267  1.00  0.00     0.049 A 
ATOM     49  H   UNL A   1      43.834  27.690  27.617  1.00  0.00     0.167 HD
ATOM     50  C   UNL A   1      48.033  27.053  26.603  1.00  0.00     0.031 A 
ATOM     51  C   UNL A   1      41.711  29.160  28.695  1.00  0.00     0.031 A 
ATOM     52  C   UNL A   1      47.933  28.451  26.926  1.00  0.00     0.049 A 
ATOM     53  C   UNL A   1      42.877  30.107  28.632  1.00  0.00     0.074 A 
ATOM     54  C   UNL A   1      48.919  29.420  26.859  1.00  0.00     0.029 A 
ATOM     55  N   UNL A   1      46.782  29.080  27.372  1.00  0.00    -0.354 N 
ATOM     56  N   UNL A   1      44.105  29.873  28.237  1.00  0.00    -0.248 NA
ATOM     57  C   UNL A   1      42.633  31.492  29.061  1.00  0.00     0.031 C 
ATOM     58  C   UNL A   1      48.373  30.631  27.297  1.00  0.00     0.029 A 
ATOM     59  C   UNL A   1      47.038  30.422  27.600  1.00  0.00     0.049 A 
ATOM     60  H   UNL A   1      45.913  28.639  27.506  1.00  0.00     0.167 HD
ATOM     61  C   UNL A   1      44.773  31.088  28.347  1.00  0.00     0.074 A 
ATOM     62  C   UNL A   1      43.812  32.056  28.833  1.00  0.00     0.031 C 
ATOM     63  C   UNL A   1      46.069  31.375  28.072  1.00  0.00     0.031 A 
BRANCH  50  64
ATOM     64  C   UNL A   1      49.387  26.512  26.237  1.00  0.00    -0.014 A 
ATOM     65  C   UNL A   1      49.972  26.801  24.992  1.00  0.00     0.010 A 
ATOM     66  C   UNL A   1      50.116  25.767  27.182  1.00  0.00     0.010 A 
ATOM     67  C   UNL A   1      51.253  26.334  24.688  1.00  0.00     0.020 A 
ATOM     68  C   UNL A   1      51.406  25.316  26.890  1.00  0.00     0.020 A 
ATOM     69  C   UNL A   1      51.962  25.593  25.640  1.00  0.00     0.054 A 
BRANCH  69  70
ATOM     70  S   UNL A   1      53.643  25.041  25.240  1.00  0.00     0.124 S 
ATOM     71  O   UNL A   1      53.825  25.583  23.896  1.00  0.00    -0.237 OA
ATOM     72  O   UNL A   1      54.447  25.672  26.284  1.00  0.00    -0.237 OA
ATOM     73  O   UNL A   1      53.557  23.585  25.320  1.00  0.00    -0.744 OA
ENDBRANCH  69  70
ENDBRANCH  50  64
BRANCH  51  74
ATOM     74  C   UNL A   1      40.398  29.615  29.225  1.00  0.00    -0.014 A 
ATOM     75  C   UNL A   1      39.369  30.002  28.348  1.00  0.00     0.010 A 
ATOM     76  C   UNL A   1      40.176  29.675  30.612  1.00  0.00     0.010 A 
ATOM     77  C   UNL A   1      38.151  30.468  28.850  1.00  0.00     0.020 A 
ATOM     78  C   UNL A   1      38.950  30.119  31.117  1.00  0.00     0.020 A 
ATOM     79  C   UNL A   1      37.951  30.529  30.232  1.00  0.00     0.054 A 
BRANCH  79  80
ATOM     80  S   UNL A   1      36.352  31.104  30.869  1.00  0.00     0.124 S 
ATOM     81  O   UNL A   1      35.562  31.214  29.648  1.00  0.00    -0.237 OA
ATOM     82  O   UNL A   1      35.965  30.029  31.781  1.00  0.00    -0.237 OA
ATOM     83  O   UNL A   1      36.684  32.370  31.520  1.00  0.00    -0.744 OA
ENDBRANCH  79  80
ENDBRANCH  51  74
BRANCH  63  84
ATOM     84  C   UNL A   1      46.515  32.797  28.254  1.00  0.00    -0.014 A 
ATOM     85  C   UNL A   1      46.333  33.750  27.236  1.00  0.00     0.010 A 
ATOM     86  C   UNL A   1      47.074  33.198  29.481  1.00  0.00     0.010 A 
ATOM     87  C   UNL A   1      46.728  35.075  27.434  1.00  0.00     0.020 A 
ATOM     88  C   UNL A   1      47.450  34.528  29.689  1.00  0.00     0.020 A 
ATOM     89  C   UNL A   1      47.286  35.455  28.659  1.00  0.00     0.054 A 
BRANCH  89  90
ATOM     90  S   UNL A   1      47.750  37.191  28.912  1.00  0.00     0.124 S 
ATOM     91  O   UNL A   1      47.747  37.296  30.368  1.00  0.00    -0.237 OA
ATOM     92  O   UNL A   1      49.064  37.272  28.278  1.00  0.00    -0.237 OA
ATOM     93  O   UNL A   1      46.690  37.932  28.231  1.00  0.00    -0.744 OA
ENDBRANCH  89  90
ENDBRANCH  63  84
ENDBRANCH  37  38
ENDBRANCH  29  32
ENDBRANCH  27  28
ENDBRANCH   1  27
TORSDOF 17
ENDMDL
MODEL 3
REMARK VINA RESULT:     -10.5      4.105      5.308
REMARK SMILES COc1ccc(/C=C2/SC(=S)N([C@H](C)C(=O)NCCCNC(=O)c3ccc(-c4c5nc(c(-c6ccc(S(=O)(=O)[O-])cc6)c6ccc([nH]6)c(-c6ccc(S(=O)(=O)[O-])cc6)c6nc(c(-c7ccc(S(=O)(=O)[O-])cc7)c7ccc4[nH]7)C=C6)C=C5)cc3)C2=O)cc1OC
REMARK SMILES IDX 19 1 18 2 17 3 15 4 16 5 13 7 14 8 12 9 7 10 8 11 9 12 84 13
REMARK SMILES IDX 10 14 85 15 11 16 6 17 3 18 4 19 87 20 5 21 86 22 2 23 1 24
REMARK SMILES IDX 88 25 89 26 20 27 21 28 22 29 23 31 24 32 25 33 83 34 26 35
REMARK SMILES IDX 82 36 27 37 28 38 29 39 76 40 30 41 81 42 75 43 77 44 31 45
REMARK SMILES IDX 80 46 74 47 73 48 32 50 62 51 43 52 61 53 44 54 47 55 60 56
REMARK SMILES IDX 78 57 45 58 46 59 59 61 79 62 48 63 33 64 34 65 42 66 35 67
REMARK SMILES IDX 41 68 36 69 37 70 38 71 39 72 40 73 63 74 64 75 72 76 65 77
REMARK SMILES IDX 71 78 66 79 67 80 68 81 69 82 70 83 49 84 50 85 58 86 51 87
REMARK SMILES IDX 57 88 52 89 53 90 54 91 55 92 56 93
REMARK H PARENT 17 6 21 30 77 49 47 60
REMARK Flexibility Score: inf
ROOT
ATOM      1  C   UNL A   1      31.636  32.268  26.481  1.00  0.00     0.042 C 
ENDROOT
BRANCH   1   2
ATOM      2  C   UNL A   1      31.402  30.777  26.267  1.00  0.00     0.117 C 
BRANCH   2   3
ATOM      3  N   UNL A   1      32.646  30.030  26.216  1.00  0.00    -0.354 N 
ATOM      4  C   UNL A   1      33.193  29.262  25.236  1.00  0.00     0.242 C 
ATOM      5  O   UNL A   1      34.168  28.568  25.546  1.00  0.00    -0.273 OA
ATOM      6  H   UNL A   1      33.188  30.090  27.036  1.00  0.00     0.163 HD
BRANCH   4   7
ATOM      7  C   UNL A   1      32.554  29.122  23.839  1.00  0.00     0.178 C 
ATOM      8  C   UNL A   1      33.739  28.961  22.869  1.00  0.00     0.042 C 
BRANCH   7   9
ATOM      9  N   UNL A   1      31.512  28.066  23.776  1.00  0.00    -0.281 N 
ATOM     10  C   UNL A   1      30.656  24.537  24.003  1.00  0.00     0.029 C 
ATOM     11  C   UNL A   1      30.673  25.860  23.777  1.00  0.00     0.081 C 
ATOM     12  S   UNL A   1      29.251  26.815  23.646  1.00  0.00    -0.054 SA
ATOM     13  C   UNL A   1      31.858  26.739  23.613  1.00  0.00     0.266 C 
ATOM     14  C   UNL A   1      30.171  28.316  23.538  1.00  0.00     0.149 C 
ATOM     15  O   UNL A   1      32.960  26.319  23.262  1.00  0.00    -0.268 OA
ATOM     16  S   UNL A   1      29.405  29.759  23.202  1.00  0.00    -0.052 S 
BRANCH  10  17
ATOM     17  C   UNL A   1      31.845  23.691  24.156  1.00  0.00    -0.020 A 
ATOM     18  C   UNL A   1      34.155  22.117  24.421  1.00  0.00     0.160 A 
ATOM     19  C   UNL A   1      33.597  22.360  23.158  1.00  0.00     0.051 A 
ATOM     20  C   UNL A   1      33.572  22.675  25.563  1.00  0.00     0.161 A 
ATOM     21  C   UNL A   1      32.441  23.132  23.025  1.00  0.00     0.012 A 
ATOM     22  C   UNL A   1      32.402  23.437  25.416  1.00  0.00     0.058 A 
BRANCH  18  23
ATOM     23  O   UNL A   1      35.323  21.407  24.476  1.00  0.00    -0.493 OA
ATOM     24  C   UNL A   1      36.473  22.233  24.293  1.00  0.00     0.278 C 
ENDBRANCH  18  23
BRANCH  20  25
ATOM     25  O   UNL A   1      33.978  22.590  26.867  1.00  0.00    -0.493 OA
ATOM     26  C   UNL A   1      32.991  22.548  27.887  1.00  0.00     0.278 C 
ENDBRANCH  20  25
ENDBRANCH  10  17
ENDBRANCH   7   9
ENDBRANCH   4   7
ENDBRANCH   2   3
ENDBRANCH   1   2
BRANCH   1  27
ATOM     27  C   UNL A   1      32.804  32.606  27.405  1.00  0.00     0.118 C 
BRANCH  27  28
ATOM     28  N   UNL A   1      32.817  34.003  27.813  1.00  0.00    -0.352 N 
ATOM     29  C   UNL A   1      33.576  34.636  28.768  1.00  0.00     0.251 C 
ATOM     30  H   UNL A   1      32.185  34.584  27.331  1.00  0.00     0.163 HD
ATOM     31  O   UNL A   1      33.314  35.796  29.073  1.00  0.00    -0.269 OA
BRANCH  29  32
ATOM     32  C   UNL A   1      34.686  33.927  29.446  1.00  0.00     0.039 A 
ATOM     33  C   UNL A   1      36.001  34.248  29.099  1.00  0.00     0.014 A 
ATOM     34  C   UNL A   1      34.439  32.933  30.397  1.00  0.00     0.014 A 
ATOM     35  C   UNL A   1      37.068  33.624  29.754  1.00  0.00     0.010 A 
ATOM     36  C   UNL A   1      35.501  32.360  31.095  1.00  0.00     0.010 A 
ATOM     37  C   UNL A   1      36.826  32.699  30.782  1.00  0.00    -0.014 A 
BRANCH  37  38
ATOM     38  C   UNL A   1      37.942  32.084  31.547  1.00  0.00     0.031 A 
ATOM     39  C   UNL A   1      38.318  32.618  32.904  1.00  0.00     0.074 A 
ATOM     40  C   UNL A   1      38.674  31.100  30.985  1.00  0.00     0.049 A 
ATOM     41  N   UNL A   1      39.317  32.276  33.675  1.00  0.00    -0.248 NA
ATOM     42  C   UNL A   1      37.479  33.698  33.452  1.00  0.00     0.031 C 
ATOM     43  C   UNL A   1      38.452  30.530  29.653  1.00  0.00     0.029 A 
ATOM     44  N   UNL A   1      39.768  30.418  31.456  1.00  0.00    -0.354 N 
ATOM     45  C   UNL A   1      39.251  33.119  34.778  1.00  0.00     0.074 A 
ATOM     46  C   UNL A   1      38.127  34.005  34.567  1.00  0.00     0.031 C 
ATOM     47  C   UNL A   1      39.377  29.585  29.418  1.00  0.00     0.029 A 
ATOM     48  C   UNL A   1      40.274  29.499  30.566  1.00  0.00     0.049 A 
ATOM     49  H   UNL A   1      40.155  30.573  32.348  1.00  0.00     0.167 HD
ATOM     50  C   UNL A   1      40.048  33.147  35.873  1.00  0.00     0.031 A 
ATOM     51  C   UNL A   1      41.345  28.688  30.656  1.00  0.00     0.031 A 
ATOM     52  C   UNL A   1      41.137  32.236  36.107  1.00  0.00     0.049 A 
ATOM     53  C   UNL A   1      42.180  28.703  31.906  1.00  0.00     0.074 A 
ATOM     54  C   UNL A   1      41.938  32.127  37.230  1.00  0.00     0.029 A 
ATOM     55  N   UNL A   1      41.575  31.279  35.207  1.00  0.00    -0.354 N 
ATOM     56  N   UNL A   1      42.046  29.451  32.975  1.00  0.00    -0.248 NA
ATOM     57  C   UNL A   1      43.303  27.756  31.968  1.00  0.00     0.031 C 
ATOM     58  C   UNL A   1      42.883  31.123  36.997  1.00  0.00     0.029 A 
ATOM     59  C   UNL A   1      42.646  30.584  35.743  1.00  0.00     0.049 A 
ATOM     60  H   UNL A   1      41.183  31.116  34.319  1.00  0.00     0.167 HD
ATOM     61  C   UNL A   1      43.053  29.048  33.845  1.00  0.00     0.074 A 
ATOM     62  C   UNL A   1      43.779  27.983  33.185  1.00  0.00     0.031 C 
ATOM     63  C   UNL A   1      43.351  29.520  35.080  1.00  0.00     0.031 A 
BRANCH  50  64
ATOM     64  C   UNL A   1      39.776  34.197  36.914  1.00  0.00    -0.014 A 
ATOM     65  C   UNL A   1      39.066  33.888  38.088  1.00  0.00     0.010 A 
ATOM     66  C   UNL A   1      40.303  35.491  36.750  1.00  0.00     0.010 A 
ATOM     67  C   UNL A   1      38.866  34.862  39.069  1.00  0.00     0.020 A 
ATOM     68  C   UNL A   1      40.123  36.462  37.739  1.00  0.00     0.020 A 
ATOM     69  C   UNL A   1      39.395  36.145  38.888  1.00  0.00     0.054 A 
BRANCH  69  70
ATOM     70  S   UNL A   1      39.165  37.377  40.199  1.00  0.00     0.124 S 
ATOM     71  O   UNL A   1      38.235  38.312  39.573  1.00  0.00    -0.237 OA
ATOM     72  O   UNL A   1      38.615  36.582  41.295  1.00  0.00    -0.237 OA
ATOM     73  O   UNL A   1      40.513  37.895  40.427  1.00  0.00    -0.744 OA
ENDBRANCH  69  70
ENDBRANCH  50  64
BRANCH  51  74
ATOM     74  C   UNL A   1      41.695  27.787  29.526  1.00  0.00    -0.014 A 
ATOM     75  C   UNL A   1      42.719  28.133  28.627  1.00  0.00     0.010 A 
ATOM     76  C   UNL A   1      40.994  26.582  29.336  1.00  0.00     0.010 A 
ATOM     77  C   UNL A   1      43.017  27.305  27.542  1.00  0.00     0.020 A 
ATOM     78  C   UNL A   1      41.306  25.740  28.266  1.00  0.00     0.020 A 
ATOM     79  C   UNL A   1      42.305  26.115  27.365  1.00  0.00     0.054 A 
BRANCH  79  80
ATOM     80  S   UNL A   1      42.726  25.031  25.972  1.00  0.00     0.124 S 
ATOM     81  O   UNL A   1      44.151  24.807  26.183  1.00  0.00    -0.237 OA
ATOM     82  O   UNL A   1      41.862  23.873  26.193  1.00  0.00    -0.237 OA
ATOM     83  O   UNL A   1      42.382  25.837  24.802  1.00  0.00    -0.744 OA
ENDBRANCH  79  80
ENDBRANCH  51  74
BRANCH  63  84
ATOM     84  C   UNL A   1      44.486  28.865  35.814  1.00  0.00    -0.014 A 
ATOM     85  C   UNL A   1      45.797  29.364  35.715  1.00  0.00     0.010 A 
ATOM     86  C   UNL A   1      44.227  27.771  36.659  1.00  0.00     0.010 A 
ATOM     87  C   UNL A   1      46.835  28.760  36.428  1.00  0.00     0.020 A 
ATOM     88  C   UNL A   1      45.260  27.179  37.391  1.00  0.00     0.020 A 
ATOM     89  C   UNL A   1      46.560  27.670  37.260  1.00  0.00     0.054 A 
BRANCH  89  90
ATOM     90  S   UNL A   1      47.914  26.930  38.214  1.00  0.00     0.124 S 
ATOM     91  O   UNL A   1      47.788  25.516  37.873  1.00  0.00    -0.237 OA
ATOM     92  O   UNL A   1      49.095  27.604  37.679  1.00  0.00    -0.237 OA
ATOM     93  O   UNL A   1      47.586  27.269  39.598  1.00  0.00    -0.744 OA
ENDBRANCH  89  90
ENDBRANCH  63  84
ENDBRANCH  37  38
ENDBRANCH  29  32
ENDBRANCH  27  28
ENDBRANCH   1  27
TORSDOF 17
ENDMDL
