MODEL 1
REMARK VINA RESULT:     -12.0      0.000      0.000
REMARK SMILES CO[C@H]1C[C@@H](C(=O)NCCCNC(=O)c2ccc(-c3c4nc(c(-c5ccc(S(=O)(=O)[O-])cc5)c5ccc([nH]5)c(-c5ccc(S(=O)(=O)[O-])cc5)c5nc(c(-c6ccc(S(=O)(=O)[O-])cc6)c6ccc3[nH]6)C=C5)C=C4)cc2)N(C(=O)Nc2cc(C)cc(F)c2)C1
REMARK SMILES IDX 10 1 9 2 8 3 6 4 7 5 5 7 3 8 4 9 87 10 75 11 2 12 1 13 76 14
REMARK SMILES IDX 77 15 78 16 79 18 80 19 86 20 81 21 84 22 82 23 83 24 85 25
REMARK SMILES IDX 11 26 12 27 13 28 14 30 15 31 16 32 74 33 17 34 73 35 18 36
REMARK SMILES IDX 19 37 20 38 67 39 21 40 72 41 66 42 68 43 22 44 71 45 65 46
REMARK SMILES IDX 64 47 23 49 53 50 34 51 52 52 35 53 38 54 51 55 69 56 36 57
REMARK SMILES IDX 37 58 50 60 70 61 39 62 24 63 25 64 33 65 26 66 32 67 27 68
REMARK SMILES IDX 28 69 29 70 30 71 31 72 54 73 55 74 63 75 56 76 62 77 57 78
REMARK SMILES IDX 58 79 59 80 60 81 61 82 40 83 41 84 49 85 42 86 48 87 43 88
REMARK SMILES IDX 44 89 45 90 46 91 47 92
REMARK H PARENT 8 6 78 17 12 29 68 48 38 59
REMARK Flexibility Score: inf
ROOT
ATOM      1  C   UNL A   1      31.572  32.712  26.696  1.00  0.00     0.042 C 
ENDROOT
BRANCH   1   2
ATOM      2  C   UNL A   1      31.389  31.219  26.435  1.00  0.00     0.117 C 
BRANCH   2   3
ATOM      3  N   UNL A   1      32.616  30.444  26.505  1.00  0.00    -0.354 N 
ATOM      4  C   UNL A   1      32.895  29.173  26.089  1.00  0.00     0.242 C 
ATOM      5  O   UNL A   1      34.089  28.856  26.016  1.00  0.00    -0.273 OA
ATOM      6  H   UNL A   1      33.374  30.913  26.922  1.00  0.00     0.163 HD
BRANCH   4   7
ATOM      7  C   UNL A   1      31.823  28.233  25.514  1.00  0.00     0.179 C 
ATOM      8  C   UNL A   1      31.034  25.988  26.088  1.00  0.00     0.140 C 
ATOM      9  C   UNL A   1      31.491  27.300  26.690  1.00  0.00     0.069 C 
ATOM     10  C   UNL A   1      31.655  25.980  24.691  1.00  0.00     0.154 C 
ATOM     11  N   UNL A   1      32.071  27.347  24.366  1.00  0.00    -0.310 N 
BRANCH   8  12
ATOM     12  O   UNL A   1      31.526  24.869  26.828  1.00  0.00    -0.380 OA
ATOM     13  C   UNL A   1      30.827  23.657  26.581  1.00  0.00     0.195 C 
ENDBRANCH   8  12
BRANCH  11  14
ATOM     14  C   UNL A   1      32.137  27.635  23.022  1.00  0.00     0.322 C 
ATOM     15  O   UNL A   1      33.206  27.542  22.406  1.00  0.00    -0.248 OA
ATOM     16  N   UNL A   1      31.033  27.822  22.260  1.00  0.00    -0.308 N 
ATOM     17  H   UNL A   1      31.068  27.337  21.404  1.00  0.00     0.171 HD
BRANCH  16  18
ATOM     18  C   UNL A   1      29.852  28.552  22.427  1.00  0.00     0.046 A 
ATOM     19  C   UNL A   1      29.831  29.882  21.988  1.00  0.00     0.029 A 
ATOM     20  C   UNL A   1      28.749  28.053  23.096  1.00  0.00     0.065 A 
ATOM     21  C   UNL A   1      28.652  30.645  22.058  1.00  0.00    -0.046 A 
ATOM     22  C   UNL A   1      27.572  28.794  23.143  1.00  0.00     0.125 A 
ATOM     23  C   UNL A   1      28.632  32.071  21.604  1.00  0.00     0.044 C 
ATOM     24  C   UNL A   1      27.506  30.072  22.612  1.00  0.00     0.042 A 
ATOM     25  F   UNL A   1      26.474  28.263  23.694  1.00  0.00    -0.207 F 
ENDBRANCH  16  18
ENDBRANCH  11  14
ENDBRANCH   4   7
ENDBRANCH   2   3
ENDBRANCH   1   2
BRANCH   1  26
ATOM     26  C   UNL A   1      32.811  33.111  27.486  1.00  0.00     0.118 C 
BRANCH  26  27
ATOM     27  N   UNL A   1      32.855  34.516  27.853  1.00  0.00    -0.352 N 
ATOM     28  C   UNL A   1      33.695  35.157  28.729  1.00  0.00     0.251 C 
ATOM     29  H   UNL A   1      32.188  35.089  27.411  1.00  0.00     0.163 HD
ATOM     30  O   UNL A   1      33.532  36.354  28.960  1.00  0.00    -0.269 OA
BRANCH  28  31
ATOM     31  C   UNL A   1      34.760  34.405  29.426  1.00  0.00     0.039 A 
ATOM     32  C   UNL A   1      36.071  34.527  28.959  1.00  0.00     0.014 A 
ATOM     33  C   UNL A   1      34.481  33.591  30.527  1.00  0.00     0.014 A 
ATOM     34  C   UNL A   1      37.109  33.875  29.627  1.00  0.00     0.010 A 
ATOM     35  C   UNL A   1      35.526  33.002  31.237  1.00  0.00     0.010 A 
ATOM     36  C   UNL A   1      36.851  33.129  30.789  1.00  0.00    -0.014 A 
BRANCH  36  37
ATOM     37  C   UNL A   1      37.954  32.458  31.526  1.00  0.00     0.031 A 
ATOM     38  C   UNL A   1      38.367  32.955  32.886  1.00  0.00     0.074 A 
ATOM     39  C   UNL A   1      38.610  31.424  30.961  1.00  0.00     0.049 A 
ATOM     40  N   UNL A   1      39.320  32.520  33.671  1.00  0.00    -0.248 NA
ATOM     41  C   UNL A   1      37.626  34.108  33.428  1.00  0.00     0.031 C 
ATOM     42  C   UNL A   1      38.332  30.865  29.635  1.00  0.00     0.029 A 
ATOM     43  N   UNL A   1      39.648  30.656  31.431  1.00  0.00    -0.354 N 
ATOM     44  C   UNL A   1      39.304  33.352  34.785  1.00  0.00     0.074 A 
ATOM     45  C   UNL A   1      38.284  34.350  34.552  1.00  0.00     0.031 C 
ATOM     46  C   UNL A   1      39.155  29.828  29.413  1.00  0.00     0.029 A 
ATOM     47  C   UNL A   1      40.048  29.671  30.558  1.00  0.00     0.049 A 
ATOM     48  H   UNL A   1      40.066  30.798  32.310  1.00  0.00     0.167 HD
ATOM     49  C   UNL A   1      40.054  33.280  35.911  1.00  0.00     0.031 A 
ATOM     50  C   UNL A   1      41.023  28.747  30.663  1.00  0.00     0.031 A 
ATOM     51  C   UNL A   1      41.061  32.280  36.146  1.00  0.00     0.049 A 
ATOM     52  C   UNL A   1      41.851  28.695  31.919  1.00  0.00     0.074 A 
ATOM     53  C   UNL A   1      41.841  32.094  37.274  1.00  0.00     0.029 A 
ATOM     54  N   UNL A   1      41.431  31.298  35.239  1.00  0.00    -0.354 N 
ATOM     55  N   UNL A   1      41.780  29.453  32.986  1.00  0.00    -0.248 NA
ATOM     56  C   UNL A   1      42.881  27.648  31.991  1.00  0.00     0.031 C 
ATOM     57  C   UNL A   1      42.719  31.034  37.028  1.00  0.00     0.029 A 
ATOM     58  C   UNL A   1      42.440  30.516  35.773  1.00  0.00     0.049 A 
ATOM     59  H   UNL A   1      41.033  31.175  34.346  1.00  0.00     0.167 HD
ATOM     60  C   UNL A   1      42.730  28.952  33.872  1.00  0.00     0.074 A 
ATOM     61  C   UNL A   1      43.353  27.820  33.218  1.00  0.00     0.031 C 
ATOM     62  C   UNL A   1      43.049  29.387  35.115  1.00  0.00     0.031 A 
BRANCH  49  63
ATOM     63  C   UNL A   1      39.815  34.321  36.975  1.00  0.00    -0.014 A 
ATOM     64  C   UNL A   1      39.052  34.031  38.120  1.00  0.00     0.010 A 
ATOM     65  C   UNL A   1      40.395  35.596  36.847  1.00  0.00     0.010 A 
ATOM     66  C   UNL A   1      38.834  35.008  39.095  1.00  0.00     0.020 A 
ATOM     67  C   UNL A   1      40.207  36.568  37.835  1.00  0.00     0.020 A 
ATOM     68  C   UNL A   1      39.413  36.273  38.946  1.00  0.00     0.054 A 
BRANCH  68  69
ATOM     69  S   UNL A   1      39.132  37.514  40.237  1.00  0.00     0.124 S 
ATOM     70  O   UNL A   1      38.222  38.442  39.570  1.00  0.00    -0.237 OA
ATOM     71  O   UNL A   1      38.546  36.726  41.317  1.00  0.00    -0.237 OA
ATOM     72  O   UNL A   1      40.468  38.041  40.508  1.00  0.00    -0.744 OA
ENDBRANCH  68  69
ENDBRANCH  49  63
BRANCH  50  73
ATOM     73  C   UNL A   1      41.259  27.783  29.553  1.00  0.00    -0.014 A 
ATOM     74  C   UNL A   1      42.327  27.969  28.656  1.00  0.00     0.010 A 
ATOM     75  C   UNL A   1      40.417  26.667  29.387  1.00  0.00     0.010 A 
ATOM     76  C   UNL A   1      42.534  27.072  27.603  1.00  0.00     0.020 A 
ATOM     77  C   UNL A   1      40.640  25.752  28.354  1.00  0.00     0.020 A 
ATOM     78  C   UNL A   1      41.690  25.968  27.460  1.00  0.00     0.054 A 
BRANCH  78  79
ATOM     79  S   UNL A   1      42.006  24.794  26.113  1.00  0.00     0.124 S 
ATOM     80  O   UNL A   1      40.826  23.936  26.174  1.00  0.00    -0.237 OA
ATOM     81  O   UNL A   1      42.092  25.670  24.947  1.00  0.00    -0.237 OA
ATOM     82  O   UNL A   1      43.263  24.159  26.501  1.00  0.00    -0.744 OA
ENDBRANCH  78  79
ENDBRANCH  50  73
BRANCH  62  83
ATOM     83  C   UNL A   1      44.088  28.607  35.881  1.00  0.00    -0.014 A 
ATOM     84  C   UNL A   1      45.451  28.944  35.828  1.00  0.00     0.010 A 
ATOM     85  C   UNL A   1      43.676  27.546  36.710  1.00  0.00     0.010 A 
ATOM     86  C   UNL A   1      46.388  28.211  36.562  1.00  0.00     0.020 A 
ATOM     87  C   UNL A   1      44.606  26.832  37.470  1.00  0.00     0.020 A 
ATOM     88  C   UNL A   1      45.959  27.159  37.377  1.00  0.00     0.054 A 
BRANCH  88  89
ATOM     89  S   UNL A   1      47.190  26.248  38.349  1.00  0.00     0.124 S 
ATOM     90  O   UNL A   1      46.366  25.246  39.021  1.00  0.00    -0.237 OA
ATOM     91  O   UNL A   1      48.092  25.733  37.322  1.00  0.00    -0.237 OA
ATOM     92  O   UNL A   1      47.767  27.266  39.223  1.00  0.00    -0.744 OA
ENDBRANCH  88  89
ENDBRANCH  62  83
ENDBRANCH  36  37
ENDBRANCH  28  31
ENDBRANCH  26  27
ENDBRANCH   1  26
TORSDOF 16
ENDMDL
MODEL 2
REMARK VINA RESULT:     -11.9      4.583      5.933
REMARK SMILES CO[C@H]1C[C@@H](C(=O)NCCCNC(=O)c2ccc(-c3c4nc(c(-c5ccc(S(=O)(=O)[O-])cc5)c5ccc([nH]5)c(-c5ccc(S(=O)(=O)[O-])cc5)c5nc(c(-c6ccc(S(=O)(=O)[O-])cc6)c6ccc3[nH]6)C=C5)C=C4)cc2)N(C(=O)Nc2cc(C)cc(F)c2)C1
REMARK SMILES IDX 10 1 9 2 8 3 6 4 7 5 5 7 3 8 4 9 87 10 75 11 2 12 1 13 76 14
REMARK SMILES IDX 77 15 78 16 79 18 80 19 86 20 81 21 84 22 82 23 83 24 85 25
REMARK SMILES IDX 11 26 12 27 13 28 14 30 15 31 16 32 74 33 17 34 73 35 18 36
REMARK SMILES IDX 19 37 20 38 67 39 21 40 72 41 66 42 68 43 22 44 71 45 65 46
REMARK SMILES IDX 64 47 23 49 53 50 34 51 52 52 35 53 38 54 51 55 69 56 36 57
REMARK SMILES IDX 37 58 50 60 70 61 39 62 24 63 25 64 33 65 26 66 32 67 27 68
REMARK SMILES IDX 28 69 29 70 30 71 31 72 54 73 55 74 63 75 56 76 62 77 57 78
REMARK SMILES IDX 58 79 59 80 60 81 61 82 40 83 41 84 49 85 42 86 48 87 43 88
REMARK SMILES IDX 44 89 45 90 46 91 47 92
REMARK H PARENT 8 6 78 17 12 29 68 48 38 59
REMARK Flexibility Score: inf
ROOT
ATOM      1  C   UNL A   1      32.521  27.564  26.296  1.00  0.00     0.042 C 
ENDROOT
BRANCH   1   2
ATOM      2  C   UNL A   1      32.568  26.050  26.110  1.00  0.00     0.117 C 
BRANCH   2   3
ATOM      3  N   UNL A   1      31.387  25.351  26.588  1.00  0.00    -0.354 N 
ATOM      4  C   UNL A   1      31.066  24.024  26.569  1.00  0.00     0.242 C 
ATOM      5  O   UNL A   1      30.125  23.664  27.289  1.00  0.00    -0.273 OA
ATOM      6  H   UNL A   1      30.704  25.931  26.995  1.00  0.00     0.163 HD
BRANCH   4   7
ATOM      7  C   UNL A   1      31.944  22.967  25.881  1.00  0.00     0.179 C 
ATOM      8  C   UNL A   1      34.301  22.328  26.053  1.00  0.00     0.140 C 
ATOM      9  C   UNL A   1      33.100  22.755  26.871  1.00  0.00     0.069 C 
ATOM     10  C   UNL A   1      34.007  22.860  24.650  1.00  0.00     0.154 C 
ATOM     11  N   UNL A   1      32.582  23.187  24.573  1.00  0.00    -0.310 N 
BRANCH   8  12
ATOM     12  O   UNL A   1      35.507  22.920  26.539  1.00  0.00    -0.380 OA
ATOM     13  C   UNL A   1      36.139  23.793  25.613  1.00  0.00     0.195 C 
ENDBRANCH   8  12
BRANCH  11  14
ATOM     14  C   UNL A   1      32.041  23.154  23.307  1.00  0.00     0.322 C 
ATOM     15  O   UNL A   1      31.976  22.093  22.675  1.00  0.00    -0.248 OA
ATOM     16  N   UNL A   1      31.368  24.201  22.773  1.00  0.00    -0.308 N 
ATOM     17  H   UNL A   1      30.525  23.936  22.338  1.00  0.00     0.171 HD
BRANCH  16  18
ATOM     18  C   UNL A   1      31.611  25.576  22.705  1.00  0.00     0.046 A 
ATOM     19  C   UNL A   1      30.539  26.448  22.934  1.00  0.00     0.029 A 
ATOM     20  C   UNL A   1      32.830  26.105  22.320  1.00  0.00     0.065 A 
ATOM     21  C   UNL A   1      30.734  27.840  22.955  1.00  0.00    -0.046 A 
ATOM     22  C   UNL A   1      33.035  27.480  22.367  1.00  0.00     0.125 A 
ATOM     23  C   UNL A   1      29.587  28.774  23.184  1.00  0.00     0.044 C 
ATOM     24  C   UNL A   1      32.009  28.349  22.702  1.00  0.00     0.042 A 
ATOM     25  F   UNL A   1      34.248  27.980  22.102  1.00  0.00    -0.207 F 
ENDBRANCH  16  18
ENDBRANCH  11  14
ENDBRANCH   4   7
ENDBRANCH   2   3
ENDBRANCH   1   2
BRANCH   1  26
ATOM     26  C   UNL A   1      33.768  28.210  26.886  1.00  0.00     0.118 C 
BRANCH  26  27
ATOM     27  N   UNL A   1      33.566  29.568  27.361  1.00  0.00    -0.352 N 
ATOM     28  C   UNL A   1      34.445  30.399  28.010  1.00  0.00     0.251 C 
ATOM     29  H   UNL A   1      32.672  29.945  27.195  1.00  0.00     0.163 HD
ATOM     30  O   UNL A   1      34.064  31.502  28.396  1.00  0.00    -0.269 OA
BRANCH  28  31
ATOM     31  C   UNL A   1      35.828  29.953  28.283  1.00  0.00     0.039 A 
ATOM     32  C   UNL A   1      36.773  30.061  27.260  1.00  0.00     0.014 A 
ATOM     33  C   UNL A   1      36.199  29.437  29.528  1.00  0.00     0.014 A 
ATOM     34  C   UNL A   1      38.100  29.702  27.500  1.00  0.00     0.010 A 
ATOM     35  C   UNL A   1      37.537  29.151  29.789  1.00  0.00     0.010 A 
ATOM     36  C   UNL A   1      38.502  29.270  28.775  1.00  0.00    -0.014 A 
BRANCH  36  37
ATOM     37  C   UNL A   1      39.920  28.916  29.050  1.00  0.00     0.031 A 
ATOM     38  C   UNL A   1      40.844  29.930  29.671  1.00  0.00     0.074 A 
ATOM     39  C   UNL A   1      40.387  27.698  28.710  1.00  0.00     0.049 A 
ATOM     40  N   UNL A   1      42.116  29.818  29.961  1.00  0.00    -0.248 NA
ATOM     41  C   UNL A   1      40.272  31.250  29.987  1.00  0.00     0.031 C 
ATOM     42  C   UNL A   1      39.605  26.636  28.073  1.00  0.00     0.029 A 
ATOM     43  N   UNL A   1      41.637  27.145  28.856  1.00  0.00    -0.354 N 
ATOM     44  C   UNL A   1      42.497  31.053  30.476  1.00  0.00     0.074 A 
ATOM     45  C   UNL A   1      41.338  31.914  30.408  1.00  0.00     0.031 C 
ATOM     46  C   UNL A   1      40.382  25.553  27.910  1.00  0.00     0.029 A 
ATOM     47  C   UNL A   1      41.728  25.853  28.391  1.00  0.00     0.049 A 
ATOM     48  H   UNL A   1      42.395  27.629  29.253  1.00  0.00     0.167 HD
ATOM     49  C   UNL A   1      43.696  31.430  30.981  1.00  0.00     0.031 A 
ATOM     50  C   UNL A   1      42.775  25.005  28.354  1.00  0.00     0.031 A 
ATOM     51  C   UNL A   1      44.846  30.568  31.057  1.00  0.00     0.049 A 
ATOM     52  C   UNL A   1      44.100  25.451  28.910  1.00  0.00     0.074 A 
ATOM     53  C   UNL A   1      46.092  30.842  31.594  1.00  0.00     0.029 A 
ATOM     54  N   UNL A   1      44.894  29.266  30.582  1.00  0.00    -0.354 N 
ATOM     55  N   UNL A   1      44.424  26.603  29.447  1.00  0.00    -0.248 NA
ATOM     56  C   UNL A   1      45.199  24.475  28.870  1.00  0.00     0.031 C 
ATOM     57  C   UNL A   1      46.909  29.725  31.395  1.00  0.00     0.029 A 
ATOM     58  C   UNL A   1      46.153  28.731  30.795  1.00  0.00     0.049 A 
ATOM     59  H   UNL A   1      44.143  28.793  30.155  1.00  0.00     0.167 HD
ATOM     60  C   UNL A   1      45.752  26.477  29.843  1.00  0.00     0.074 A 
ATOM     61  C   UNL A   1      46.166  25.135  29.492  1.00  0.00     0.031 C 
ATOM     62  C   UNL A   1      46.552  27.390  30.448  1.00  0.00     0.031 A 
BRANCH  49  63
ATOM     63  C   UNL A   1      43.827  32.845  31.485  1.00  0.00    -0.014 A 
ATOM     64  C   UNL A   1      43.598  33.161  32.836  1.00  0.00     0.010 A 
ATOM     65  C   UNL A   1      44.221  33.867  30.603  1.00  0.00     0.010 A 
ATOM     66  C   UNL A   1      43.716  34.478  33.287  1.00  0.00     0.020 A 
ATOM     67  C   UNL A   1      44.372  35.181  31.055  1.00  0.00     0.020 A 
ATOM     68  C   UNL A   1      44.102  35.482  32.393  1.00  0.00     0.054 A 
BRANCH  68  69
ATOM     69  S   UNL A   1      44.269  37.178  33.010  1.00  0.00     0.124 S 
ATOM     70  O   UNL A   1      43.070  37.320  33.832  1.00  0.00    -0.237 OA
ATOM     71  O   UNL A   1      45.531  37.129  33.744  1.00  0.00    -0.237 OA
ATOM     72  O   UNL A   1      44.290  37.990  31.795  1.00  0.00    -0.744 OA
ENDBRANCH  68  69
ENDBRANCH  49  63
BRANCH  50  73
ATOM     73  C   UNL A   1      42.607  23.639  27.785  1.00  0.00    -0.014 A 
ATOM     74  C   UNL A   1      42.861  23.393  26.424  1.00  0.00     0.010 A 
ATOM     75  C   UNL A   1      42.194  22.572  28.604  1.00  0.00     0.010 A 
ATOM     76  C   UNL A   1      42.684  22.114  25.888  1.00  0.00     0.020 A 
ATOM     77  C   UNL A   1      42.046  21.285  28.079  1.00  0.00     0.020 A 
ATOM     78  C   UNL A   1      42.279  21.067  26.720  1.00  0.00     0.054 A 
BRANCH  78  79
ATOM     79  S   UNL A   1      42.100  19.406  26.012  1.00  0.00     0.124 S 
ATOM     80  O   UNL A   1      42.568  18.557  27.104  1.00  0.00    -0.237 OA
ATOM     81  O   UNL A   1      40.669  19.338  25.726  1.00  0.00    -0.237 OA
ATOM     82  O   UNL A   1      42.962  19.442  24.833  1.00  0.00    -0.744 OA
ENDBRANCH  78  79
ENDBRANCH  50  73
BRANCH  62  83
ATOM     83  C   UNL A   1      47.946  26.955  30.822  1.00  0.00    -0.014 A 
ATOM     84  C   UNL A   1      49.026  27.097  29.934  1.00  0.00     0.010 A 
ATOM     85  C   UNL A   1      48.182  26.442  32.111  1.00  0.00     0.010 A 
ATOM     86  C   UNL A   1      50.311  26.699  30.315  1.00  0.00     0.020 A 
ATOM     87  C   UNL A   1      49.471  26.073  32.508  1.00  0.00     0.020 A 
ATOM     88  C   UNL A   1      50.524  26.189  31.600  1.00  0.00     0.054 A 
BRANCH  88  89
ATOM     89  S   UNL A   1      52.207  25.715  32.084  1.00  0.00     0.124 S 
ATOM     90  O   UNL A   1      52.064  24.279  32.311  1.00  0.00    -0.237 OA
ATOM     91  O   UNL A   1      52.995  26.090  30.912  1.00  0.00    -0.237 OA
ATOM     92  O   UNL A   1      52.461  26.512  33.281  1.00  0.00    -0.744 OA
ENDBRANCH  88  89
ENDBRANCH  62  83
ENDBRANCH  36  37
ENDBRANCH  28  31
ENDBRANCH  26  27
ENDBRANCH   1  26
TORSDOF 16
ENDMDL
MODEL 3
REMARK VINA RESULT:     -11.8      4.731      6.878
REMARK SMILES CO[C@H]1C[C@@H](C(=O)NCCCNC(=O)c2ccc(-c3c4nc(c(-c5ccc(S(=O)(=O)[O-])cc5)c5ccc([nH]5)c(-c5ccc(S(=O)(=O)[O-])cc5)c5nc(c(-c6ccc(S(=O)(=O)[O-])cc6)c6ccc3[nH]6)C=C5)C=C4)cc2)N(C(=O)Nc2cc(C)cc(F)c2)C1
REMARK SMILES IDX 10 1 9 2 8 3 6 4 7 5 5 7 3 8 4 9 87 10 75 11 2 12 1 13 76 14
REMARK SMILES IDX 77 15 78 16 79 18 80 19 86 20 81 21 84 22 82 23 83 24 85 25
REMARK SMILES IDX 11 26 12 27 13 28 14 30 15 31 16 32 74 33 17 34 73 35 18 36
REMARK SMILES IDX 19 37 20 38 67 39 21 40 72 41 66 42 68 43 22 44 71 45 65 46
REMARK SMILES IDX 64 47 23 49 53 50 34 51 52 52 35 53 38 54 51 55 69 56 36 57
REMARK SMILES IDX 37 58 50 60 70 61 39 62 24 63 25 64 33 65 26 66 32 67 27 68
REMARK SMILES IDX 28 69 29 70 30 71 31 72 54 73 55 74 63 75 56 76 62 77 57 78
REMARK SMILES IDX 58 79 59 80 60 81 61 82 40 83 41 84 49 85 42 86 48 87 43 88
REMARK SMILES IDX 44 89 45 90 46 91 47 92
REMARK H PARENT 8 6 78 17 12 29 68 48 38 59
REMARK Flexibility Score: inf
ROOT
ATOM      1  C   UNL A   1      33.670  27.669  25.243  1.00  0.00     0.042 C 
ENDROOT
BRANCH   1   2
ATOM      2  C   UNL A   1      32.949  26.364  24.915  1.00  0.00     0.117 C 
BRANCH   2   3
ATOM      3  N   UNL A   1      33.605  25.555  23.902  1.00  0.00    -0.354 N 
ATOM      4  C   UNL A   1      34.318  24.396  24.009  1.00  0.00     0.242 C 
ATOM      5  O   UNL A   1      34.531  23.769  22.963  1.00  0.00    -0.273 OA
ATOM      6  H   UNL A   1      33.521  25.900  22.984  1.00  0.00     0.163 HD
BRANCH   4   7
ATOM      7  C   UNL A   1      34.659  23.752  25.363  1.00  0.00     0.179 C 
ATOM      8  C   UNL A   1      36.574  22.494  26.223  1.00  0.00     0.140 C 
ATOM      9  C   UNL A   1      36.194  23.672  25.350  1.00  0.00     0.069 C 
ATOM     10  C   UNL A   1      35.329  21.608  26.221  1.00  0.00     0.154 C 
ATOM     11  N   UNL A   1      34.198  22.408  25.745  1.00  0.00    -0.310 N 
BRANCH   8  12
ATOM     12  O   UNL A   1      37.672  21.764  25.673  1.00  0.00    -0.380 OA
ATOM     13  C   UNL A   1      37.341  20.993  24.527  1.00  0.00     0.195 C 
ENDBRANCH   8  12
BRANCH  11  14
ATOM     14  C   UNL A   1      32.959  21.984  26.174  1.00  0.00     0.322 C 
ATOM     15  O   UNL A   1      32.422  22.500  27.161  1.00  0.00    -0.248 OA
ATOM     16  N   UNL A   1      32.178  21.156  25.442  1.00  0.00    -0.308 N 
ATOM     17  H   UNL A   1      31.240  21.453  25.394  1.00  0.00     0.171 HD
BRANCH  16  18
ATOM     18  C   UNL A   1      32.413  19.971  24.739  1.00  0.00     0.046 A 
ATOM     19  C   UNL A   1      32.823  18.843  25.462  1.00  0.00     0.029 A 
ATOM     20  C   UNL A   1      32.359  19.894  23.358  1.00  0.00     0.065 A 
ATOM     21  C   UNL A   1      33.002  17.604  24.824  1.00  0.00    -0.046 A 
ATOM     22  C   UNL A   1      32.508  18.663  22.726  1.00  0.00     0.125 A 
ATOM     23  C   UNL A   1      33.455  16.402  25.593  1.00  0.00     0.044 C 
ATOM     24  C   UNL A   1      32.804  17.517  23.445  1.00  0.00     0.042 A 
ATOM     25  F   UNL A   1      32.345  18.574  21.400  1.00  0.00    -0.207 F 
ENDBRANCH  16  18
ENDBRANCH  11  14
ENDBRANCH   4   7
ENDBRANCH   2   3
ENDBRANCH   1   2
BRANCH   1  26
ATOM     26  C   UNL A   1      33.899  27.960  26.720  1.00  0.00     0.118 C 
BRANCH  26  27
ATOM     27  N   UNL A   1      33.522  29.302  27.128  1.00  0.00    -0.352 N 
ATOM     28  C   UNL A   1      34.274  30.258  27.764  1.00  0.00     0.251 C 
ATOM     29  H   UNL A   1      32.596  29.562  26.919  1.00  0.00     0.163 HD
ATOM     30  O   UNL A   1      33.752  31.322  28.089  1.00  0.00    -0.269 OA
BRANCH  28  31
ATOM     31  C   UNL A   1      35.690  29.992  28.097  1.00  0.00     0.039 A 
ATOM     32  C   UNL A   1      35.996  29.561  29.389  1.00  0.00     0.014 A 
ATOM     33  C   UNL A   1      36.707  30.160  27.154  1.00  0.00     0.014 A 
ATOM     34  C   UNL A   1      37.315  29.247  29.722  1.00  0.00     0.010 A 
ATOM     35  C   UNL A   1      38.010  29.775  27.465  1.00  0.00     0.010 A 
ATOM     36  C   UNL A   1      38.332  29.324  28.755  1.00  0.00    -0.014 A 
BRANCH  36  37
ATOM     37  C   UNL A   1      39.734  28.961  29.091  1.00  0.00     0.031 A 
ATOM     38  C   UNL A   1      40.632  29.963  29.767  1.00  0.00     0.074 A 
ATOM     39  C   UNL A   1      40.213  27.746  28.757  1.00  0.00     0.049 A 
ATOM     40  N   UNL A   1      41.889  29.842  30.115  1.00  0.00    -0.248 NA
ATOM     41  C   UNL A   1      40.050  31.281  30.075  1.00  0.00     0.031 C 
ATOM     42  C   UNL A   1      39.457  26.696  28.070  1.00  0.00     0.029 A 
ATOM     43  N   UNL A   1      41.452  27.186  28.952  1.00  0.00    -0.354 N 
ATOM     44  C   UNL A   1      42.250  31.068  30.664  1.00  0.00     0.074 A 
ATOM     45  C   UNL A   1      41.098  31.935  30.554  1.00  0.00     0.031 C 
ATOM     46  C   UNL A   1      40.238  25.612  27.928  1.00  0.00     0.029 A 
ATOM     47  C   UNL A   1      41.560  25.900  28.476  1.00  0.00     0.049 A 
ATOM     48  H   UNL A   1      42.193  27.662  29.391  1.00  0.00     0.167 HD
ATOM     49  C   UNL A   1      43.426  31.434  31.229  1.00  0.00     0.031 A 
ATOM     50  C   UNL A   1      42.605  25.049  28.476  1.00  0.00     0.031 A 
ATOM     51  C   UNL A   1      44.568  30.567  31.346  1.00  0.00     0.049 A 
ATOM     52  C   UNL A   1      43.904  25.482  29.098  1.00  0.00     0.074 A 
ATOM     53  C   UNL A   1      45.788  30.829  31.944  1.00  0.00     0.029 A 
ATOM     54  N   UNL A   1      44.633  29.271  30.856  1.00  0.00    -0.354 N 
ATOM     55  N   UNL A   1      44.207  26.626  29.665  1.00  0.00    -0.248 NA
ATOM     56  C   UNL A   1      45.001  24.502  29.096  1.00  0.00     0.031 C 
ATOM     57  C   UNL A   1      46.609  29.711  31.768  1.00  0.00     0.029 A 
ATOM     58  C   UNL A   1      45.879  28.728  31.120  1.00  0.00     0.049 A 
ATOM     59  H   UNL A   1      43.901  28.806  30.389  1.00  0.00     0.167 HD
ATOM     60  C   UNL A   1      45.515  26.489  30.120  1.00  0.00     0.074 A 
ATOM     61  C   UNL A   1      45.940  25.149  29.771  1.00  0.00     0.031 C 
ATOM     62  C   UNL A   1      46.289  27.390  30.774  1.00  0.00     0.031 A 
BRANCH  49  63
ATOM     63  C   UNL A   1      43.537  32.842  31.757  1.00  0.00    -0.014 A 
ATOM     64  C   UNL A   1      43.935  33.903  30.924  1.00  0.00     0.010 A 
ATOM     65  C   UNL A   1      43.203  33.114  33.096  1.00  0.00     0.010 A 
ATOM     66  C   UNL A   1      44.040  35.202  31.430  1.00  0.00     0.020 A 
ATOM     67  C   UNL A   1      43.275  34.417  33.599  1.00  0.00     0.020 A 
ATOM     68  C   UNL A   1      43.710  35.450  32.766  1.00  0.00     0.054 A 
BRANCH  68  69
ATOM     69  S   UNL A   1      43.834  37.149  33.389  1.00  0.00     0.124 S 
ATOM     70  O   UNL A   1      42.626  37.260  34.202  1.00  0.00    -0.237 OA
ATOM     71  O   UNL A   1      45.091  37.126  34.132  1.00  0.00    -0.237 OA
ATOM     72  O   UNL A   1      43.846  37.964  32.177  1.00  0.00    -0.744 OA
ENDBRANCH  68  69
ENDBRANCH  49  63
BRANCH  50  73
ATOM     73  C   UNL A   1      42.459  23.691  27.881  1.00  0.00    -0.014 A 
ATOM     74  C   UNL A   1      42.750  23.468  26.523  1.00  0.00     0.010 A 
ATOM     75  C   UNL A   1      42.031  22.609  28.673  1.00  0.00     0.010 A 
ATOM     76  C   UNL A   1      42.594  22.196  25.963  1.00  0.00     0.020 A 
ATOM     77  C   UNL A   1      41.903  21.329  28.123  1.00  0.00     0.020 A 
ATOM     78  C   UNL A   1      42.172  21.134  26.768  1.00  0.00     0.054 A 
BRANCH  78  79
ATOM     79  S   UNL A   1      42.020  19.483  26.029  1.00  0.00     0.124 S 
ATOM     80  O   UNL A   1      40.580  19.379  25.813  1.00  0.00    -0.237 OA
ATOM     81  O   UNL A   1      42.835  19.602  24.823  1.00  0.00    -0.237 OA
ATOM     82  O   UNL A   1      42.565  18.598  27.056  1.00  0.00    -0.744 OA
ENDBRANCH  78  79
ENDBRANCH  50  73
BRANCH  62  83
ATOM     83  C   UNL A   1      47.663  26.945  31.206  1.00  0.00    -0.014 A 
ATOM     84  C   UNL A   1      48.813  27.284  30.473  1.00  0.00     0.010 A 
ATOM     85  C   UNL A   1      47.803  26.215  32.401  1.00  0.00     0.010 A 
ATOM     86  C   UNL A   1      50.075  26.870  30.907  1.00  0.00     0.020 A 
ATOM     87  C   UNL A   1      49.066  25.826  32.856  1.00  0.00     0.020 A 
ATOM     88  C   UNL A   1      50.193  26.143  32.097  1.00  0.00     0.054 A 
BRANCH  88  89
ATOM     89  S   UNL A   1      51.846  25.649  32.659  1.00  0.00     0.124 S 
ATOM     90  O   UNL A   1      52.548  25.445  31.395  1.00  0.00    -0.237 OA
ATOM     91  O   UNL A   1      52.278  26.807  33.438  1.00  0.00    -0.237 OA
ATOM     92  O   UNL A   1      51.600  24.438  33.437  1.00  0.00    -0.744 OA
ENDBRANCH  88  89
ENDBRANCH  62  83
ENDBRANCH  36  37
ENDBRANCH  28  31
ENDBRANCH  26  27
ENDBRANCH   1  26
TORSDOF 16
ENDMDL
