MODEL 1
REMARK VINA RESULT:     -11.8      0.000      0.000
REMARK SMILES CCC(CC)COc1cc2c(cc1Cl)C=C(C(=O)NCCCNC(=O)c1ccc(-c3c4nc(c(-c5ccc(S(=O)(=O)[O-])cc5)c5ccc([nH]5)c(-c5ccc(S(=O)(=O)[O-])cc5)c5nc(c(-c6ccc(S(=O)(=O)[O-])cc6)c6ccc3[nH]6)C=C5)C=C4)cc1)[C@@H](C(F)(F)F)O2
REMARK SMILES IDX 20 1 19 2 17 3 18 4 16 6 8 7 9 8 13 9 10 10 12 11 14 12
REMARK SMILES IDX 11 13 91 14 15 15 86 16 7 17 6 18 3 19 2 20 1 21 4 22 5 23
REMARK SMILES IDX 87 24 88 25 89 26 90 27 21 28 22 29 23 30 24 31 25 33 26 34
REMARK SMILES IDX 27 35 85 36 28 37 84 38 29 39 30 40 31 41 78 42 32 43 83 44
REMARK SMILES IDX 77 45 79 46 33 47 82 48 76 49 75 50 34 52 64 53 45 54 63 55
REMARK SMILES IDX 46 56 49 57 62 58 80 59 47 60 48 61 61 63 81 64 50 65 35 66
REMARK SMILES IDX 36 67 44 68 37 69 43 70 38 71 39 72 40 73 41 74 42 75 65 76
REMARK SMILES IDX 66 77 74 78 67 79 73 80 68 81 69 82 70 83 71 84 72 85 51 86
REMARK SMILES IDX 52 87 60 88 53 89 59 90 54 91 55 92 56 93 57 94 58 95
REMARK H PARENT 19 5 23 32 79 51 49 62
REMARK Flexibility Score: inf
ROOT
ATOM      1  C   UNL A   1      31.742  28.527  25.271  1.00  0.00     0.118 C 
ENDROOT
BRANCH   1   2
ATOM      2  N   UNL A   1      30.563  27.931  24.667  1.00  0.00    -0.352 N 
ATOM      3  C   UNL A   1      30.234  26.738  24.126  1.00  0.00     0.251 C 
ATOM      4  O   UNL A   1      29.072  26.643  23.720  1.00  0.00    -0.270 OA
ATOM      5  H   UNL A   1      29.807  28.561  24.647  1.00  0.00     0.163 HD
BRANCH   3   6
ATOM      6  C   UNL A   1      31.152  25.578  24.011  1.00  0.00     0.067 C 
ATOM      7  C   UNL A   1      33.653  21.330  24.808  1.00  0.00     0.141 A 
ATOM      8  C   UNL A   1      33.155  21.929  23.650  1.00  0.00     0.095 A 
ATOM      9  C   UNL A   1      33.493  21.959  26.053  1.00  0.00     0.083 A 
ATOM     10  C   UNL A   1      32.430  23.109  23.768  1.00  0.00     0.131 A 
ATOM     11  C   UNL A   1      32.663  23.072  26.171  1.00  0.00     0.036 A 
ATOM     12  Cl  UNL A   1      34.285  21.389  27.476  1.00  0.00    -0.080 Cl
ATOM     13  C   UNL A   1      32.113  23.637  25.027  1.00  0.00     0.019 A 
ATOM     14  O   UNL A   1      32.067  23.766  22.618  1.00  0.00    -0.475 OA
ATOM     15  C   UNL A   1      31.228  24.791  25.099  1.00  0.00     0.025 C 
ATOM     16  C   UNL A   1      31.970  25.217  22.800  1.00  0.00     0.314 C 
BRANCH   7  17
ATOM     17  O   UNL A   1      34.337  20.148  24.712  1.00  0.00    -0.492 OA
BRANCH  17  18
ATOM     18  C   UNL A   1      33.494  19.000  24.966  1.00  0.00     0.233 C 
BRANCH  18  19
ATOM     19  C   UNL A   1      34.127  17.707  24.395  1.00  0.00     0.026 C 
BRANCH  19  20
ATOM     20  C   UNL A   1      33.954  16.518  25.370  1.00  0.00     0.003 C 
ATOM     21  C   UNL A   1      32.507  16.064  25.499  1.00  0.00     0.004 C 
ENDBRANCH  19  20
BRANCH  19  22
ATOM     22  C   UNL A   1      33.605  17.385  22.980  1.00  0.00     0.003 C 
ATOM     23  C   UNL A   1      32.317  18.089  22.579  1.00  0.00     0.004 C 
ENDBRANCH  19  22
ENDBRANCH  18  19
ENDBRANCH  17  18
ENDBRANCH   7  17
BRANCH  16  24
ATOM     24  C   UNL A   1      33.378  25.867  22.836  1.00  0.00     0.429 C 
ATOM     25  F   UNL A   1      33.646  26.361  24.068  1.00  0.00    -0.167 F 
ATOM     26  F   UNL A   1      34.361  24.975  22.554  1.00  0.00    -0.167 F 
ATOM     27  F   UNL A   1      33.528  26.881  21.954  1.00  0.00    -0.167 F 
ENDBRANCH  16  24
ENDBRANCH   3   6
ENDBRANCH   1   2
BRANCH   1  28
ATOM     28  C   UNL A   1      31.955  28.022  26.687  1.00  0.00     0.042 C 
BRANCH  28  29
ATOM     29  C   UNL A   1      33.280  28.486  27.275  1.00  0.00     0.118 C 
BRANCH  29  30
ATOM     30  N   UNL A   1      33.320  29.933  27.460  1.00  0.00    -0.352 N 
ATOM     31  C   UNL A   1      34.300  30.728  28.010  1.00  0.00     0.251 C 
ATOM     32  H   UNL A   1      32.523  30.415  27.142  1.00  0.00     0.163 HD
ATOM     33  O   UNL A   1      34.056  31.894  28.289  1.00  0.00    -0.269 OA
BRANCH  31  34
ATOM     34  C   UNL A   1      35.636  30.155  28.282  1.00  0.00     0.039 A 
ATOM     35  C   UNL A   1      35.918  29.597  29.528  1.00  0.00     0.014 A 
ATOM     36  C   UNL A   1      36.620  30.190  27.290  1.00  0.00     0.014 A 
ATOM     37  C   UNL A   1      37.226  29.269  29.852  1.00  0.00     0.010 A 
ATOM     38  C   UNL A   1      37.913  29.746  27.582  1.00  0.00     0.010 A 
ATOM     39  C   UNL A   1      38.239  29.332  28.883  1.00  0.00    -0.014 A 
BRANCH  39  40
ATOM     40  C   UNL A   1      39.622  28.941  29.263  1.00  0.00     0.031 A 
ATOM     41  C   UNL A   1      40.430  29.777  30.218  1.00  0.00     0.074 A 
ATOM     42  C   UNL A   1      40.117  27.777  28.798  1.00  0.00     0.049 A 
ATOM     43  N   UNL A   1      41.624  29.543  30.699  1.00  0.00    -0.248 NA
ATOM     44  C   UNL A   1      39.832  31.036  30.692  1.00  0.00     0.031 C 
ATOM     45  C   UNL A   1      39.413  26.874  27.883  1.00  0.00     0.029 A 
ATOM     46  N   UNL A   1      41.294  27.124  29.065  1.00  0.00    -0.354 N 
ATOM     47  C   UNL A   1      41.933  30.636  31.501  1.00  0.00     0.074 A 
ATOM     48  C   UNL A   1      40.810  31.543  31.432  1.00  0.00     0.031 C 
ATOM     49  C   UNL A   1      40.125  25.749  27.743  1.00  0.00     0.029 A 
ATOM     50  C   UNL A   1      41.375  25.881  28.484  1.00  0.00     0.049 A 
ATOM     51  H   UNL A   1      42.010  27.510  29.619  1.00  0.00     0.167 HD
ATOM     52  C   UNL A   1      43.052  30.856  32.232  1.00  0.00     0.031 A 
ATOM     53  C   UNL A   1      42.343  24.945  28.531  1.00  0.00     0.031 A 
ATOM     54  C   UNL A   1      44.152  29.930  32.318  1.00  0.00     0.049 A 
ATOM     55  C   UNL A   1      43.582  25.220  29.326  1.00  0.00     0.074 A 
ATOM     56  C   UNL A   1      45.310  30.048  33.067  1.00  0.00     0.029 A 
ATOM     57  N   UNL A   1      44.232  28.722  31.642  1.00  0.00    -0.354 N 
ATOM     58  N   UNL A   1      43.854  26.259  30.078  1.00  0.00    -0.248 NA
ATOM     59  C   UNL A   1      44.648  24.214  29.273  1.00  0.00     0.031 C 
ATOM     60  C   UNL A   1      46.118  28.941  32.794  1.00  0.00     0.029 A 
ATOM     61  C   UNL A   1      45.437  28.102  31.928  1.00  0.00     0.049 A 
ATOM     62  H   UNL A   1      43.536  28.360  31.048  1.00  0.00     0.167 HD
ATOM     63  C   UNL A   1      45.127  26.037  30.585  1.00  0.00     0.074 A 
ATOM     64  C   UNL A   1      45.562  24.751  30.073  1.00  0.00     0.031 C 
ATOM     65  C   UNL A   1      45.867  26.831  31.395  1.00  0.00     0.031 A 
BRANCH  52  66
ATOM     66  C   UNL A   1      43.170  32.156  32.984  1.00  0.00    -0.014 A 
ATOM     67  C   UNL A   1      42.652  32.246  34.290  1.00  0.00     0.010 A 
ATOM     68  C   UNL A   1      43.700  33.309  32.379  1.00  0.00     0.010 A 
ATOM     69  C   UNL A   1      42.645  33.465  34.971  1.00  0.00     0.020 A 
ATOM     70  C   UNL A   1      43.719  34.526  33.067  1.00  0.00     0.020 A 
ATOM     71  C   UNL A   1      43.174  34.601  34.352  1.00  0.00     0.054 A 
BRANCH  71  72
ATOM     72  S   UNL A   1      43.164  36.178  35.251  1.00  0.00     0.124 S 
ATOM     73  O   UNL A   1      41.819  36.201  35.817  1.00  0.00    -0.237 OA
ATOM     74  O   UNL A   1      44.252  36.008  36.212  1.00  0.00    -0.237 OA
ATOM     75  O   UNL A   1      43.421  37.164  34.205  1.00  0.00    -0.744 OA
ENDBRANCH  71  72
ENDBRANCH  52  66
BRANCH  53  76
ATOM     76  C   UNL A   1      42.127  23.662  27.808  1.00  0.00    -0.014 A 
ATOM     77  C   UNL A   1      41.361  22.637  28.395  1.00  0.00     0.010 A 
ATOM     78  C   UNL A   1      42.815  23.404  26.611  1.00  0.00     0.010 A 
ATOM     79  C   UNL A   1      41.359  21.353  27.846  1.00  0.00     0.020 A 
ATOM     80  C   UNL A   1      42.791  22.127  26.042  1.00  0.00     0.020 A 
ATOM     81  C   UNL A   1      42.097  21.100  26.687  1.00  0.00     0.054 A 
BRANCH  81  82
ATOM     82  S   UNL A   1      42.175  19.399  26.058  1.00  0.00     0.124 S 
ATOM     83  O   UNL A   1      43.077  19.546  24.919  1.00  0.00    -0.237 OA
ATOM     84  O   UNL A   1      42.714  18.661  27.197  1.00  0.00    -0.237 OA
ATOM     85  O   UNL A   1      40.787  19.096  25.723  1.00  0.00    -0.744 OA
ENDBRANCH  81  82
ENDBRANCH  53  76
BRANCH  65  86
ATOM     86  C   UNL A   1      47.245  26.363  31.778  1.00  0.00    -0.014 A 
ATOM     87  C   UNL A   1      48.335  26.637  30.933  1.00  0.00     0.010 A 
ATOM     88  C   UNL A   1      47.432  25.535  32.899  1.00  0.00     0.010 A 
ATOM     89  C   UNL A   1      49.583  26.060  31.179  1.00  0.00     0.020 A 
ATOM     90  C   UNL A   1      48.686  24.976  33.162  1.00  0.00     0.020 A 
ATOM     91  C   UNL A   1      49.746  25.221  32.285  1.00  0.00     0.054 A 
BRANCH  91  92
ATOM     92  S   UNL A   1      51.361  24.446  32.565  1.00  0.00     0.124 S 
ATOM     93  O   UNL A   1      51.662  24.850  33.935  1.00  0.00    -0.237 OA
ATOM     94  O   UNL A   1      51.075  23.025  32.376  1.00  0.00    -0.237 OA
ATOM     95  O   UNL A   1      52.210  25.043  31.536  1.00  0.00    -0.744 OA
ENDBRANCH  91  92
ENDBRANCH  65  86
ENDBRANCH  39  40
ENDBRANCH  31  34
ENDBRANCH  29  30
ENDBRANCH  28  29
ENDBRANCH   1  28
TORSDOF 19
ENDMDL
MODEL 2
REMARK VINA RESULT:     -10.9      3.383      4.052
REMARK SMILES CCC(CC)COc1cc2c(cc1Cl)C=C(C(=O)NCCCNC(=O)c1ccc(-c3c4nc(c(-c5ccc(S(=O)(=O)[O-])cc5)c5ccc([nH]5)c(-c5ccc(S(=O)(=O)[O-])cc5)c5nc(c(-c6ccc(S(=O)(=O)[O-])cc6)c6ccc3[nH]6)C=C5)C=C4)cc1)[C@@H](C(F)(F)F)O2
REMARK SMILES IDX 20 1 19 2 17 3 18 4 16 6 8 7 9 8 13 9 10 10 12 11 14 12
REMARK SMILES IDX 11 13 91 14 15 15 86 16 7 17 6 18 3 19 2 20 1 21 4 22 5 23
REMARK SMILES IDX 87 24 88 25 89 26 90 27 21 28 22 29 23 30 24 31 25 33 26 34
REMARK SMILES IDX 27 35 85 36 28 37 84 38 29 39 30 40 31 41 78 42 32 43 83 44
REMARK SMILES IDX 77 45 79 46 33 47 82 48 76 49 75 50 34 52 64 53 45 54 63 55
REMARK SMILES IDX 46 56 49 57 62 58 80 59 47 60 48 61 61 63 81 64 50 65 35 66
REMARK SMILES IDX 36 67 44 68 37 69 43 70 38 71 39 72 40 73 41 74 42 75 65 76
REMARK SMILES IDX 66 77 74 78 67 79 73 80 68 81 69 82 70 83 71 84 72 85 51 86
REMARK SMILES IDX 52 87 60 88 53 89 59 90 54 91 55 92 56 93 57 94 58 95
REMARK H PARENT 19 5 23 32 79 51 49 62
REMARK Flexibility Score: inf
ROOT
ATOM      1  C   UNL A   1      34.361  28.943  26.425  1.00  0.00     0.118 C 
ENDROOT
BRANCH   1   2
ATOM      2  N   UNL A   1      33.649  29.104  25.169  1.00  0.00    -0.352 N 
ATOM      3  C   UNL A   1      33.092  28.290  24.246  1.00  0.00     0.251 C 
ATOM      4  O   UNL A   1      32.555  28.861  23.292  1.00  0.00    -0.270 OA
ATOM      5  H   UNL A   1      33.544  30.052  24.929  1.00  0.00     0.163 HD
BRANCH   3   6
ATOM      6  C   UNL A   1      33.080  26.808  24.319  1.00  0.00     0.067 C 
ATOM      7  C   UNL A   1      33.966  22.050  25.547  1.00  0.00     0.141 A 
ATOM      8  C   UNL A   1      32.804  22.728  25.172  1.00  0.00     0.095 A 
ATOM      9  C   UNL A   1      35.191  22.731  25.611  1.00  0.00     0.083 A 
ATOM     10  C   UNL A   1      32.874  24.098  24.951  1.00  0.00     0.131 A 
ATOM     11  C   UNL A   1      35.224  24.120  25.508  1.00  0.00     0.036 A 
ATOM     12  Cl  UNL A   1      36.689  21.904  25.837  1.00  0.00    -0.080 Cl
ATOM     13  C   UNL A   1      34.056  24.808  25.197  1.00  0.00     0.019 A 
ATOM     14  O   UNL A   1      31.764  24.731  24.446  1.00  0.00    -0.475 OA
ATOM     15  C   UNL A   1      34.035  26.260  25.091  1.00  0.00     0.025 C 
ATOM     16  C   UNL A   1      32.102  25.898  23.626  1.00  0.00     0.314 C 
BRANCH   7  17
ATOM     17  O   UNL A   1      33.906  20.706  25.805  1.00  0.00    -0.492 OA
BRANCH  17  18
ATOM     18  C   UNL A   1      34.352  19.909  24.683  1.00  0.00     0.233 C 
BRANCH  18  19
ATOM     19  C   UNL A   1      33.398  18.714  24.435  1.00  0.00     0.026 C 
BRANCH  19  20
ATOM     20  C   UNL A   1      32.790  18.196  25.760  1.00  0.00     0.003 C 
ATOM     21  C   UNL A   1      32.665  16.679  25.800  1.00  0.00     0.004 C 
ENDBRANCH  19  20
BRANCH  19  22
ATOM     22  C   UNL A   1      32.319  19.045  23.384  1.00  0.00     0.003 C 
ATOM     23  C   UNL A   1      32.441  18.304  22.060  1.00  0.00     0.004 C 
ENDBRANCH  19  22
ENDBRANCH  18  19
ENDBRANCH  17  18
ENDBRANCH   7  17
BRANCH  16  24
ATOM     24  C   UNL A   1      32.604  25.463  22.224  1.00  0.00     0.429 C 
ATOM     25  F   UNL A   1      32.515  24.120  22.080  1.00  0.00    -0.167 F 
ATOM     26  F   UNL A   1      31.868  26.010  21.224  1.00  0.00    -0.167 F 
ATOM     27  F   UNL A   1      33.887  25.811  21.978  1.00  0.00    -0.167 F 
ENDBRANCH  16  24
ENDBRANCH   3   6
ENDBRANCH   1   2
BRANCH   1  28
ATOM     28  C   UNL A   1      34.142  30.133  27.342  1.00  0.00     0.042 C 
BRANCH  28  29
ATOM     29  C   UNL A   1      35.442  30.646  27.946  1.00  0.00     0.118 C 
BRANCH  29  30
ATOM     30  N   UNL A   1      35.435  30.576  29.404  1.00  0.00    -0.352 N 
ATOM     31  C   UNL A   1      36.331  29.983  30.266  1.00  0.00     0.251 C 
ATOM     32  H   UNL A   1      34.672  31.021  29.838  1.00  0.00     0.163 HD
ATOM     33  O   UNL A   1      36.035  29.830  31.442  1.00  0.00    -0.269 OA
BRANCH  31  34
ATOM     34  C   UNL A   1      37.636  29.515  29.752  1.00  0.00     0.039 A 
ATOM     35  C   UNL A   1      38.496  28.793  30.578  1.00  0.00     0.014 A 
ATOM     36  C   UNL A   1      38.011  29.813  28.438  1.00  0.00     0.014 A 
ATOM     37  C   UNL A   1      39.799  28.554  30.169  1.00  0.00     0.010 A 
ATOM     38  C   UNL A   1      39.287  29.464  27.987  1.00  0.00     0.010 A 
ATOM     39  C   UNL A   1      40.211  28.880  28.867  1.00  0.00    -0.014 A 
BRANCH  39  40
ATOM     40  C   UNL A   1      41.608  28.577  28.459  1.00  0.00     0.031 A 
ATOM     41  C   UNL A   1      42.714  29.572  28.681  1.00  0.00     0.074 A 
ATOM     42  C   UNL A   1      41.886  27.359  27.954  1.00  0.00     0.049 A 
ATOM     43  N   UNL A   1      43.993  29.440  28.441  1.00  0.00    -0.248 NA
ATOM     44  C   UNL A   1      42.346  30.884  29.240  1.00  0.00     0.031 C 
ATOM     45  C   UNL A   1      40.894  26.307  27.714  1.00  0.00     0.029 A 
ATOM     46  N   UNL A   1      43.077  26.777  27.601  1.00  0.00    -0.354 N 
ATOM     47  C   UNL A   1      44.574  30.654  28.783  1.00  0.00     0.074 A 
ATOM     48  C   UNL A   1      43.509  31.521  29.234  1.00  0.00     0.031 C 
ATOM     49  C   UNL A   1      41.526  25.184  27.349  1.00  0.00     0.029 A 
ATOM     50  C   UNL A   1      42.956  25.456  27.242  1.00  0.00     0.049 A 
ATOM     51  H   UNL A   1      43.935  27.260  27.605  1.00  0.00     0.167 HD
ATOM     52  C   UNL A   1      45.880  31.010  28.729  1.00  0.00     0.031 A 
ATOM     53  C   UNL A   1      43.883  24.554  26.863  1.00  0.00     0.031 A 
ATOM     54  C   UNL A   1      46.937  30.127  28.308  1.00  0.00     0.049 A 
ATOM     55  C   UNL A   1      45.318  24.976  26.788  1.00  0.00     0.074 A 
ATOM     56  C   UNL A   1      48.296  30.385  28.260  1.00  0.00     0.029 A 
ATOM     57  N   UNL A   1      46.760  28.824  27.866  1.00  0.00    -0.354 N 
ATOM     58  N   UNL A   1      45.848  26.130  27.116  1.00  0.00    -0.248 NA
ATOM     59  C   UNL A   1      46.280  23.991  26.281  1.00  0.00     0.031 C 
ATOM     60  C   UNL A   1      48.933  29.260  27.730  1.00  0.00     0.029 A 
ATOM     61  C   UNL A   1      47.981  28.278  27.510  1.00  0.00     0.049 A 
ATOM     62  H   UNL A   1      45.895  28.358  27.815  1.00  0.00     0.167 HD
ATOM     63  C   UNL A   1      47.205  26.014  26.851  1.00  0.00     0.074 A 
ATOM     64  C   UNL A   1      47.420  24.667  26.357  1.00  0.00     0.031 C 
ATOM     65  C   UNL A   1      48.180  26.943  26.999  1.00  0.00     0.031 A 
BRANCH  52  66
ATOM     66  C   UNL A   1      46.254  32.418  29.111  1.00  0.00    -0.014 A 
ATOM     67  C   UNL A   1      46.304  33.413  28.115  1.00  0.00     0.010 A 
ATOM     68  C   UNL A   1      46.647  32.744  30.421  1.00  0.00     0.010 A 
ATOM     69  C   UNL A   1      46.754  34.700  28.416  1.00  0.00     0.020 A 
ATOM     70  C   UNL A   1      47.074  34.039  30.732  1.00  0.00     0.020 A 
ATOM     71  C   UNL A   1      47.143  35.003  29.724  1.00  0.00     0.054 A 
BRANCH  71  72
ATOM     72  S   UNL A   1      47.721  36.682  30.102  1.00  0.00     0.124 S 
ATOM     73  O   UNL A   1      46.589  37.500  29.678  1.00  0.00    -0.237 OA
ATOM     74  O   UNL A   1      47.956  36.625  31.543  1.00  0.00    -0.237 OA
ATOM     75  O   UNL A   1      48.929  36.814  29.290  1.00  0.00    -0.744 OA
ENDBRANCH  71  72
ENDBRANCH  52  66
BRANCH  53  76
ATOM     76  C   UNL A   1      43.443  23.167  26.558  1.00  0.00    -0.014 A 
ATOM     77  C   UNL A   1      42.584  22.484  27.442  1.00  0.00     0.010 A 
ATOM     78  C   UNL A   1      44.004  22.471  25.474  1.00  0.00     0.010 A 
ATOM     79  C   UNL A   1      42.366  21.112  27.298  1.00  0.00     0.020 A 
ATOM     80  C   UNL A   1      43.764  21.103  25.310  1.00  0.00     0.020 A 
ATOM     81  C   UNL A   1      42.980  20.425  26.248  1.00  0.00     0.054 A 
BRANCH  81  82
ATOM     82  S   UNL A   1      42.779  18.624  26.149  1.00  0.00     0.124 S 
ATOM     83  O   UNL A   1      43.754  18.273  25.120  1.00  0.00    -0.237 OA
ATOM     84  O   UNL A   1      43.110  18.190  27.504  1.00  0.00    -0.237 OA
ATOM     85  O   UNL A   1      41.379  18.458  25.768  1.00  0.00    -0.744 OA
ENDBRANCH  81  82
ENDBRANCH  53  76
BRANCH  65  86
ATOM     86  C   UNL A   1      49.582  26.564  26.606  1.00  0.00    -0.014 A 
ATOM     87  C   UNL A   1      50.047  26.857  25.311  1.00  0.00     0.010 A 
ATOM     88  C   UNL A   1      50.384  25.799  27.469  1.00  0.00     0.010 A 
ATOM     89  C   UNL A   1      51.275  26.357  24.870  1.00  0.00     0.020 A 
ATOM     90  C   UNL A   1      51.625  25.319  27.040  1.00  0.00     0.020 A 
ATOM     91  C   UNL A   1      52.049  25.578  25.734  1.00  0.00     0.054 A 
BRANCH  91  92
ATOM     92  S   UNL A   1      53.620  24.902  25.133  1.00  0.00     0.124 S 
ATOM     93  O   UNL A   1      53.778  25.587  23.853  1.00  0.00    -0.237 OA
ATOM     94  O   UNL A   1      54.562  25.295  26.179  1.00  0.00    -0.237 OA
ATOM     95  O   UNL A   1      53.363  23.466  25.047  1.00  0.00    -0.744 OA
ENDBRANCH  91  92
ENDBRANCH  65  86
ENDBRANCH  39  40
ENDBRANCH  31  34
ENDBRANCH  29  30
ENDBRANCH  28  29
ENDBRANCH   1  28
TORSDOF 19
ENDMDL
MODEL 3
REMARK VINA RESULT:     -10.6      3.841      9.616
REMARK SMILES CCC(CC)COc1cc2c(cc1Cl)C=C(C(=O)NCCCNC(=O)c1ccc(-c3c4nc(c(-c5ccc(S(=O)(=O)[O-])cc5)c5ccc([nH]5)c(-c5ccc(S(=O)(=O)[O-])cc5)c5nc(c(-c6ccc(S(=O)(=O)[O-])cc6)c6ccc3[nH]6)C=C5)C=C4)cc1)[C@@H](C(F)(F)F)O2
REMARK SMILES IDX 20 1 19 2 17 3 18 4 16 6 8 7 9 8 13 9 10 10 12 11 14 12
REMARK SMILES IDX 11 13 91 14 15 15 86 16 7 17 6 18 3 19 2 20 1 21 4 22 5 23
REMARK SMILES IDX 87 24 88 25 89 26 90 27 21 28 22 29 23 30 24 31 25 33 26 34
REMARK SMILES IDX 27 35 85 36 28 37 84 38 29 39 30 40 31 41 78 42 32 43 83 44
REMARK SMILES IDX 77 45 79 46 33 47 82 48 76 49 75 50 34 52 64 53 45 54 63 55
REMARK SMILES IDX 46 56 49 57 62 58 80 59 47 60 48 61 61 63 81 64 50 65 35 66
REMARK SMILES IDX 36 67 44 68 37 69 43 70 38 71 39 72 40 73 41 74 42 75 65 76
REMARK SMILES IDX 66 77 74 78 67 79 73 80 68 81 69 82 70 83 71 84 72 85 51 86
REMARK SMILES IDX 52 87 60 88 53 89 59 90 54 91 55 92 56 93 57 94 58 95
REMARK H PARENT 19 5 23 32 79 51 49 62
REMARK Flexibility Score: inf
ROOT
ATOM      1  C   UNL A   1      35.801  22.007  24.232  1.00  0.00     0.118 C 
ENDROOT
BRANCH   1   2
ATOM      2  N   UNL A   1      35.124  21.807  25.502  1.00  0.00    -0.352 N 
ATOM      3  C   UNL A   1      34.132  22.413  26.191  1.00  0.00     0.251 C 
ATOM      4  O   UNL A   1      33.845  21.893  27.273  1.00  0.00    -0.270 OA
ATOM      5  H   UNL A   1      35.480  21.028  25.986  1.00  0.00     0.163 HD
BRANCH   3   6
ATOM      6  C   UNL A   1      33.390  23.612  25.730  1.00  0.00     0.067 C 
ATOM      7  C   UNL A   1      32.087  28.259  24.449  1.00  0.00     0.141 A 
ATOM      8  C   UNL A   1      31.768  27.009  23.917  1.00  0.00     0.095 A 
ATOM      9  C   UNL A   1      32.917  28.356  25.576  1.00  0.00     0.083 A 
ATOM     10  C   UNL A   1      32.355  25.878  24.473  1.00  0.00     0.131 A 
ATOM     11  C   UNL A   1      33.593  27.230  26.044  1.00  0.00     0.036 A 
ATOM     12  Cl  UNL A   1      33.155  29.845  26.414  1.00  0.00    -0.080 Cl
ATOM     13  C   UNL A   1      33.326  25.990  25.476  1.00  0.00     0.019 A 
ATOM     14  O   UNL A   1      31.929  24.646  24.040  1.00  0.00    -0.475 OA
ATOM     15  C   UNL A   1      34.016  24.787  25.919  1.00  0.00     0.025 C 
ATOM     16  C   UNL A   1      32.034  23.614  25.075  1.00  0.00     0.314 C 
BRANCH   7  17
ATOM     17  O   UNL A   1      31.545  29.385  23.889  1.00  0.00    -0.492 OA
BRANCH  17  18
ATOM     18  C   UNL A   1      30.869  29.110  22.640  1.00  0.00     0.233 C 
BRANCH  18  19
ATOM     19  C   UNL A   1      29.380  29.534  22.708  1.00  0.00     0.026 C 
BRANCH  19  20
ATOM     20  C   UNL A   1      28.476  28.347  23.120  1.00  0.00     0.003 C 
ATOM     21  C   UNL A   1      27.000  28.714  23.154  1.00  0.00     0.004 C 
ENDBRANCH  19  20
BRANCH  19  22
ATOM     22  C   UNL A   1      29.172  30.770  23.607  1.00  0.00     0.003 C 
ATOM     23  C   UNL A   1      28.371  31.905  22.988  1.00  0.00     0.004 C 
ENDBRANCH  19  22
ENDBRANCH  18  19
ENDBRANCH  17  18
ENDBRANCH   7  17
BRANCH  16  24
ATOM     24  C   UNL A   1      30.888  23.748  26.111  1.00  0.00     0.429 C 
ATOM     25  F   UNL A   1      30.169  22.603  26.179  1.00  0.00    -0.167 F 
ATOM     26  F   UNL A   1      31.353  23.990  27.362  1.00  0.00    -0.167 F 
ATOM     27  F   UNL A   1      30.023  24.750  25.833  1.00  0.00    -0.167 F 
ENDBRANCH  16  24
ENDBRANCH   3   6
ENDBRANCH   1   2
BRANCH   1  28
ATOM     28  C   UNL A   1      36.977  22.957  24.375  1.00  0.00     0.042 C 
BRANCH  28  29
ATOM     29  C   UNL A   1      37.496  23.025  25.804  1.00  0.00     0.118 C 
BRANCH  29  30
ATOM     30  N   UNL A   1      38.333  21.877  26.139  1.00  0.00    -0.352 N 
ATOM     31  C   UNL A   1      39.657  21.825  26.512  1.00  0.00     0.251 C 
ATOM     32  H   UNL A   1      37.879  21.004  26.092  1.00  0.00     0.163 HD
ATOM     33  O   UNL A   1      40.245  20.753  26.528  1.00  0.00    -0.269 OA
BRANCH  31  34
ATOM     34  C   UNL A   1      40.364  23.075  26.867  1.00  0.00     0.039 A 
ATOM     35  C   UNL A   1      41.137  23.137  28.025  1.00  0.00     0.014 A 
ATOM     36  C   UNL A   1      40.241  24.198  26.043  1.00  0.00     0.014 A 
ATOM     37  C   UNL A   1      41.609  24.363  28.468  1.00  0.00     0.010 A 
ATOM     38  C   UNL A   1      40.820  25.408  26.434  1.00  0.00     0.010 A 
ATOM     39  C   UNL A   1      41.464  25.514  27.677  1.00  0.00    -0.014 A 
BRANCH  39  40
ATOM     40  C   UNL A   1      42.013  26.802  28.175  1.00  0.00     0.031 A 
ATOM     41  C   UNL A   1      43.470  27.138  28.014  1.00  0.00     0.074 A 
ATOM     42  C   UNL A   1      41.165  27.706  28.706  1.00  0.00     0.049 A 
ATOM     43  N   UNL A   1      44.095  28.242  28.335  1.00  0.00    -0.248 NA
ATOM     44  C   UNL A   1      44.344  26.110  27.423  1.00  0.00     0.031 C 
ATOM     45  C   UNL A   1      39.727  27.495  28.890  1.00  0.00     0.029 A 
ATOM     46  N   UNL A   1      41.369  28.992  29.137  1.00  0.00    -0.354 N 
ATOM     47  C   UNL A   1      45.432  28.031  28.021  1.00  0.00     0.074 A 
ATOM     48  C   UNL A   1      45.535  26.687  27.497  1.00  0.00     0.031 C 
ATOM     49  C   UNL A   1      39.166  28.639  29.303  1.00  0.00     0.029 A 
ATOM     50  C   UNL A   1      40.211  29.639  29.498  1.00  0.00     0.049 A 
ATOM     51  H   UNL A   1      42.259  29.410  29.183  1.00  0.00     0.167 HD
ATOM     52  C   UNL A   1      46.475  28.884  28.155  1.00  0.00     0.031 A 
ATOM     53  C   UNL A   1      40.001  30.894  29.942  1.00  0.00     0.031 A 
ATOM     54  C   UNL A   1      46.355  30.231  28.648  1.00  0.00     0.049 A 
ATOM     55  C   UNL A   1      41.173  31.812  30.103  1.00  0.00     0.074 A 
ATOM     56  C   UNL A   1      47.349  31.185  28.779  1.00  0.00     0.029 A 
ATOM     57  N   UNL A   1      45.177  30.817  29.088  1.00  0.00    -0.354 N 
ATOM     58  N   UNL A   1      42.430  31.593  29.800  1.00  0.00    -0.248 NA
ATOM     59  C   UNL A   1      40.910  33.137  30.678  1.00  0.00     0.031 C 
ATOM     60  C   UNL A   1      46.784  32.325  29.357  1.00  0.00     0.029 A 
ATOM     61  C   UNL A   1      45.426  32.107  29.525  1.00  0.00     0.049 A 
ATOM     62  H   UNL A   1      44.294  30.380  29.089  1.00  0.00     0.167 HD
ATOM     63  C   UNL A   1      43.112  32.750  30.151  1.00  0.00     0.074 A 
ATOM     64  C   UNL A   1      42.124  33.677  30.668  1.00  0.00     0.031 C 
ATOM     65  C   UNL A   1      44.437  33.013  30.057  1.00  0.00     0.031 A 
BRANCH  52  66
ATOM     66  C   UNL A   1      47.851  28.394  27.786  1.00  0.00    -0.014 A 
ATOM     67  C   UNL A   1      48.637  27.748  28.760  1.00  0.00     0.010 A 
ATOM     68  C   UNL A   1      48.406  28.649  26.519  1.00  0.00     0.010 A 
ATOM     69  C   UNL A   1      49.956  27.383  28.482  1.00  0.00     0.020 A 
ATOM     70  C   UNL A   1      49.719  28.262  26.229  1.00  0.00     0.020 A 
ATOM     71  C   UNL A   1      50.491  27.648  27.219  1.00  0.00     0.054 A 
BRANCH  71  72
ATOM     72  S   UNL A   1      52.205  27.162  26.870  1.00  0.00     0.124 S 
ATOM     73  O   UNL A   1      52.200  25.744  27.216  1.00  0.00    -0.237 OA
ATOM     74  O   UNL A   1      52.343  27.467  25.448  1.00  0.00    -0.237 OA
ATOM     75  O   UNL A   1      52.986  28.020  27.758  1.00  0.00    -0.744 OA
ENDBRANCH  71  72
ENDBRANCH  52  66
BRANCH  53  76
ATOM     76  C   UNL A   1      38.606  31.322  30.229  1.00  0.00    -0.014 A 
ATOM     77  C   UNL A   1      37.844  31.968  29.237  1.00  0.00     0.010 A 
ATOM     78  C   UNL A   1      38.095  31.230  31.534  1.00  0.00     0.010 A 
ATOM     79  C   UNL A   1      36.637  32.592  29.566  1.00  0.00     0.020 A 
ATOM     80  C   UNL A   1      36.874  31.828  31.860  1.00  0.00     0.020 A 
ATOM     81  C   UNL A   1      36.174  32.540  30.883  1.00  0.00     0.054 A 
BRANCH  81  82
ATOM     82  S   UNL A   1      34.667  33.456  31.312  1.00  0.00     0.124 S 
ATOM     83  O   UNL A   1      33.994  33.542  30.019  1.00  0.00    -0.237 OA
ATOM     84  O   UNL A   1      34.032  32.583  32.296  1.00  0.00    -0.237 OA
ATOM     85  O   UNL A   1      35.176  34.719  31.839  1.00  0.00    -0.744 OA
ENDBRANCH  81  82
ENDBRANCH  53  76
BRANCH  65  86
ATOM     86  C   UNL A   1      44.928  34.350  30.541  1.00  0.00    -0.014 A 
ATOM     87  C   UNL A   1      45.050  35.419  29.635  1.00  0.00     0.010 A 
ATOM     88  C   UNL A   1      45.398  34.505  31.857  1.00  0.00     0.010 A 
ATOM     89  C   UNL A   1      45.669  36.610  30.024  1.00  0.00     0.020 A 
ATOM     90  C   UNL A   1      45.995  35.704  32.257  1.00  0.00     0.020 A 
ATOM     91  C   UNL A   1      46.151  36.738  31.330  1.00  0.00     0.054 A 
BRANCH  91  92
ATOM     92  S   UNL A   1      46.990  38.273  31.806  1.00  0.00     0.124 S 
ATOM     93  O   UNL A   1      47.205  38.075  33.236  1.00  0.00    -0.237 OA
ATOM     94  O   UNL A   1      48.195  38.252  30.979  1.00  0.00    -0.237 OA
ATOM     95  O   UNL A   1      46.025  39.313  31.456  1.00  0.00    -0.744 OA
ENDBRANCH  91  92
ENDBRANCH  65  86
ENDBRANCH  39  40
ENDBRANCH  31  34
ENDBRANCH  29  30
ENDBRANCH  28  29
ENDBRANCH   1  28
TORSDOF 19
ENDMDL
