MODEL 1
REMARK VINA RESULT:     -10.2      0.000      0.000
REMARK SMILES CCN(CC(C)(C)O)C(=O)[C@H]1CC=CC[C@H]1C(=O)NCCCNC(=O)c1ccc(-c2c3nc(c(-c4ccc(S(=O)(=O)[O-])cc4)c4ccc([nH]4)c(-c4ccc(S(=O)(=O)[O-])cc4)c4nc(c(-c5ccc(S(=O)(=O)[O-])cc5)c5ccc2[nH]5)C=C4)C=C3)cc1
REMARK SMILES IDX 20 1 19 2 17 3 18 4 16 6 11 7 12 8 13 9 15 10 14 11 9 12
REMARK SMILES IDX 10 13 3 14 2 15 1 16 4 17 5 18 6 19 7 20 8 21 21 23 22 24
REMARK SMILES IDX 23 25 24 26 25 28 26 29 27 30 85 31 28 32 84 33 29 34 30 35
REMARK SMILES IDX 31 36 78 37 32 38 83 39 77 40 79 41 33 42 82 43 76 44 75 45
REMARK SMILES IDX 34 47 64 48 45 49 63 50 46 51 49 52 62 53 80 54 47 55 48 56
REMARK SMILES IDX 61 58 81 59 50 60 35 61 36 62 44 63 37 64 43 65 38 66 39 67
REMARK SMILES IDX 40 68 41 69 42 70 65 71 66 72 74 73 67 74 73 75 68 76 69 77
REMARK SMILES IDX 70 78 71 79 72 80 51 81 52 82 60 83 53 84 59 85 54 86 55 87
REMARK SMILES IDX 56 88 57 89 58 90
REMARK H PARENT 19 5 8 22 23 27 79 46 49 57
REMARK Flexibility Score: inf
ROOT
ATOM      1  C   UNL A   1      33.646  22.097  25.943  1.00  0.00     0.117 C 
ENDROOT
BRANCH   1   2
ATOM      2  N   UNL A   1      32.395  22.238  26.694  1.00  0.00    -0.356 N 
ATOM      3  C   UNL A   1      31.311  23.049  26.644  1.00  0.00     0.224 C 
ATOM      4  O   UNL A   1      30.577  22.971  27.643  1.00  0.00    -0.275 OA
ATOM      5  H   UNL A   1      32.325  21.575  27.417  1.00  0.00     0.163 HD
BRANCH   3   6
ATOM      6  C   UNL A   1      30.917  24.044  25.547  1.00  0.00     0.095 C 
ATOM      7  C   UNL A   1      31.108  25.564  25.814  1.00  0.00     0.095 C 
ATOM      8  C   UNL A   1      30.019  26.318  24.994  1.00  0.00     0.041 C 
ATOM      9  C   UNL A   1      29.853  25.782  23.589  1.00  0.00    -0.030 C 
ATOM     10  C   UNL A   1      31.123  23.664  24.085  1.00  0.00     0.041 C 
ATOM     11  C   UNL A   1      30.374  24.613  23.175  1.00  0.00    -0.030 C 
BRANCH   7  12
ATOM     12  C   UNL A   1      32.474  26.145  25.404  1.00  0.00     0.226 C 
ATOM     13  O   UNL A   1      33.502  25.474  25.524  1.00  0.00    -0.275 OA
BRANCH  12  14
ATOM     14  N   UNL A   1      32.545  27.437  24.912  1.00  0.00    -0.340 N 
BRANCH  14  15
ATOM     15  C   UNL A   1      33.027  27.612  23.529  1.00  0.00     0.116 C 
ATOM     16  C   UNL A   1      32.364  28.793  22.809  1.00  0.00     0.027 C 
ENDBRANCH  14  15
BRANCH  14  17
ATOM     17  C   UNL A   1      32.166  28.639  25.650  1.00  0.00     0.154 C 
BRANCH  17  18
ATOM     18  C   UNL A   1      32.926  29.099  26.908  1.00  0.00     0.077 C 
ATOM     19  C   UNL A   1      34.430  28.879  26.839  1.00  0.00     0.043 C 
ATOM     20  C   UNL A   1      32.625  30.604  27.069  1.00  0.00     0.043 C 
BRANCH  18  21
ATOM     21  O   UNL A   1      32.394  28.423  28.047  1.00  0.00    -0.389 OA
ATOM     22  H   UNL A   1      31.592  28.878  28.348  1.00  0.00     0.211 HD
ENDBRANCH  18  21
ENDBRANCH  17  18
ENDBRANCH  14  17
ENDBRANCH  12  14
ENDBRANCH   7  12
ENDBRANCH   3   6
ENDBRANCH   1   2
BRANCH   1  23
ATOM     23  C   UNL A   1      34.866  22.499  26.809  1.00  0.00     0.042 C 
BRANCH  23  24
ATOM     24  C   UNL A   1      35.962  23.350  26.175  1.00  0.00     0.118 C 
BRANCH  24  25
ATOM     25  N   UNL A   1      37.204  22.633  25.992  1.00  0.00    -0.352 N 
ATOM     26  C   UNL A   1      38.538  22.878  26.191  1.00  0.00     0.251 C 
ATOM     27  H   UNL A   1      37.051  21.731  25.629  1.00  0.00     0.163 HD
ATOM     28  O   UNL A   1      39.272  21.938  25.858  1.00  0.00    -0.269 OA
BRANCH  26  29
ATOM     29  C   UNL A   1      39.190  24.114  26.750  1.00  0.00     0.039 A 
ATOM     30  C   UNL A   1      38.932  24.368  28.114  1.00  0.00     0.014 A 
ATOM     31  C   UNL A   1      39.955  25.062  26.070  1.00  0.00     0.014 A 
ATOM     32  C   UNL A   1      39.380  25.530  28.762  1.00  0.00     0.010 A 
ATOM     33  C   UNL A   1      40.445  26.218  26.735  1.00  0.00     0.010 A 
ATOM     34  C   UNL A   1      40.146  26.483  28.083  1.00  0.00    -0.014 A 
BRANCH  34  35
ATOM     35  C   UNL A   1      40.581  27.739  28.782  1.00  0.00     0.031 A 
ATOM     36  C   UNL A   1      41.993  27.890  29.311  1.00  0.00     0.074 A 
ATOM     37  C   UNL A   1      39.728  28.777  28.927  1.00  0.00     0.049 A 
ATOM     38  N   UNL A   1      42.550  28.913  29.916  1.00  0.00    -0.248 NA
ATOM     39  C   UNL A   1      42.888  26.734  29.157  1.00  0.00     0.031 C 
ATOM     40  C   UNL A   1      38.329  28.789  28.498  1.00  0.00     0.029 A 
ATOM     41  N   UNL A   1      39.916  30.032  29.466  1.00  0.00    -0.354 N 
ATOM     42  C   UNL A   1      43.845  28.515  30.239  1.00  0.00     0.074 A 
ATOM     43  C   UNL A   1      43.976  27.143  29.797  1.00  0.00     0.031 C 
ATOM     44  C   UNL A   1      37.798  29.997  28.753  1.00  0.00     0.029 A 
ATOM     45  C   UNL A   1      38.804  30.841  29.392  1.00  0.00     0.049 A 
ATOM     46  H   UNL A   1      40.765  30.322  29.868  1.00  0.00     0.167 HD
ATOM     47  C   UNL A   1      44.842  29.220  30.831  1.00  0.00     0.031 A 
ATOM     48  C   UNL A   1      38.608  32.119  29.779  1.00  0.00     0.031 A 
ATOM     49  C   UNL A   1      44.740  30.598  31.243  1.00  0.00     0.049 A 
ATOM     50  C   UNL A   1      39.740  32.897  30.397  1.00  0.00     0.074 A 
ATOM     51  C   UNL A   1      45.719  31.404  31.803  1.00  0.00     0.029 A 
ATOM     52  N   UNL A   1      43.601  31.378  31.130  1.00  0.00    -0.354 N 
ATOM     53  N   UNL A   1      40.964  32.507  30.654  1.00  0.00    -0.248 NA
ATOM     54  C   UNL A   1      39.465  34.296  30.761  1.00  0.00     0.031 C 
ATOM     55  C   UNL A   1      45.161  32.662  32.058  1.00  0.00     0.029 A 
ATOM     56  C   UNL A   1      43.849  32.653  31.614  1.00  0.00     0.049 A 
ATOM     57  H   UNL A   1      42.741  31.071  30.761  1.00  0.00     0.167 HD
ATOM     58  C   UNL A   1      41.612  33.617  31.186  1.00  0.00     0.074 A 
ATOM     59  C   UNL A   1      40.650  34.699  31.198  1.00  0.00     0.031 C 
ATOM     60  C   UNL A   1      42.890  33.728  31.625  1.00  0.00     0.031 A 
BRANCH  47  61
ATOM     61  C   UNL A   1      46.150  28.506  31.075  1.00  0.00    -0.014 A 
ATOM     62  C   UNL A   1      47.179  28.526  30.116  1.00  0.00     0.010 A 
ATOM     63  C   UNL A   1      46.368  27.836  32.294  1.00  0.00     0.010 A 
ATOM     64  C   UNL A   1      48.378  27.842  30.346  1.00  0.00     0.020 A 
ATOM     65  C   UNL A   1      47.576  27.176  32.541  1.00  0.00     0.020 A 
ATOM     66  C   UNL A   1      48.565  27.163  31.554  1.00  0.00     0.054 A 
BRANCH  66  67
ATOM     67  S   UNL A   1      50.127  26.282  31.828  1.00  0.00     0.124 S 
ATOM     68  O   UNL A   1      50.784  27.138  32.813  1.00  0.00    -0.237 OA
ATOM     69  O   UNL A   1      49.681  24.983  32.325  1.00  0.00    -0.237 OA
ATOM     70  O   UNL A   1      50.750  26.261  30.507  1.00  0.00    -0.744 OA
ENDBRANCH  66  67
ENDBRANCH  47  61
BRANCH  48  71
ATOM     71  C   UNL A   1      37.282  32.767  29.565  1.00  0.00    -0.014 A 
ATOM     72  C   UNL A   1      36.492  33.157  30.662  1.00  0.00     0.010 A 
ATOM     73  C   UNL A   1      36.803  33.001  28.264  1.00  0.00     0.010 A 
ATOM     74  C   UNL A   1      35.244  33.755  30.462  1.00  0.00     0.020 A 
ATOM     75  C   UNL A   1      35.567  33.623  28.059  1.00  0.00     0.020 A 
ATOM     76  C   UNL A   1      34.789  33.986  29.161  1.00  0.00     0.054 A 
BRANCH  76  77
ATOM     77  S   UNL A   1      33.195  34.819  28.921  1.00  0.00     0.124 S 
ATOM     78  O   UNL A   1      33.612  36.160  28.516  1.00  0.00    -0.237 OA
ATOM     79  O   UNL A   1      32.571  34.011  27.873  1.00  0.00    -0.237 OA
ATOM     80  O   UNL A   1      32.560  34.728  30.228  1.00  0.00    -0.744 OA
ENDBRANCH  76  77
ENDBRANCH  48  71
BRANCH  60  81
ATOM     81  C   UNL A   1      43.338  35.076  32.125  1.00  0.00    -0.014 A 
ATOM     82  C   UNL A   1      43.913  36.024  31.260  1.00  0.00     0.010 A 
ATOM     83  C   UNL A   1      43.158  35.409  33.481  1.00  0.00     0.010 A 
ATOM     84  C   UNL A   1      44.335  37.264  31.747  1.00  0.00     0.020 A 
ATOM     85  C   UNL A   1      43.557  36.657  33.968  1.00  0.00     0.020 A 
ATOM     86  C   UNL A   1      44.160  37.571  33.101  1.00  0.00     0.054 A 
BRANCH  86  87
ATOM     87  S   UNL A   1      44.698  39.193  33.710  1.00  0.00     0.124 S 
ATOM     88  O   UNL A   1      43.560  40.039  33.367  1.00  0.00    -0.237 OA
ATOM     89  O   UNL A   1      44.895  38.953  35.138  1.00  0.00    -0.237 OA
ATOM     90  O   UNL A   1      45.922  39.457  32.957  1.00  0.00    -0.744 OA
ENDBRANCH  86  87
ENDBRANCH  60  81
ENDBRANCH  34  35
ENDBRANCH  26  29
ENDBRANCH  24  25
ENDBRANCH  23  24
ENDBRANCH   1  23
TORSDOF 19
ENDMDL
MODEL 2
REMARK VINA RESULT:     -10.1      2.624      9.302
REMARK SMILES CCN(CC(C)(C)O)C(=O)[C@H]1CC=CC[C@H]1C(=O)NCCCNC(=O)c1ccc(-c2c3nc(c(-c4ccc(S(=O)(=O)[O-])cc4)c4ccc([nH]4)c(-c4ccc(S(=O)(=O)[O-])cc4)c4nc(c(-c5ccc(S(=O)(=O)[O-])cc5)c5ccc2[nH]5)C=C4)C=C3)cc1
REMARK SMILES IDX 20 1 19 2 17 3 18 4 16 6 11 7 12 8 13 9 15 10 14 11 9 12
REMARK SMILES IDX 10 13 3 14 2 15 1 16 4 17 5 18 6 19 7 20 8 21 21 23 22 24
REMARK SMILES IDX 23 25 24 26 25 28 26 29 27 30 85 31 28 32 84 33 29 34 30 35
REMARK SMILES IDX 31 36 78 37 32 38 83 39 77 40 79 41 33 42 82 43 76 44 75 45
REMARK SMILES IDX 34 47 64 48 45 49 63 50 46 51 49 52 62 53 80 54 47 55 48 56
REMARK SMILES IDX 61 58 81 59 50 60 35 61 36 62 44 63 37 64 43 65 38 66 39 67
REMARK SMILES IDX 40 68 41 69 42 70 65 71 66 72 74 73 67 74 73 75 68 76 69 77
REMARK SMILES IDX 70 78 71 79 72 80 51 81 52 82 60 83 53 84 59 85 54 86 55 87
REMARK SMILES IDX 56 88 57 89 58 90
REMARK H PARENT 19 5 8 22 23 27 79 46 49 57
REMARK Flexibility Score: inf
ROOT
ATOM      1  C   UNL A   1      32.761  29.041  24.363  1.00  0.00     0.117 C 
ENDROOT
BRANCH   1   2
ATOM      2  N   UNL A   1      33.259  28.440  23.123  1.00  0.00    -0.356 N 
ATOM      3  C   UNL A   1      33.241  27.211  22.554  1.00  0.00     0.224 C 
ATOM      4  O   UNL A   1      34.008  27.092  21.585  1.00  0.00    -0.275 OA
ATOM      5  H   UNL A   1      33.725  29.099  22.559  1.00  0.00     0.163 HD
BRANCH   3   6
ATOM      6  C   UNL A   1      32.434  25.980  22.979  1.00  0.00     0.095 C 
ATOM      7  C   UNL A   1      33.173  24.622  23.144  1.00  0.00     0.095 C 
ATOM      8  C   UNL A   1      32.148  23.494  22.821  1.00  0.00     0.041 C 
ATOM      9  C   UNL A   1      30.788  23.729  23.441  1.00  0.00    -0.030 C 
ATOM     10  C   UNL A   1      31.270  26.148  23.950  1.00  0.00     0.041 C 
ATOM     11  C   UNL A   1      30.409  24.904  23.974  1.00  0.00    -0.030 C 
BRANCH   7  12
ATOM     12  C   UNL A   1      33.737  24.338  24.549  1.00  0.00     0.226 C 
ATOM     13  O   UNL A   1      33.884  25.254  25.363  1.00  0.00    -0.275 OA
BRANCH  12  14
ATOM     14  N   UNL A   1      34.094  23.046  24.891  1.00  0.00    -0.340 N 
BRANCH  14  15
ATOM     15  C   UNL A   1      33.398  22.427  26.035  1.00  0.00     0.116 C 
ATOM     16  C   UNL A   1      34.322  22.172  27.233  1.00  0.00     0.027 C 
ENDBRANCH  14  15
BRANCH  14  17
ATOM     17  C   UNL A   1      35.098  22.240  24.199  1.00  0.00     0.154 C 
BRANCH  17  18
ATOM     18  C   UNL A   1      36.584  22.644  24.159  1.00  0.00     0.077 C 
ATOM     19  C   UNL A   1      36.964  23.712  25.174  1.00  0.00     0.043 C 
ATOM     20  C   UNL A   1      37.390  21.356  24.428  1.00  0.00     0.043 C 
BRANCH  18  21
ATOM     21  O   UNL A   1      36.909  23.096  22.844  1.00  0.00    -0.389 OA
ATOM     22  H   UNL A   1      37.835  23.383  22.820  1.00  0.00     0.211 HD
ENDBRANCH  18  21
ENDBRANCH  17  18
ENDBRANCH  14  17
ENDBRANCH  12  14
ENDBRANCH   7  12
ENDBRANCH   3   6
ENDBRANCH   1   2
BRANCH   1  23
ATOM     23  C   UNL A   1      33.671  28.679  25.564  1.00  0.00     0.042 C 
BRANCH  23  24
ATOM     24  C   UNL A   1      33.082  28.740  26.970  1.00  0.00     0.118 C 
BRANCH  24  25
ATOM     25  N   UNL A   1      33.350  29.990  27.646  1.00  0.00    -0.352 N 
ATOM     26  C   UNL A   1      34.437  30.613  28.202  1.00  0.00     0.251 C 
ATOM     27  H   UNL A   1      32.537  30.539  27.726  1.00  0.00     0.163 HD
ATOM     28  O   UNL A   1      34.176  31.713  28.706  1.00  0.00    -0.269 OA
BRANCH  26  29
ATOM     29  C   UNL A   1      35.861  30.130  28.266  1.00  0.00     0.039 A 
ATOM     30  C   UNL A   1      36.274  29.629  29.519  1.00  0.00     0.014 A 
ATOM     31  C   UNL A   1      36.829  30.180  27.262  1.00  0.00     0.014 A 
ATOM     32  C   UNL A   1      37.597  29.234  29.775  1.00  0.00     0.010 A 
ATOM     33  C   UNL A   1      38.158  29.741  27.507  1.00  0.00     0.010 A 
ATOM     34  C   UNL A   1      38.569  29.285  28.771  1.00  0.00    -0.014 A 
BRANCH  34  35
ATOM     35  C   UNL A   1      39.988  28.897  29.075  1.00  0.00     0.031 A 
ATOM     36  C   UNL A   1      40.911  29.836  29.824  1.00  0.00     0.074 A 
ATOM     37  C   UNL A   1      40.463  27.684  28.713  1.00  0.00     0.049 A 
ATOM     38  N   UNL A   1      42.157  29.656  30.196  1.00  0.00    -0.248 NA
ATOM     39  C   UNL A   1      40.371  31.155  30.182  1.00  0.00     0.031 C 
ATOM     40  C   UNL A   1      39.716  26.671  27.966  1.00  0.00     0.029 A 
ATOM     41  N   UNL A   1      41.687  27.091  28.935  1.00  0.00    -0.354 N 
ATOM     42  C   UNL A   1      42.556  30.844  30.804  1.00  0.00     0.074 A 
ATOM     43  C   UNL A   1      41.430  31.750  30.715  1.00  0.00     0.031 C 
ATOM     44  C   UNL A   1      40.478  25.573  27.827  1.00  0.00     0.029 A 
ATOM     45  C   UNL A   1      41.780  25.808  28.444  1.00  0.00     0.049 A 
ATOM     46  H   UNL A   1      42.427  27.543  29.400  1.00  0.00     0.167 HD
ATOM     47  C   UNL A   1      43.736  31.156  31.398  1.00  0.00     0.031 A 
ATOM     48  C   UNL A   1      42.787  24.910  28.488  1.00  0.00     0.031 A 
ATOM     49  C   UNL A   1      44.853  30.254  31.528  1.00  0.00     0.049 A 
ATOM     50  C   UNL A   1      44.074  25.262  29.187  1.00  0.00     0.074 A 
ATOM     51  C   UNL A   1      46.066  30.471  32.161  1.00  0.00     0.029 A 
ATOM     52  N   UNL A   1      44.892  28.962  31.031  1.00  0.00    -0.354 N 
ATOM     53  N   UNL A   1      44.408  26.379  29.787  1.00  0.00    -0.248 NA
ATOM     54  C   UNL A   1      45.115  24.222  29.229  1.00  0.00     0.031 C 
ATOM     55  C   UNL A   1      46.851  29.321  32.018  1.00  0.00     0.029 A 
ATOM     56  C   UNL A   1      46.108  28.372  31.336  1.00  0.00     0.049 A 
ATOM     57  H   UNL A   1      44.163  28.526  30.533  1.00  0.00     0.167 HD
ATOM     58  C   UNL A   1      45.685  26.167  30.298  1.00  0.00     0.074 A 
ATOM     59  C   UNL A   1      46.056  24.811  29.953  1.00  0.00     0.031 C 
ATOM     60  C   UNL A   1      46.475  27.022  30.992  1.00  0.00     0.031 A 
BRANCH  47  61
ATOM     61  C   UNL A   1      43.886  32.550  31.959  1.00  0.00    -0.014 A 
ATOM     62  C   UNL A   1      43.621  32.821  33.313  1.00  0.00     0.010 A 
ATOM     63  C   UNL A   1      44.333  33.597  31.130  1.00  0.00     0.010 A 
ATOM     64  C   UNL A   1      43.743  34.121  33.815  1.00  0.00     0.020 A 
ATOM     65  C   UNL A   1      44.486  34.892  31.634  1.00  0.00     0.020 A 
ATOM     66  C   UNL A   1      44.166  35.150  32.970  1.00  0.00     0.054 A 
BRANCH  66  67
ATOM     67  S   UNL A   1      44.315  36.828  33.644  1.00  0.00     0.124 S 
ATOM     68  O   UNL A   1      44.604  36.560  35.051  1.00  0.00    -0.237 OA
ATOM     69  O   UNL A   1      45.422  37.389  32.872  1.00  0.00    -0.237 OA
ATOM     70  O   UNL A   1      43.009  37.426  33.379  1.00  0.00    -0.744 OA
ENDBRANCH  66  67
ENDBRANCH  47  61
BRANCH  48  71
ATOM     71  C   UNL A   1      42.612  23.563  27.874  1.00  0.00    -0.014 A 
ATOM     72  C   UNL A   1      42.918  23.351  26.517  1.00  0.00     0.010 A 
ATOM     73  C   UNL A   1      42.142  22.483  28.642  1.00  0.00     0.010 A 
ATOM     74  C   UNL A   1      42.743  22.091  25.938  1.00  0.00     0.020 A 
ATOM     75  C   UNL A   1      41.992  21.214  28.074  1.00  0.00     0.020 A 
ATOM     76  C   UNL A   1      42.283  21.029  26.720  1.00  0.00     0.054 A 
BRANCH  76  77
ATOM     77  S   UNL A   1      42.121  19.385  25.967  1.00  0.00     0.124 S 
ATOM     78  O   UNL A   1      40.680  19.296  25.742  1.00  0.00    -0.237 OA
ATOM     79  O   UNL A   1      42.939  19.508  24.761  1.00  0.00    -0.237 OA
ATOM     80  O   UNL A   1      42.654  18.489  26.983  1.00  0.00    -0.744 OA
ENDBRANCH  76  77
ENDBRANCH  48  71
BRANCH  60  81
ATOM     81  C   UNL A   1      47.813  26.509  31.456  1.00  0.00    -0.014 A 
ATOM     82  C   UNL A   1      48.955  26.598  30.639  1.00  0.00     0.010 A 
ATOM     83  C   UNL A   1      47.936  25.950  32.742  1.00  0.00     0.010 A 
ATOM     84  C   UNL A   1      50.184  26.102  31.083  1.00  0.00     0.020 A 
ATOM     85  C   UNL A   1      49.168  25.474  33.199  1.00  0.00     0.020 A 
ATOM     86  C   UNL A   1      50.282  25.537  32.359  1.00  0.00     0.054 A 
BRANCH  86  87
ATOM     87  S   UNL A   1      51.891  24.916  32.923  1.00  0.00     0.124 S 
ATOM     88  O   UNL A   1      52.817  25.831  32.264  1.00  0.00    -0.237 OA
ATOM     89  O   UNL A   1      51.798  25.053  34.375  1.00  0.00    -0.237 OA
ATOM     90  O   UNL A   1      51.920  23.539  32.436  1.00  0.00    -0.744 OA
ENDBRANCH  86  87
ENDBRANCH  60  81
ENDBRANCH  34  35
ENDBRANCH  26  29
ENDBRANCH  24  25
ENDBRANCH  23  24
ENDBRANCH   1  23
TORSDOF 19
ENDMDL
MODEL 3
REMARK VINA RESULT:     -10.0      1.600      8.515
REMARK SMILES CCN(CC(C)(C)O)C(=O)[C@H]1CC=CC[C@H]1C(=O)NCCCNC(=O)c1ccc(-c2c3nc(c(-c4ccc(S(=O)(=O)[O-])cc4)c4ccc([nH]4)c(-c4ccc(S(=O)(=O)[O-])cc4)c4nc(c(-c5ccc(S(=O)(=O)[O-])cc5)c5ccc2[nH]5)C=C4)C=C3)cc1
REMARK SMILES IDX 20 1 19 2 17 3 18 4 16 6 11 7 12 8 13 9 15 10 14 11 9 12
REMARK SMILES IDX 10 13 3 14 2 15 1 16 4 17 5 18 6 19 7 20 8 21 21 23 22 24
REMARK SMILES IDX 23 25 24 26 25 28 26 29 27 30 85 31 28 32 84 33 29 34 30 35
REMARK SMILES IDX 31 36 78 37 32 38 83 39 77 40 79 41 33 42 82 43 76 44 75 45
REMARK SMILES IDX 34 47 64 48 45 49 63 50 46 51 49 52 62 53 80 54 47 55 48 56
REMARK SMILES IDX 61 58 81 59 50 60 35 61 36 62 44 63 37 64 43 65 38 66 39 67
REMARK SMILES IDX 40 68 41 69 42 70 65 71 66 72 74 73 67 74 73 75 68 76 69 77
REMARK SMILES IDX 70 78 71 79 72 80 51 81 52 82 60 83 53 84 59 85 54 86 55 87
REMARK SMILES IDX 56 88 57 89 58 90
REMARK H PARENT 19 5 8 22 23 27 79 46 49 57
REMARK Flexibility Score: inf
ROOT
ATOM      1  C   UNL A   1      33.552  23.599  24.842  1.00  0.00     0.117 C 
ENDROOT
BRANCH   1   2
ATOM      2  N   UNL A   1      32.250  23.929  25.427  1.00  0.00    -0.356 N 
ATOM      3  C   UNL A   1      31.725  24.967  26.122  1.00  0.00     0.224 C 
ATOM      4  O   UNL A   1      30.623  24.721  26.639  1.00  0.00    -0.275 OA
ATOM      5  H   UNL A   1      31.589  23.216  25.277  1.00  0.00     0.163 HD
BRANCH   3   6
ATOM      6  C   UNL A   1      32.331  26.353  26.362  1.00  0.00     0.095 C 
ATOM      7  C   UNL A   1      33.478  26.840  25.431  1.00  0.00     0.095 C 
ATOM      8  C   UNL A   1      34.376  27.801  26.264  1.00  0.00     0.041 C 
ATOM      9  C   UNL A   1      33.584  28.774  27.109  1.00  0.00    -0.030 C 
ATOM     10  C   UNL A   1      31.435  27.487  26.847  1.00  0.00     0.041 C 
ATOM     11  C   UNL A   1      32.265  28.652  27.342  1.00  0.00    -0.030 C 
BRANCH   7  12
ATOM     12  C   UNL A   1      33.032  27.607  24.172  1.00  0.00     0.226 C 
ATOM     13  O   UNL A   1      33.564  28.678  23.870  1.00  0.00    -0.275 OA
BRANCH  12  14
ATOM     14  N   UNL A   1      32.015  27.094  23.386  1.00  0.00    -0.340 N 
BRANCH  14  15
ATOM     15  C   UNL A   1      32.339  25.945  22.520  1.00  0.00     0.116 C 
ATOM     16  C   UNL A   1      31.781  26.090  21.098  1.00  0.00     0.027 C 
ENDBRANCH  14  15
BRANCH  14  17
ATOM     17  C   UNL A   1      30.642  27.593  23.357  1.00  0.00     0.154 C 
BRANCH  17  18
ATOM     18  C   UNL A   1      30.306  29.036  22.937  1.00  0.00     0.077 C 
ATOM     19  C   UNL A   1      28.916  29.201  22.340  1.00  0.00     0.043 C 
ATOM     20  C   UNL A   1      30.433  29.897  24.211  1.00  0.00     0.043 C 
BRANCH  18  21
ATOM     21  O   UNL A   1      31.286  29.490  22.004  1.00  0.00    -0.389 OA
ATOM     22  H   UNL A   1      31.533  28.761  21.415  1.00  0.00     0.211 HD
ENDBRANCH  18  21
ENDBRANCH  17  18
ENDBRANCH  14  17
ENDBRANCH  12  14
ENDBRANCH   7  12
ENDBRANCH   3   6
ENDBRANCH   1   2
BRANCH   1  23
ATOM     23  C   UNL A   1      34.669  23.617  25.915  1.00  0.00     0.042 C 
BRANCH  23  24
ATOM     24  C   UNL A   1      36.014  24.242  25.558  1.00  0.00     0.118 C 
BRANCH  24  25
ATOM     25  N   UNL A   1      37.123  23.325  25.695  1.00  0.00    -0.352 N 
ATOM     26  C   UNL A   1      38.399  23.366  26.194  1.00  0.00     0.251 C 
ATOM     27  H   UNL A   1      36.903  22.435  25.336  1.00  0.00     0.163 HD
ATOM     28  O   UNL A   1      39.015  22.299  26.075  1.00  0.00    -0.269 OA
BRANCH  26  29
ATOM     29  C   UNL A   1      39.110  24.519  26.851  1.00  0.00     0.039 A 
ATOM     30  C   UNL A   1      38.813  24.714  28.216  1.00  0.00     0.014 A 
ATOM     31  C   UNL A   1      39.969  25.446  26.258  1.00  0.00     0.014 A 
ATOM     32  C   UNL A   1      39.312  25.803  28.948  1.00  0.00     0.010 A 
ATOM     33  C   UNL A   1      40.508  26.524  27.008  1.00  0.00     0.010 A 
ATOM     34  C   UNL A   1      40.171  26.734  28.356  1.00  0.00    -0.014 A 
BRANCH  34  35
ATOM     35  C   UNL A   1      40.662  27.915  29.145  1.00  0.00     0.031 A 
ATOM     36  C   UNL A   1      39.775  29.120  29.381  1.00  0.00     0.074 A 
ATOM     37  C   UNL A   1      41.900  27.913  29.688  1.00  0.00     0.049 A 
ATOM     38  N   UNL A   1      40.024  30.216  30.060  1.00  0.00    -0.248 NA
ATOM     39  C   UNL A   1      38.445  29.100  28.758  1.00  0.00     0.031 C 
ATOM     40  C   UNL A   1      42.889  26.846  29.537  1.00  0.00     0.029 A 
ATOM     41  N   UNL A   1      42.535  28.837  30.489  1.00  0.00    -0.354 N 
ATOM     42  C   UNL A   1      38.897  31.022  29.921  1.00  0.00     0.074 A 
ATOM     43  C   UNL A   1      37.980  30.305  29.061  1.00  0.00     0.031 C 
ATOM     44  C   UNL A   1      43.985  27.153  30.251  1.00  0.00     0.029 A 
ATOM     45  C   UNL A   1      43.796  28.454  30.888  1.00  0.00     0.049 A 
ATOM     46  H   UNL A   1      42.126  29.692  30.753  1.00  0.00     0.167 HD
ATOM     47  C   UNL A   1      38.632  32.237  30.466  1.00  0.00     0.031 A 
ATOM     48  C   UNL A   1      44.702  29.064  31.681  1.00  0.00     0.031 A 
ATOM     49  C   UNL A   1      39.518  32.948  31.354  1.00  0.00     0.049 A 
ATOM     50  C   UNL A   1      44.372  30.393  32.309  1.00  0.00     0.074 A 
ATOM     51  C   UNL A   1      39.307  34.160  31.993  1.00  0.00     0.029 A 
ATOM     52  N   UNL A   1      40.774  32.511  31.741  1.00  0.00    -0.354 N 
ATOM     53  N   UNL A   1      43.284  31.114  32.191  1.00  0.00    -0.248 NA
ATOM     54  C   UNL A   1      45.391  30.982  33.193  1.00  0.00     0.031 C 
ATOM     55  C   UNL A   1      40.449  34.470  32.740  1.00  0.00     0.029 A 
ATOM     56  C   UNL A   1      41.352  33.430  32.603  1.00  0.00     0.049 A 
ATOM     57  H   UNL A   1      41.195  31.672  31.445  1.00  0.00     0.167 HD
ATOM     58  C   UNL A   1      43.476  32.227  33.003  1.00  0.00     0.074 A 
ATOM     59  C   UNL A   1      44.777  32.077  33.621  1.00  0.00     0.031 C 
ATOM     60  C   UNL A   1      42.647  33.278  33.216  1.00  0.00     0.031 A 
BRANCH  47  61
ATOM     61  C   UNL A   1      37.317  32.888  30.112  1.00  0.00    -0.014 A 
ATOM     62  C   UNL A   1      37.191  33.700  28.971  1.00  0.00     0.010 A 
ATOM     63  C   UNL A   1      36.181  32.655  30.911  1.00  0.00     0.010 A 
ATOM     64  C   UNL A   1      35.971  34.314  28.667  1.00  0.00     0.020 A 
ATOM     65  C   UNL A   1      34.952  33.243  30.595  1.00  0.00     0.020 A 
ATOM     66  C   UNL A   1      34.862  34.089  29.486  1.00  0.00     0.054 A 
BRANCH  66  67
ATOM     67  S   UNL A   1      33.292  34.899  29.072  1.00  0.00     0.124 S 
ATOM     68  O   UNL A   1      32.605  34.896  30.362  1.00  0.00    -0.237 OA
ATOM     69  O   UNL A   1      33.722  36.211  28.595  1.00  0.00    -0.237 OA
ATOM     70  O   UNL A   1      32.710  34.028  28.055  1.00  0.00    -0.744 OA
ENDBRANCH  66  67
ENDBRANCH  47  61
BRANCH  48  71
ATOM     71  C   UNL A   1      46.011  28.407  31.961  1.00  0.00    -0.014 A 
ATOM     72  C   UNL A   1      46.151  27.529  33.051  1.00  0.00     0.010 A 
ATOM     73  C   UNL A   1      47.124  28.654  31.138  1.00  0.00     0.010 A 
ATOM     74  C   UNL A   1      47.381  26.921  33.320  1.00  0.00     0.020 A 
ATOM     75  C   UNL A   1      48.350  28.027  31.388  1.00  0.00     0.020 A 
ATOM     76  C   UNL A   1      48.473  27.172  32.485  1.00  0.00     0.054 A 
BRANCH  76  77
ATOM     77  S   UNL A   1      50.045  26.327  32.813  1.00  0.00     0.124 S 
ATOM     78  O   UNL A   1      49.913  25.981  34.227  1.00  0.00    -0.237 OA
ATOM     79  O   UNL A   1      49.998  25.199  31.883  1.00  0.00    -0.237 OA
ATOM     80  O   UNL A   1      51.048  27.337  32.505  1.00  0.00    -0.744 OA
ENDBRANCH  76  77
ENDBRANCH  48  71
BRANCH  60  81
ATOM     81  C   UNL A   1      43.104  34.338  34.184  1.00  0.00    -0.014 A 
ATOM     82  C   UNL A   1      43.925  35.402  33.769  1.00  0.00     0.010 A 
ATOM     83  C   UNL A   1      42.684  34.281  35.526  1.00  0.00     0.010 A 
ATOM     84  C   UNL A   1      44.350  36.367  34.687  1.00  0.00     0.020 A 
ATOM     85  C   UNL A   1      43.088  35.258  36.442  1.00  0.00     0.020 A 
ATOM     86  C   UNL A   1      43.934  36.286  36.020  1.00  0.00     0.054 A 
BRANCH  86  87
ATOM     87  S   UNL A   1      44.482  37.559  37.191  1.00  0.00     0.124 S 
ATOM     88  O   UNL A   1      44.204  38.788  36.454  1.00  0.00    -0.237 OA
ATOM     89  O   UNL A   1      43.630  37.317  38.353  1.00  0.00    -0.237 OA
ATOM     90  O   UNL A   1      45.897  37.258  37.391  1.00  0.00    -0.744 OA
ENDBRANCH  86  87
ENDBRANCH  60  81
ENDBRANCH  34  35
ENDBRANCH  26  29
ENDBRANCH  24  25
ENDBRANCH  23  24
ENDBRANCH   1  23
TORSDOF 19
ENDMDL
