MODEL 1
REMARK VINA RESULT:     -10.1      0.000      0.000
REMARK SMILES Cc1occc1C(=O)N[C@@H](C)CC(=O)NCCCNC(=O)c1ccc(-c2c3nc(c(-c4ccc(S(=O)(=O)[O-])cc4)c4ccc([nH]4)c(-c4ccc(S(=O)(=O)[O-])cc4)c4nc(c(-c5ccc(S(=O)(=O)[O-])cc5)c5ccc2[nH]5)C=C4)C=C3)cc1
REMARK SMILES IDX 17 1 16 2 15 3 13 4 14 5 12 7 10 8 11 9 9 10 7 11 8 12 6 14
REMARK SMILES IDX 1 15 2 16 3 17 4 18 5 19 18 20 19 21 20 22 21 24 22 25 23 26
REMARK SMILES IDX 81 27 24 28 80 29 25 30 26 31 27 32 74 33 28 34 79 35 73 36
REMARK SMILES IDX 75 37 29 38 78 39 72 40 71 41 30 43 60 44 41 45 59 46 42 47
REMARK SMILES IDX 45 48 58 49 76 50 43 51 44 52 57 54 77 55 46 56 31 57 32 58
REMARK SMILES IDX 40 59 33 60 39 61 34 62 35 63 36 64 37 65 38 66 61 67 62 68
REMARK SMILES IDX 70 69 63 70 69 71 64 72 65 73 66 74 67 75 68 76 47 77 48 78
REMARK SMILES IDX 56 79 49 80 55 81 50 82 51 83 52 84 53 85 54 86
REMARK H PARENT 15 6 9 13 19 23 75 42 45 53
REMARK Flexibility Score: inf
ROOT
ATOM      1  C   UNL A   1      34.864  32.801  29.878  1.00  0.00     0.042 C 
ENDROOT
BRANCH   1   2
ATOM      2  C   UNL A   1      36.163  33.537  30.175  1.00  0.00     0.117 C 
BRANCH   2   3
ATOM      3  N   UNL A   1      37.025  32.765  31.056  1.00  0.00    -0.356 N 
ATOM      4  C   UNL A   1      37.671  33.153  32.188  1.00  0.00     0.222 C 
ATOM      5  O   UNL A   1      38.429  32.353  32.741  1.00  0.00    -0.275 OA
ATOM      6  H   UNL A   1      37.160  31.826  30.794  1.00  0.00     0.163 HD
BRANCH   4   7
ATOM      7  C   UNL A   1      37.455  34.534  32.765  1.00  0.00     0.124 C 
BRANCH   7   8
ATOM      8  C   UNL A   1      36.477  34.496  33.942  1.00  0.00     0.088 C 
ATOM      9  C   UNL A   1      37.093  33.703  35.097  1.00  0.00     0.031 C 
BRANCH   8  10
ATOM     10  N   UNL A   1      35.215  33.851  33.615  1.00  0.00    -0.349 N 
ATOM     11  C   UNL A   1      34.004  34.299  33.151  1.00  0.00     0.255 C 
ATOM     12  O   UNL A   1      33.128  33.437  33.092  1.00  0.00    -0.269 OA
ATOM     13  H   UNL A   1      35.233  32.877  33.758  1.00  0.00     0.164 HD
BRANCH  11  14
ATOM     14  C   UNL A   1      33.758  35.633  32.615  1.00  0.00     0.080 A 
ATOM     15  C   UNL A   1      32.921  35.565  30.079  1.00  0.00     0.088 C 
ATOM     16  C   UNL A   1      33.311  36.120  31.393  1.00  0.00     0.113 A 
ATOM     17  O   UNL A   1      33.277  37.487  31.411  1.00  0.00    -0.469 OA
ATOM     18  C   UNL A   1      33.757  37.900  32.601  1.00  0.00     0.196 A 
ATOM     19  C   UNL A   1      34.082  36.816  33.370  1.00  0.00     0.056 A 
ENDBRANCH  11  14
ENDBRANCH   8  10
ENDBRANCH   7   8
ENDBRANCH   4   7
ENDBRANCH   2   3
ENDBRANCH   1   2
BRANCH   1  20
ATOM     20  C   UNL A   1      34.557  32.661  28.394  1.00  0.00     0.118 C 
BRANCH  20  21
ATOM     21  N   UNL A   1      33.875  31.413  28.093  1.00  0.00    -0.352 N 
ATOM     22  C   UNL A   1      34.373  30.161  27.833  1.00  0.00     0.251 C 
ATOM     23  H   UNL A   1      32.892  31.476  28.073  1.00  0.00     0.163 HD
ATOM     24  O   UNL A   1      33.617  29.314  27.361  1.00  0.00    -0.269 OA
BRANCH  22  25
ATOM     25  C   UNL A   1      35.791  29.816  28.099  1.00  0.00     0.039 A 
ATOM     26  C   UNL A   1      36.149  29.414  29.391  1.00  0.00     0.014 A 
ATOM     27  C   UNL A   1      36.784  29.953  27.125  1.00  0.00     0.014 A 
ATOM     28  C   UNL A   1      37.482  29.111  29.687  1.00  0.00     0.010 A 
ATOM     29  C   UNL A   1      38.096  29.563  27.397  1.00  0.00     0.010 A 
ATOM     30  C   UNL A   1      38.465  29.156  28.686  1.00  0.00    -0.014 A 
BRANCH  30  31
ATOM     31  C   UNL A   1      39.881  28.811  28.982  1.00  0.00     0.031 A 
ATOM     32  C   UNL A   1      40.793  29.826  29.624  1.00  0.00     0.074 A 
ATOM     33  C   UNL A   1      40.359  27.597  28.643  1.00  0.00     0.049 A 
ATOM     34  N   UNL A   1      42.063  29.720  29.925  1.00  0.00    -0.248 NA
ATOM     35  C   UNL A   1      40.210  31.138  29.953  1.00  0.00     0.031 C 
ATOM     36  C   UNL A   1      39.592  26.538  27.983  1.00  0.00     0.029 A 
ATOM     37  N   UNL A   1      41.607  27.048  28.805  1.00  0.00    -0.354 N 
ATOM     38  C   UNL A   1      42.431  30.950  30.461  1.00  0.00     0.074 A 
ATOM     39  C   UNL A   1      41.266  31.803  30.398  1.00  0.00     0.031 C 
ATOM     40  C   UNL A   1      40.376  25.458  27.827  1.00  0.00     0.029 A 
ATOM     41  C   UNL A   1      41.710  25.759  28.336  1.00  0.00     0.049 A 
ATOM     42  H   UNL A   1      42.358  27.531  29.219  1.00  0.00     0.167 HD
ATOM     43  C   UNL A   1      43.624  31.329  30.980  1.00  0.00     0.031 A 
ATOM     44  C   UNL A   1      42.760  24.915  28.311  1.00  0.00     0.031 A 
ATOM     45  C   UNL A   1      44.779  30.474  31.061  1.00  0.00     0.049 A 
ATOM     46  C   UNL A   1      44.077  25.364  28.886  1.00  0.00     0.074 A 
ATOM     47  C   UNL A   1      46.017  30.750  31.614  1.00  0.00     0.029 A 
ATOM     48  N   UNL A   1      44.836  29.175  30.580  1.00  0.00    -0.354 N 
ATOM     49  N   UNL A   1      44.385  26.512  29.440  1.00  0.00    -0.248 NA
ATOM     50  C   UNL A   1      45.183  24.399  28.843  1.00  0.00     0.031 C 
ATOM     51  C   UNL A   1      46.840  29.636  31.425  1.00  0.00     0.029 A 
ATOM     52  C   UNL A   1      46.095  28.644  30.805  1.00  0.00     0.049 A 
ATOM     53  H   UNL A   1      44.094  28.700  30.143  1.00  0.00     0.167 HD
ATOM     54  C   UNL A   1      45.713  26.395  29.836  1.00  0.00     0.074 A 
ATOM     55  C   UNL A   1      46.142  25.060  29.476  1.00  0.00     0.031 C 
ATOM     56  C   UNL A   1      46.506  27.312  30.444  1.00  0.00     0.031 A 
BRANCH  43  57
ATOM     57  C   UNL A   1      43.742  32.734  31.511  1.00  0.00    -0.014 A 
ATOM     58  C   UNL A   1      43.413  33.034  32.846  1.00  0.00     0.010 A 
ATOM     59  C   UNL A   1      44.244  33.756  30.685  1.00  0.00     0.010 A 
ATOM     60  C   UNL A   1      43.552  34.336  33.335  1.00  0.00     0.020 A 
ATOM     61  C   UNL A   1      44.411  35.054  31.178  1.00  0.00     0.020 A 
ATOM     62  C   UNL A   1      44.051  35.338  32.497  1.00  0.00     0.054 A 
BRANCH  62  63
ATOM     63  S   UNL A   1      44.257  37.010  33.171  1.00  0.00     0.124 S 
ATOM     64  O   UNL A   1      45.648  36.985  33.618  1.00  0.00    -0.237 OA
ATOM     65  O   UNL A   1      43.984  37.858  32.014  1.00  0.00    -0.237 OA
ATOM     66  O   UNL A   1      43.262  37.079  34.239  1.00  0.00    -0.744 OA
ENDBRANCH  62  63
ENDBRANCH  43  57
BRANCH  44  67
ATOM     67  C   UNL A   1      42.611  23.552  27.730  1.00  0.00    -0.014 A 
ATOM     68  C   UNL A   1      42.300  22.453  28.551  1.00  0.00     0.010 A 
ATOM     69  C   UNL A   1      42.795  23.342  26.350  1.00  0.00     0.010 A 
ATOM     70  C   UNL A   1      42.204  21.168  28.009  1.00  0.00     0.020 A 
ATOM     71  C   UNL A   1      42.670  22.063  25.801  1.00  0.00     0.020 A 
ATOM     72  C   UNL A   1      42.393  20.981  26.638  1.00  0.00     0.054 A 
BRANCH  72  73
ATOM     73  S   UNL A   1      42.239  19.308  25.952  1.00  0.00     0.124 S 
ATOM     74  O   UNL A   1      40.820  19.249  25.614  1.00  0.00    -0.237 OA
ATOM     75  O   UNL A   1      43.157  19.345  24.816  1.00  0.00    -0.237 OA
ATOM     76  O   UNL A   1      42.657  18.445  27.053  1.00  0.00    -0.744 OA
ENDBRANCH  72  73
ENDBRANCH  44  67
BRANCH  56  77
ATOM     77  C   UNL A   1      47.909  26.890  30.793  1.00  0.00    -0.014 A 
ATOM     78  C   UNL A   1      48.979  27.112  29.908  1.00  0.00     0.010 A 
ATOM     79  C   UNL A   1      48.165  26.307  32.047  1.00  0.00     0.010 A 
ATOM     80  C   UNL A   1      50.276  26.725  30.259  1.00  0.00     0.020 A 
ATOM     81  C   UNL A   1      49.464  25.944  32.413  1.00  0.00     0.020 A 
ATOM     82  C   UNL A   1      50.509  26.142  31.508  1.00  0.00     0.054 A 
BRANCH  82  83
ATOM     83  S   UNL A   1      52.207  25.684  31.954  1.00  0.00     0.124 S 
ATOM     84  O   UNL A   1      52.497  26.613  33.042  1.00  0.00    -0.237 OA
ATOM     85  O   UNL A   1      52.069  24.283  32.343  1.00  0.00    -0.237 OA
ATOM     86  O   UNL A   1      52.961  25.909  30.723  1.00  0.00    -0.744 OA
ENDBRANCH  82  83
ENDBRANCH  56  77
ENDBRANCH  30  31
ENDBRANCH  22  25
ENDBRANCH  20  21
ENDBRANCH   1  20
TORSDOF 16
ENDMDL
MODEL 2
REMARK VINA RESULT:     -10.0      3.459      5.831
REMARK SMILES Cc1occc1C(=O)N[C@@H](C)CC(=O)NCCCNC(=O)c1ccc(-c2c3nc(c(-c4ccc(S(=O)(=O)[O-])cc4)c4ccc([nH]4)c(-c4ccc(S(=O)(=O)[O-])cc4)c4nc(c(-c5ccc(S(=O)(=O)[O-])cc5)c5ccc2[nH]5)C=C4)C=C3)cc1
REMARK SMILES IDX 17 1 16 2 15 3 13 4 14 5 12 7 10 8 11 9 9 10 7 11 8 12 6 14
REMARK SMILES IDX 1 15 2 16 3 17 4 18 5 19 18 20 19 21 20 22 21 24 22 25 23 26
REMARK SMILES IDX 81 27 24 28 80 29 25 30 26 31 27 32 74 33 28 34 79 35 73 36
REMARK SMILES IDX 75 37 29 38 78 39 72 40 71 41 30 43 60 44 41 45 59 46 42 47
REMARK SMILES IDX 45 48 58 49 76 50 43 51 44 52 57 54 77 55 46 56 31 57 32 58
REMARK SMILES IDX 40 59 33 60 39 61 34 62 35 63 36 64 37 65 38 66 61 67 62 68
REMARK SMILES IDX 70 69 63 70 69 71 64 72 65 73 66 74 67 75 68 76 47 77 48 78
REMARK SMILES IDX 56 79 49 80 55 81 50 82 51 83 52 84 53 85 54 86
REMARK H PARENT 15 6 9 13 19 23 75 42 45 53
REMARK Flexibility Score: inf
ROOT
ATOM      1  C   UNL A   1      32.814  27.483  26.359  1.00  0.00     0.042 C 
ENDROOT
BRANCH   1   2
ATOM      2  C   UNL A   1      32.648  26.461  25.244  1.00  0.00     0.117 C 
BRANCH   2   3
ATOM      3  N   UNL A   1      31.252  26.113  25.041  1.00  0.00    -0.356 N 
ATOM      4  C   UNL A   1      30.413  26.461  24.028  1.00  0.00     0.222 C 
ATOM      5  O   UNL A   1      29.229  26.124  24.096  1.00  0.00    -0.275 OA
ATOM      6  H   UNL A   1      30.856  25.543  25.738  1.00  0.00     0.163 HD
BRANCH   4   7
ATOM      7  C   UNL A   1      30.926  27.235  22.835  1.00  0.00     0.124 C 
BRANCH   7   8
ATOM      8  C   UNL A   1      30.363  28.659  22.814  1.00  0.00     0.088 C 
ATOM      9  C   UNL A   1      31.018  29.488  23.921  1.00  0.00     0.031 C 
BRANCH   8  10
ATOM     10  N   UNL A   1      28.928  28.709  23.044  1.00  0.00    -0.349 N 
ATOM     11  C   UNL A   1      27.958  29.655  22.835  1.00  0.00     0.255 C 
ATOM     12  O   UNL A   1      26.845  29.352  23.262  1.00  0.00    -0.269 OA
ATOM     13  H   UNL A   1      28.573  27.878  23.436  1.00  0.00     0.164 HD
BRANCH  11  14
ATOM     14  C   UNL A   1      28.134  30.870  22.046  1.00  0.00     0.080 A 
ATOM     15  C   UNL A   1      28.950  32.934  23.532  1.00  0.00     0.088 C 
ATOM     16  C   UNL A   1      28.545  32.165  22.337  1.00  0.00     0.113 A 
ATOM     17  O   UNL A   1      28.511  32.938  21.208  1.00  0.00    -0.469 OA
ATOM     18  C   UNL A   1      28.022  32.185  20.202  1.00  0.00     0.196 A 
ATOM     19  C   UNL A   1      27.758  30.921  20.656  1.00  0.00     0.056 A 
ENDBRANCH  11  14
ENDBRANCH   8  10
ENDBRANCH   7   8
ENDBRANCH   4   7
ENDBRANCH   2   3
ENDBRANCH   1   2
BRANCH   1  20
ATOM     20  C   UNL A   1      34.008  28.410  26.178  1.00  0.00     0.118 C 
BRANCH  20  21
ATOM     21  N   UNL A   1      33.789  29.708  26.796  1.00  0.00    -0.352 N 
ATOM     22  C   UNL A   1      34.537  30.398  27.717  1.00  0.00     0.251 C 
ATOM     23  H   UNL A   1      32.969  30.168  26.506  1.00  0.00     0.163 HD
ATOM     24  O   UNL A   1      34.029  31.366  28.279  1.00  0.00    -0.269 OA
BRANCH  22  25
ATOM     25  C   UNL A   1      35.927  29.999  28.049  1.00  0.00     0.039 A 
ATOM     26  C   UNL A   1      36.194  29.514  29.333  1.00  0.00     0.014 A 
ATOM     27  C   UNL A   1      36.982  30.164  27.146  1.00  0.00     0.014 A 
ATOM     28  C   UNL A   1      37.498  29.157  29.692  1.00  0.00     0.010 A 
ATOM     29  C   UNL A   1      38.264  29.723  27.474  1.00  0.00     0.010 A 
ATOM     30  C   UNL A   1      38.542  29.233  28.757  1.00  0.00    -0.014 A 
BRANCH  30  31
ATOM     31  C   UNL A   1      39.928  28.831  29.117  1.00  0.00     0.031 A 
ATOM     32  C   UNL A   1      40.837  29.797  29.837  1.00  0.00     0.074 A 
ATOM     33  C   UNL A   1      40.384  27.612  28.768  1.00  0.00     0.049 A 
ATOM     34  N   UNL A   1      42.084  29.639  30.201  1.00  0.00    -0.248 NA
ATOM     35  C   UNL A   1      40.280  31.118  30.173  1.00  0.00     0.031 C 
ATOM     36  C   UNL A   1      39.620  26.598  28.037  1.00  0.00     0.029 A 
ATOM     37  N   UNL A   1      41.603  27.017  28.980  1.00  0.00    -0.354 N 
ATOM     38  C   UNL A   1      42.463  30.840  30.791  1.00  0.00     0.074 A 
ATOM     39  C   UNL A   1      41.331  31.735  30.692  1.00  0.00     0.031 C 
ATOM     40  C   UNL A   1      40.376  25.496  27.891  1.00  0.00     0.029 A 
ATOM     41  C   UNL A   1      41.689  25.738  28.479  1.00  0.00     0.049 A 
ATOM     42  H   UNL A   1      42.346  27.462  29.448  1.00  0.00     0.167 HD
ATOM     43  C   UNL A   1      43.638  31.165  31.384  1.00  0.00     0.031 A 
ATOM     44  C   UNL A   1      42.711  24.860  28.486  1.00  0.00     0.031 A 
ATOM     45  C   UNL A   1      44.758  30.269  31.501  1.00  0.00     0.049 A 
ATOM     46  C   UNL A   1      44.009  25.248  29.143  1.00  0.00     0.074 A 
ATOM     47  C   UNL A   1      45.973  30.488  32.127  1.00  0.00     0.029 A 
ATOM     48  N   UNL A   1      44.799  28.983  30.986  1.00  0.00    -0.354 N 
ATOM     49  N   UNL A   1      44.324  26.369  29.746  1.00  0.00    -0.248 NA
ATOM     50  C   UNL A   1      45.084  24.247  29.130  1.00  0.00     0.031 C 
ATOM     51  C   UNL A   1      46.768  29.352  31.949  1.00  0.00     0.029 A 
ATOM     52  C   UNL A   1      46.026  28.403  31.262  1.00  0.00     0.049 A 
ATOM     53  H   UNL A   1      44.066  28.545  30.496  1.00  0.00     0.167 HD
ATOM     54  C   UNL A   1      45.624  26.196  30.208  1.00  0.00     0.074 A 
ATOM     55  C   UNL A   1      46.028  24.857  29.832  1.00  0.00     0.031 C 
ATOM     56  C   UNL A   1      46.413  27.068  30.884  1.00  0.00     0.031 A 
BRANCH  43  57
ATOM     57  C   UNL A   1      43.772  32.550  31.962  1.00  0.00    -0.014 A 
ATOM     58  C   UNL A   1      43.483  32.801  33.316  1.00  0.00     0.010 A 
ATOM     59  C   UNL A   1      44.249  33.601  31.159  1.00  0.00     0.010 A 
ATOM     60  C   UNL A   1      43.638  34.085  33.847  1.00  0.00     0.020 A 
ATOM     61  C   UNL A   1      44.432  34.881  31.693  1.00  0.00     0.020 A 
ATOM     62  C   UNL A   1      44.112  35.117  33.032  1.00  0.00     0.054 A 
BRANCH  62  63
ATOM     63  S   UNL A   1      44.339  36.762  33.760  1.00  0.00     0.124 S 
ATOM     64  O   UNL A   1      43.033  37.376  33.530  1.00  0.00    -0.237 OA
ATOM     65  O   UNL A   1      44.652  36.457  35.153  1.00  0.00    -0.237 OA
ATOM     66  O   UNL A   1      45.440  37.335  32.988  1.00  0.00    -0.744 OA
ENDBRANCH  62  63
ENDBRANCH  43  57
BRANCH  44  67
ATOM     67  C   UNL A   1      42.550  23.519  27.857  1.00  0.00    -0.014 A 
ATOM     68  C   UNL A   1      42.117  22.419  28.619  1.00  0.00     0.010 A 
ATOM     69  C   UNL A   1      42.843  23.332  26.494  1.00  0.00     0.010 A 
ATOM     70  C   UNL A   1      42.009  21.152  28.037  1.00  0.00     0.020 A 
ATOM     71  C   UNL A   1      42.707  22.073  25.901  1.00  0.00     0.020 A 
ATOM     72  C   UNL A   1      42.307  20.987  26.682  1.00  0.00     0.054 A 
BRANCH  72  73
ATOM     73  S   UNL A   1      42.135  19.340  25.941  1.00  0.00     0.124 S 
ATOM     74  O   UNL A   1      42.996  19.445  24.767  1.00  0.00    -0.237 OA
ATOM     75  O   UNL A   1      42.620  18.461  27.003  1.00  0.00    -0.237 OA
ATOM     76  O   UNL A   1      40.706  19.236  25.663  1.00  0.00    -0.744 OA
ENDBRANCH  72  73
ENDBRANCH  44  67
BRANCH  56  77
ATOM     77  C   UNL A   1      47.780  26.590  31.294  1.00  0.00    -0.014 A 
ATOM     78  C   UNL A   1      47.985  25.926  32.517  1.00  0.00     0.010 A 
ATOM     79  C   UNL A   1      48.867  26.765  30.418  1.00  0.00     0.010 A 
ATOM     80  C   UNL A   1      49.261  25.478  32.871  1.00  0.00     0.020 A 
ATOM     81  C   UNL A   1      50.138  26.293  30.755  1.00  0.00     0.020 A 
ATOM     82  C   UNL A   1      50.329  25.666  31.988  1.00  0.00     0.054 A 
BRANCH  82  83
ATOM     83  S   UNL A   1      51.967  25.041  32.455  1.00  0.00     0.124 S 
ATOM     84  O   UNL A   1      52.812  25.580  31.392  1.00  0.00    -0.237 OA
ATOM     85  O   UNL A   1      52.169  25.628  33.777  1.00  0.00    -0.237 OA
ATOM     86  O   UNL A   1      51.800  23.590  32.444  1.00  0.00    -0.744 OA
ENDBRANCH  82  83
ENDBRANCH  56  77
ENDBRANCH  30  31
ENDBRANCH  22  25
ENDBRANCH  20  21
ENDBRANCH   1  20
TORSDOF 16
ENDMDL
MODEL 3
REMARK VINA RESULT:     -10.0      3.413      6.515
REMARK SMILES Cc1occc1C(=O)N[C@@H](C)CC(=O)NCCCNC(=O)c1ccc(-c2c3nc(c(-c4ccc(S(=O)(=O)[O-])cc4)c4ccc([nH]4)c(-c4ccc(S(=O)(=O)[O-])cc4)c4nc(c(-c5ccc(S(=O)(=O)[O-])cc5)c5ccc2[nH]5)C=C4)C=C3)cc1
REMARK SMILES IDX 17 1 16 2 15 3 13 4 14 5 12 7 10 8 11 9 9 10 7 11 8 12 6 14
REMARK SMILES IDX 1 15 2 16 3 17 4 18 5 19 18 20 19 21 20 22 21 24 22 25 23 26
REMARK SMILES IDX 81 27 24 28 80 29 25 30 26 31 27 32 74 33 28 34 79 35 73 36
REMARK SMILES IDX 75 37 29 38 78 39 72 40 71 41 30 43 60 44 41 45 59 46 42 47
REMARK SMILES IDX 45 48 58 49 76 50 43 51 44 52 57 54 77 55 46 56 31 57 32 58
REMARK SMILES IDX 40 59 33 60 39 61 34 62 35 63 36 64 37 65 38 66 61 67 62 68
REMARK SMILES IDX 70 69 63 70 69 71 64 72 65 73 66 74 67 75 68 76 47 77 48 78
REMARK SMILES IDX 56 79 49 80 55 81 50 82 51 83 52 84 53 85 54 86
REMARK H PARENT 15 6 9 13 19 23 75 42 45 53
REMARK Flexibility Score: inf
ROOT
ATOM      1  C   UNL A   1      32.654  27.642  25.921  1.00  0.00     0.042 C 
ENDROOT
BRANCH   1   2
ATOM      2  C   UNL A   1      32.663  26.133  25.721  1.00  0.00     0.117 C 
BRANCH   2   3
ATOM      3  N   UNL A   1      32.879  25.779  24.328  1.00  0.00    -0.356 N 
ATOM      4  C   UNL A   1      33.941  25.156  23.750  1.00  0.00     0.222 C 
ATOM      5  O   UNL A   1      33.958  25.029  22.523  1.00  0.00    -0.275 OA
ATOM      6  H   UNL A   1      32.151  26.028  23.714  1.00  0.00     0.163 HD
BRANCH   4   7
ATOM      7  C   UNL A   1      35.072  24.616  24.596  1.00  0.00     0.124 C 
BRANCH   7   8
ATOM      8  C   UNL A   1      35.216  23.102  24.428  1.00  0.00     0.088 C 
ATOM      9  C   UNL A   1      36.436  22.794  23.556  1.00  0.00     0.031 C 
BRANCH   8  10
ATOM     10  N   UNL A   1      34.069  22.487  23.778  1.00  0.00    -0.349 N 
ATOM     11  C   UNL A   1      32.825  22.097  24.202  1.00  0.00     0.255 C 
ATOM     12  O   UNL A   1      32.154  21.510  23.354  1.00  0.00    -0.269 OA
ATOM     13  H   UNL A   1      34.219  22.313  22.820  1.00  0.00     0.164 HD
BRANCH  11  14
ATOM     14  C   UNL A   1      32.232  22.453  25.487  1.00  0.00     0.080 A 
ATOM     15  C   UNL A   1      33.865  21.931  27.535  1.00  0.00     0.088 C 
ATOM     16  C   UNL A   1      32.666  22.395  26.805  1.00  0.00     0.113 A 
ATOM     17  O   UNL A   1      31.686  22.845  27.648  1.00  0.00    -0.469 OA
ATOM     18  C   UNL A   1      30.598  23.134  26.905  1.00  0.00     0.196 A 
ATOM     19  C   UNL A   1      30.865  22.898  25.583  1.00  0.00     0.056 A 
ENDBRANCH  11  14
ENDBRANCH   8  10
ENDBRANCH   7   8
ENDBRANCH   4   7
ENDBRANCH   2   3
ENDBRANCH   1   2
BRANCH   1  20
ATOM     20  C   UNL A   1      33.896  28.182  26.616  1.00  0.00     0.118 C 
BRANCH  20  21
ATOM     21  N   UNL A   1      33.738  29.572  27.012  1.00  0.00    -0.352 N 
ATOM     22  C   UNL A   1      34.529  30.374  27.797  1.00  0.00     0.251 C 
ATOM     23  H   UNL A   1      32.931  30.011  26.659  1.00  0.00     0.163 HD
ATOM     24  O   UNL A   1      34.068  31.441  28.196  1.00  0.00    -0.269 OA
BRANCH  22  25
ATOM     25  C   UNL A   1      35.908  29.979  28.173  1.00  0.00     0.039 A 
ATOM     26  C   UNL A   1      36.921  30.097  27.216  1.00  0.00     0.014 A 
ATOM     27  C   UNL A   1      36.208  29.427  29.422  1.00  0.00     0.014 A 
ATOM     28  C   UNL A   1      38.228  29.706  27.524  1.00  0.00     0.010 A 
ATOM     29  C   UNL A   1      37.527  29.122  29.759  1.00  0.00     0.010 A 
ATOM     30  C   UNL A   1      38.550  29.239  28.809  1.00  0.00    -0.014 A 
BRANCH  30  31
ATOM     31  C   UNL A   1      39.940  28.845  29.158  1.00  0.00     0.031 A 
ATOM     32  C   UNL A   1      40.850  29.814  29.871  1.00  0.00     0.074 A 
ATOM     33  C   UNL A   1      40.400  27.628  28.804  1.00  0.00     0.049 A 
ATOM     34  N   UNL A   1      42.101  29.663  30.225  1.00  0.00    -0.248 NA
ATOM     35  C   UNL A   1      40.289  31.133  30.213  1.00  0.00     0.031 C 
ATOM     36  C   UNL A   1      39.636  26.611  28.078  1.00  0.00     0.029 A 
ATOM     37  N   UNL A   1      41.624  27.039  29.005  1.00  0.00    -0.354 N 
ATOM     38  C   UNL A   1      42.478  30.866  30.813  1.00  0.00     0.074 A 
ATOM     39  C   UNL A   1      41.341  31.754  30.724  1.00  0.00     0.031 C 
ATOM     40  C   UNL A   1      40.397  25.514  27.925  1.00  0.00     0.029 A 
ATOM     41  C   UNL A   1      41.713  25.761  28.502  1.00  0.00     0.049 A 
ATOM     42  H   UNL A   1      42.368  27.488  29.468  1.00  0.00     0.167 HD
ATOM     43  C   UNL A   1      43.656  31.196  31.397  1.00  0.00     0.031 A 
ATOM     44  C   UNL A   1      42.740  24.889  28.500  1.00  0.00     0.031 A 
ATOM     45  C   UNL A   1      44.782  30.305  31.504  1.00  0.00     0.049 A 
ATOM     46  C   UNL A   1      44.040  25.283  29.147  1.00  0.00     0.074 A 
ATOM     47  C   UNL A   1      46.000  30.530  32.121  1.00  0.00     0.029 A 
ATOM     48  N   UNL A   1      44.826  29.020  30.987  1.00  0.00    -0.354 N 
ATOM     49  N   UNL A   1      44.354  26.406  29.748  1.00  0.00    -0.248 NA
ATOM     50  C   UNL A   1      45.121  24.288  29.124  1.00  0.00     0.031 C 
ATOM     51  C   UNL A   1      46.800  29.399  31.935  1.00  0.00     0.029 A 
ATOM     52  C   UNL A   1      46.058  28.447  31.253  1.00  0.00     0.049 A 
ATOM     53  H   UNL A   1      44.091  28.579  30.503  1.00  0.00     0.167 HD
ATOM     54  C   UNL A   1      45.659  26.239  30.200  1.00  0.00     0.074 A 
ATOM     55  C   UNL A   1      46.067  24.903  29.819  1.00  0.00     0.031 C 
ATOM     56  C   UNL A   1      46.449  27.115  30.870  1.00  0.00     0.031 A 
BRANCH  43  57
ATOM     57  C   UNL A   1      43.788  32.581  31.975  1.00  0.00    -0.014 A 
ATOM     58  C   UNL A   1      43.540  32.823  33.339  1.00  0.00     0.010 A 
ATOM     59  C   UNL A   1      44.222  33.642  31.161  1.00  0.00     0.010 A 
ATOM     60  C   UNL A   1      43.691  34.107  33.869  1.00  0.00     0.020 A 
ATOM     61  C   UNL A   1      44.402  34.923  31.694  1.00  0.00     0.020 A 
ATOM     62  C   UNL A   1      44.123  35.149  33.043  1.00  0.00     0.054 A 
BRANCH  62  63
ATOM     63  S   UNL A   1      44.348  36.796  33.769  1.00  0.00     0.124 S 
ATOM     64  O   UNL A   1      45.422  37.345  32.944  1.00  0.00    -0.237 OA
ATOM     65  O   UNL A   1      43.036  37.412  33.581  1.00  0.00    -0.237 OA
ATOM     66  O   UNL A   1      44.708  36.518  35.157  1.00  0.00    -0.744 OA
ENDBRANCH  62  63
ENDBRANCH  43  57
BRANCH  44  67
ATOM     67  C   UNL A   1      42.581  23.548  27.871  1.00  0.00    -0.014 A 
ATOM     68  C   UNL A   1      42.036  22.475  28.601  1.00  0.00     0.010 A 
ATOM     69  C   UNL A   1      42.986  23.332  26.541  1.00  0.00     0.010 A 
ATOM     70  C   UNL A   1      41.929  21.207  28.022  1.00  0.00     0.020 A 
ATOM     71  C   UNL A   1      42.851  22.073  25.950  1.00  0.00     0.020 A 
ATOM     72  C   UNL A   1      42.340  21.013  26.701  1.00  0.00     0.054 A 
BRANCH  72  73
ATOM     73  S   UNL A   1      42.168  19.365  25.962  1.00  0.00     0.124 S 
ATOM     74  O   UNL A   1      42.709  18.505  27.010  1.00  0.00    -0.237 OA
ATOM     75  O   UNL A   1      40.726  19.264  25.744  1.00  0.00    -0.237 OA
ATOM     76  O   UNL A   1      42.969  19.450  24.744  1.00  0.00    -0.744 OA
ENDBRANCH  72  73
ENDBRANCH  44  67
BRANCH  56  77
ATOM     77  C   UNL A   1      47.822  26.643  31.269  1.00  0.00    -0.014 A 
ATOM     78  C   UNL A   1      48.044  25.997  32.498  1.00  0.00     0.010 A 
ATOM     79  C   UNL A   1      48.896  26.807  30.376  1.00  0.00     0.010 A 
ATOM     80  C   UNL A   1      49.325  25.555  32.841  1.00  0.00     0.020 A 
ATOM     81  C   UNL A   1      50.172  26.341  30.703  1.00  0.00     0.020 A 
ATOM     82  C   UNL A   1      50.381  25.731  31.941  1.00  0.00     0.054 A 
BRANCH  82  83
ATOM     83  S   UNL A   1      52.025  25.114  32.395  1.00  0.00     0.124 S 
ATOM     84  O   UNL A   1      51.840  23.668  32.316  1.00  0.00    -0.237 OA
ATOM     85  O   UNL A   1      52.882  25.696  31.365  1.00  0.00    -0.237 OA
ATOM     86  O   UNL A   1      52.234  25.643  33.741  1.00  0.00    -0.744 OA
ENDBRANCH  82  83
ENDBRANCH  56  77
ENDBRANCH  30  31
ENDBRANCH  22  25
ENDBRANCH  20  21
ENDBRANCH   1  20
TORSDOF 16
ENDMDL
