MODEL 1
REMARK VINA RESULT:     -10.0      0.000      0.000
REMARK SMILES CC[C@H]1CC[C@](CC(C)(C)O)(C(=O)NCCCNC(=O)c2ccc(-c3c4nc(c(-c5ccc(S(=O)(=O)[O-])cc5)c5ccc([nH]5)c(-c5ccc(S(=O)(=O)[O-])cc5)c5nc(c(-c6ccc(S(=O)(=O)[O-])cc6)c6ccc3[nH]6)C=C5)C=C4)cc2)C1
REMARK SMILES IDX 16 1 15 2 14 3 12 4 13 5 6 7 3 8 4 9 81 10 5 11 2 12 1 13
REMARK SMILES IDX 7 14 8 15 9 16 10 17 11 18 17 20 18 21 19 22 20 24 21 25
REMARK SMILES IDX 22 26 80 27 23 28 79 29 24 30 25 31 26 32 73 33 27 34 78 35
REMARK SMILES IDX 72 36 74 37 28 38 77 39 71 40 70 41 29 43 59 44 40 45 58 46
REMARK SMILES IDX 41 47 44 48 57 49 75 50 42 51 43 52 56 54 76 55 45 56 30 57
REMARK SMILES IDX 31 58 39 59 32 60 38 61 33 62 34 63 35 64 36 65 37 66 60 67
REMARK SMILES IDX 61 68 69 69 62 70 68 71 63 72 64 73 65 74 66 75 67 76 46 77
REMARK SMILES IDX 47 78 55 79 48 80 54 81 49 82 50 83 51 84 52 85 53 86
REMARK H PARENT 14 6 11 19 18 23 74 42 44 53
REMARK Flexibility Score: inf
ROOT
ATOM      1  C   UNL A   1      33.340  27.687  25.485  1.00  0.00     0.042 C 
ENDROOT
BRANCH   1   2
ATOM      2  C   UNL A   1      32.854  26.251  25.278  1.00  0.00     0.117 C 
BRANCH   2   3
ATOM      3  N   UNL A   1      32.996  25.777  23.909  1.00  0.00    -0.356 N 
ATOM      4  C   UNL A   1      33.587  24.678  23.356  1.00  0.00     0.226 C 
ATOM      5  O   UNL A   1      33.512  24.612  22.125  1.00  0.00    -0.274 OA
ATOM      6  H   UNL A   1      32.579  26.373  23.245  1.00  0.00     0.163 HD
BRANCH   4   7
ATOM      7  C   UNL A   1      34.371  23.621  24.200  1.00  0.00     0.052 C 
ATOM      8  C   UNL A   1      36.832  23.647  24.771  1.00  0.00    -0.010 C 
ATOM      9  C   UNL A   1      36.661  23.074  23.371  1.00  0.00     0.005 C 
ATOM     10  C   UNL A   1      35.487  24.344  25.011  1.00  0.00     0.020 C 
ATOM     11  C   UNL A   1      35.184  22.691  23.257  1.00  0.00     0.017 C 
BRANCH   8  12
ATOM     12  C   UNL A   1      37.282  22.576  25.777  1.00  0.00     0.000 C 
ATOM     13  C   UNL A   1      38.728  22.699  26.244  1.00  0.00     0.004 C 
ENDBRANCH   8  12
BRANCH   7  14
ATOM     14  C   UNL A   1      33.263  22.853  25.007  1.00  0.00     0.051 C 
BRANCH  14  15
ATOM     15  C   UNL A   1      32.750  21.428  24.720  1.00  0.00     0.060 C 
ATOM     16  C   UNL A   1      32.356  21.202  23.257  1.00  0.00     0.042 C 
ATOM     17  C   UNL A   1      33.869  20.418  25.049  1.00  0.00     0.042 C 
BRANCH  15  18
ATOM     18  O   UNL A   1      31.675  21.121  25.585  1.00  0.00    -0.390 OA
ATOM     19  H   UNL A   1      32.001  21.059  26.496  1.00  0.00     0.211 HD
ENDBRANCH  15  18
ENDBRANCH  14  15
ENDBRANCH   7  14
ENDBRANCH   4   7
ENDBRANCH   2   3
ENDBRANCH   1   2
BRANCH   1  20
ATOM     20  C   UNL A   1      33.531  28.106  26.939  1.00  0.00     0.118 C 
BRANCH  20  21
ATOM     21  N   UNL A   1      33.432  29.545  27.126  1.00  0.00    -0.352 N 
ATOM     22  C   UNL A   1      34.304  30.427  27.711  1.00  0.00     0.251 C 
ATOM     23  H   UNL A   1      32.605  29.951  26.777  1.00  0.00     0.163 HD
ATOM     24  O   UNL A   1      33.924  31.582  27.931  1.00  0.00    -0.269 OA
BRANCH  22  25
ATOM     25  C   UNL A   1      35.675  30.021  28.100  1.00  0.00     0.039 A 
ATOM     26  C   UNL A   1      36.688  30.070  27.136  1.00  0.00     0.014 A 
ATOM     27  C   UNL A   1      35.965  29.544  29.382  1.00  0.00     0.014 A 
ATOM     28  C   UNL A   1      37.995  29.703  27.473  1.00  0.00     0.010 A 
ATOM     29  C   UNL A   1      37.282  29.247  29.736  1.00  0.00     0.010 A 
ATOM     30  C   UNL A   1      38.312  29.320  28.786  1.00  0.00    -0.014 A 
BRANCH  30  31
ATOM     31  C   UNL A   1      39.712  29.008  29.182  1.00  0.00     0.031 A 
ATOM     32  C   UNL A   1      40.557  30.034  29.891  1.00  0.00     0.074 A 
ATOM     33  C   UNL A   1      40.248  27.817  28.850  1.00  0.00     0.049 A 
ATOM     34  N   UNL A   1      41.808  29.953  30.271  1.00  0.00    -0.248 NA
ATOM     35  C   UNL A   1      39.921  31.325  30.193  1.00  0.00     0.031 C 
ATOM     36  C   UNL A   1      39.550  26.744  28.137  1.00  0.00     0.029 A 
ATOM     37  N   UNL A   1      41.506  27.307  29.064  1.00  0.00    -0.354 N 
ATOM     38  C   UNL A   1      42.114  31.185  30.838  1.00  0.00     0.074 A 
ATOM     39  C   UNL A   1      40.931  32.010  30.710  1.00  0.00     0.031 C 
ATOM     40  C   UNL A   1      40.377  25.696  28.000  1.00  0.00     0.029 A 
ATOM     41  C   UNL A   1      41.677  26.033  28.572  1.00  0.00     0.049 A 
ATOM     42  H   UNL A   1      42.218  27.806  29.525  1.00  0.00     0.167 HD
ATOM     43  C   UNL A   1      43.267  31.590  31.424  1.00  0.00     0.031 A 
ATOM     44  C   UNL A   1      42.756  25.228  28.574  1.00  0.00     0.031 A 
ATOM     45  C   UNL A   1      44.443  30.770  31.550  1.00  0.00     0.049 A 
ATOM     46  C   UNL A   1      44.033  25.706  29.208  1.00  0.00     0.074 A 
ATOM     47  C   UNL A   1      45.640  31.070  32.177  1.00  0.00     0.029 A 
ATOM     48  N   UNL A   1      44.577  29.490  31.032  1.00  0.00    -0.354 N 
ATOM     49  N   UNL A   1      44.281  26.851  29.797  1.00  0.00    -0.248 NA
ATOM     50  C   UNL A   1      45.172  24.779  29.186  1.00  0.00     0.031 C 
ATOM     51  C   UNL A   1      46.517  29.998  31.986  1.00  0.00     0.029 A 
ATOM     52  C   UNL A   1      45.846  29.001  31.296  1.00  0.00     0.049 A 
ATOM     53  H   UNL A   1      43.873  29.001  30.546  1.00  0.00     0.167 HD
ATOM     54  C   UNL A   1      45.597  26.772  30.240  1.00  0.00     0.074 A 
ATOM     55  C   UNL A   1      46.087  25.462  29.862  1.00  0.00     0.031 C 
ATOM     56  C   UNL A   1      46.329  27.699  30.906  1.00  0.00     0.031 A 
BRANCH  43  57
ATOM     57  C   UNL A   1      43.315  33.002  31.955  1.00  0.00    -0.014 A 
ATOM     58  C   UNL A   1      43.694  34.080  31.133  1.00  0.00     0.010 A 
ATOM     59  C   UNL A   1      42.961  33.257  33.292  1.00  0.00     0.010 A 
ATOM     60  C   UNL A   1      43.778  35.374  31.653  1.00  0.00     0.020 A 
ATOM     61  C   UNL A   1      43.012  34.556  33.809  1.00  0.00     0.020 A 
ATOM     62  C   UNL A   1      43.445  35.603  32.992  1.00  0.00     0.054 A 
BRANCH  62  63
ATOM     63  S   UNL A   1      43.573  37.289  33.646  1.00  0.00     0.124 S 
ATOM     64  O   UNL A   1      43.761  38.070  32.425  1.00  0.00    -0.237 OA
ATOM     65  O   UNL A   1      42.287  37.472  34.314  1.00  0.00    -0.237 OA
ATOM     66  O   UNL A   1      44.730  37.232  34.533  1.00  0.00    -0.744 OA
ENDBRANCH  62  63
ENDBRANCH  43  57
BRANCH  44  67
ATOM     67  C   UNL A   1      42.661  23.869  27.972  1.00  0.00    -0.014 A 
ATOM     68  C   UNL A   1      42.278  22.769  28.758  1.00  0.00     0.010 A 
ATOM     69  C   UNL A   1      42.914  23.676  26.602  1.00  0.00     0.010 A 
ATOM     70  C   UNL A   1      42.152  21.500  28.186  1.00  0.00     0.020 A 
ATOM     71  C   UNL A   1      42.764  22.414  26.021  1.00  0.00     0.020 A 
ATOM     72  C   UNL A   1      42.389  21.332  26.819  1.00  0.00     0.054 A 
BRANCH  72  73
ATOM     73  S   UNL A   1      42.142  19.691  26.085  1.00  0.00     0.124 S 
ATOM     74  O   UNL A   1      40.720  19.714  25.757  1.00  0.00    -0.237 OA
ATOM     75  O   UNL A   1      43.056  19.715  24.946  1.00  0.00    -0.237 OA
ATOM     76  O   UNL A   1      42.523  18.776  27.159  1.00  0.00    -0.744 OA
ENDBRANCH  72  73
ENDBRANCH  44  67
BRANCH  56  77
ATOM     77  C   UNL A   1      47.735  27.324  31.297  1.00  0.00    -0.014 A 
ATOM     78  C   UNL A   1      48.010  26.688  32.520  1.00  0.00     0.010 A 
ATOM     79  C   UNL A   1      48.792  27.566  30.398  1.00  0.00     0.010 A 
ATOM     80  C   UNL A   1      49.321  26.328  32.851  1.00  0.00     0.020 A 
ATOM     81  C   UNL A   1      50.098  27.181  30.712  1.00  0.00     0.020 A 
ATOM     82  C   UNL A   1      50.356  26.577  31.944  1.00  0.00     0.054 A 
BRANCH  82  83
ATOM     83  S   UNL A   1      52.040  26.060  32.378  1.00  0.00     0.124 S 
ATOM     84  O   UNL A   1      51.790  24.989  33.339  1.00  0.00    -0.237 OA
ATOM     85  O   UNL A   1      52.587  25.635  31.091  1.00  0.00    -0.237 OA
ATOM     86  O   UNL A   1      52.641  27.269  32.935  1.00  0.00    -0.744 OA
ENDBRANCH  82  83
ENDBRANCH  56  77
ENDBRANCH  30  31
ENDBRANCH  22  25
ENDBRANCH  20  21
ENDBRANCH   1  20
TORSDOF 17
ENDMDL
MODEL 2
REMARK VINA RESULT:     -10.0      2.694      9.442
REMARK SMILES CC[C@H]1CC[C@](CC(C)(C)O)(C(=O)NCCCNC(=O)c2ccc(-c3c4nc(c(-c5ccc(S(=O)(=O)[O-])cc5)c5ccc([nH]5)c(-c5ccc(S(=O)(=O)[O-])cc5)c5nc(c(-c6ccc(S(=O)(=O)[O-])cc6)c6ccc3[nH]6)C=C5)C=C4)cc2)C1
REMARK SMILES IDX 16 1 15 2 14 3 12 4 13 5 6 7 3 8 4 9 81 10 5 11 2 12 1 13
REMARK SMILES IDX 7 14 8 15 9 16 10 17 11 18 17 20 18 21 19 22 20 24 21 25
REMARK SMILES IDX 22 26 80 27 23 28 79 29 24 30 25 31 26 32 73 33 27 34 78 35
REMARK SMILES IDX 72 36 74 37 28 38 77 39 71 40 70 41 29 43 59 44 40 45 58 46
REMARK SMILES IDX 41 47 44 48 57 49 75 50 42 51 43 52 56 54 76 55 45 56 30 57
REMARK SMILES IDX 31 58 39 59 32 60 38 61 33 62 34 63 35 64 36 65 37 66 60 67
REMARK SMILES IDX 61 68 69 69 62 70 68 71 63 72 64 73 65 74 66 75 67 76 46 77
REMARK SMILES IDX 47 78 55 79 48 80 54 81 49 82 50 83 51 84 52 85 53 86
REMARK H PARENT 14 6 11 19 18 23 74 42 44 53
REMARK Flexibility Score: inf
ROOT
ATOM      1  C   UNL A   1      35.685  23.776  26.076  1.00  0.00     0.042 C 
ENDROOT
BRANCH   1   2
ATOM      2  C   UNL A   1      34.375  24.267  25.454  1.00  0.00     0.117 C 
BRANCH   2   3
ATOM      3  N   UNL A   1      33.204  24.016  26.281  1.00  0.00    -0.356 N 
ATOM      4  C   UNL A   1      31.987  24.623  26.388  1.00  0.00     0.226 C 
ATOM      5  O   UNL A   1      31.229  24.124  27.226  1.00  0.00    -0.274 OA
ATOM      6  H   UNL A   1      33.314  23.250  26.890  1.00  0.00     0.163 HD
BRANCH   4   7
ATOM      7  C   UNL A   1      31.601  25.901  25.573  1.00  0.00     0.052 C 
ATOM      8  C   UNL A   1      29.652  26.167  23.987  1.00  0.00    -0.010 C 
ATOM      9  C   UNL A   1      30.795  25.485  23.249  1.00  0.00     0.005 C 
ATOM     10  C   UNL A   1      30.049  25.980  25.457  1.00  0.00     0.020 C 
ATOM     11  C   UNL A   1      32.046  25.737  24.094  1.00  0.00     0.017 C 
BRANCH   8  12
ATOM     12  C   UNL A   1      29.413  27.596  23.478  1.00  0.00     0.000 C 
ATOM     13  C   UNL A   1      27.950  28.013  23.394  1.00  0.00     0.004 C 
ENDBRANCH   8  12
BRANCH   7  14
ATOM     14  C   UNL A   1      32.339  27.079  26.306  1.00  0.00     0.051 C 
BRANCH  14  15
ATOM     15  C   UNL A   1      33.114  28.228  25.630  1.00  0.00     0.060 C 
ATOM     16  C   UNL A   1      32.209  29.329  25.068  1.00  0.00     0.042 C 
ATOM     17  C   UNL A   1      34.037  28.889  26.674  1.00  0.00     0.042 C 
BRANCH  15  18
ATOM     18  O   UNL A   1      33.962  27.709  24.626  1.00  0.00    -0.390 OA
ATOM     19  H   UNL A   1      33.735  26.781  24.459  1.00  0.00     0.211 HD
ENDBRANCH  15  18
ENDBRANCH  14  15
ENDBRANCH   7  14
ENDBRANCH   4   7
ENDBRANCH   2   3
ENDBRANCH   1   2
BRANCH   1  20
ATOM     20  C   UNL A   1      36.867  23.685  25.116  1.00  0.00     0.118 C 
BRANCH  20  21
ATOM     21  N   UNL A   1      37.864  22.716  25.545  1.00  0.00    -0.352 N 
ATOM     22  C   UNL A   1      39.050  22.898  26.209  1.00  0.00     0.251 C 
ATOM     23  H   UNL A   1      37.653  21.781  25.321  1.00  0.00     0.163 HD
ATOM     24  O   UNL A   1      39.832  21.946  26.299  1.00  0.00    -0.269 OA
BRANCH  22  25
ATOM     25  C   UNL A   1      39.417  24.205  26.799  1.00  0.00     0.039 A 
ATOM     26  C   UNL A   1      38.999  24.496  28.102  1.00  0.00     0.014 A 
ATOM     27  C   UNL A   1      40.122  25.168  26.070  1.00  0.00     0.014 A 
ATOM     28  C   UNL A   1      39.338  25.718  28.691  1.00  0.00     0.010 A 
ATOM     29  C   UNL A   1      40.521  26.357  26.684  1.00  0.00     0.010 A 
ATOM     30  C   UNL A   1      40.132  26.647  28.000  1.00  0.00    -0.014 A 
BRANCH  30  31
ATOM     31  C   UNL A   1      40.573  27.915  28.643  1.00  0.00     0.031 A 
ATOM     32  C   UNL A   1      41.965  28.051  29.201  1.00  0.00     0.074 A 
ATOM     33  C   UNL A   1      39.697  28.931  28.781  1.00  0.00     0.049 A 
ATOM     34  N   UNL A   1      42.507  29.062  29.833  1.00  0.00    -0.248 NA
ATOM     35  C   UNL A   1      42.858  26.892  29.047  1.00  0.00     0.031 C 
ATOM     36  C   UNL A   1      38.309  28.921  28.313  1.00  0.00     0.029 A 
ATOM     37  N   UNL A   1      39.843  30.169  29.358  1.00  0.00    -0.354 N 
ATOM     38  C   UNL A   1      43.794  28.656  30.169  1.00  0.00     0.074 A 
ATOM     39  C   UNL A   1      43.934  27.290  29.710  1.00  0.00     0.031 C 
ATOM     40  C   UNL A   1      37.742  30.105  28.594  1.00  0.00     0.029 A 
ATOM     41  C   UNL A   1      38.706  30.942  29.301  1.00  0.00     0.049 A 
ATOM     42  H   UNL A   1      40.681  30.474  29.774  1.00  0.00     0.167 HD
ATOM     43  C   UNL A   1      44.774  29.358  30.789  1.00  0.00     0.031 A 
ATOM     44  C   UNL A   1      38.460  32.181  29.769  1.00  0.00     0.031 A 
ATOM     45  C   UNL A   1      44.632  30.715  31.245  1.00  0.00     0.049 A 
ATOM     46  C   UNL A   1      39.555  32.933  30.475  1.00  0.00     0.074 A 
ATOM     47  C   UNL A   1      45.585  31.531  31.832  1.00  0.00     0.029 A 
ATOM     48  N   UNL A   1      43.463  31.459  31.175  1.00  0.00    -0.354 N 
ATOM     49  N   UNL A   1      40.785  32.555  30.724  1.00  0.00    -0.248 NA
ATOM     50  C   UNL A   1      39.228  34.284  30.954  1.00  0.00     0.031 C 
ATOM     51  C   UNL A   1      44.975  32.743  32.172  1.00  0.00     0.029 A 
ATOM     52  C   UNL A   1      43.660  32.709  31.738  1.00  0.00     0.049 A 
ATOM     53  H   UNL A   1      42.616  31.143  30.784  1.00  0.00     0.167 HD
ATOM     54  C   UNL A   1      41.389  33.632  31.365  1.00  0.00     0.074 A 
ATOM     55  C   UNL A   1      40.392  34.678  31.453  1.00  0.00     0.031 C 
ATOM     56  C   UNL A   1      42.658  33.742  31.831  1.00  0.00     0.031 A 
BRANCH  43  57
ATOM     57  C   UNL A   1      46.085  28.651  31.030  1.00  0.00    -0.014 A 
ATOM     58  C   UNL A   1      47.140  28.730  30.101  1.00  0.00     0.010 A 
ATOM     59  C   UNL A   1      46.272  27.911  32.211  1.00  0.00     0.010 A 
ATOM     60  C   UNL A   1      48.330  28.031  30.319  1.00  0.00     0.020 A 
ATOM     61  C   UNL A   1      47.474  27.236  32.448  1.00  0.00     0.020 A 
ATOM     62  C   UNL A   1      48.487  27.281  31.488  1.00  0.00     0.054 A 
BRANCH  62  63
ATOM     63  S   UNL A   1      50.037  26.375  31.741  1.00  0.00     0.124 S 
ATOM     64  O   UNL A   1      49.748  25.100  31.089  1.00  0.00    -0.237 OA
ATOM     65  O   UNL A   1      51.016  27.219  31.061  1.00  0.00    -0.237 OA
ATOM     66  O   UNL A   1      50.173  26.316  33.194  1.00  0.00    -0.744 OA
ENDBRANCH  62  63
ENDBRANCH  43  57
BRANCH  44  67
ATOM     67  C   UNL A   1      37.121  32.796  29.557  1.00  0.00    -0.014 A 
ATOM     68  C   UNL A   1      36.223  32.930  30.629  1.00  0.00     0.010 A 
ATOM     69  C   UNL A   1      36.754  33.287  28.290  1.00  0.00     0.010 A 
ATOM     70  C   UNL A   1      34.980  33.541  30.440  1.00  0.00     0.020 A 
ATOM     71  C   UNL A   1      35.523  33.922  28.103  1.00  0.00     0.020 A 
ATOM     72  C   UNL A   1      34.641  34.040  29.179  1.00  0.00     0.054 A 
BRANCH  72  73
ATOM     73  S   UNL A   1      33.055  34.899  28.977  1.00  0.00     0.124 S 
ATOM     74  O   UNL A   1      32.391  34.080  27.969  1.00  0.00    -0.237 OA
ATOM     75  O   UNL A   1      32.488  34.833  30.322  1.00  0.00    -0.237 OA
ATOM     76  O   UNL A   1      33.445  36.238  28.541  1.00  0.00    -0.744 OA
ENDBRANCH  72  73
ENDBRANCH  44  67
BRANCH  56  77
ATOM     77  C   UNL A   1      43.055  35.054  32.458  1.00  0.00    -0.014 A 
ATOM     78  C   UNL A   1      43.611  36.093  31.692  1.00  0.00     0.010 A 
ATOM     79  C   UNL A   1      42.817  35.266  33.830  1.00  0.00     0.010 A 
ATOM     80  C   UNL A   1      43.951  37.310  32.292  1.00  0.00     0.020 A 
ATOM     81  C   UNL A   1      43.128  36.490  34.427  1.00  0.00     0.020 A 
ATOM     82  C   UNL A   1      43.706  37.501  33.656  1.00  0.00     0.054 A 
BRANCH  82  83
ATOM     83  S   UNL A   1      44.114  39.104  34.400  1.00  0.00     0.124 S 
ATOM     84  O   UNL A   1      45.453  39.351  33.874  1.00  0.00    -0.237 OA
ATOM     85  O   UNL A   1      43.063  39.975  33.880  1.00  0.00    -0.237 OA
ATOM     86  O   UNL A   1      44.047  38.846  35.836  1.00  0.00    -0.744 OA
ENDBRANCH  82  83
ENDBRANCH  56  77
ENDBRANCH  30  31
ENDBRANCH  22  25
ENDBRANCH  20  21
ENDBRANCH   1  20
TORSDOF 17
ENDMDL
MODEL 3
REMARK VINA RESULT:     -10.0      1.121      2.194
REMARK SMILES CC[C@H]1CC[C@](CC(C)(C)O)(C(=O)NCCCNC(=O)c2ccc(-c3c4nc(c(-c5ccc(S(=O)(=O)[O-])cc5)c5ccc([nH]5)c(-c5ccc(S(=O)(=O)[O-])cc5)c5nc(c(-c6ccc(S(=O)(=O)[O-])cc6)c6ccc3[nH]6)C=C5)C=C4)cc2)C1
REMARK SMILES IDX 16 1 15 2 14 3 12 4 13 5 6 7 3 8 4 9 81 10 5 11 2 12 1 13
REMARK SMILES IDX 7 14 8 15 9 16 10 17 11 18 17 20 18 21 19 22 20 24 21 25
REMARK SMILES IDX 22 26 80 27 23 28 79 29 24 30 25 31 26 32 73 33 27 34 78 35
REMARK SMILES IDX 72 36 74 37 28 38 77 39 71 40 70 41 29 43 59 44 40 45 58 46
REMARK SMILES IDX 41 47 44 48 57 49 75 50 42 51 43 52 56 54 76 55 45 56 30 57
REMARK SMILES IDX 31 58 39 59 32 60 38 61 33 62 34 63 35 64 36 65 37 66 60 67
REMARK SMILES IDX 61 68 69 69 62 70 68 71 63 72 64 73 65 74 66 75 67 76 46 77
REMARK SMILES IDX 47 78 55 79 48 80 54 81 49 82 50 83 51 84 52 85 53 86
REMARK H PARENT 14 6 11 19 18 23 74 42 44 53
REMARK Flexibility Score: inf
ROOT
ATOM      1  C   UNL A   1      33.876  28.089  25.797  1.00  0.00     0.042 C 
ENDROOT
BRANCH   1   2
ATOM      2  C   UNL A   1      33.185  26.857  25.208  1.00  0.00     0.117 C 
BRANCH   2   3
ATOM      3  N   UNL A   1      32.345  26.145  26.160  1.00  0.00    -0.356 N 
ATOM      4  C   UNL A   1      32.155  24.822  26.434  1.00  0.00     0.226 C 
ATOM      5  O   UNL A   1      31.336  24.589  27.328  1.00  0.00    -0.274 OA
ATOM      6  H   UNL A   1      31.800  26.743  26.723  1.00  0.00     0.163 HD
BRANCH   4   7
ATOM      7  C   UNL A   1      32.857  23.680  25.629  1.00  0.00     0.052 C 
ATOM      8  C   UNL A   1      31.785  22.103  23.971  1.00  0.00    -0.010 C 
ATOM      9  C   UNL A   1      31.533  21.579  25.377  1.00  0.00     0.005 C 
ATOM     10  C   UNL A   1      32.188  23.561  24.227  1.00  0.00     0.020 C 
ATOM     11  C   UNL A   1      32.536  22.305  26.277  1.00  0.00     0.017 C 
BRANCH   8  12
ATOM     12  C   UNL A   1      32.762  21.208  23.193  1.00  0.00     0.000 C 
ATOM     13  C   UNL A   1      32.748  19.738  23.594  1.00  0.00     0.004 C 
ENDBRANCH   8  12
BRANCH   7  14
ATOM     14  C   UNL A   1      34.386  24.037  25.681  1.00  0.00     0.051 C 
BRANCH  14  15
ATOM     15  C   UNL A   1      35.550  23.037  25.836  1.00  0.00     0.060 C 
ATOM     16  C   UNL A   1      35.674  22.056  24.665  1.00  0.00     0.042 C 
ATOM     17  C   UNL A   1      36.876  23.821  25.912  1.00  0.00     0.042 C 
BRANCH  15  18
ATOM     18  O   UNL A   1      35.429  22.346  27.062  1.00  0.00    -0.390 OA
ATOM     19  H   UNL A   1      36.286  22.343  27.517  1.00  0.00     0.211 HD
ENDBRANCH  15  18
ENDBRANCH  14  15
ENDBRANCH   7  14
ENDBRANCH   4   7
ENDBRANCH   2   3
ENDBRANCH   1   2
BRANCH   1  20
ATOM     20  C   UNL A   1      33.479  28.434  27.229  1.00  0.00     0.118 C 
BRANCH  20  21
ATOM     21  N   UNL A   1      33.454  29.868  27.473  1.00  0.00    -0.352 N 
ATOM     22  C   UNL A   1      34.392  30.687  28.048  1.00  0.00     0.251 C 
ATOM     23  H   UNL A   1      32.631  30.323  27.180  1.00  0.00     0.163 HD
ATOM     24  O   UNL A   1      34.076  31.848  28.328  1.00  0.00    -0.269 OA
BRANCH  22  25
ATOM     25  C   UNL A   1      35.759  30.207  28.353  1.00  0.00     0.039 A 
ATOM     26  C   UNL A   1      36.727  30.247  27.343  1.00  0.00     0.014 A 
ATOM     27  C   UNL A   1      36.088  29.671  29.602  1.00  0.00     0.014 A 
ATOM     28  C   UNL A   1      38.030  29.810  27.602  1.00  0.00     0.010 A 
ATOM     29  C   UNL A   1      37.406  29.302  29.880  1.00  0.00     0.010 A 
ATOM     30  C   UNL A   1      38.391  29.365  28.885  1.00  0.00    -0.014 A 
BRANCH  30  31
ATOM     31  C   UNL A   1      39.793  28.977  29.200  1.00  0.00     0.031 A 
ATOM     32  C   UNL A   1      40.733  29.956  29.853  1.00  0.00     0.074 A 
ATOM     33  C   UNL A   1      40.242  27.757  28.842  1.00  0.00     0.049 A 
ATOM     34  N   UNL A   1      41.998  29.807  30.160  1.00  0.00    -0.248 NA
ATOM     35  C   UNL A   1      40.187  31.280  30.186  1.00  0.00     0.031 C 
ATOM     36  C   UNL A   1      39.446  26.724  28.176  1.00  0.00     0.029 A 
ATOM     37  N   UNL A   1      41.480  27.180  28.985  1.00  0.00    -0.354 N 
ATOM     38  C   UNL A   1      42.403  31.021  30.703  1.00  0.00     0.074 A 
ATOM     39  C   UNL A   1      41.262  31.909  30.640  1.00  0.00     0.031 C 
ATOM     40  C   UNL A   1      40.205  25.632  27.997  1.00  0.00     0.029 A 
ATOM     41  C   UNL A   1      41.552  25.898  28.491  1.00  0.00     0.049 A 
ATOM     42  H   UNL A   1      42.245  27.640  29.402  1.00  0.00     0.167 HD
ATOM     43  C   UNL A   1      43.609  31.363  31.219  1.00  0.00     0.031 A 
ATOM     44  C   UNL A   1      42.584  25.034  28.433  1.00  0.00     0.031 A 
ATOM     45  C   UNL A   1      44.743  30.479  31.280  1.00  0.00     0.049 A 
ATOM     46  C   UNL A   1      43.920  25.442  28.990  1.00  0.00     0.074 A 
ATOM     47  C   UNL A   1      45.990  30.714  31.835  1.00  0.00     0.029 A 
ATOM     48  N   UNL A   1      44.776  29.193  30.761  1.00  0.00    -0.354 N 
ATOM     49  N   UNL A   1      44.264  26.573  29.558  1.00  0.00    -0.248 NA
ATOM     50  C   UNL A   1      45.004  24.453  28.906  1.00  0.00     0.031 C 
ATOM     51  C   UNL A   1      46.794  29.595  31.598  1.00  0.00     0.029 A 
ATOM     52  C   UNL A   1      46.030  28.635  30.953  1.00  0.00     0.049 A 
ATOM     53  H   UNL A   1      44.020  28.743  30.319  1.00  0.00     0.167 HD
ATOM     54  C   UNL A   1      45.598  26.421  29.924  1.00  0.00     0.074 A 
ATOM     55  C   UNL A   1      45.992  25.086  29.524  1.00  0.00     0.031 C 
ATOM     56  C   UNL A   1      46.417  27.308  30.542  1.00  0.00     0.031 A 
BRANCH  43  57
ATOM     57  C   UNL A   1      43.766  32.771  31.739  1.00  0.00    -0.014 A 
ATOM     58  C   UNL A   1      44.193  33.817  30.900  1.00  0.00     0.010 A 
ATOM     59  C   UNL A   1      43.466  33.055  33.083  1.00  0.00     0.010 A 
ATOM     60  C   UNL A   1      44.377  35.105  31.411  1.00  0.00     0.020 A 
ATOM     61  C   UNL A   1      43.617  34.350  33.591  1.00  0.00     0.020 A 
ATOM     62  C   UNL A   1      44.096  35.362  32.756  1.00  0.00     0.054 A 
BRANCH  62  63
ATOM     63  S   UNL A   1      44.354  37.039  33.396  1.00  0.00     0.124 S 
ATOM     64  O   UNL A   1      45.754  36.989  33.810  1.00  0.00    -0.237 OA
ATOM     65  O   UNL A   1      44.075  37.873  32.229  1.00  0.00    -0.237 OA
ATOM     66  O   UNL A   1      43.386  37.149  34.483  1.00  0.00    -0.744 OA
ENDBRANCH  62  63
ENDBRANCH  43  57
BRANCH  44  67
ATOM     67  C   UNL A   1      42.380  23.682  27.845  1.00  0.00    -0.014 A 
ATOM     68  C   UNL A   1      42.650  23.450  26.485  1.00  0.00     0.010 A 
ATOM     69  C   UNL A   1      41.953  22.610  28.650  1.00  0.00     0.010 A 
ATOM     70  C   UNL A   1      42.495  22.172  25.940  1.00  0.00     0.020 A 
ATOM     71  C   UNL A   1      41.822  21.326  28.115  1.00  0.00     0.020 A 
ATOM     72  C   UNL A   1      42.089  21.116  26.760  1.00  0.00     0.054 A 
BRANCH  72  73
ATOM     73  S   UNL A   1      41.971  19.452  26.047  1.00  0.00     0.124 S 
ATOM     74  O   UNL A   1      42.459  18.617  27.140  1.00  0.00    -0.237 OA
ATOM     75  O   UNL A   1      40.545  19.337  25.750  1.00  0.00    -0.237 OA
ATOM     76  O   UNL A   1      42.839  19.520  24.874  1.00  0.00    -0.744 OA
ENDBRANCH  72  73
ENDBRANCH  44  67
BRANCH  56  77
ATOM     77  C   UNL A   1      47.821  26.856  30.852  1.00  0.00    -0.014 A 
ATOM     78  C   UNL A   1      48.868  27.032  29.930  1.00  0.00     0.010 A 
ATOM     79  C   UNL A   1      48.105  26.292  32.111  1.00  0.00     0.010 A 
ATOM     80  C   UNL A   1      50.167  26.625  30.249  1.00  0.00     0.020 A 
ATOM     81  C   UNL A   1      49.407  25.912  32.445  1.00  0.00     0.020 A 
ATOM     82  C   UNL A   1      50.428  26.068  31.505  1.00  0.00     0.054 A 
BRANCH  82  83
ATOM     83  S   UNL A   1      52.131  25.590  31.911  1.00  0.00     0.124 S 
ATOM     84  O   UNL A   1      51.991  24.159  32.167  1.00  0.00    -0.237 OA
ATOM     85  O   UNL A   1      52.861  25.944  30.697  1.00  0.00    -0.237 OA
ATOM     86  O   UNL A   1      52.448  26.404  33.082  1.00  0.00    -0.744 OA
ENDBRANCH  82  83
ENDBRANCH  56  77
ENDBRANCH  30  31
ENDBRANCH  22  25
ENDBRANCH  20  21
ENDBRANCH   1  20
TORSDOF 17
ENDMDL
