MODEL 1
REMARK VINA RESULT:     -12.8      0.000      0.000
REMARK SMILES Cc1ccc(-c2cc3cccnc3n2CCC(=O)NCCCNC(=O)c2ccc(-c3c4nc(c(-c5ccc(S(=O)(=O)[O-])cc5)c5ccc([nH]5)c(-c5ccc(S(=O)(=O)[O-])cc5)c5nc(c(-c6ccc(S(=O)(=O)[O-])cc6)c6ccc3[nH]6)C=C5)C=C4)cc2)cn1
REMARK SMILES IDX 21 1 20 2 19 3 17 4 18 5 16 7 15 8 14 9 6 10 7 11 8 12 13 13
REMARK SMILES IDX 9 14 12 15 10 16 11 17 5 18 1 19 2 20 3 21 87 22 4 23 86 24
REMARK SMILES IDX 22 25 23 26 24 27 25 29 26 30 27 31 85 32 28 33 84 34 29 35
REMARK SMILES IDX 30 36 31 37 78 38 32 39 83 40 77 41 79 42 33 43 82 44 76 45
REMARK SMILES IDX 75 46 34 48 64 49 45 50 63 51 46 52 49 53 62 54 80 55 47 56
REMARK SMILES IDX 48 57 61 59 81 60 50 61 35 62 36 63 44 64 37 65 43 66 38 67
REMARK SMILES IDX 39 68 40 69 41 70 42 71 65 72 66 73 74 74 67 75 73 76 68 77
REMARK SMILES IDX 69 78 70 79 71 80 72 81 51 82 52 83 60 84 53 85 59 86 54 87
REMARK SMILES IDX 55 88 56 89 57 90 58 91
REMARK H PARENT 19 6 23 28 79 47 49 58
REMARK Flexibility Score: inf
ROOT
ATOM      1  C   UNL A   1      39.044  23.138  26.360  1.00  0.00     0.042 C 
ENDROOT
BRANCH   1   2
ATOM      2  C   UNL A   1      37.867  22.392  25.771  1.00  0.00     0.117 C 
BRANCH   2   3
ATOM      3  N   UNL A   1      36.647  23.184  25.699  1.00  0.00    -0.356 N 
ATOM      4  C   UNL A   1      35.349  22.851  25.940  1.00  0.00     0.221 C 
ATOM      5  O   UNL A   1      34.523  23.767  26.007  1.00  0.00    -0.275 OA
ATOM      6  H   UNL A   1      36.784  24.121  25.430  1.00  0.00     0.163 HD
BRANCH   4   7
ATOM      7  C   UNL A   1      34.896  21.416  26.096  1.00  0.00     0.122 C 
BRANCH   7   8
ATOM      8  C   UNL A   1      33.373  21.201  26.012  1.00  0.00     0.134 C 
BRANCH   8   9
ATOM      9  N   UNL A   1      32.894  20.680  24.739  1.00  0.00    -0.325 N 
ATOM     10  C   UNL A   1      32.474  21.356  23.588  1.00  0.00     0.052 A 
ATOM     11  C   UNL A   1      32.145  20.344  22.673  1.00  0.00     0.039 A 
ATOM     12  C   UNL A   1      32.537  19.087  23.199  1.00  0.00     0.020 A 
ATOM     13  C   UNL A   1      32.907  19.311  24.513  1.00  0.00     0.140 A 
ATOM     14  C   UNL A   1      32.715  17.792  22.683  1.00  0.00     0.013 A 
ATOM     15  N   UNL A   1      33.345  18.385  25.396  1.00  0.00    -0.238 NA
ATOM     16  C   UNL A   1      33.217  16.814  23.542  1.00  0.00     0.021 A 
ATOM     17  C   UNL A   1      33.478  17.152  24.860  1.00  0.00     0.113 A 
BRANCH  10  18
ATOM     18  C   UNL A   1      32.600  22.805  23.256  1.00  0.00     0.017 A 
ATOM     19  C   UNL A   1      33.536  26.982  22.796  1.00  0.00     0.066 C 
ATOM     20  C   UNL A   1      33.195  25.530  22.949  1.00  0.00     0.037 A 
ATOM     21  C   UNL A   1      32.055  25.155  23.630  1.00  0.00     0.024 A 
ATOM     22  N   UNL A   1      34.011  24.615  22.382  1.00  0.00    -0.261 NA
ATOM     23  C   UNL A   1      31.767  23.797  23.765  1.00  0.00     0.014 A 
ATOM     24  C   UNL A   1      33.694  23.297  22.540  1.00  0.00     0.121 A 
ENDBRANCH  10  18
ENDBRANCH   8   9
ENDBRANCH   7   8
ENDBRANCH   4   7
ENDBRANCH   2   3
ENDBRANCH   1   2
BRANCH   1  25
ATOM     25  C   UNL A   1      40.090  22.320  27.078  1.00  0.00     0.118 C 
BRANCH  25  26
ATOM     26  N   UNL A   1      41.300  22.147  26.297  1.00  0.00    -0.352 N 
ATOM     27  C   UNL A   1      42.197  23.089  25.832  1.00  0.00     0.251 C 
ATOM     28  H   UNL A   1      41.515  21.216  26.062  1.00  0.00     0.163 HD
ATOM     29  O   UNL A   1      42.953  22.771  24.926  1.00  0.00    -0.269 OA
BRANCH  27  30
ATOM     30  C   UNL A   1      42.286  24.446  26.442  1.00  0.00     0.039 A 
ATOM     31  C   UNL A   1      42.888  24.597  27.702  1.00  0.00     0.014 A 
ATOM     32  C   UNL A   1      41.685  25.555  25.846  1.00  0.00     0.014 A 
ATOM     33  C   UNL A   1      42.752  25.807  28.379  1.00  0.00     0.010 A 
ATOM     34  C   UNL A   1      41.751  26.795  26.411  1.00  0.00     0.010 A 
ATOM     35  C   UNL A   1      42.116  26.872  27.734  1.00  0.00    -0.014 A 
BRANCH  35  36
ATOM     36  C   UNL A   1      41.790  28.122  28.386  1.00  0.00     0.031 A 
ATOM     37  C   UNL A   1      42.770  29.183  28.115  1.00  0.00     0.074 A 
ATOM     38  C   UNL A   1      40.592  28.353  28.965  1.00  0.00     0.049 A 
ATOM     39  N   UNL A   1      43.718  29.565  28.901  1.00  0.00    -0.248 NA
ATOM     40  C   UNL A   1      42.840  29.745  26.757  1.00  0.00     0.031 C 
ATOM     41  C   UNL A   1      39.398  27.492  28.996  1.00  0.00     0.029 A 
ATOM     42  N   UNL A   1      40.157  29.479  29.587  1.00  0.00    -0.354 N 
ATOM     43  C   UNL A   1      44.354  30.592  28.225  1.00  0.00     0.074 A 
ATOM     44  C   UNL A   1      43.935  30.503  26.849  1.00  0.00     0.031 C 
ATOM     45  C   UNL A   1      38.329  28.208  29.420  1.00  0.00     0.029 A 
ATOM     46  C   UNL A   1      38.791  29.516  29.849  1.00  0.00     0.049 A 
ATOM     47  H   UNL A   1      40.763  30.214  29.835  1.00  0.00     0.167 HD
ATOM     48  C   UNL A   1      44.929  31.624  28.900  1.00  0.00     0.031 A 
ATOM     49  C   UNL A   1      38.112  30.559  30.392  1.00  0.00     0.031 A 
ATOM     50  C   UNL A   1      44.918  31.397  30.321  1.00  0.00     0.049 A 
ATOM     51  C   UNL A   1      39.115  31.342  31.154  1.00  0.00     0.074 A 
ATOM     52  C   UNL A   1      45.598  30.585  31.202  1.00  0.00     0.029 A 
ATOM     53  N   UNL A   1      43.744  31.772  30.934  1.00  0.00    -0.354 N 
ATOM     54  N   UNL A   1      39.765  30.868  32.181  1.00  0.00    -0.248 NA
ATOM     55  C   UNL A   1      39.691  32.537  30.551  1.00  0.00     0.031 C 
ATOM     56  C   UNL A   1      44.672  30.280  32.245  1.00  0.00     0.029 A 
ATOM     57  C   UNL A   1      43.475  30.954  32.002  1.00  0.00     0.049 A 
ATOM     58  H   UNL A   1      43.176  32.523  30.646  1.00  0.00     0.167 HD
ATOM     59  C   UNL A   1      41.026  31.428  32.085  1.00  0.00     0.074 A 
ATOM     60  C   UNL A   1      40.872  32.556  31.173  1.00  0.00     0.031 C 
ATOM     61  C   UNL A   1      42.132  30.755  32.516  1.00  0.00     0.031 A 
BRANCH  48  62
ATOM     62  C   UNL A   1      45.049  33.003  28.320  1.00  0.00    -0.014 A 
ATOM     63  C   UNL A   1      46.321  33.546  28.073  1.00  0.00     0.010 A 
ATOM     64  C   UNL A   1      43.939  33.871  28.227  1.00  0.00     0.010 A 
ATOM     65  C   UNL A   1      46.470  34.896  27.727  1.00  0.00     0.020 A 
ATOM     66  C   UNL A   1      44.073  35.205  27.845  1.00  0.00     0.020 A 
ATOM     67  C   UNL A   1      45.342  35.713  27.605  1.00  0.00     0.054 A 
BRANCH  67  68
ATOM     68  S   UNL A   1      45.554  37.462  27.194  1.00  0.00     0.124 S 
ATOM     69  O   UNL A   1      46.077  38.012  28.442  1.00  0.00    -0.237 OA
ATOM     70  O   UNL A   1      46.499  37.402  26.083  1.00  0.00    -0.237 OA
ATOM     71  O   UNL A   1      44.206  37.898  26.836  1.00  0.00    -0.744 OA
ENDBRANCH  67  68
ENDBRANCH  48  62
BRANCH  49  72
ATOM     72  C   UNL A   1      36.809  31.144  29.972  1.00  0.00    -0.014 A 
ATOM     73  C   UNL A   1      35.931  31.685  30.937  1.00  0.00     0.010 A 
ATOM     74  C   UNL A   1      36.581  31.483  28.624  1.00  0.00     0.010 A 
ATOM     75  C   UNL A   1      34.939  32.614  30.581  1.00  0.00     0.020 A 
ATOM     76  C   UNL A   1      35.588  32.405  28.260  1.00  0.00     0.020 A 
ATOM     77  C   UNL A   1      34.798  32.997  29.246  1.00  0.00     0.054 A 
BRANCH  77  78
ATOM     78  S   UNL A   1      33.652  34.346  28.825  1.00  0.00     0.124 S 
ATOM     79  O   UNL A   1      33.127  34.735  30.131  1.00  0.00    -0.237 OA
ATOM     80  O   UNL A   1      34.536  35.316  28.186  1.00  0.00    -0.237 OA
ATOM     81  O   UNL A   1      32.682  33.710  27.935  1.00  0.00    -0.744 OA
ENDBRANCH  77  78
ENDBRANCH  49  72
BRANCH  61  82
ATOM     82  C   UNL A   1      41.929  29.641  33.511  1.00  0.00    -0.014 A 
ATOM     83  C   UNL A   1      41.714  28.290  33.173  1.00  0.00     0.010 A 
ATOM     84  C   UNL A   1      42.067  29.981  34.867  1.00  0.00     0.010 A 
ATOM     85  C   UNL A   1      41.636  27.309  34.179  1.00  0.00     0.020 A 
ATOM     86  C   UNL A   1      42.005  29.011  35.867  1.00  0.00     0.020 A 
ATOM     87  C   UNL A   1      41.790  27.678  35.521  1.00  0.00     0.054 A 
BRANCH  87  88
ATOM     88  S   UNL A   1      41.713  26.412  36.820  1.00  0.00     0.124 S 
ATOM     89  O   UNL A   1      41.681  25.166  36.060  1.00  0.00    -0.237 OA
ATOM     90  O   UNL A   1      42.940  26.657  37.576  1.00  0.00    -0.237 OA
ATOM     91  O   UNL A   1      40.479  26.724  37.540  1.00  0.00    -0.744 OA
ENDBRANCH  87  88
ENDBRANCH  61  82
ENDBRANCH  35  36
ENDBRANCH  27  30
ENDBRANCH  25  26
ENDBRANCH   1  25
TORSDOF 16
ENDMDL
MODEL 2
REMARK VINA RESULT:     -12.6      1.074      3.057
REMARK SMILES Cc1ccc(-c2cc3cccnc3n2CCC(=O)NCCCNC(=O)c2ccc(-c3c4nc(c(-c5ccc(S(=O)(=O)[O-])cc5)c5ccc([nH]5)c(-c5ccc(S(=O)(=O)[O-])cc5)c5nc(c(-c6ccc(S(=O)(=O)[O-])cc6)c6ccc3[nH]6)C=C5)C=C4)cc2)cn1
REMARK SMILES IDX 21 1 20 2 19 3 17 4 18 5 16 7 15 8 14 9 6 10 7 11 8 12 13 13
REMARK SMILES IDX 9 14 12 15 10 16 11 17 5 18 1 19 2 20 3 21 87 22 4 23 86 24
REMARK SMILES IDX 22 25 23 26 24 27 25 29 26 30 27 31 85 32 28 33 84 34 29 35
REMARK SMILES IDX 30 36 31 37 78 38 32 39 83 40 77 41 79 42 33 43 82 44 76 45
REMARK SMILES IDX 75 46 34 48 64 49 45 50 63 51 46 52 49 53 62 54 80 55 47 56
REMARK SMILES IDX 48 57 61 59 81 60 50 61 35 62 36 63 44 64 37 65 43 66 38 67
REMARK SMILES IDX 39 68 40 69 41 70 42 71 65 72 66 73 74 74 67 75 73 76 68 77
REMARK SMILES IDX 69 78 70 79 71 80 72 81 51 82 52 83 60 84 53 85 59 86 54 87
REMARK SMILES IDX 55 88 56 89 57 90 58 91
REMARK H PARENT 19 6 23 28 79 47 49 58
REMARK Flexibility Score: inf
ROOT
ATOM      1  C   UNL A   1      39.031  21.715  26.074  1.00  0.00     0.042 C 
ENDROOT
BRANCH   1   2
ATOM      2  C   UNL A   1      37.798  22.511  25.706  1.00  0.00     0.117 C 
BRANCH   2   3
ATOM      3  N   UNL A   1      37.431  22.408  24.301  1.00  0.00    -0.356 N 
ATOM      4  C   UNL A   1      36.462  23.038  23.581  1.00  0.00     0.221 C 
ATOM      5  O   UNL A   1      36.494  22.925  22.352  1.00  0.00    -0.275 OA
ATOM      6  H   UNL A   1      37.977  21.774  23.782  1.00  0.00     0.163 HD
BRANCH   4   7
ATOM      7  C   UNL A   1      35.355  23.833  24.236  1.00  0.00     0.122 C 
BRANCH   7   8
ATOM      8  C   UNL A   1      34.144  24.129  23.331  1.00  0.00     0.134 C 
BRANCH   8   9
ATOM      9  N   UNL A   1      32.844  23.990  23.975  1.00  0.00    -0.325 N 
ATOM     10  C   UNL A   1      32.091  22.842  24.248  1.00  0.00     0.052 A 
ATOM     11  C   UNL A   1      30.940  23.311  24.899  1.00  0.00     0.039 A 
ATOM     12  C   UNL A   1      31.085  24.694  25.177  1.00  0.00     0.020 A 
ATOM     13  C   UNL A   1      32.225  25.109  24.513  1.00  0.00     0.140 A 
ATOM     14  C   UNL A   1      30.434  25.628  26.001  1.00  0.00     0.013 A 
ATOM     15  N   UNL A   1      32.739  26.360  24.499  1.00  0.00    -0.238 NA
ATOM     16  C   UNL A   1      30.960  26.918  26.062  1.00  0.00     0.021 A 
ATOM     17  C   UNL A   1      32.066  27.227  25.286  1.00  0.00     0.113 A 
BRANCH  10  18
ATOM     18  C   UNL A   1      32.499  21.410  24.151  1.00  0.00     0.017 A 
ATOM     19  C   UNL A   1      32.931  17.133  23.923  1.00  0.00     0.066 C 
ATOM     20  C   UNL A   1      32.797  18.624  24.006  1.00  0.00     0.037 A 
ATOM     21  C   UNL A   1      33.165  19.289  25.158  1.00  0.00     0.024 A 
ATOM     22  N   UNL A   1      32.339  19.290  22.923  1.00  0.00    -0.261 NA
ATOM     23  C   UNL A   1      33.021  20.676  25.211  1.00  0.00     0.014 A 
ATOM     24  C   UNL A   1      32.211  20.645  23.019  1.00  0.00     0.121 A 
ENDBRANCH  10  18
ENDBRANCH   8   9
ENDBRANCH   7   8
ENDBRANCH   4   7
ENDBRANCH   2   3
ENDBRANCH   1   2
BRANCH   1  25
ATOM     25  C   UNL A   1      40.179  22.471  26.698  1.00  0.00     0.118 C 
BRANCH  25  26
ATOM     26  N   UNL A   1      41.418  22.320  25.958  1.00  0.00    -0.352 N 
ATOM     27  C   UNL A   1      42.302  23.279  25.505  1.00  0.00     0.251 C 
ATOM     28  H   UNL A   1      41.667  21.391  25.748  1.00  0.00     0.163 HD
ATOM     29  O   UNL A   1      43.096  22.968  24.630  1.00  0.00    -0.269 OA
BRANCH  27  30
ATOM     30  C   UNL A   1      42.333  24.649  26.092  1.00  0.00     0.039 A 
ATOM     31  C   UNL A   1      43.143  24.900  27.212  1.00  0.00     0.014 A 
ATOM     32  C   UNL A   1      41.490  25.660  25.630  1.00  0.00     0.014 A 
ATOM     33  C   UNL A   1      42.987  26.097  27.908  1.00  0.00     0.010 A 
ATOM     34  C   UNL A   1      41.505  26.909  26.177  1.00  0.00     0.010 A 
ATOM     35  C   UNL A   1      42.107  27.059  27.404  1.00  0.00    -0.014 A 
BRANCH  35  36
ATOM     36  C   UNL A   1      41.756  28.271  28.113  1.00  0.00     0.031 A 
ATOM     37  C   UNL A   1      42.728  29.354  27.913  1.00  0.00     0.074 A 
ATOM     38  C   UNL A   1      40.546  28.460  28.682  1.00  0.00     0.049 A 
ATOM     39  N   UNL A   1      43.658  29.706  28.734  1.00  0.00    -0.248 NA
ATOM     40  C   UNL A   1      42.814  29.986  26.587  1.00  0.00     0.031 C 
ATOM     41  C   UNL A   1      39.361  27.586  28.649  1.00  0.00     0.029 A 
ATOM     42  N   UNL A   1      40.088  29.547  29.353  1.00  0.00    -0.354 N 
ATOM     43  C   UNL A   1      44.293  30.773  28.122  1.00  0.00     0.074 A 
ATOM     44  C   UNL A   1      43.898  30.749  26.736  1.00  0.00     0.031 C 
ATOM     45  C   UNL A   1      38.277  28.268  29.091  1.00  0.00     0.029 A 
ATOM     46  C   UNL A   1      38.717  29.557  29.593  1.00  0.00     0.049 A 
ATOM     47  H   UNL A   1      40.681  30.276  29.648  1.00  0.00     0.167 HD
ATOM     48  C   UNL A   1      44.845  31.775  28.858  1.00  0.00     0.031 A 
ATOM     49  C   UNL A   1      38.017  30.564  30.177  1.00  0.00     0.031 A 
ATOM     50  C   UNL A   1      44.813  31.476  30.266  1.00  0.00     0.049 A 
ATOM     51  C   UNL A   1      38.998  31.318  30.995  1.00  0.00     0.074 A 
ATOM     52  C   UNL A   1      45.488  30.627  31.115  1.00  0.00     0.029 A 
ATOM     53  N   UNL A   1      43.625  31.807  30.876  1.00  0.00    -0.354 N 
ATOM     54  N   UNL A   1      39.636  30.798  32.008  1.00  0.00    -0.248 NA
ATOM     55  C   UNL A   1      39.570  32.547  30.463  1.00  0.00     0.031 C 
ATOM     56  C   UNL A   1      44.549  30.259  32.126  1.00  0.00     0.029 A 
ATOM     57  C   UNL A   1      43.348  30.933  31.897  1.00  0.00     0.049 A 
ATOM     58  H   UNL A   1      43.053  32.565  30.617  1.00  0.00     0.167 HD
ATOM     59  C   UNL A   1      40.892  31.376  31.961  1.00  0.00     0.074 A 
ATOM     60  C   UNL A   1      40.741  32.547  31.105  1.00  0.00     0.031 C 
ATOM     61  C   UNL A   1      41.999  30.694  32.377  1.00  0.00     0.031 A 
BRANCH  48  62
ATOM     62  C   UNL A   1      44.960  33.183  28.352  1.00  0.00    -0.014 A 
ATOM     63  C   UNL A   1      46.171  33.879  28.495  1.00  0.00     0.010 A 
ATOM     64  C   UNL A   1      43.828  33.922  27.942  1.00  0.00     0.010 A 
ATOM     65  C   UNL A   1      46.248  35.251  28.219  1.00  0.00     0.020 A 
ATOM     66  C   UNL A   1      43.902  35.278  27.628  1.00  0.00     0.020 A 
ATOM     67  C   UNL A   1      45.115  35.938  27.777  1.00  0.00     0.054 A 
BRANCH  67  68
ATOM     68  S   UNL A   1      45.221  37.716  27.461  1.00  0.00     0.124 S 
ATOM     69  O   UNL A   1      46.379  37.804  26.575  1.00  0.00    -0.237 OA
ATOM     70  O   UNL A   1      43.928  37.994  26.844  1.00  0.00    -0.237 OA
ATOM     71  O   UNL A   1      45.408  38.292  28.791  1.00  0.00    -0.744 OA
ENDBRANCH  67  68
ENDBRANCH  48  62
BRANCH  49  72
ATOM     72  C   UNL A   1      36.715  31.156  29.765  1.00  0.00    -0.014 A 
ATOM     73  C   UNL A   1      35.829  31.666  30.739  1.00  0.00     0.010 A 
ATOM     74  C   UNL A   1      36.495  31.531  28.425  1.00  0.00     0.010 A 
ATOM     75  C   UNL A   1      34.835  32.602  30.402  1.00  0.00     0.020 A 
ATOM     76  C   UNL A   1      35.500  32.460  28.081  1.00  0.00     0.020 A 
ATOM     77  C   UNL A   1      34.702  33.021  29.077  1.00  0.00     0.054 A 
BRANCH  77  78
ATOM     78  S   UNL A   1      33.553  34.377  28.687  1.00  0.00     0.124 S 
ATOM     79  O   UNL A   1      32.618  33.743  27.761  1.00  0.00    -0.237 OA
ATOM     80  O   UNL A   1      33.011  34.712  30.000  1.00  0.00    -0.237 OA
ATOM     81  O   UNL A   1      34.414  35.398  28.092  1.00  0.00    -0.744 OA
ENDBRANCH  77  78
ENDBRANCH  49  72
BRANCH  61  82
ATOM     82  C   UNL A   1      41.792  29.528  33.310  1.00  0.00    -0.014 A 
ATOM     83  C   UNL A   1      41.743  28.177  32.912  1.00  0.00     0.010 A 
ATOM     84  C   UNL A   1      41.746  29.827  34.682  1.00  0.00     0.010 A 
ATOM     85  C   UNL A   1      41.646  27.155  33.874  1.00  0.00     0.020 A 
ATOM     86  C   UNL A   1      41.665  28.817  35.641  1.00  0.00     0.020 A 
ATOM     87  C   UNL A   1      41.615  27.484  35.235  1.00  0.00     0.054 A 
BRANCH  87  88
ATOM     88  S   UNL A   1      41.514  26.167  36.481  1.00  0.00     0.124 S 
ATOM     89  O   UNL A   1      42.915  25.832  36.715  1.00  0.00    -0.237 OA
ATOM     90  O   UNL A   1      40.832  26.830  37.590  1.00  0.00    -0.237 OA
ATOM     91  O   UNL A   1      40.734  25.120  35.821  1.00  0.00    -0.744 OA
ENDBRANCH  87  88
ENDBRANCH  61  82
ENDBRANCH  35  36
ENDBRANCH  27  30
ENDBRANCH  25  26
ENDBRANCH   1  25
TORSDOF 16
ENDMDL
MODEL 3
REMARK VINA RESULT:     -12.5      3.243      9.770
REMARK SMILES Cc1ccc(-c2cc3cccnc3n2CCC(=O)NCCCNC(=O)c2ccc(-c3c4nc(c(-c5ccc(S(=O)(=O)[O-])cc5)c5ccc([nH]5)c(-c5ccc(S(=O)(=O)[O-])cc5)c5nc(c(-c6ccc(S(=O)(=O)[O-])cc6)c6ccc3[nH]6)C=C5)C=C4)cc2)cn1
REMARK SMILES IDX 21 1 20 2 19 3 17 4 18 5 16 7 15 8 14 9 6 10 7 11 8 12 13 13
REMARK SMILES IDX 9 14 12 15 10 16 11 17 5 18 1 19 2 20 3 21 87 22 4 23 86 24
REMARK SMILES IDX 22 25 23 26 24 27 25 29 26 30 27 31 85 32 28 33 84 34 29 35
REMARK SMILES IDX 30 36 31 37 78 38 32 39 83 40 77 41 79 42 33 43 82 44 76 45
REMARK SMILES IDX 75 46 34 48 64 49 45 50 63 51 46 52 49 53 62 54 80 55 47 56
REMARK SMILES IDX 48 57 61 59 81 60 50 61 35 62 36 63 44 64 37 65 43 66 38 67
REMARK SMILES IDX 39 68 40 69 41 70 42 71 65 72 66 73 74 74 67 75 73 76 68 77
REMARK SMILES IDX 69 78 70 79 71 80 72 81 51 82 52 83 60 84 53 85 59 86 54 87
REMARK SMILES IDX 55 88 56 89 57 90 58 91
REMARK H PARENT 19 6 23 28 79 47 49 58
REMARK Flexibility Score: inf
ROOT
ATOM      1  C   UNL A   1      33.969  29.811  27.618  1.00  0.00     0.042 C 
ENDROOT
BRANCH   1   2
ATOM      2  C   UNL A   1      33.203  29.479  26.356  1.00  0.00     0.117 C 
BRANCH   2   3
ATOM      3  N   UNL A   1      33.457  28.136  25.852  1.00  0.00    -0.356 N 
ATOM      4  C   UNL A   1      33.391  27.628  24.590  1.00  0.00     0.221 C 
ATOM      5  O   UNL A   1      33.857  26.500  24.401  1.00  0.00    -0.275 OA
ATOM      6  H   UNL A   1      33.720  27.485  26.541  1.00  0.00     0.163 HD
BRANCH   4   7
ATOM      7  C   UNL A   1      32.751  28.380  23.445  1.00  0.00     0.122 C 
BRANCH   7   8
ATOM      8  C   UNL A   1      31.866  27.526  22.519  1.00  0.00     0.134 C 
BRANCH   8   9
ATOM      9  N   UNL A   1      30.456  27.478  22.885  1.00  0.00    -0.325 N 
ATOM     10  C   UNL A   1      29.766  26.576  23.702  1.00  0.00     0.052 A 
ATOM     11  C   UNL A   1      28.440  27.035  23.708  1.00  0.00     0.039 A 
ATOM     12  C   UNL A   1      28.373  28.293  23.058  1.00  0.00     0.020 A 
ATOM     13  C   UNL A   1      29.611  28.499  22.476  1.00  0.00     0.140 A 
ATOM     14  C   UNL A   1      27.432  29.334  22.978  1.00  0.00     0.013 A 
ATOM     15  N   UNL A   1      29.989  29.574  21.748  1.00  0.00    -0.238 NA
ATOM     16  C   UNL A   1      27.798  30.487  22.284  1.00  0.00     0.021 A 
ATOM     17  C   UNL A   1      29.045  30.537  21.680  1.00  0.00     0.113 A 
BRANCH  10  18
ATOM     18  C   UNL A   1      30.315  25.526  24.609  1.00  0.00     0.017 A 
ATOM     19  C   UNL A   1      32.514  22.944  27.261  1.00  0.00     0.066 C 
ATOM     20  C   UNL A   1      31.738  23.830  26.334  1.00  0.00     0.037 A 
ATOM     21  C   UNL A   1      31.567  23.470  25.012  1.00  0.00     0.024 A 
ATOM     22  N   UNL A   1      31.194  24.962  26.831  1.00  0.00    -0.261 NA
ATOM     23  C   UNL A   1      30.848  24.318  24.170  1.00  0.00     0.014 A 
ATOM     24  C   UNL A   1      30.501  25.765  25.972  1.00  0.00     0.121 A 
ENDBRANCH  10  18
ENDBRANCH   8   9
ENDBRANCH   7   8
ENDBRANCH   4   7
ENDBRANCH   2   3
ENDBRANCH   1   2
BRANCH   1  25
ATOM     25  C   UNL A   1      34.761  31.095  27.626  1.00  0.00     0.118 C 
BRANCH  25  26
ATOM     26  N   UNL A   1      34.486  31.916  28.790  1.00  0.00    -0.352 N 
ATOM     27  C   UNL A   1      35.012  31.849  30.066  1.00  0.00     0.251 C 
ATOM     28  H   UNL A   1      33.825  32.631  28.649  1.00  0.00     0.163 HD
ATOM     29  O   UNL A   1      34.411  32.409  30.970  1.00  0.00    -0.269 OA
BRANCH  27  30
ATOM     30  C   UNL A   1      36.303  31.157  30.340  1.00  0.00     0.039 A 
ATOM     31  C   UNL A   1      37.488  31.909  30.400  1.00  0.00     0.014 A 
ATOM     32  C   UNL A   1      36.383  29.767  30.425  1.00  0.00     0.014 A 
ATOM     33  C   UNL A   1      38.714  31.246  30.407  1.00  0.00     0.010 A 
ATOM     34  C   UNL A   1      37.567  29.131  30.659  1.00  0.00     0.010 A 
ATOM     35  C   UNL A   1      38.723  29.850  30.468  1.00  0.00    -0.014 A 
BRANCH  35  36
ATOM     36  C   UNL A   1      39.923  29.052  30.334  1.00  0.00     0.031 A 
ATOM     37  C   UNL A   1      40.565  28.761  31.624  1.00  0.00     0.074 A 
ATOM     38  C   UNL A   1      40.266  28.435  29.183  1.00  0.00     0.049 A 
ATOM     39  N   UNL A   1      41.589  29.365  32.120  1.00  0.00    -0.248 NA
ATOM     40  C   UNL A   1      39.887  27.844  32.555  1.00  0.00     0.031 C 
ATOM     41  C   UNL A   1      39.522  28.362  27.915  1.00  0.00     0.029 A 
ATOM     42  N   UNL A   1      41.345  27.649  28.934  1.00  0.00    -0.354 N 
ATOM     43  C   UNL A   1      41.832  28.732  33.327  1.00  0.00     0.074 A 
ATOM     44  C   UNL A   1      40.643  27.983  33.647  1.00  0.00     0.031 C 
ATOM     45  C   UNL A   1      40.071  27.415  27.116  1.00  0.00     0.029 A 
ATOM     46  C   UNL A   1      41.294  26.941  27.738  1.00  0.00     0.049 A 
ATOM     47  H   UNL A   1      42.108  27.585  29.554  1.00  0.00     0.167 HD
ATOM     48  C   UNL A   1      43.096  28.618  33.816  1.00  0.00     0.031 A 
ATOM     49  C   UNL A   1      42.213  26.038  27.305  1.00  0.00     0.031 A 
ATOM     50  C   UNL A   1      44.040  29.359  33.021  1.00  0.00     0.049 A 
ATOM     51  C   UNL A   1      43.476  26.383  28.001  1.00  0.00     0.074 A 
ATOM     52  C   UNL A   1      44.350  30.688  32.830  1.00  0.00     0.029 A 
ATOM     53  N   UNL A   1      44.502  28.669  31.923  1.00  0.00    -0.354 N 
ATOM     54  N   UNL A   1      44.100  27.518  27.834  1.00  0.00    -0.248 NA
ATOM     55  C   UNL A   1      43.866  25.628  29.184  1.00  0.00     0.031 C 
ATOM     56  C   UNL A   1      44.773  30.798  31.470  1.00  0.00     0.029 A 
ATOM     57  C   UNL A   1      44.761  29.530  30.887  1.00  0.00     0.049 A 
ATOM     58  H   UNL A   1      44.629  27.694  31.886  1.00  0.00     0.167 HD
ATOM     59  C   UNL A   1      44.623  27.814  29.079  1.00  0.00     0.074 A 
ATOM     60  C   UNL A   1      44.589  26.555  29.816  1.00  0.00     0.031 C 
ATOM     61  C   UNL A   1      44.761  29.105  29.498  1.00  0.00     0.031 A 
BRANCH  48  62
ATOM     62  C   UNL A   1      43.525  27.479  34.694  1.00  0.00    -0.014 A 
ATOM     63  C   UNL A   1      44.288  27.735  35.845  1.00  0.00     0.010 A 
ATOM     64  C   UNL A   1      43.390  26.134  34.287  1.00  0.00     0.010 A 
ATOM     65  C   UNL A   1      44.871  26.686  36.568  1.00  0.00     0.020 A 
ATOM     66  C   UNL A   1      43.933  25.080  35.021  1.00  0.00     0.020 A 
ATOM     67  C   UNL A   1      44.680  25.365  36.156  1.00  0.00     0.054 A 
BRANCH  67  68
ATOM     68  S   UNL A   1      45.471  24.024  37.078  1.00  0.00     0.124 S 
ATOM     69  O   UNL A   1      46.887  24.358  36.957  1.00  0.00    -0.237 OA
ATOM     70  O   UNL A   1      44.893  24.187  38.408  1.00  0.00    -0.237 OA
ATOM     71  O   UNL A   1      45.051  22.820  36.364  1.00  0.00    -0.744 OA
ENDBRANCH  67  68
ENDBRANCH  48  62
BRANCH  49  72
ATOM     72  C   UNL A   1      41.990  24.699  26.694  1.00  0.00    -0.014 A 
ATOM     73  C   UNL A   1      43.073  23.988  26.133  1.00  0.00     0.010 A 
ATOM     74  C   UNL A   1      40.809  23.980  26.964  1.00  0.00     0.010 A 
ATOM     75  C   UNL A   1      43.016  22.594  25.956  1.00  0.00     0.020 A 
ATOM     76  C   UNL A   1      40.743  22.590  26.783  1.00  0.00     0.020 A 
ATOM     77  C   UNL A   1      41.862  21.899  26.318  1.00  0.00     0.054 A 
BRANCH  77  78
ATOM     78  S   UNL A   1      41.871  20.080  26.276  1.00  0.00     0.124 S 
ATOM     79  O   UNL A   1      42.305  19.734  27.626  1.00  0.00    -0.237 OA
ATOM     80  O   UNL A   1      40.480  19.769  25.961  1.00  0.00    -0.237 OA
ATOM     81  O   UNL A   1      42.831  19.764  25.219  1.00  0.00    -0.744 OA
ENDBRANCH  77  78
ENDBRANCH  49  72
BRANCH  61  82
ATOM     82  C   UNL A   1      44.795  30.183  28.444  1.00  0.00    -0.014 A 
ATOM     83  C   UNL A   1      43.658  30.801  27.888  1.00  0.00     0.010 A 
ATOM     84  C   UNL A   1      46.066  30.658  28.078  1.00  0.00     0.010 A 
ATOM     85  C   UNL A   1      43.799  31.866  26.981  1.00  0.00     0.020 A 
ATOM     86  C   UNL A   1      46.211  31.724  27.191  1.00  0.00     0.020 A 
ATOM     87  C   UNL A   1      45.079  32.326  26.645  1.00  0.00     0.054 A 
BRANCH  87  88
ATOM     88  S   UNL A   1      45.266  33.718  25.495  1.00  0.00     0.124 S 
ATOM     89  O   UNL A   1      44.529  34.790  26.158  1.00  0.00    -0.237 OA
ATOM     90  O   UNL A   1      46.715  33.892  25.437  1.00  0.00    -0.237 OA
ATOM     91  O   UNL A   1      44.658  33.232  24.256  1.00  0.00    -0.744 OA
ENDBRANCH  87  88
ENDBRANCH  61  82
ENDBRANCH  35  36
ENDBRANCH  27  30
ENDBRANCH  25  26
ENDBRANCH   1  25
TORSDOF 16
ENDMDL
