MODEL 1
REMARK VINA RESULT:     -12.7      0.000      0.000
REMARK SMILES C[C@H]1CCCCN1c1nc2nc(CC(=O)NCCCNC(=O)c3ccc(-c4c5nc(c(-c6ccc(S(=O)(=O)[O-])cc6)c6ccc([nH]6)c(-c6ccc(S(=O)(=O)[O-])cc6)c6nc(c(-c7ccc(S(=O)(=O)[O-])cc7)c7ccc4[nH]7)C=C6)C=C5)cc3)cc(O)n2n1
REMARK SMILES IDX 18 1 17 2 16 3 14 4 15 5 13 7 12 8 8 9 9 10 87 11 10 12
REMARK SMILES IDX 86 13 11 14 84 15 83 16 7 17 1 18 2 19 3 20 4 21 6 22 5 23
REMARK SMILES IDX 85 24 19 26 20 27 21 28 22 30 23 31 24 32 82 33 25 34 81 35
REMARK SMILES IDX 26 36 27 37 28 38 75 39 29 40 80 41 74 42 76 43 30 44 79 45
REMARK SMILES IDX 73 46 72 47 31 49 61 50 42 51 60 52 43 53 46 54 59 55 77 56
REMARK SMILES IDX 44 57 45 58 58 60 78 61 47 62 32 63 33 64 41 65 34 66 40 67
REMARK SMILES IDX 35 68 36 69 37 70 38 71 39 72 62 73 63 74 71 75 64 76 70 77
REMARK SMILES IDX 65 78 66 79 67 80 68 81 69 82 48 83 49 84 57 85 50 86 56 87
REMARK SMILES IDX 51 88 52 89 53 90 54 91 55 92
REMARK H PARENT 16 6 85 25 20 29 76 48 46 59
REMARK Flexibility Score: inf
ROOT
ATOM      1  C   UNL A   1      37.847  21.781  25.321  1.00  0.00     0.042 C 
ENDROOT
BRANCH   1   2
ATOM      2  C   UNL A   1      36.416  22.014  25.815  1.00  0.00     0.117 C 
BRANCH   2   3
ATOM      3  N   UNL A   1      35.593  20.821  25.752  1.00  0.00    -0.356 N 
ATOM      4  C   UNL A   1      34.501  20.557  24.976  1.00  0.00     0.226 C 
ATOM      5  O   UNL A   1      34.025  19.422  24.995  1.00  0.00    -0.275 OA
ATOM      6  H   UNL A   1      35.863  20.094  26.357  1.00  0.00     0.163 HD
BRANCH   4   7
ATOM      7  C   UNL A   1      33.972  21.615  24.042  1.00  0.00     0.156 C 
BRANCH   7   8
ATOM      8  C   UNL A   1      33.462  22.860  24.730  1.00  0.00     0.059 A 
ATOM      9  C   UNL A   1      32.993  27.034  25.762  1.00  0.00     0.247 A 
ATOM     10  N   UNL A   1      33.740  26.382  24.825  1.00  0.00    -0.173 NA
ATOM     11  N   UNL A   1      32.178  26.251  26.465  1.00  0.00    -0.123 NA
ATOM     12  C   UNL A   1      33.443  25.117  25.002  1.00  0.00     0.257 A 
ATOM     13  N   UNL A   1      32.460  25.023  25.987  1.00  0.00    -0.161 N 
ATOM     14  N   UNL A   1      33.943  24.013  24.373  1.00  0.00    -0.215 NA
ATOM     15  C   UNL A   1      31.925  23.777  26.357  1.00  0.00     0.217 A 
ATOM     16  C   UNL A   1      32.410  22.665  25.785  1.00  0.00     0.092 A 
BRANCH   9  17
ATOM     17  N   UNL A   1      33.165  28.362  25.909  1.00  0.00    -0.337 N 
ATOM     18  C   UNL A   1      31.141  28.876  24.467  1.00  0.00     0.031 C 
ATOM     19  C   UNL A   1      32.384  29.386  25.203  1.00  0.00     0.082 C 
ATOM     20  C   UNL A   1      31.924  30.430  26.243  1.00  0.00     0.025 C 
ATOM     21  C   UNL A   1      33.101  31.005  27.028  1.00  0.00     0.004 C 
ATOM     22  C   UNL A   1      34.330  28.838  26.656  1.00  0.00     0.120 C 
ATOM     23  C   UNL A   1      33.914  29.890  27.678  1.00  0.00     0.022 C 
ENDBRANCH   9  17
BRANCH  15  24
ATOM     24  O   UNL A   1      30.909  23.730  27.298  1.00  0.00    -0.493 OA
ATOM     25  H   UNL A   1      30.172  24.305  27.221  1.00  0.00     0.295 HD
ENDBRANCH  15  24
ENDBRANCH   7   8
ENDBRANCH   4   7
ENDBRANCH   2   3
ENDBRANCH   1   2
BRANCH   1  26
ATOM     26  C   UNL A   1      38.869  22.494  26.187  1.00  0.00     0.118 C 
BRANCH  26  27
ATOM     27  N   UNL A   1      40.228  22.039  25.910  1.00  0.00    -0.352 N 
ATOM     28  C   UNL A   1      41.391  22.780  25.886  1.00  0.00     0.251 C 
ATOM     29  H   UNL A   1      40.328  21.079  25.715  1.00  0.00     0.163 HD
ATOM     30  O   UNL A   1      42.392  22.334  25.351  1.00  0.00    -0.269 OA
BRANCH  28  31
ATOM     31  C   UNL A   1      41.396  24.115  26.512  1.00  0.00     0.039 A 
ATOM     32  C   UNL A   1      40.819  25.207  25.857  1.00  0.00     0.014 A 
ATOM     33  C   UNL A   1      41.998  24.265  27.760  1.00  0.00     0.014 A 
ATOM     34  C   UNL A   1      40.804  26.444  26.493  1.00  0.00     0.010 A 
ATOM     35  C   UNL A   1      41.876  25.451  28.439  1.00  0.00     0.010 A 
ATOM     36  C   UNL A   1      41.330  26.552  27.785  1.00  0.00    -0.014 A 
BRANCH  36  37
ATOM     37  C   UNL A   1      41.311  27.820  28.494  1.00  0.00     0.031 A 
ATOM     38  C   UNL A   1      42.416  28.768  28.184  1.00  0.00     0.074 A 
ATOM     39  C   UNL A   1      40.218  28.216  29.178  1.00  0.00     0.049 A 
ATOM     40  N   UNL A   1      43.315  29.235  28.987  1.00  0.00    -0.248 NA
ATOM     41  C   UNL A   1      42.590  29.193  26.786  1.00  0.00     0.031 C 
ATOM     42  C   UNL A   1      38.910  27.556  29.268  1.00  0.00     0.029 A 
ATOM     43  N   UNL A   1      40.006  29.392  29.817  1.00  0.00    -0.354 N 
ATOM     44  C   UNL A   1      44.076  30.135  28.244  1.00  0.00     0.074 A 
ATOM     45  C   UNL A   1      43.675  29.966  26.870  1.00  0.00     0.031 C 
ATOM     46  C   UNL A   1      37.990  28.449  29.691  1.00  0.00     0.029 A 
ATOM     47  C   UNL A   1      38.669  29.680  30.055  1.00  0.00     0.049 A 
ATOM     48  H   UNL A   1      40.738  29.992  30.088  1.00  0.00     0.167 HD
ATOM     49  C   UNL A   1      44.859  31.089  28.824  1.00  0.00     0.031 A 
ATOM     50  C   UNL A   1      38.170  30.877  30.448  1.00  0.00     0.031 A 
ATOM     51  C   UNL A   1      44.999  30.888  30.240  1.00  0.00     0.049 A 
ATOM     52  C   UNL A   1      39.305  31.627  31.052  1.00  0.00     0.074 A 
ATOM     53  C   UNL A   1      45.529  29.886  31.028  1.00  0.00     0.029 A 
ATOM     54  N   UNL A   1      44.174  31.621  31.064  1.00  0.00    -0.354 N 
ATOM     55  N   UNL A   1      39.932  31.239  32.131  1.00  0.00    -0.248 NA
ATOM     56  C   UNL A   1      40.040  32.560  30.211  1.00  0.00     0.031 C 
ATOM     57  C   UNL A   1      44.620  29.765  32.120  1.00  0.00     0.029 A 
ATOM     58  C   UNL A   1      43.630  30.740  31.965  1.00  0.00     0.049 A 
ATOM     59  H   UNL A   1      44.008  32.590  31.016  1.00  0.00     0.167 HD
ATOM     60  C   UNL A   1      41.268  31.538  31.898  1.00  0.00     0.074 A 
ATOM     61  C   UNL A   1      41.259  32.435  30.745  1.00  0.00     0.031 C 
ATOM     62  C   UNL A   1      42.276  30.817  32.476  1.00  0.00     0.031 A 
BRANCH  49  63
ATOM     63  C   UNL A   1      45.237  32.390  28.169  1.00  0.00    -0.014 A 
ATOM     64  C   UNL A   1      46.595  32.759  28.093  1.00  0.00     0.010 A 
ATOM     65  C   UNL A   1      44.281  33.377  27.855  1.00  0.00     0.010 A 
ATOM     66  C   UNL A   1      46.973  34.067  27.759  1.00  0.00     0.020 A 
ATOM     67  C   UNL A   1      44.648  34.670  27.479  1.00  0.00     0.020 A 
ATOM     68  C   UNL A   1      45.994  35.017  27.463  1.00  0.00     0.054 A 
BRANCH  68  69
ATOM     69  S   UNL A   1      46.488  36.733  27.157  1.00  0.00     0.124 S 
ATOM     70  O   UNL A   1      47.278  36.611  25.937  1.00  0.00    -0.237 OA
ATOM     71  O   UNL A   1      45.198  37.403  27.014  1.00  0.00    -0.237 OA
ATOM     72  O   UNL A   1      47.243  37.092  28.356  1.00  0.00    -0.744 OA
ENDBRANCH  68  69
ENDBRANCH  49  63
BRANCH  50  73
ATOM     73  C   UNL A   1      36.904  31.517  29.998  1.00  0.00    -0.014 A 
ATOM     74  C   UNL A   1      35.855  31.749  30.908  1.00  0.00     0.010 A 
ATOM     75  C   UNL A   1      36.821  32.149  28.738  1.00  0.00     0.010 A 
ATOM     76  C   UNL A   1      34.813  32.642  30.602  1.00  0.00     0.020 A 
ATOM     77  C   UNL A   1      35.779  33.029  28.420  1.00  0.00     0.020 A 
ATOM     78  C   UNL A   1      34.799  33.300  29.370  1.00  0.00     0.054 A 
BRANCH  78  79
ATOM     79  S   UNL A   1      33.558  34.589  29.061  1.00  0.00     0.124 S 
ATOM     80  O   UNL A   1      32.679  33.953  28.084  1.00  0.00    -0.237 OA
ATOM     81  O   UNL A   1      32.985  34.790  30.389  1.00  0.00    -0.237 OA
ATOM     82  O   UNL A   1      34.342  35.711  28.549  1.00  0.00    -0.744 OA
ENDBRANCH  78  79
ENDBRANCH  50  73
BRANCH  62  83
ATOM     83  C   UNL A   1      41.930  29.812  33.553  1.00  0.00    -0.014 A 
ATOM     84  C   UNL A   1      41.470  28.509  33.268  1.00  0.00     0.010 A 
ATOM     85  C   UNL A   1      42.305  30.115  34.872  1.00  0.00     0.010 A 
ATOM     86  C   UNL A   1      41.399  27.536  34.279  1.00  0.00     0.020 A 
ATOM     87  C   UNL A   1      42.250  29.146  35.880  1.00  0.00     0.020 A 
ATOM     88  C   UNL A   1      41.805  27.859  35.577  1.00  0.00     0.054 A 
BRANCH  88  89
ATOM     89  S   UNL A   1      41.802  26.571  36.857  1.00  0.00     0.124 S 
ATOM     90  O   UNL A   1      42.992  26.891  37.641  1.00  0.00    -0.237 OA
ATOM     91  O   UNL A   1      40.526  26.795  37.533  1.00  0.00    -0.237 OA
ATOM     92  O   UNL A   1      41.881  25.323  36.098  1.00  0.00    -0.744 OA
ENDBRANCH  88  89
ENDBRANCH  62  83
ENDBRANCH  36  37
ENDBRANCH  28  31
ENDBRANCH  26  27
ENDBRANCH   1  26
TORSDOF 16
ENDMDL
MODEL 2
REMARK VINA RESULT:     -12.3      1.103      1.610
REMARK SMILES C[C@H]1CCCCN1c1nc2nc(CC(=O)NCCCNC(=O)c3ccc(-c4c5nc(c(-c6ccc(S(=O)(=O)[O-])cc6)c6ccc([nH]6)c(-c6ccc(S(=O)(=O)[O-])cc6)c6nc(c(-c7ccc(S(=O)(=O)[O-])cc7)c7ccc4[nH]7)C=C6)C=C5)cc3)cc(O)n2n1
REMARK SMILES IDX 18 1 17 2 16 3 14 4 15 5 13 7 12 8 8 9 9 10 87 11 10 12
REMARK SMILES IDX 86 13 11 14 84 15 83 16 7 17 1 18 2 19 3 20 4 21 6 22 5 23
REMARK SMILES IDX 85 24 19 26 20 27 21 28 22 30 23 31 24 32 82 33 25 34 81 35
REMARK SMILES IDX 26 36 27 37 28 38 75 39 29 40 80 41 74 42 76 43 30 44 79 45
REMARK SMILES IDX 73 46 72 47 31 49 61 50 42 51 60 52 43 53 46 54 59 55 77 56
REMARK SMILES IDX 44 57 45 58 58 60 78 61 47 62 32 63 33 64 41 65 34 66 40 67
REMARK SMILES IDX 35 68 36 69 37 70 38 71 39 72 62 73 63 74 71 75 64 76 70 77
REMARK SMILES IDX 65 78 66 79 67 80 68 81 69 82 48 83 49 84 57 85 50 86 56 87
REMARK SMILES IDX 51 88 52 89 53 90 54 91 55 92
REMARK H PARENT 16 6 85 25 20 29 76 48 46 59
REMARK Flexibility Score: inf
ROOT
ATOM      1  C   UNL A   1      39.125  21.502  26.147  1.00  0.00     0.042 C 
ENDROOT
BRANCH   1   2
ATOM      2  C   UNL A   1      38.152  22.657  25.894  1.00  0.00     0.117 C 
BRANCH   2   3
ATOM      3  N   UNL A   1      37.778  22.789  24.499  1.00  0.00    -0.356 N 
ATOM      4  C   UNL A   1      36.630  22.406  23.865  1.00  0.00     0.226 C 
ATOM      5  O   UNL A   1      36.471  22.730  22.689  1.00  0.00    -0.275 OA
ATOM      6  H   UNL A   1      38.451  23.218  23.923  1.00  0.00     0.163 HD
BRANCH   4   7
ATOM      7  C   UNL A   1      35.547  21.699  24.639  1.00  0.00     0.156 C 
BRANCH   7   8
ATOM      8  C   UNL A   1      34.418  22.593  25.096  1.00  0.00     0.059 A 
ATOM      9  C   UNL A   1      31.665  25.926  25.220  1.00  0.00     0.247 A 
ATOM     10  N   UNL A   1      32.655  25.565  24.355  1.00  0.00    -0.173 NA
ATOM     11  N   UNL A   1      31.430  25.048  26.193  1.00  0.00    -0.123 NA
ATOM     12  C   UNL A   1      33.125  24.446  24.854  1.00  0.00     0.257 A 
ATOM     13  N   UNL A   1      32.360  24.099  25.967  1.00  0.00    -0.161 N 
ATOM     14  N   UNL A   1      34.166  23.675  24.423  1.00  0.00    -0.215 NA
ATOM     15  C   UNL A   1      32.621  22.918  26.682  1.00  0.00     0.217 A 
ATOM     16  C   UNL A   1      33.653  22.146  26.310  1.00  0.00     0.092 A 
BRANCH   9  17
ATOM     17  N   UNL A   1      31.055  27.113  25.038  1.00  0.00    -0.337 N 
ATOM     18  C   UNL A   1      32.676  28.289  26.596  1.00  0.00     0.031 C 
ATOM     19  C   UNL A   1      31.385  28.341  25.773  1.00  0.00     0.082 C 
ATOM     20  C   UNL A   1      31.524  29.484  24.745  1.00  0.00     0.025 C 
ATOM     21  C   UNL A   1      30.275  29.620  23.876  1.00  0.00     0.004 C 
ATOM     22  C   UNL A   1      29.849  27.160  24.209  1.00  0.00     0.120 C 
ATOM     23  C   UNL A   1      29.942  28.296  23.196  1.00  0.00     0.022 C 
ENDBRANCH   9  17
BRANCH  15  24
ATOM     24  O   UNL A   1      31.802  22.577  27.747  1.00  0.00    -0.493 OA
ATOM     25  H   UNL A   1      30.945  22.233  27.589  1.00  0.00     0.295 HD
ENDBRANCH  15  24
ENDBRANCH   7   8
ENDBRANCH   4   7
ENDBRANCH   2   3
ENDBRANCH   1   2
BRANCH   1  26
ATOM     26  C   UNL A   1      40.370  21.961  26.884  1.00  0.00     0.118 C 
BRANCH  26  27
ATOM     27  N   UNL A   1      41.546  21.954  26.020  1.00  0.00    -0.352 N 
ATOM     28  C   UNL A   1      42.293  23.028  25.582  1.00  0.00     0.251 C 
ATOM     29  H   UNL A   1      41.846  21.069  25.709  1.00  0.00     0.163 HD
ATOM     30  O   UNL A   1      43.053  22.901  24.636  1.00  0.00    -0.269 OA
BRANCH  28  31
ATOM     31  C   UNL A   1      42.150  24.322  26.273  1.00  0.00     0.039 A 
ATOM     32  C   UNL A   1      41.328  25.321  25.744  1.00  0.00     0.014 A 
ATOM     33  C   UNL A   1      42.862  24.531  27.454  1.00  0.00     0.014 A 
ATOM     34  C   UNL A   1      41.183  26.515  26.443  1.00  0.00     0.010 A 
ATOM     35  C   UNL A   1      42.626  25.655  28.204  1.00  0.00     0.010 A 
ATOM     36  C   UNL A   1      41.832  26.668  27.673  1.00  0.00    -0.014 A 
BRANCH  36  37
ATOM     37  C   UNL A   1      41.687  27.890  28.447  1.00  0.00     0.031 A 
ATOM     38  C   UNL A   1      42.730  28.932  28.240  1.00  0.00     0.074 A 
ATOM     39  C   UNL A   1      40.538  28.166  29.097  1.00  0.00     0.049 A 
ATOM     40  N   UNL A   1      43.555  29.416  29.108  1.00  0.00    -0.248 NA
ATOM     41  C   UNL A   1      42.932  29.446  26.875  1.00  0.00     0.031 C 
ATOM     42  C   UNL A   1      39.281  27.408  29.090  1.00  0.00     0.029 A 
ATOM     43  N   UNL A   1      40.210  29.286  29.786  1.00  0.00    -0.354 N 
ATOM     44  C   UNL A   1      44.278  30.410  28.451  1.00  0.00     0.074 A 
ATOM     45  C   UNL A   1      43.951  30.290  27.051  1.00  0.00     0.031 C 
ATOM     46  C   UNL A   1      38.278  28.207  29.515  1.00  0.00     0.029 A 
ATOM     47  C   UNL A   1      38.847  29.462  29.975  1.00  0.00     0.049 A 
ATOM     48  H   UNL A   1      40.882  29.922  30.123  1.00  0.00     0.167 HD
ATOM     49  C   UNL A   1      44.961  31.385  29.116  1.00  0.00     0.031 A 
ATOM     50  C   UNL A   1      38.242  30.596  30.406  1.00  0.00     0.031 A 
ATOM     51  C   UNL A   1      45.053  31.115  30.525  1.00  0.00     0.049 A 
ATOM     52  C   UNL A   1      39.290  31.392  31.103  1.00  0.00     0.074 A 
ATOM     53  C   UNL A   1      45.623  30.112  31.283  1.00  0.00     0.029 A 
ATOM     54  N   UNL A   1      44.140  31.739  31.346  1.00  0.00    -0.354 N 
ATOM     55  N   UNL A   1      39.897  30.990  32.188  1.00  0.00    -0.248 NA
ATOM     56  C   UNL A   1      39.989  32.421  30.348  1.00  0.00     0.031 C 
ATOM     57  C   UNL A   1      44.678  29.865  32.323  1.00  0.00     0.029 A 
ATOM     58  C   UNL A   1      43.625  30.772  32.172  1.00  0.00     0.049 A 
ATOM     59  H   UNL A   1      43.904  32.694  31.341  1.00  0.00     0.167 HD
ATOM     60  C   UNL A   1      41.216  31.398  32.035  1.00  0.00     0.074 A 
ATOM     61  C   UNL A   1      41.189  32.356  30.932  1.00  0.00     0.031 C 
ATOM     62  C   UNL A   1      42.248  30.722  32.622  1.00  0.00     0.031 A 
BRANCH  49  63
ATOM     63  C   UNL A   1      45.268  32.744  28.549  1.00  0.00    -0.014 A 
ATOM     64  C   UNL A   1      46.561  33.282  28.702  1.00  0.00     0.010 A 
ATOM     65  C   UNL A   1      44.256  33.613  28.095  1.00  0.00     0.010 A 
ATOM     66  C   UNL A   1      46.816  34.639  28.452  1.00  0.00     0.020 A 
ATOM     67  C   UNL A   1      44.509  34.955  27.802  1.00  0.00     0.020 A 
ATOM     68  C   UNL A   1      45.783  35.467  28.011  1.00  0.00     0.054 A 
BRANCH  68  69
ATOM     69  S   UNL A   1      46.094  37.241  27.814  1.00  0.00     0.124 S 
ATOM     70  O   UNL A   1      47.238  37.451  28.695  1.00  0.00    -0.237 OA
ATOM     71  O   UNL A   1      46.367  37.348  26.383  1.00  0.00    -0.237 OA
ATOM     72  O   UNL A   1      44.846  37.861  28.254  1.00  0.00    -0.744 OA
ENDBRANCH  68  69
ENDBRANCH  49  63
BRANCH  50  73
ATOM     73  C   UNL A   1      36.952  31.166  29.930  1.00  0.00    -0.014 A 
ATOM     74  C   UNL A   1      36.039  31.731  30.841  1.00  0.00     0.010 A 
ATOM     75  C   UNL A   1      36.730  31.405  28.557  1.00  0.00     0.010 A 
ATOM     76  C   UNL A   1      35.000  32.568  30.400  1.00  0.00     0.020 A 
ATOM     77  C   UNL A   1      35.688  32.227  28.109  1.00  0.00     0.020 A 
ATOM     78  C   UNL A   1      34.850  32.835  29.037  1.00  0.00     0.054 A 
BRANCH  78  79
ATOM     79  S   UNL A   1      33.626  34.063  28.497  1.00  0.00     0.124 S 
ATOM     80  O   UNL A   1      32.753  33.279  27.629  1.00  0.00    -0.237 OA
ATOM     81  O   UNL A   1      33.039  34.491  29.765  1.00  0.00    -0.237 OA
ATOM     82  O   UNL A   1      34.429  35.076  27.815  1.00  0.00    -0.744 OA
ENDBRANCH  78  79
ENDBRANCH  50  73
BRANCH  62  83
ATOM     83  C   UNL A   1      41.932  29.635  33.626  1.00  0.00    -0.014 A 
ATOM     84  C   UNL A   1      41.534  28.334  33.252  1.00  0.00     0.010 A 
ATOM     85  C   UNL A   1      42.275  29.868  34.969  1.00  0.00     0.010 A 
ATOM     86  C   UNL A   1      41.493  27.296  34.197  1.00  0.00     0.020 A 
ATOM     87  C   UNL A   1      42.250  28.836  35.911  1.00  0.00     0.020 A 
ATOM     88  C   UNL A   1      41.867  27.552  35.520  1.00  0.00     0.054 A 
BRANCH  88  89
ATOM     89  S   UNL A   1      41.902  26.186  36.716  1.00  0.00     0.124 S 
ATOM     90  O   UNL A   1      42.461  25.087  35.933  1.00  0.00    -0.237 OA
ATOM     91  O   UNL A   1      42.767  26.708  37.772  1.00  0.00    -0.237 OA
ATOM     92  O   UNL A   1      40.500  26.020  37.098  1.00  0.00    -0.744 OA
ENDBRANCH  88  89
ENDBRANCH  62  83
ENDBRANCH  36  37
ENDBRANCH  28  31
ENDBRANCH  26  27
ENDBRANCH   1  26
TORSDOF 16
ENDMDL
MODEL 3
REMARK VINA RESULT:     -12.1      2.750      9.463
REMARK SMILES C[C@H]1CCCCN1c1nc2nc(CC(=O)NCCCNC(=O)c3ccc(-c4c5nc(c(-c6ccc(S(=O)(=O)[O-])cc6)c6ccc([nH]6)c(-c6ccc(S(=O)(=O)[O-])cc6)c6nc(c(-c7ccc(S(=O)(=O)[O-])cc7)c7ccc4[nH]7)C=C6)C=C5)cc3)cc(O)n2n1
REMARK SMILES IDX 18 1 17 2 16 3 14 4 15 5 13 7 12 8 8 9 9 10 87 11 10 12
REMARK SMILES IDX 86 13 11 14 84 15 83 16 7 17 1 18 2 19 3 20 4 21 6 22 5 23
REMARK SMILES IDX 85 24 19 26 20 27 21 28 22 30 23 31 24 32 82 33 25 34 81 35
REMARK SMILES IDX 26 36 27 37 28 38 75 39 29 40 80 41 74 42 76 43 30 44 79 45
REMARK SMILES IDX 73 46 72 47 31 49 61 50 42 51 60 52 43 53 46 54 59 55 77 56
REMARK SMILES IDX 44 57 45 58 58 60 78 61 47 62 32 63 33 64 41 65 34 66 40 67
REMARK SMILES IDX 35 68 36 69 37 70 38 71 39 72 62 73 63 74 71 75 64 76 70 77
REMARK SMILES IDX 65 78 66 79 67 80 68 81 69 82 48 83 49 84 57 85 50 86 56 87
REMARK SMILES IDX 51 88 52 89 53 90 54 91 55 92
REMARK H PARENT 16 6 85 25 20 29 76 48 46 59
REMARK Flexibility Score: inf
ROOT
ATOM      1  C   UNL A   1      33.658  31.871  27.518  1.00  0.00     0.042 C 
ENDROOT
BRANCH   1   2
ATOM      2  C   UNL A   1      33.757  30.428  27.015  1.00  0.00     0.117 C 
BRANCH   2   3
ATOM      3  N   UNL A   1      32.774  29.548  27.620  1.00  0.00    -0.356 N 
ATOM      4  C   UNL A   1      31.796  28.800  27.030  1.00  0.00     0.226 C 
ATOM      5  O   UNL A   1      31.148  28.022  27.729  1.00  0.00    -0.275 OA
ATOM      6  H   UNL A   1      32.820  29.481  28.600  1.00  0.00     0.163 HD
BRANCH   4   7
ATOM      7  C   UNL A   1      31.605  28.859  25.536  1.00  0.00     0.156 C 
BRANCH   7   8
ATOM      8  C   UNL A   1      32.264  27.732  24.775  1.00  0.00     0.059 A 
ATOM      9  C   UNL A   1      33.865  23.813  23.890  1.00  0.00     0.247 A 
ATOM     10  N   UNL A   1      33.212  24.333  24.968  1.00  0.00    -0.173 NA
ATOM     11  N   UNL A   1      33.978  24.644  22.856  1.00  0.00    -0.123 NA
ATOM     12  C   UNL A   1      32.975  25.578  24.631  1.00  0.00     0.257 A 
ATOM     13  N   UNL A   1      33.414  25.776  23.321  1.00  0.00    -0.161 N 
ATOM     14  N   UNL A   1      32.395  26.578  25.357  1.00  0.00    -0.215 NA
ATOM     15  C   UNL A   1      33.251  27.018  22.686  1.00  0.00     0.217 A 
ATOM     16  C   UNL A   1      32.713  28.036  23.374  1.00  0.00     0.092 A 
BRANCH   9  17
ATOM     17  N   UNL A   1      34.349  22.558  23.976  1.00  0.00    -0.337 N 
ATOM     18  C   UNL A   1      36.670  23.396  24.565  1.00  0.00     0.031 C 
ATOM     19  C   UNL A   1      35.764  22.224  24.176  1.00  0.00     0.082 C 
ATOM     20  C   UNL A   1      35.846  21.168  25.299  1.00  0.00     0.025 C 
ATOM     21  C   UNL A   1      34.977  19.950  24.997  1.00  0.00     0.004 C 
ATOM     22  C   UNL A   1      33.460  21.443  23.649  1.00  0.00     0.120 C 
ATOM     23  C   UNL A   1      33.534  20.368  24.728  1.00  0.00     0.022 C 
ENDBRANCH   9  17
BRANCH  15  24
ATOM     24  O   UNL A   1      33.647  27.159  21.365  1.00  0.00    -0.493 OA
ATOM     25  H   UNL A   1      34.467  27.565  21.162  1.00  0.00     0.295 HD
ENDBRANCH  15  24
ENDBRANCH   7   8
ENDBRANCH   4   7
ENDBRANCH   2   3
ENDBRANCH   1   2
BRANCH   1  26
ATOM     26  C   UNL A   1      34.895  32.287  28.294  1.00  0.00     0.118 C 
BRANCH  26  27
ATOM     27  N   UNL A   1      34.574  32.661  29.667  1.00  0.00    -0.352 N 
ATOM     28  C   UNL A   1      35.083  32.141  30.838  1.00  0.00     0.251 C 
ATOM     29  H   UNL A   1      33.907  33.379  29.772  1.00  0.00     0.163 HD
ATOM     30  O   UNL A   1      34.511  32.337  31.897  1.00  0.00    -0.269 OA
BRANCH  28  31
ATOM     31  C   UNL A   1      36.323  31.345  30.782  1.00  0.00     0.039 A 
ATOM     32  C   UNL A   1      36.269  29.948  30.793  1.00  0.00     0.014 A 
ATOM     33  C   UNL A   1      37.545  32.014  30.732  1.00  0.00     0.014 A 
ATOM     34  C   UNL A   1      37.455  29.227  30.696  1.00  0.00     0.010 A 
ATOM     35  C   UNL A   1      38.702  31.309  30.514  1.00  0.00     0.010 A 
ATOM     36  C   UNL A   1      38.663  29.918  30.552  1.00  0.00    -0.014 A 
BRANCH  36  37
ATOM     37  C   UNL A   1      39.922  29.202  30.423  1.00  0.00     0.031 A 
ATOM     38  C   UNL A   1      40.667  28.942  31.685  1.00  0.00     0.074 A 
ATOM     39  C   UNL A   1      40.250  28.580  29.272  1.00  0.00     0.049 A 
ATOM     40  N   UNL A   1      41.845  29.356  32.014  1.00  0.00    -0.248 NA
ATOM     41  C   UNL A   1      39.983  28.187  32.748  1.00  0.00     0.031 C 
ATOM     42  C   UNL A   1      39.446  28.432  28.054  1.00  0.00     0.029 A 
ATOM     43  N   UNL A   1      41.333  27.807  29.015  1.00  0.00    -0.354 N 
ATOM     44  C   UNL A   1      42.128  28.791  33.257  1.00  0.00     0.074 A 
ATOM     45  C   UNL A   1      40.898  28.196  33.719  1.00  0.00     0.031 C 
ATOM     46  C   UNL A   1      39.949  27.423  27.309  1.00  0.00     0.029 A 
ATOM     47  C   UNL A   1      41.190  26.973  27.914  1.00  0.00     0.049 A 
ATOM     48  H   UNL A   1      42.151  27.833  29.562  1.00  0.00     0.167 HD
ATOM     49  C   UNL A   1      43.396  28.687  33.746  1.00  0.00     0.031 A 
ATOM     50  C   UNL A   1      42.006  25.942  27.585  1.00  0.00     0.031 A 
ATOM     51  C   UNL A   1      44.339  29.443  32.968  1.00  0.00     0.049 A 
ATOM     52  C   UNL A   1      43.298  26.189  28.282  1.00  0.00     0.074 A 
ATOM     53  C   UNL A   1      44.497  30.780  32.670  1.00  0.00     0.029 A 
ATOM     54  N   UNL A   1      45.068  28.755  32.022  1.00  0.00    -0.354 N 
ATOM     55  N   UNL A   1      44.065  27.217  28.034  1.00  0.00    -0.248 NA
ATOM     56  C   UNL A   1      43.520  25.548  29.570  1.00  0.00     0.031 C 
ATOM     57  C   UNL A   1      44.877  30.803  31.295  1.00  0.00     0.029 A 
ATOM     58  C   UNL A   1      44.989  29.479  30.859  1.00  0.00     0.049 A 
ATOM     59  H   UNL A   1      45.552  27.909  32.156  1.00  0.00     0.167 HD
ATOM     60  C   UNL A   1      44.561  27.604  29.272  1.00  0.00     0.074 A 
ATOM     61  C   UNL A   1      44.269  26.483  30.163  1.00  0.00     0.031 C 
ATOM     62  C   UNL A   1      44.910  28.900  29.533  1.00  0.00     0.031 A 
BRANCH  49  63
ATOM     63  C   UNL A   1      43.842  27.647  34.737  1.00  0.00    -0.014 A 
ATOM     64  C   UNL A   1      44.593  28.038  35.863  1.00  0.00     0.010 A 
ATOM     65  C   UNL A   1      43.763  26.267  34.462  1.00  0.00     0.010 A 
ATOM     66  C   UNL A   1      45.267  27.093  36.650  1.00  0.00     0.020 A 
ATOM     67  C   UNL A   1      44.394  25.314  35.264  1.00  0.00     0.020 A 
ATOM     68  C   UNL A   1      45.169  25.736  36.338  1.00  0.00     0.054 A 
BRANCH  68  69
ATOM     69  S   UNL A   1      46.145  24.537  37.283  1.00  0.00     0.124 S 
ATOM     70  O   UNL A   1      45.511  24.596  38.596  1.00  0.00    -0.237 OA
ATOM     71  O   UNL A   1      45.930  23.305  36.529  1.00  0.00    -0.237 OA
ATOM     72  O   UNL A   1      47.503  25.073  37.220  1.00  0.00    -0.744 OA
ENDBRANCH  68  69
ENDBRANCH  49  63
BRANCH  50  73
ATOM     73  C   UNL A   1      41.607  24.620  27.030  1.00  0.00    -0.014 A 
ATOM     74  C   UNL A   1      42.457  23.926  26.149  1.00  0.00     0.010 A 
ATOM     75  C   UNL A   1      40.515  23.908  27.573  1.00  0.00     0.010 A 
ATOM     76  C   UNL A   1      42.273  22.557  25.890  1.00  0.00     0.020 A 
ATOM     77  C   UNL A   1      40.316  22.547  27.308  1.00  0.00     0.020 A 
ATOM     78  C   UNL A   1      41.219  21.869  26.496  1.00  0.00     0.054 A 
BRANCH  78  79
ATOM     79  S   UNL A   1      41.102  20.067  26.305  1.00  0.00     0.124 S 
ATOM     80  O   UNL A   1      41.293  19.590  27.671  1.00  0.00    -0.237 OA
ATOM     81  O   UNL A   1      39.757  19.902  25.759  1.00  0.00    -0.237 OA
ATOM     82  O   UNL A   1      42.187  19.745  25.381  1.00  0.00    -0.744 OA
ENDBRANCH  78  79
ENDBRANCH  50  73
BRANCH  62  83
ATOM     83  C   UNL A   1      44.954  29.889  28.388  1.00  0.00    -0.014 A 
ATOM     84  C   UNL A   1      43.813  30.252  27.643  1.00  0.00     0.010 A 
ATOM     85  C   UNL A   1      46.129  30.640  28.221  1.00  0.00     0.010 A 
ATOM     86  C   UNL A   1      43.849  31.346  26.762  1.00  0.00     0.020 A 
ATOM     87  C   UNL A   1      46.167  31.739  27.357  1.00  0.00     0.020 A 
ATOM     88  C   UNL A   1      45.025  32.093  26.638  1.00  0.00     0.054 A 
BRANCH  88  89
ATOM     89  S   UNL A   1      45.038  33.562  25.572  1.00  0.00     0.124 S 
ATOM     90  O   UNL A   1      44.405  33.079  24.348  1.00  0.00    -0.237 OA
ATOM     91  O   UNL A   1      44.257  34.526  26.345  1.00  0.00    -0.237 OA
ATOM     92  O   UNL A   1      46.459  33.889  25.443  1.00  0.00    -0.744 OA
ENDBRANCH  88  89
ENDBRANCH  62  83
ENDBRANCH  36  37
ENDBRANCH  28  31
ENDBRANCH  26  27
ENDBRANCH   1  26
TORSDOF 16
ENDMDL
