MODEL 1
REMARK VINA RESULT:     -12.3      0.000      0.000
REMARK SMILES Cc1ccc(C(=O)N2C[C@H](C(=O)NCCCNC(=O)c3ccc(-c4c5nc(c(-c6ccc(S(=O)(=O)[O-])cc6)c6ccc([nH]6)c(-c6ccc(S(=O)(=O)[O-])cc6)c6nc(c(-c7ccc(S(=O)(=O)[O-])cc7)c7ccc4[nH]7)C=C6)C=C5)cc3)Oc3ccccc32)o1
REMARK SMILES IDX 15 1 14 2 13 3 11 4 12 5 10 7 8 8 9 9 86 10 81 11 85 12
REMARK SMILES IDX 80 13 82 14 84 15 83 16 6 17 7 18 5 19 1 20 2 21 3 22 87 23
REMARK SMILES IDX 4 24 16 25 17 26 18 27 19 29 20 30 21 31 79 32 22 33 78 34
REMARK SMILES IDX 23 35 24 36 25 37 72 38 26 39 77 40 71 41 73 42 27 43 76 44
REMARK SMILES IDX 70 45 69 46 28 48 58 49 39 50 57 51 40 52 43 53 56 54 74 55
REMARK SMILES IDX 41 56 42 57 55 59 75 60 44 61 29 62 30 63 38 64 31 65 37 66
REMARK SMILES IDX 32 67 33 68 34 69 35 70 36 71 59 72 60 73 68 74 61 75 67 76
REMARK SMILES IDX 62 77 63 78 64 79 65 80 66 81 45 82 46 83 54 84 47 85 53 86
REMARK SMILES IDX 48 87 49 88 50 89 51 90 52 91
REMARK H PARENT 13 6 17 28 73 47 43 58
REMARK Flexibility Score: inf
ROOT
ATOM      1  C   UNL A   1      33.819  27.831  25.279  1.00  0.00     0.042 C 
ENDROOT
BRANCH   1   2
ATOM      2  C   UNL A   1      32.651  27.003  24.752  1.00  0.00     0.118 C 
BRANCH   2   3
ATOM      3  N   UNL A   1      32.830  26.608  23.363  1.00  0.00    -0.353 N 
ATOM      4  C   UNL A   1      33.243  25.424  22.820  1.00  0.00     0.262 C 
ATOM      5  O   UNL A   1      33.280  25.347  21.588  1.00  0.00    -0.271 OA
ATOM      6  H   UNL A   1      32.618  27.308  22.705  1.00  0.00     0.163 HD
BRANCH   4   7
ATOM      7  C   UNL A   1      33.713  24.250  23.688  1.00  0.00     0.281 C 
ATOM      8  N   UNL A   1      33.264  21.888  24.220  1.00  0.00    -0.298 N 
ATOM      9  C   UNL A   1      32.862  23.023  23.385  1.00  0.00     0.181 C 
ATOM     10  C   UNL A   1      34.674  21.778  24.445  1.00  0.00     0.087 A 
ATOM     11  C   UNL A   1      35.531  22.819  24.038  1.00  0.00     0.144 A 
ATOM     12  C   UNL A   1      35.255  20.615  24.969  1.00  0.00     0.030 A 
ATOM     13  O   UNL A   1      35.105  24.010  23.505  1.00  0.00    -0.477 OA
ATOM     14  C   UNL A   1      36.920  22.685  24.131  1.00  0.00     0.049 A 
ATOM     15  C   UNL A   1      36.646  20.487  25.070  1.00  0.00     0.002 A 
ATOM     16  C   UNL A   1      37.477  21.518  24.646  1.00  0.00     0.004 A 
BRANCH   8  17
ATOM     17  C   UNL A   1      32.331  21.003  24.788  1.00  0.00     0.294 C 
ATOM     18  O   UNL A   1      31.511  21.391  25.624  1.00  0.00    -0.265 OA
BRANCH  17  19
ATOM     19  C   UNL A   1      32.383  19.605  24.374  1.00  0.00     0.192 A 
ATOM     20  C   UNL A   1      32.703  16.275  25.666  1.00  0.00     0.087 C 
ATOM     21  C   UNL A   1      32.578  17.439  24.765  1.00  0.00     0.101 A 
ATOM     22  C   UNL A   1      32.614  17.584  23.398  1.00  0.00     0.046 A 
ATOM     23  O   UNL A   1      32.425  18.651  25.361  1.00  0.00    -0.456 OA
ATOM     24  C   UNL A   1      32.503  18.973  23.146  1.00  0.00     0.056 A 
ENDBRANCH  17  19
ENDBRANCH   8  17
ENDBRANCH   4   7
ENDBRANCH   2   3
ENDBRANCH   1   2
BRANCH   1  25
ATOM     25  C   UNL A   1      33.772  28.114  26.779  1.00  0.00     0.118 C 
BRANCH  25  26
ATOM     26  N   UNL A   1      33.569  29.522  27.076  1.00  0.00    -0.352 N 
ATOM     27  C   UNL A   1      34.384  30.410  27.737  1.00  0.00     0.251 C 
ATOM     28  H   UNL A   1      32.718  29.898  26.755  1.00  0.00     0.163 HD
ATOM     29  O   UNL A   1      33.947  31.519  28.033  1.00  0.00    -0.269 OA
BRANCH  27  30
ATOM     30  C   UNL A   1      35.768  30.039  28.113  1.00  0.00     0.039 A 
ATOM     31  C   UNL A   1      36.016  29.622  29.426  1.00  0.00     0.014 A 
ATOM     32  C   UNL A   1      36.826  30.146  27.206  1.00  0.00     0.014 A 
ATOM     33  C   UNL A   1      37.309  29.256  29.812  1.00  0.00     0.010 A 
ATOM     34  C   UNL A   1      38.108  29.741  27.578  1.00  0.00     0.010 A 
ATOM     35  C   UNL A   1      38.360  29.291  28.883  1.00  0.00    -0.014 A 
BRANCH  35  36
ATOM     36  C   UNL A   1      39.729  28.865  29.259  1.00  0.00     0.031 A 
ATOM     37  C   UNL A   1      40.652  29.813  29.972  1.00  0.00     0.074 A 
ATOM     38  C   UNL A   1      40.173  27.645  28.899  1.00  0.00     0.049 A 
ATOM     39  N   UNL A   1      41.913  29.656  30.284  1.00  0.00    -0.248 NA
ATOM     40  C   UNL A   1      40.088  31.113  30.363  1.00  0.00     0.031 C 
ATOM     41  C   UNL A   1      39.396  26.641  28.172  1.00  0.00     0.029 A 
ATOM     42  N   UNL A   1      41.396  27.052  29.085  1.00  0.00    -0.354 N 
ATOM     43  C   UNL A   1      42.308  30.852  30.869  1.00  0.00     0.074 A 
ATOM     44  C   UNL A   1      41.150  31.723  30.871  1.00  0.00     0.031 C 
ATOM     45  C   UNL A   1      40.158  25.551  27.983  1.00  0.00     0.029 A 
ATOM     46  C   UNL A   1      41.481  25.790  28.553  1.00  0.00     0.049 A 
ATOM     47  H   UNL A   1      42.142  27.491  29.554  1.00  0.00     0.167 HD
ATOM     48  C   UNL A   1      43.523  31.198  31.358  1.00  0.00     0.031 A 
ATOM     49  C   UNL A   1      42.508  24.921  28.521  1.00  0.00     0.031 A 
ATOM     50  C   UNL A   1      44.668  30.330  31.398  1.00  0.00     0.049 A 
ATOM     51  C   UNL A   1      43.822  25.295  29.137  1.00  0.00     0.074 A 
ATOM     52  C   UNL A   1      45.925  30.583  31.917  1.00  0.00     0.029 A 
ATOM     53  N   UNL A   1      44.690  29.035  30.909  1.00  0.00    -0.354 N 
ATOM     54  N   UNL A   1      44.171  26.425  29.703  1.00  0.00    -0.248 NA
ATOM     55  C   UNL A   1      44.881  24.276  29.112  1.00  0.00     0.031 C 
ATOM     56  C   UNL A   1      46.713  29.438  31.735  1.00  0.00     0.029 A 
ATOM     57  C   UNL A   1      45.938  28.473  31.112  1.00  0.00     0.049 A 
ATOM     58  H   UNL A   1      43.930  28.581  30.478  1.00  0.00     0.167 HD
ATOM     59  C   UNL A   1      45.488  26.253  30.106  1.00  0.00     0.074 A 
ATOM     60  C   UNL A   1      45.873  24.908  29.727  1.00  0.00     0.031 C 
ATOM     61  C   UNL A   1      46.305  27.135  30.732  1.00  0.00     0.031 A 
BRANCH  48  62
ATOM     62  C   UNL A   1      43.662  32.601  31.869  1.00  0.00    -0.014 A 
ATOM     63  C   UNL A   1      43.453  32.898  33.227  1.00  0.00     0.010 A 
ATOM     64  C   UNL A   1      43.972  33.639  30.972  1.00  0.00     0.010 A 
ATOM     65  C   UNL A   1      43.500  34.222  33.673  1.00  0.00     0.020 A 
ATOM     66  C   UNL A   1      44.031  34.961  31.417  1.00  0.00     0.020 A 
ATOM     67  C   UNL A   1      43.769  35.247  32.760  1.00  0.00     0.054 A 
BRANCH  67  68
ATOM     68  S   UNL A   1      43.797  36.969  33.330  1.00  0.00     0.124 S 
ATOM     69  O   UNL A   1      42.551  37.051  34.088  1.00  0.00    -0.237 OA
ATOM     70  O   UNL A   1      45.020  37.039  34.125  1.00  0.00    -0.237 OA
ATOM     71  O   UNL A   1      43.824  37.735  32.086  1.00  0.00    -0.744 OA
ENDBRANCH  67  68
ENDBRANCH  48  62
BRANCH  49  72
ATOM     72  C   UNL A   1      42.314  23.597  27.882  1.00  0.00    -0.014 A 
ATOM     73  C   UNL A   1      42.631  23.418  26.525  1.00  0.00     0.010 A 
ATOM     74  C   UNL A   1      41.879  22.500  28.644  1.00  0.00     0.010 A 
ATOM     75  C   UNL A   1      42.527  22.153  25.939  1.00  0.00     0.020 A 
ATOM     76  C   UNL A   1      41.781  21.233  28.063  1.00  0.00     0.020 A 
ATOM     77  C   UNL A   1      42.104  21.069  26.713  1.00  0.00     0.054 A 
BRANCH  77  78
ATOM     78  S   UNL A   1      42.073  19.409  25.980  1.00  0.00     0.124 S 
ATOM     79  O   UNL A   1      42.596  18.588  27.066  1.00  0.00    -0.237 OA
ATOM     80  O   UNL A   1      40.659  19.217  25.664  1.00  0.00    -0.237 OA
ATOM     81  O   UNL A   1      42.945  19.547  24.816  1.00  0.00    -0.744 OA
ENDBRANCH  77  78
ENDBRANCH  49  72
BRANCH  61  82
ATOM     82  C   UNL A   1      47.693  26.665  31.054  1.00  0.00    -0.014 A 
ATOM     83  C   UNL A   1      48.752  26.903  30.161  1.00  0.00     0.010 A 
ATOM     84  C   UNL A   1      47.947  26.013  32.273  1.00  0.00     0.010 A 
ATOM     85  C   UNL A   1      50.045  26.476  30.473  1.00  0.00     0.020 A 
ATOM     86  C   UNL A   1      49.240  25.593  32.591  1.00  0.00     0.020 A 
ATOM     87  C   UNL A   1      50.280  25.817  31.684  1.00  0.00     0.054 A 
BRANCH  87  88
ATOM     88  S   UNL A   1      51.968  25.301  32.105  1.00  0.00     0.124 S 
ATOM     89  O   UNL A   1      52.211  26.039  33.340  1.00  0.00    -0.237 OA
ATOM     90  O   UNL A   1      51.845  23.852  32.254  1.00  0.00    -0.237 OA
ATOM     91  O   UNL A   1      52.751  25.735  30.950  1.00  0.00    -0.744 OA
ENDBRANCH  87  88
ENDBRANCH  61  82
ENDBRANCH  35  36
ENDBRANCH  27  30
ENDBRANCH  25  26
ENDBRANCH   1  25
TORSDOF 15
ENDMDL
MODEL 2
REMARK VINA RESULT:     -12.1      2.997      9.755
REMARK SMILES Cc1ccc(C(=O)N2C[C@H](C(=O)NCCCNC(=O)c3ccc(-c4c5nc(c(-c6ccc(S(=O)(=O)[O-])cc6)c6ccc([nH]6)c(-c6ccc(S(=O)(=O)[O-])cc6)c6nc(c(-c7ccc(S(=O)(=O)[O-])cc7)c7ccc4[nH]7)C=C6)C=C5)cc3)Oc3ccccc32)o1
REMARK SMILES IDX 15 1 14 2 13 3 11 4 12 5 10 7 8 8 9 9 86 10 81 11 85 12
REMARK SMILES IDX 80 13 82 14 84 15 83 16 6 17 7 18 5 19 1 20 2 21 3 22 87 23
REMARK SMILES IDX 4 24 16 25 17 26 18 27 19 29 20 30 21 31 79 32 22 33 78 34
REMARK SMILES IDX 23 35 24 36 25 37 72 38 26 39 77 40 71 41 73 42 27 43 76 44
REMARK SMILES IDX 70 45 69 46 28 48 58 49 39 50 57 51 40 52 43 53 56 54 74 55
REMARK SMILES IDX 41 56 42 57 55 59 75 60 44 61 29 62 30 63 38 64 31 65 37 66
REMARK SMILES IDX 32 67 33 68 34 69 35 70 36 71 59 72 60 73 68 74 61 75 67 76
REMARK SMILES IDX 62 77 63 78 64 79 65 80 66 81 45 82 46 83 54 84 47 85 53 86
REMARK SMILES IDX 48 87 49 88 50 89 51 90 52 91
REMARK H PARENT 13 6 17 28 73 47 43 58
REMARK Flexibility Score: inf
ROOT
ATOM      1  C   UNL A   1      35.130  22.911  25.647  1.00  0.00     0.042 C 
ENDROOT
BRANCH   1   2
ATOM      2  C   UNL A   1      34.189  23.357  26.763  1.00  0.00     0.118 C 
BRANCH   2   3
ATOM      3  N   UNL A   1      32.806  22.977  26.511  1.00  0.00    -0.353 N 
ATOM      4  C   UNL A   1      31.785  23.670  25.925  1.00  0.00     0.262 C 
ATOM      5  O   UNL A   1      30.700  23.092  25.811  1.00  0.00    -0.271 OA
ATOM      6  H   UNL A   1      32.567  22.072  26.813  1.00  0.00     0.163 HD
BRANCH   4   7
ATOM      7  C   UNL A   1      31.940  25.130  25.484  1.00  0.00     0.281 C 
ATOM      8  N   UNL A   1      30.883  26.908  24.148  1.00  0.00    -0.298 N 
ATOM      9  C   UNL A   1      30.753  25.526  24.613  1.00  0.00     0.181 C 
ATOM     10  C   UNL A   1      31.436  27.816  25.108  1.00  0.00     0.087 A 
ATOM     11  C   UNL A   1      31.976  27.319  26.310  1.00  0.00     0.144 A 
ATOM     12  C   UNL A   1      31.369  29.206  24.943  1.00  0.00     0.030 A 
ATOM     13  O   UNL A   1      32.101  25.986  26.611  1.00  0.00    -0.477 OA
ATOM     14  C   UNL A   1      32.407  28.188  27.317  1.00  0.00     0.049 A 
ATOM     15  C   UNL A   1      31.810  30.074  25.949  1.00  0.00     0.002 A 
ATOM     16  C   UNL A   1      32.323  29.566  27.137  1.00  0.00     0.004 A 
BRANCH   8  17
ATOM     17  C   UNL A   1      30.531  27.301  22.844  1.00  0.00     0.294 C 
ATOM     18  O   UNL A   1      31.211  26.965  21.872  1.00  0.00    -0.265 OA
BRANCH  17  19
ATOM     19  C   UNL A   1      29.348  28.140  22.685  1.00  0.00     0.192 A 
ATOM     20  C   UNL A   1      28.200  31.159  21.126  1.00  0.00     0.087 C 
ATOM     21  C   UNL A   1      28.279  29.917  21.923  1.00  0.00     0.101 A 
ATOM     22  C   UNL A   1      27.414  29.295  22.792  1.00  0.00     0.046 A 
ATOM     23  O   UNL A   1      29.443  29.219  21.841  1.00  0.00    -0.456 OA
ATOM     24  C   UNL A   1      28.102  28.164  23.292  1.00  0.00     0.056 A 
ENDBRANCH  17  19
ENDBRANCH   8  17
ENDBRANCH   4   7
ENDBRANCH   2   3
ENDBRANCH   1   2
BRANCH   1  25
ATOM     25  C   UNL A   1      36.506  23.571  25.675  1.00  0.00     0.118 C 
BRANCH  25  26
ATOM     26  N   UNL A   1      37.580  22.614  25.889  1.00  0.00    -0.352 N 
ATOM     27  C   UNL A   1      38.854  22.812  26.365  1.00  0.00     0.251 C 
ATOM     28  H   UNL A   1      37.361  21.682  25.660  1.00  0.00     0.163 HD
ATOM     29  O   UNL A   1      39.664  21.890  26.308  1.00  0.00    -0.269 OA
BRANCH  27  30
ATOM     30  C   UNL A   1      39.265  24.121  26.923  1.00  0.00     0.039 A 
ATOM     31  C   UNL A   1      38.900  24.432  28.237  1.00  0.00     0.014 A 
ATOM     32  C   UNL A   1      39.957  25.060  26.152  1.00  0.00     0.014 A 
ATOM     33  C   UNL A   1      39.279  25.655  28.798  1.00  0.00     0.010 A 
ATOM     34  C   UNL A   1      40.372  26.263  26.724  1.00  0.00     0.010 A 
ATOM     35  C   UNL A   1      40.038  26.570  28.052  1.00  0.00    -0.014 A 
BRANCH  35  36
ATOM     36  C   UNL A   1      40.488  27.854  28.642  1.00  0.00     0.031 A 
ATOM     37  C   UNL A   1      41.885  27.996  29.177  1.00  0.00     0.074 A 
ATOM     38  C   UNL A   1      39.619  28.875  28.762  1.00  0.00     0.049 A 
ATOM     39  N   UNL A   1      42.420  29.001  29.822  1.00  0.00    -0.248 NA
ATOM     40  C   UNL A   1      42.786  26.851  28.981  1.00  0.00     0.031 C 
ATOM     41  C   UNL A   1      38.224  28.860  28.319  1.00  0.00     0.029 A 
ATOM     42  N   UNL A   1      39.783  30.123  29.310  1.00  0.00    -0.354 N 
ATOM     43  C   UNL A   1      43.708  28.595  30.147  1.00  0.00     0.074 A 
ATOM     44  C   UNL A   1      43.872  27.254  29.626  1.00  0.00     0.031 C 
ATOM     45  C   UNL A   1      37.662  30.046  28.603  1.00  0.00     0.029 A 
ATOM     46  C   UNL A   1      38.648  30.894  29.268  1.00  0.00     0.049 A 
ATOM     47  H   UNL A   1      40.632  30.435  29.696  1.00  0.00     0.167 HD
ATOM     48  C   UNL A   1      44.667  29.272  30.823  1.00  0.00     0.031 A 
ATOM     49  C   UNL A   1      38.420  32.142  29.718  1.00  0.00     0.031 A 
ATOM     50  C   UNL A   1      44.530  30.617  31.311  1.00  0.00     0.049 A 
ATOM     51  C   UNL A   1      39.520  32.904  30.394  1.00  0.00     0.074 A 
ATOM     52  C   UNL A   1      45.467  31.397  31.967  1.00  0.00     0.029 A 
ATOM     53  N   UNL A   1      43.386  31.386  31.188  1.00  0.00    -0.354 N 
ATOM     54  N   UNL A   1      40.738  32.510  30.675  1.00  0.00    -0.248 NA
ATOM     55  C   UNL A   1      39.215  34.281  30.810  1.00  0.00     0.031 C 
ATOM     56  C   UNL A   1      44.884  32.641  32.245  1.00  0.00     0.029 A 
ATOM     57  C   UNL A   1      43.588  32.633  31.753  1.00  0.00     0.049 A 
ATOM     58  H   UNL A   1      42.549  31.089  30.762  1.00  0.00     0.167 HD
ATOM     59  C   UNL A   1      41.348  33.590  31.299  1.00  0.00     0.074 A 
ATOM     60  C   UNL A   1      40.369  34.657  31.346  1.00  0.00     0.031 C 
ATOM     61  C   UNL A   1      42.608  33.685  31.791  1.00  0.00     0.031 A 
BRANCH  48  62
ATOM     62  C   UNL A   1      45.947  28.536  31.084  1.00  0.00    -0.014 A 
ATOM     63  C   UNL A   1      46.985  28.534  30.136  1.00  0.00     0.010 A 
ATOM     64  C   UNL A   1      46.099  27.808  32.278  1.00  0.00     0.010 A 
ATOM     65  C   UNL A   1      48.136  27.773  30.354  1.00  0.00     0.020 A 
ATOM     66  C   UNL A   1      47.252  27.055  32.504  1.00  0.00     0.020 A 
ATOM     67  C   UNL A   1      48.253  27.022  31.529  1.00  0.00     0.054 A 
BRANCH  67  68
ATOM     68  S   UNL A   1      49.731  26.006  31.799  1.00  0.00     0.124 S 
ATOM     69  O   UNL A   1      49.220  24.970  32.693  1.00  0.00    -0.237 OA
ATOM     70  O   UNL A   1      50.079  25.556  30.453  1.00  0.00    -0.237 OA
ATOM     71  O   UNL A   1      50.678  26.942  32.402  1.00  0.00    -0.744 OA
ENDBRANCH  67  68
ENDBRANCH  48  62
BRANCH  49  72
ATOM     72  C   UNL A   1      37.081  32.747  29.523  1.00  0.00    -0.014 A 
ATOM     73  C   UNL A   1      36.179  32.819  30.599  1.00  0.00     0.010 A 
ATOM     74  C   UNL A   1      36.731  33.312  28.285  1.00  0.00     0.010 A 
ATOM     75  C   UNL A   1      34.948  33.460  30.442  1.00  0.00     0.020 A 
ATOM     76  C   UNL A   1      35.503  33.959  28.128  1.00  0.00     0.020 A 
ATOM     77  C   UNL A   1      34.619  34.028  29.208  1.00  0.00     0.054 A 
BRANCH  77  78
ATOM     78  S   UNL A   1      33.066  34.953  29.038  1.00  0.00     0.124 S 
ATOM     79  O   UNL A   1      32.529  34.895  30.392  1.00  0.00    -0.237 OA
ATOM     80  O   UNL A   1      33.516  36.269  28.591  1.00  0.00    -0.237 OA
ATOM     81  O   UNL A   1      32.334  34.184  28.034  1.00  0.00    -0.744 OA
ENDBRANCH  77  78
ENDBRANCH  49  72
BRANCH  61  82
ATOM     82  C   UNL A   1      42.998  34.992  32.413  1.00  0.00    -0.014 A 
ATOM     83  C   UNL A   1      43.569  36.011  31.631  1.00  0.00     0.010 A 
ATOM     84  C   UNL A   1      42.762  35.216  33.779  1.00  0.00     0.010 A 
ATOM     85  C   UNL A   1      43.917  37.233  32.213  1.00  0.00     0.020 A 
ATOM     86  C   UNL A   1      43.102  36.440  34.362  1.00  0.00     0.020 A 
ATOM     87  C   UNL A   1      43.688  37.437  33.578  1.00  0.00     0.054 A 
BRANCH  87  88
ATOM     88  S   UNL A   1      44.104  39.039  34.321  1.00  0.00     0.124 S 
ATOM     89  O   UNL A   1      43.058  39.903  33.783  1.00  0.00    -0.237 OA
ATOM     90  O   UNL A   1      44.020  38.771  35.755  1.00  0.00    -0.237 OA
ATOM     91  O   UNL A   1      45.453  39.302  33.823  1.00  0.00    -0.744 OA
ENDBRANCH  87  88
ENDBRANCH  61  82
ENDBRANCH  35  36
ENDBRANCH  27  30
ENDBRANCH  25  26
ENDBRANCH   1  25
TORSDOF 15
ENDMDL
MODEL 3
REMARK VINA RESULT:     -11.5      2.058      2.697
REMARK SMILES Cc1ccc(C(=O)N2C[C@H](C(=O)NCCCNC(=O)c3ccc(-c4c5nc(c(-c6ccc(S(=O)(=O)[O-])cc6)c6ccc([nH]6)c(-c6ccc(S(=O)(=O)[O-])cc6)c6nc(c(-c7ccc(S(=O)(=O)[O-])cc7)c7ccc4[nH]7)C=C6)C=C5)cc3)Oc3ccccc32)o1
REMARK SMILES IDX 15 1 14 2 13 3 11 4 12 5 10 7 8 8 9 9 86 10 81 11 85 12
REMARK SMILES IDX 80 13 82 14 84 15 83 16 6 17 7 18 5 19 1 20 2 21 3 22 87 23
REMARK SMILES IDX 4 24 16 25 17 26 18 27 19 29 20 30 21 31 79 32 22 33 78 34
REMARK SMILES IDX 23 35 24 36 25 37 72 38 26 39 77 40 71 41 73 42 27 43 76 44
REMARK SMILES IDX 70 45 69 46 28 48 58 49 39 50 57 51 40 52 43 53 56 54 74 55
REMARK SMILES IDX 41 56 42 57 55 59 75 60 44 61 29 62 30 63 38 64 31 65 37 66
REMARK SMILES IDX 32 67 33 68 34 69 35 70 36 71 59 72 60 73 68 74 61 75 67 76
REMARK SMILES IDX 62 77 63 78 64 79 65 80 66 81 45 82 46 83 54 84 47 85 53 86
REMARK SMILES IDX 48 87 49 88 50 89 51 90 52 91
REMARK H PARENT 13 6 17 28 73 47 43 58
REMARK Flexibility Score: inf
ROOT
ATOM      1  C   UNL A   1      33.335  28.535  24.880  1.00  0.00     0.042 C 
ENDROOT
BRANCH   1   2
ATOM      2  C   UNL A   1      33.266  27.016  24.749  1.00  0.00     0.118 C 
BRANCH   2   3
ATOM      3  N   UNL A   1      33.273  26.575  23.362  1.00  0.00    -0.353 N 
ATOM      4  C   UNL A   1      33.491  25.338  22.823  1.00  0.00     0.262 C 
ATOM      5  O   UNL A   1      33.409  25.234  21.594  1.00  0.00    -0.271 OA
ATOM      6  H   UNL A   1      33.091  27.283  22.704  1.00  0.00     0.163 HD
BRANCH   4   7
ATOM      7  C   UNL A   1      33.888  24.133  23.682  1.00  0.00     0.281 C 
ATOM      8  N   UNL A   1      33.336  21.781  24.156  1.00  0.00    -0.298 N 
ATOM      9  C   UNL A   1      33.003  22.944  23.330  1.00  0.00     0.181 C 
ATOM     10  C   UNL A   1      34.733  21.614  24.423  1.00  0.00     0.087 A 
ATOM     11  C   UNL A   1      35.640  22.629  24.063  1.00  0.00     0.144 A 
ATOM     12  C   UNL A   1      35.254  20.421  24.943  1.00  0.00     0.030 A 
ATOM     13  O   UNL A   1      35.276  23.844  23.539  1.00  0.00    -0.477 OA
ATOM     14  C   UNL A   1      37.019  22.441  24.197  1.00  0.00     0.049 A 
ATOM     15  C   UNL A   1      36.635  20.239  25.085  1.00  0.00     0.002 A 
ATOM     16  C   UNL A   1      37.517  21.245  24.707  1.00  0.00     0.004 A 
BRANCH   8  17
ATOM     17  C   UNL A   1      32.353  20.922  24.678  1.00  0.00     0.294 C 
ATOM     18  O   UNL A   1      31.497  21.335  25.464  1.00  0.00    -0.265 OA
BRANCH  17  19
ATOM     19  C   UNL A   1      32.397  19.519  24.278  1.00  0.00     0.192 A 
ATOM     20  C   UNL A   1      32.617  16.196  25.608  1.00  0.00     0.087 C 
ATOM     21  C   UNL A   1      32.542  17.353  24.694  1.00  0.00     0.101 A 
ATOM     22  C   UNL A   1      32.627  17.486  23.328  1.00  0.00     0.046 A 
ATOM     23  O   UNL A   1      32.388  18.574  25.274  1.00  0.00    -0.456 OA
ATOM     24  C   UNL A   1      32.548  18.875  23.061  1.00  0.00     0.056 A 
ENDBRANCH  17  19
ENDBRANCH   8  17
ENDBRANCH   4   7
ENDBRANCH   2   3
ENDBRANCH   1   2
BRANCH   1  25
ATOM     25  C   UNL A   1      34.176  29.035  26.051  1.00  0.00     0.118 C 
BRANCH  25  26
ATOM     26  N   UNL A   1      33.771  30.354  26.508  1.00  0.00    -0.352 N 
ATOM     27  C   UNL A   1      34.293  31.140  27.507  1.00  0.00     0.251 C 
ATOM     28  H   UNL A   1      33.005  30.745  26.029  1.00  0.00     0.163 HD
ATOM     29  O   UNL A   1      33.691  32.156  27.847  1.00  0.00    -0.269 OA
BRANCH  27  30
ATOM     30  C   UNL A   1      35.555  30.768  28.188  1.00  0.00     0.039 A 
ATOM     31  C   UNL A   1      35.535  29.708  29.100  1.00  0.00     0.014 A 
ATOM     32  C   UNL A   1      36.738  31.482  27.975  1.00  0.00     0.014 A 
ATOM     33  C   UNL A   1      36.710  29.325  29.754  1.00  0.00     0.010 A 
ATOM     34  C   UNL A   1      37.920  31.074  28.595  1.00  0.00     0.010 A 
ATOM     35  C   UNL A   1      37.917  29.991  29.488  1.00  0.00    -0.014 A 
BRANCH  35  36
ATOM     36  C   UNL A   1      39.182  29.573  30.136  1.00  0.00     0.031 A 
ATOM     37  C   UNL A   1      39.703  30.310  31.337  1.00  0.00     0.074 A 
ATOM     38  C   UNL A   1      39.906  28.569  29.603  1.00  0.00     0.049 A 
ATOM     39  N   UNL A   1      40.838  30.158  31.968  1.00  0.00    -0.248 NA
ATOM     40  C   UNL A   1      38.844  31.372  31.881  1.00  0.00     0.031 C 
ATOM     41  C   UNL A   1      39.537  27.792  28.419  1.00  0.00     0.029 A 
ATOM     42  N   UNL A   1      41.114  28.042  29.987  1.00  0.00    -0.354 N 
ATOM     43  C   UNL A   1      40.851  31.132  32.959  1.00  0.00     0.074 A 
ATOM     44  C   UNL A   1      39.608  31.866  32.845  1.00  0.00     0.031 C 
ATOM     45  C   UNL A   1      40.494  26.881  28.178  1.00  0.00     0.029 A 
ATOM     46  C   UNL A   1      41.552  27.025  29.176  1.00  0.00     0.049 A 
ATOM     47  H   UNL A   1      41.618  28.363  30.768  1.00  0.00     0.167 HD
ATOM     48  C   UNL A   1      41.811  31.395  33.878  1.00  0.00     0.031 A 
ATOM     49  C   UNL A   1      42.679  26.292  29.222  1.00  0.00     0.031 A 
ATOM     50  C   UNL A   1      43.030  30.649  34.027  1.00  0.00     0.049 A 
ATOM     51  C   UNL A   1      43.693  26.549  30.295  1.00  0.00     0.074 A 
ATOM     52  C   UNL A   1      44.037  30.818  34.961  1.00  0.00     0.029 A 
ATOM     53  N   UNL A   1      43.402  29.583  33.225  1.00  0.00    -0.354 N 
ATOM     54  N   UNL A   1      43.678  27.462  31.235  1.00  0.00    -0.248 NA
ATOM     55  C   UNL A   1      44.874  25.673  30.316  1.00  0.00     0.031 C 
ATOM     56  C   UNL A   1      45.025  29.854  34.719  1.00  0.00     0.029 A 
ATOM     57  C   UNL A   1      44.624  29.082  33.640  1.00  0.00     0.049 A 
ATOM     58  H   UNL A   1      42.877  29.234  32.470  1.00  0.00     0.167 HD
ATOM     59  C   UNL A   1      44.845  27.271  31.963  1.00  0.00     0.074 A 
ATOM     60  C   UNL A   1      45.539  26.150  31.361  1.00  0.00     0.031 C 
ATOM     61  C   UNL A   1      45.300  27.966  33.034  1.00  0.00     0.031 A 
BRANCH  48  62
ATOM     62  C   UNL A   1      41.567  32.568  34.780  1.00  0.00    -0.014 A 
ATOM     63  C   UNL A   1      42.077  33.840  34.463  1.00  0.00     0.010 A 
ATOM     64  C   UNL A   1      40.848  32.388  35.975  1.00  0.00     0.010 A 
ATOM     65  C   UNL A   1      41.916  34.904  35.355  1.00  0.00     0.020 A 
ATOM     66  C   UNL A   1      40.676  33.452  36.863  1.00  0.00     0.020 A 
ATOM     67  C   UNL A   1      41.235  34.697  36.559  1.00  0.00     0.054 A 
BRANCH  67  68
ATOM     68  S   UNL A   1      41.055  36.068  37.733  1.00  0.00     0.124 S 
ATOM     69  O   UNL A   1      42.224  36.884  37.419  1.00  0.00    -0.237 OA
ATOM     70  O   UNL A   1      39.766  36.653  37.371  1.00  0.00    -0.237 OA
ATOM     71  O   UNL A   1      41.087  35.403  39.034  1.00  0.00    -0.744 OA
ENDBRANCH  67  68
ENDBRANCH  48  62
BRANCH  49  72
ATOM     72  C   UNL A   1      42.892  25.230  28.209  1.00  0.00    -0.014 A 
ATOM     73  C   UNL A   1      43.583  25.520  27.021  1.00  0.00     0.010 A 
ATOM     74  C   UNL A   1      42.466  23.915  28.462  1.00  0.00     0.010 A 
ATOM     75  C   UNL A   1      43.857  24.505  26.101  1.00  0.00     0.020 A 
ATOM     76  C   UNL A   1      42.745  22.897  27.547  1.00  0.00     0.020 A 
ATOM     77  C   UNL A   1      43.438  23.199  26.371  1.00  0.00     0.054 A 
BRANCH  77  78
ATOM     78  S   UNL A   1      43.888  21.863  25.227  1.00  0.00     0.124 S 
ATOM     79  O   UNL A   1      43.779  22.524  23.932  1.00  0.00    -0.237 OA
ATOM     80  O   UNL A   1      45.243  21.513  25.649  1.00  0.00    -0.237 OA
ATOM     81  O   UNL A   1      42.880  20.841  25.502  1.00  0.00    -0.744 OA
ENDBRANCH  77  78
ENDBRANCH  49  72
BRANCH  61  82
ATOM     82  C   UNL A   1      46.605  27.525  33.626  1.00  0.00    -0.014 A 
ATOM     83  C   UNL A   1      46.636  26.550  34.638  1.00  0.00     0.010 A 
ATOM     84  C   UNL A   1      47.811  28.064  33.145  1.00  0.00     0.010 A 
ATOM     85  C   UNL A   1      47.856  26.132  35.176  1.00  0.00     0.020 A 
ATOM     86  C   UNL A   1      49.033  27.642  33.676  1.00  0.00     0.020 A 
ATOM     87  C   UNL A   1      49.048  26.687  34.696  1.00  0.00     0.054 A 
BRANCH  87  88
ATOM     88  S   UNL A   1      50.632  26.113  35.368  1.00  0.00     0.124 S 
ATOM     89  O   UNL A   1      51.388  27.357  35.466  1.00  0.00    -0.237 OA
ATOM     90  O   UNL A   1      50.252  25.506  36.642  1.00  0.00    -0.237 OA
ATOM     91  O   UNL A   1      51.106  25.169  34.356  1.00  0.00    -0.744 OA
ENDBRANCH  87  88
ENDBRANCH  61  82
ENDBRANCH  35  36
ENDBRANCH  27  30
ENDBRANCH  25  26
ENDBRANCH   1  25
TORSDOF 15
ENDMDL
