MODEL 1
REMARK VINA RESULT:     -10.9      0.000      0.000
REMARK SMILES C[C@H]1CC[C@H](CNC(=O)NCc2ccc(C(=O)NCCCNC(=O)c3ccc(-c4c5nc(c(-c6ccc(S(=O)(=O)[O-])cc6)c6ccc([nH]6)c(-c6ccc(S(=O)(=O)[O-])cc6)c6nc(c(-c7ccc(S(=O)(=O)[O-])cc7)c7ccc4[nH]7)C=C6)C=C5)cc3)o2)CC1
REMARK SMILES IDX 19 1 18 2 16 3 17 4 15 6 12 7 13 8 85 9 14 10 11 11 10 12
REMARK SMILES IDX 7 13 8 14 9 16 6 18 5 19 1 20 2 21 87 22 3 23 86 24 4 25
REMARK SMILES IDX 20 26 21 27 22 28 23 29 24 31 25 32 26 33 84 34 27 35 83 36
REMARK SMILES IDX 28 37 29 38 30 39 77 40 31 41 82 42 76 43 78 44 32 45 81 46
REMARK SMILES IDX 75 47 74 48 33 50 63 51 44 52 62 53 45 54 48 55 61 56 79 57
REMARK SMILES IDX 46 58 47 59 60 61 80 62 49 63 34 64 35 65 43 66 36 67 42 68
REMARK SMILES IDX 37 69 38 70 39 71 40 72 41 73 64 74 65 75 73 76 66 77 72 78
REMARK SMILES IDX 67 79 68 80 69 81 70 82 71 83 50 84 51 85 59 86 52 87 58 88
REMARK SMILES IDX 53 89 54 90 55 91 56 92 57 93
REMARK H PARENT 18 5 7 15 10 17 22 30 78 49 48 60
REMARK Flexibility Score: inf
ROOT
ATOM      1  C   UNL A   1      34.871  22.156  24.341  1.00  0.00     0.118 C 
ENDROOT
BRANCH   1   2
ATOM      2  N   UNL A   1      34.000  21.074  24.755  1.00  0.00    -0.349 N 
ATOM      3  C   UNL A   1      32.650  21.065  25.025  1.00  0.00     0.286 C 
ATOM      4  O   UNL A   1      32.137  19.947  25.154  1.00  0.00    -0.266 OA
ATOM      5  H   UNL A   1      34.446  20.202  24.860  1.00  0.00     0.163 HD
BRANCH   3   6
ATOM      6  C   UNL A   1      31.893  22.298  25.136  1.00  0.00     0.191 A 
ATOM      7  C   UNL A   1      30.859  24.062  24.268  1.00  0.00     0.124 A 
ATOM      8  C   UNL A   1      30.678  24.135  25.632  1.00  0.00     0.048 A 
ATOM      9  O   UNL A   1      31.603  22.959  23.967  1.00  0.00    -0.454 OA
ATOM     10  C   UNL A   1      31.322  23.000  26.184  1.00  0.00     0.056 A 
BRANCH   7  11
ATOM     11  C   UNL A   1      30.421  24.941  23.149  1.00  0.00     0.193 C 
BRANCH  11  12
ATOM     12  N   UNL A   1      31.442  25.057  22.135  1.00  0.00    -0.331 N 
ATOM     13  N   UNL A   1      32.675  26.995  22.674  1.00  0.00    -0.338 N 
ATOM     14  C   UNL A   1      32.496  25.863  21.982  1.00  0.00     0.315 C 
ATOM     15  H   UNL A   1      33.599  27.332  22.645  1.00  0.00     0.165 HD
ATOM     16  O   UNL A   1      33.366  25.543  21.168  1.00  0.00    -0.249 OA
ATOM     17  H   UNL A   1      31.342  24.407  21.404  1.00  0.00     0.165 HD
BRANCH  13  18
ATOM     18  C   UNL A   1      31.780  27.829  23.456  1.00  0.00     0.121 C 
BRANCH  18  19
ATOM     19  C   UNL A   1      32.562  28.788  24.370  1.00  0.00     0.008 C 
ATOM     20  C   UNL A   1      34.099  30.593  28.069  1.00  0.00     0.007 C 
ATOM     21  C   UNL A   1      33.346  29.678  27.105  1.00  0.00    -0.014 C 
ATOM     22  C   UNL A   1      34.319  28.915  26.200  1.00  0.00     0.003 C 
ATOM     23  C   UNL A   1      32.349  30.480  26.262  1.00  0.00     0.003 C 
ATOM     24  C   UNL A   1      33.577  28.007  25.218  1.00  0.00     0.006 C 
ATOM     25  C   UNL A   1      31.605  29.589  25.271  1.00  0.00     0.006 C 
ENDBRANCH  18  19
ENDBRANCH  13  18
ENDBRANCH  11  12
ENDBRANCH   7  11
ENDBRANCH   3   6
ENDBRANCH   1   2
BRANCH   1  26
ATOM     26  C   UNL A   1      35.053  23.206  25.435  1.00  0.00     0.042 C 
BRANCH  26  27
ATOM     27  C   UNL A   1      36.435  23.865  25.444  1.00  0.00     0.118 C 
BRANCH  27  28
ATOM     28  N   UNL A   1      37.507  22.893  25.605  1.00  0.00    -0.352 N 
ATOM     29  C   UNL A   1      38.776  23.028  26.110  1.00  0.00     0.251 C 
ATOM     30  H   UNL A   1      37.283  21.984  25.300  1.00  0.00     0.163 HD
ATOM     31  O   UNL A   1      39.575  22.108  25.946  1.00  0.00    -0.269 OA
BRANCH  29  32
ATOM     32  C   UNL A   1      39.203  24.249  26.835  1.00  0.00     0.039 A 
ATOM     33  C   UNL A   1      40.004  25.176  26.160  1.00  0.00     0.014 A 
ATOM     34  C   UNL A   1      38.895  24.454  28.183  1.00  0.00     0.014 A 
ATOM     35  C   UNL A   1      40.456  26.324  26.818  1.00  0.00     0.010 A 
ATOM     36  C   UNL A   1      39.294  25.631  28.822  1.00  0.00     0.010 A 
ATOM     37  C   UNL A   1      40.085  26.575  28.149  1.00  0.00    -0.014 A 
BRANCH  37  38
ATOM     38  C   UNL A   1      40.516  27.819  28.838  1.00  0.00     0.031 A 
ATOM     39  C   UNL A   1      41.893  27.927  29.440  1.00  0.00     0.074 A 
ATOM     40  C   UNL A   1      39.651  28.845  28.958  1.00  0.00     0.049 A 
ATOM     41  N   UNL A   1      42.432  28.928  30.089  1.00  0.00    -0.248 NA
ATOM     42  C   UNL A   1      42.769  26.752  29.314  1.00  0.00     0.031 C 
ATOM     43  C   UNL A   1      38.275  28.854  28.455  1.00  0.00     0.029 A 
ATOM     44  N   UNL A   1      39.799  30.080  29.539  1.00  0.00    -0.354 N 
ATOM     45  C   UNL A   1      43.701  28.500  30.463  1.00  0.00     0.074 A 
ATOM     46  C   UNL A   1      43.835  27.133  30.004  1.00  0.00     0.031 C 
ATOM     47  C   UNL A   1      37.717  30.045  28.723  1.00  0.00     0.029 A 
ATOM     48  C   UNL A   1      38.681  30.873  29.442  1.00  0.00     0.049 A 
ATOM     49  H   UNL A   1      40.629  30.370  29.983  1.00  0.00     0.167 HD
ATOM     50  C   UNL A   1      44.674  29.184  31.113  1.00  0.00     0.031 A 
ATOM     51  C   UNL A   1      38.453  32.126  29.878  1.00  0.00     0.031 A 
ATOM     52  C   UNL A   1      44.547  30.546  31.562  1.00  0.00     0.049 A 
ATOM     53  C   UNL A   1      39.552  32.871  30.583  1.00  0.00     0.074 A 
ATOM     54  C   UNL A   1      45.493  31.341  32.188  1.00  0.00     0.029 A 
ATOM     55  N   UNL A   1      43.402  31.319  31.433  1.00  0.00    -0.354 N 
ATOM     56  N   UNL A   1      40.763  32.465  30.879  1.00  0.00    -0.248 NA
ATOM     57  C   UNL A   1      39.256  34.249  30.997  1.00  0.00     0.031 C 
ATOM     58  C   UNL A   1      44.907  32.581  32.471  1.00  0.00     0.029 A 
ATOM     59  C   UNL A   1      43.612  32.574  31.979  1.00  0.00     0.049 A 
ATOM     60  H   UNL A   1      42.563  31.017  31.014  1.00  0.00     0.167 HD
ATOM     61  C   UNL A   1      41.383  33.546  31.497  1.00  0.00     0.074 A 
ATOM     62  C   UNL A   1      40.418  34.628  31.513  1.00  0.00     0.031 C 
ATOM     63  C   UNL A   1      42.639  33.636  32.000  1.00  0.00     0.031 A 
BRANCH  50  64
ATOM     64  C   UNL A   1      45.968  28.459  31.382  1.00  0.00    -0.014 A 
ATOM     65  C   UNL A   1      47.033  28.509  30.464  1.00  0.00     0.010 A 
ATOM     66  C   UNL A   1      46.128  27.733  32.577  1.00  0.00     0.010 A 
ATOM     67  C   UNL A   1      48.215  27.808  30.712  1.00  0.00     0.020 A 
ATOM     68  C   UNL A   1      47.321  27.050  32.840  1.00  0.00     0.020 A 
ATOM     69  C   UNL A   1      48.348  27.075  31.895  1.00  0.00     0.054 A 
BRANCH  69  70
ATOM     70  S   UNL A   1      49.894  26.174  32.193  1.00  0.00     0.124 S 
ATOM     71  O   UNL A   1      50.503  26.176  30.865  1.00  0.00    -0.237 OA
ATOM     72  O   UNL A   1      50.565  27.003  33.192  1.00  0.00    -0.237 OA
ATOM     73  O   UNL A   1      49.447  24.868  32.672  1.00  0.00    -0.744 OA
ENDBRANCH  69  70
ENDBRANCH  50  64
BRANCH  51  74
ATOM     74  C   UNL A   1      37.135  32.767  29.628  1.00  0.00    -0.014 A 
ATOM     75  C   UNL A   1      36.194  32.886  30.665  1.00  0.00     0.010 A 
ATOM     76  C   UNL A   1      36.826  33.287  28.358  1.00  0.00     0.010 A 
ATOM     77  C   UNL A   1      34.962  33.504  30.434  1.00  0.00     0.020 A 
ATOM     78  C   UNL A   1      35.604  33.926  28.130  1.00  0.00     0.020 A 
ATOM     79  C   UNL A   1      34.677  34.023  29.169  1.00  0.00     0.054 A 
BRANCH  79  80
ATOM     80  S   UNL A   1      33.100  34.885  28.909  1.00  0.00     0.124 S 
ATOM     81  O   UNL A   1      33.540  36.168  28.372  1.00  0.00    -0.237 OA
ATOM     82  O   UNL A   1      32.411  34.006  27.967  1.00  0.00    -0.237 OA
ATOM     83  O   UNL A   1      32.514  34.930  30.247  1.00  0.00    -0.744 OA
ENDBRANCH  79  80
ENDBRANCH  51  74
BRANCH  63  84
ATOM     84  C   UNL A   1      43.043  34.960  32.591  1.00  0.00    -0.014 A 
ATOM     85  C   UNL A   1      42.780  35.267  33.938  1.00  0.00     0.010 A 
ATOM     86  C   UNL A   1      43.710  35.904  31.789  1.00  0.00     0.010 A 
ATOM     87  C   UNL A   1      43.135  36.514  34.460  1.00  0.00     0.020 A 
ATOM     88  C   UNL A   1      44.089  37.141  32.315  1.00  0.00     0.020 A 
ATOM     89  C   UNL A   1      43.779  37.447  33.641  1.00  0.00     0.054 A 
BRANCH  89  90
ATOM     90  S   UNL A   1      44.241  39.056  34.340  1.00  0.00     0.124 S 
ATOM     91  O   UNL A   1      44.257  38.769  35.772  1.00  0.00    -0.237 OA
ATOM     92  O   UNL A   1      45.547  39.309  33.736  1.00  0.00    -0.237 OA
ATOM     93  O   UNL A   1      43.172  39.945  33.893  1.00  0.00    -0.744 OA
ENDBRANCH  89  90
ENDBRANCH  63  84
ENDBRANCH  37  38
ENDBRANCH  29  32
ENDBRANCH  27  28
ENDBRANCH  26  27
ENDBRANCH   1  26
TORSDOF 17
ENDMDL
MODEL 2
REMARK VINA RESULT:     -10.9      3.482      4.529
REMARK SMILES C[C@H]1CC[C@H](CNC(=O)NCc2ccc(C(=O)NCCCNC(=O)c3ccc(-c4c5nc(c(-c6ccc(S(=O)(=O)[O-])cc6)c6ccc([nH]6)c(-c6ccc(S(=O)(=O)[O-])cc6)c6nc(c(-c7ccc(S(=O)(=O)[O-])cc7)c7ccc4[nH]7)C=C6)C=C5)cc3)o2)CC1
REMARK SMILES IDX 19 1 18 2 16 3 17 4 15 6 12 7 13 8 85 9 14 10 11 11 10 12
REMARK SMILES IDX 7 13 8 14 9 16 6 18 5 19 1 20 2 21 87 22 3 23 86 24 4 25
REMARK SMILES IDX 20 26 21 27 22 28 23 29 24 31 25 32 26 33 84 34 27 35 83 36
REMARK SMILES IDX 28 37 29 38 30 39 77 40 31 41 82 42 76 43 78 44 32 45 81 46
REMARK SMILES IDX 75 47 74 48 33 50 63 51 44 52 62 53 45 54 48 55 61 56 79 57
REMARK SMILES IDX 46 58 47 59 60 61 80 62 49 63 34 64 35 65 43 66 36 67 42 68
REMARK SMILES IDX 37 69 38 70 39 71 40 72 41 73 64 74 65 75 73 76 66 77 72 78
REMARK SMILES IDX 67 79 68 80 69 81 70 82 71 83 50 84 51 85 59 86 52 87 58 88
REMARK SMILES IDX 53 89 54 90 55 91 56 92 57 93
REMARK H PARENT 18 5 7 15 10 17 22 30 78 49 48 60
REMARK Flexibility Score: inf
ROOT
ATOM      1  C   UNL A   1      38.021  23.597  26.034  1.00  0.00     0.118 C 
ENDROOT
BRANCH   1   2
ATOM      2  N   UNL A   1      37.710  23.376  24.635  1.00  0.00    -0.349 N 
ATOM      3  C   UNL A   1      36.580  22.863  24.040  1.00  0.00     0.286 C 
ATOM      4  O   UNL A   1      36.519  22.987  22.811  1.00  0.00    -0.266 OA
ATOM      5  H   UNL A   1      38.424  23.635  24.008  1.00  0.00     0.163 HD
BRANCH   3   6
ATOM      6  C   UNL A   1      35.535  22.229  24.822  1.00  0.00     0.191 A 
ATOM      7  C   UNL A   1      33.861  22.277  26.282  1.00  0.00     0.124 A 
ATOM      8  C   UNL A   1      33.968  20.972  25.852  1.00  0.00     0.048 A 
ATOM      9  O   UNL A   1      34.815  23.036  25.669  1.00  0.00    -0.454 OA
ATOM     10  C   UNL A   1      35.023  20.946  24.907  1.00  0.00     0.056 A 
BRANCH   7  11
ATOM     11  C   UNL A   1      32.949  22.942  27.253  1.00  0.00     0.193 C 
BRANCH  11  12
ATOM     12  N   UNL A   1      31.608  22.416  27.167  1.00  0.00    -0.331 N 
ATOM     13  N   UNL A   1      30.306  24.115  26.177  1.00  0.00    -0.338 N 
ATOM     14  C   UNL A   1      30.484  22.856  26.596  1.00  0.00     0.315 C 
ATOM     15  H   UNL A   1      29.550  24.218  25.555  1.00  0.00     0.165 HD
ATOM     16  O   UNL A   1      29.558  22.058  26.431  1.00  0.00    -0.249 OA
ATOM     17  H   UNL A   1      31.498  21.551  27.624  1.00  0.00     0.165 HD
BRANCH  13  18
ATOM     18  C   UNL A   1      30.999  25.359  26.455  1.00  0.00     0.121 C 
BRANCH  18  19
ATOM     19  C   UNL A   1      31.648  25.936  25.186  1.00  0.00     0.008 C 
ATOM     20  C   UNL A   1      33.939  28.682  22.634  1.00  0.00     0.007 C 
ATOM     21  C   UNL A   1      33.267  28.056  23.854  1.00  0.00    -0.014 C 
ATOM     22  C   UNL A   1      33.848  26.669  24.149  1.00  0.00     0.003 C 
ATOM     23  C   UNL A   1      31.750  27.968  23.652  1.00  0.00     0.003 C 
ATOM     24  C   UNL A   1      33.172  26.024  25.359  1.00  0.00     0.006 C 
ATOM     25  C   UNL A   1      31.060  27.318  24.849  1.00  0.00     0.006 C 
ENDBRANCH  18  19
ENDBRANCH  13  18
ENDBRANCH  11  12
ENDBRANCH   7  11
ENDBRANCH   3   6
ENDBRANCH   1   2
BRANCH   1  26
ATOM     26  C   UNL A   1      39.108  22.654  26.544  1.00  0.00     0.042 C 
BRANCH  26  27
ATOM     27  C   UNL A   1      40.332  23.367  27.122  1.00  0.00     0.118 C 
BRANCH  27  28
ATOM     28  N   UNL A   1      41.072  24.102  26.105  1.00  0.00    -0.352 N 
ATOM     29  C   UNL A   1      41.409  25.430  26.021  1.00  0.00     0.251 C 
ATOM     30  H   UNL A   1      41.382  23.553  25.349  1.00  0.00     0.163 HD
ATOM     31  O   UNL A   1      41.855  25.856  24.958  1.00  0.00    -0.269 OA
BRANCH  29  32
ATOM     32  C   UNL A   1      41.243  26.352  27.169  1.00  0.00     0.039 A 
ATOM     33  C   UNL A   1      40.193  26.117  28.064  1.00  0.00     0.014 A 
ATOM     34  C   UNL A   1      42.050  27.481  27.334  1.00  0.00     0.014 A 
ATOM     35  C   UNL A   1      39.981  26.983  29.141  1.00  0.00     0.010 A 
ATOM     36  C   UNL A   1      41.877  28.312  28.445  1.00  0.00     0.010 A 
ATOM     37  C   UNL A   1      40.836  28.075  29.356  1.00  0.00    -0.014 A 
BRANCH  37  38
ATOM     38  C   UNL A   1      40.651  28.968  30.529  1.00  0.00     0.031 A 
ATOM     39  C   UNL A   1      41.518  28.822  31.753  1.00  0.00     0.074 A 
ATOM     40  C   UNL A   1      39.670  29.892  30.511  1.00  0.00     0.049 A 
ATOM     41  N   UNL A   1      41.487  29.503  32.871  1.00  0.00    -0.248 NA
ATOM     42  C   UNL A   1      42.538  27.762  31.723  1.00  0.00     0.031 C 
ATOM     43  C   UNL A   1      38.734  30.110  29.405  1.00  0.00     0.029 A 
ATOM     44  N   UNL A   1      39.296  30.821  31.449  1.00  0.00    -0.354 N 
ATOM     45  C   UNL A   1      42.469  28.946  33.683  1.00  0.00     0.074 A 
ATOM     46  C   UNL A   1      43.048  27.843  32.944  1.00  0.00     0.031 C 
ATOM     47  C   UNL A   1      37.915  31.127  29.716  1.00  0.00     0.029 A 
ATOM     48  C   UNL A   1      38.245  31.613  31.052  1.00  0.00     0.049 A 
ATOM     49  H   UNL A   1      39.739  30.913  32.324  1.00  0.00     0.167 HD
ATOM     50  C   UNL A   1      42.865  29.324  34.923  1.00  0.00     0.031 A 
ATOM     51  C   UNL A   1      37.616  32.620  31.688  1.00  0.00     0.031 A 
ATOM     52  C   UNL A   1      42.296  30.426  35.656  1.00  0.00     0.049 A 
ATOM     53  C   UNL A   1      38.083  33.033  33.056  1.00  0.00     0.074 A 
ATOM     54  C   UNL A   1      42.661  30.916  36.898  1.00  0.00     0.029 A 
ATOM     55  N   UNL A   1      41.242  31.210  35.213  1.00  0.00    -0.354 N 
ATOM     56  N   UNL A   1      39.048  32.525  33.783  1.00  0.00    -0.248 NA
ATOM     57  C   UNL A   1      37.384  34.165  33.678  1.00  0.00     0.031 C 
ATOM     58  C   UNL A   1      41.802  31.973  37.222  1.00  0.00     0.029 A 
ATOM     59  C   UNL A   1      40.934  32.171  36.161  1.00  0.00     0.049 A 
ATOM     60  H   UNL A   1      40.780  31.100  34.350  1.00  0.00     0.167 HD
ATOM     61  C   UNL A   1      39.087  33.291  34.944  1.00  0.00     0.074 A 
ATOM     62  C   UNL A   1      38.061  34.306  34.810  1.00  0.00     0.031 C 
ATOM     63  C   UNL A   1      39.902  33.167  36.020  1.00  0.00     0.031 A 
BRANCH  50  64
ATOM     64  C   UNL A   1      43.970  28.528  35.568  1.00  0.00    -0.014 A 
ATOM     65  C   UNL A   1      45.321  28.848  35.343  1.00  0.00     0.010 A 
ATOM     66  C   UNL A   1      43.655  27.459  36.426  1.00  0.00     0.010 A 
ATOM     67  C   UNL A   1      46.337  28.085  35.923  1.00  0.00     0.020 A 
ATOM     68  C   UNL A   1      44.668  26.707  37.030  1.00  0.00     0.020 A 
ATOM     69  C   UNL A   1      46.003  27.013  36.757  1.00  0.00     0.054 A 
BRANCH  69  70
ATOM     70  S   UNL A   1      47.340  26.036  37.499  1.00  0.00     0.124 S 
ATOM     71  O   UNL A   1      47.154  24.737  36.857  1.00  0.00    -0.237 OA
ATOM     72  O   UNL A   1      48.538  26.770  37.097  1.00  0.00    -0.237 OA
ATOM     73  O   UNL A   1      47.043  26.073  38.929  1.00  0.00    -0.744 OA
ENDBRANCH  69  70
ENDBRANCH  50  64
BRANCH  51  74
ATOM     74  C   UNL A   1      36.495  33.331  31.017  1.00  0.00    -0.014 A 
ATOM     75  C   UNL A   1      35.233  33.405  31.629  1.00  0.00     0.010 A 
ATOM     76  C   UNL A   1      36.694  33.961  29.775  1.00  0.00     0.010 A 
ATOM     77  C   UNL A   1      34.184  34.088  31.007  1.00  0.00     0.020 A 
ATOM     78  C   UNL A   1      35.654  34.665  29.161  1.00  0.00     0.020 A 
ATOM     79  C   UNL A   1      34.403  34.716  29.779  1.00  0.00     0.054 A 
BRANCH  79  80
ATOM     80  S   UNL A   1      33.048  35.658  29.021  1.00  0.00     0.124 S 
ATOM     81  O   UNL A   1      33.770  36.685  28.278  1.00  0.00    -0.237 OA
ATOM     82  O   UNL A   1      32.373  34.646  28.211  1.00  0.00    -0.237 OA
ATOM     83  O   UNL A   1      32.282  36.134  30.171  1.00  0.00    -0.744 OA
ENDBRANCH  79  80
ENDBRANCH  51  74
BRANCH  63  84
ATOM     84  C   UNL A   1      39.727  34.171  37.128  1.00  0.00    -0.014 A 
ATOM     85  C   UNL A   1      40.330  35.440  37.063  1.00  0.00     0.010 A 
ATOM     86  C   UNL A   1      38.933  33.845  38.243  1.00  0.00     0.010 A 
ATOM     87  C   UNL A   1      40.183  36.347  38.115  1.00  0.00     0.020 A 
ATOM     88  C   UNL A   1      38.763  34.759  39.285  1.00  0.00     0.020 A 
ATOM     89  C   UNL A   1      39.406  35.996  39.225  1.00  0.00     0.054 A 
BRANCH  89  90
ATOM     90  S   UNL A   1      39.217  37.191  40.576  1.00  0.00     0.124 S 
ATOM     91  O   UNL A   1      38.266  38.142  40.008  1.00  0.00    -0.237 OA
ATOM     92  O   UNL A   1      38.705  36.367  41.669  1.00  0.00    -0.237 OA
ATOM     93  O   UNL A   1      40.571  37.705  40.773  1.00  0.00    -0.744 OA
ENDBRANCH  89  90
ENDBRANCH  63  84
ENDBRANCH  37  38
ENDBRANCH  29  32
ENDBRANCH  27  28
ENDBRANCH  26  27
ENDBRANCH   1  26
TORSDOF 17
ENDMDL
MODEL 3
REMARK VINA RESULT:     -10.9      2.585      9.354
REMARK SMILES C[C@H]1CC[C@H](CNC(=O)NCc2ccc(C(=O)NCCCNC(=O)c3ccc(-c4c5nc(c(-c6ccc(S(=O)(=O)[O-])cc6)c6ccc([nH]6)c(-c6ccc(S(=O)(=O)[O-])cc6)c6nc(c(-c7ccc(S(=O)(=O)[O-])cc7)c7ccc4[nH]7)C=C6)C=C5)cc3)o2)CC1
REMARK SMILES IDX 19 1 18 2 16 3 17 4 15 6 12 7 13 8 85 9 14 10 11 11 10 12
REMARK SMILES IDX 7 13 8 14 9 16 6 18 5 19 1 20 2 21 87 22 3 23 86 24 4 25
REMARK SMILES IDX 20 26 21 27 22 28 23 29 24 31 25 32 26 33 84 34 27 35 83 36
REMARK SMILES IDX 28 37 29 38 30 39 77 40 31 41 82 42 76 43 78 44 32 45 81 46
REMARK SMILES IDX 75 47 74 48 33 50 63 51 44 52 62 53 45 54 48 55 61 56 79 57
REMARK SMILES IDX 46 58 47 59 60 61 80 62 49 63 34 64 35 65 43 66 36 67 42 68
REMARK SMILES IDX 37 69 38 70 39 71 40 72 41 73 64 74 65 75 73 76 66 77 72 78
REMARK SMILES IDX 67 79 68 80 69 81 70 82 71 83 50 84 51 85 59 86 52 87 58 88
REMARK SMILES IDX 53 89 54 90 55 91 56 92 57 93
REMARK H PARENT 18 5 7 15 10 17 22 30 78 49 48 60
REMARK Flexibility Score: inf
ROOT
ATOM      1  C   UNL A   1      31.548  28.349  25.412  1.00  0.00     0.118 C 
ENDROOT
BRANCH   1   2
ATOM      2  N   UNL A   1      31.100  28.809  24.112  1.00  0.00    -0.349 N 
ATOM      3  C   UNL A   1      30.987  28.138  22.916  1.00  0.00     0.286 C 
ATOM      4  O   UNL A   1      30.376  28.737  22.022  1.00  0.00    -0.266 OA
ATOM      5  H   UNL A   1      30.834  29.757  24.079  1.00  0.00     0.163 HD
BRANCH   3   6
ATOM      6  C   UNL A   1      31.544  26.810  22.738  1.00  0.00     0.191 A 
ATOM      7  C   UNL A   1      31.538  24.612  23.052  1.00  0.00     0.124 A 
ATOM      8  C   UNL A   1      32.613  24.887  22.234  1.00  0.00     0.048 A 
ATOM      9  O   UNL A   1      30.898  25.774  23.367  1.00  0.00    -0.454 OA
ATOM     10  C   UNL A   1      32.605  26.287  22.019  1.00  0.00     0.056 A 
BRANCH   7  11
ATOM     11  C   UNL A   1      31.011  23.341  23.622  1.00  0.00     0.193 C 
BRANCH  11  12
ATOM     12  N   UNL A   1      30.405  23.553  24.916  1.00  0.00    -0.331 N 
ATOM     13  N   UNL A   1      31.738  22.366  26.459  1.00  0.00    -0.338 N 
ATOM     14  C   UNL A   1      30.771  23.245  26.162  1.00  0.00     0.315 C 
ATOM     15  H   UNL A   1      32.065  22.442  27.384  1.00  0.00     0.165 HD
ATOM     16  O   UNL A   1      30.199  23.808  27.098  1.00  0.00    -0.249 OA
ATOM     17  H   UNL A   1      29.542  24.023  24.870  1.00  0.00     0.165 HD
BRANCH  13  18
ATOM     18  C   UNL A   1      32.397  21.325  25.694  1.00  0.00     0.121 C 
BRANCH  18  19
ATOM     19  C   UNL A   1      33.911  21.299  25.969  1.00  0.00     0.008 C 
ATOM     20  C   UNL A   1      38.210  21.925  25.319  1.00  0.00     0.007 C 
ATOM     21  C   UNL A   1      36.697  21.915  25.108  1.00  0.00    -0.014 C 
ATOM     22  C   UNL A   1      35.989  22.744  26.185  1.00  0.00     0.003 C 
ATOM     23  C   UNL A   1      36.160  20.480  25.098  1.00  0.00     0.003 C 
ATOM     24  C   UNL A   1      34.472  22.729  25.995  1.00  0.00     0.006 C 
ATOM     25  C   UNL A   1      34.644  20.448  24.917  1.00  0.00     0.006 C 
ENDBRANCH  18  19
ENDBRANCH  13  18
ENDBRANCH  11  12
ENDBRANCH   7  11
ENDBRANCH   3   6
ENDBRANCH   1   2
BRANCH   1  26
ATOM     26  C   UNL A   1      33.039  28.021  25.431  1.00  0.00     0.042 C 
BRANCH  26  27
ATOM     27  C   UNL A   1      33.726  28.315  26.766  1.00  0.00     0.118 C 
BRANCH  27  28
ATOM     28  N   UNL A   1      33.598  29.713  27.155  1.00  0.00    -0.352 N 
ATOM     29  C   UNL A   1      34.427  30.522  27.892  1.00  0.00     0.251 C 
ATOM     30  H   UNL A   1      32.777  30.152  26.835  1.00  0.00     0.163 HD
ATOM     31  O   UNL A   1      34.000  31.612  28.268  1.00  0.00    -0.269 OA
BRANCH  29  32
ATOM     32  C   UNL A   1      35.806  30.113  28.245  1.00  0.00     0.039 A 
ATOM     33  C   UNL A   1      36.796  30.192  27.260  1.00  0.00     0.014 A 
ATOM     34  C   UNL A   1      36.122  29.582  29.499  1.00  0.00     0.014 A 
ATOM     35  C   UNL A   1      38.103  29.783  27.542  1.00  0.00     0.010 A 
ATOM     36  C   UNL A   1      37.441  29.232  29.801  1.00  0.00     0.010 A 
ATOM     37  C   UNL A   1      38.444  29.322  28.823  1.00  0.00    -0.014 A 
BRANCH  37  38
ATOM     38  C   UNL A   1      39.842  28.937  29.147  1.00  0.00     0.031 A 
ATOM     39  C   UNL A   1      40.767  29.906  29.838  1.00  0.00     0.074 A 
ATOM     40  C   UNL A   1      40.297  27.722  28.783  1.00  0.00     0.049 A 
ATOM     41  N   UNL A   1      42.019  29.746  30.184  1.00  0.00    -0.248 NA
ATOM     42  C   UNL A   1      40.219  31.232  30.163  1.00  0.00     0.031 C 
ATOM     43  C   UNL A   1      39.517  26.705  28.074  1.00  0.00     0.029 A 
ATOM     44  N   UNL A   1      41.524  27.134  28.960  1.00  0.00    -0.354 N 
ATOM     45  C   UNL A   1      42.415  30.952  30.751  1.00  0.00     0.074 A 
ATOM     46  C   UNL A   1      41.280  31.848  30.665  1.00  0.00     0.031 C 
ATOM     47  C   UNL A   1      40.275  25.610  27.902  1.00  0.00     0.029 A 
ATOM     48  C   UNL A   1      41.601  25.856  28.461  1.00  0.00     0.049 A 
ATOM     49  H   UNL A   1      42.279  27.585  29.403  1.00  0.00     0.167 HD
ATOM     50  C   UNL A   1      43.605  31.281  31.309  1.00  0.00     0.031 A 
ATOM     51  C   UNL A   1      42.620  24.976  28.454  1.00  0.00     0.031 A 
ATOM     52  C   UNL A   1      44.732  30.389  31.404  1.00  0.00     0.049 A 
ATOM     53  C   UNL A   1      43.927  25.357  29.092  1.00  0.00     0.074 A 
ATOM     54  C   UNL A   1      45.964  30.615  31.993  1.00  0.00     0.029 A 
ATOM     55  N   UNL A   1      44.764  29.098  30.898  1.00  0.00    -0.354 N 
ATOM     56  N   UNL A   1      44.261  26.486  29.670  1.00  0.00    -0.248 NA
ATOM     57  C   UNL A   1      44.985  24.339  29.089  1.00  0.00     0.031 C 
ATOM     58  C   UNL A   1      46.754  29.473  31.809  1.00  0.00     0.029 A 
ATOM     59  C   UNL A   1      45.997  28.521  31.148  1.00  0.00     0.049 A 
ATOM     60  H   UNL A   1      44.018  28.658  30.429  1.00  0.00     0.167 HD
ATOM     61  C   UNL A   1      45.565  26.306  30.120  1.00  0.00     0.074 A 
ATOM     62  C   UNL A   1      45.948  24.954  29.763  1.00  0.00     0.031 C 
ATOM     63  C   UNL A   1      46.369  27.180  30.775  1.00  0.00     0.031 A 
BRANCH  50  64
ATOM     64  C   UNL A   1      43.749  32.678  31.857  1.00  0.00    -0.014 A 
ATOM     65  C   UNL A   1      44.254  33.722  31.060  1.00  0.00     0.010 A 
ATOM     66  C   UNL A   1      43.356  32.956  33.179  1.00  0.00     0.010 A 
ATOM     67  C   UNL A   1      44.410  35.005  31.589  1.00  0.00     0.020 A 
ATOM     68  C   UNL A   1      43.487  34.246  33.705  1.00  0.00     0.020 A 
ATOM     69  C   UNL A   1      44.033  35.257  32.912  1.00  0.00     0.054 A 
BRANCH  69  70
ATOM     70  S   UNL A   1      44.244  36.932  33.575  1.00  0.00     0.124 S 
ATOM     71  O   UNL A   1      44.421  37.717  32.355  1.00  0.00    -0.237 OA
ATOM     72  O   UNL A   1      42.990  37.158  34.290  1.00  0.00    -0.237 OA
ATOM     73  O   UNL A   1      45.429  36.823  34.423  1.00  0.00    -0.744 OA
ENDBRANCH  69  70
ENDBRANCH  50  64
BRANCH  51  74
ATOM     74  C   UNL A   1      42.430  23.631  27.848  1.00  0.00    -0.014 A 
ATOM     75  C   UNL A   1      43.115  23.279  26.673  1.00  0.00     0.010 A 
ATOM     76  C   UNL A   1      41.585  22.688  28.460  1.00  0.00     0.010 A 
ATOM     77  C   UNL A   1      42.950  22.009  26.113  1.00  0.00     0.020 A 
ATOM     78  C   UNL A   1      41.437  21.409  27.916  1.00  0.00     0.020 A 
ATOM     79  C   UNL A   1      42.115  21.081  26.740  1.00  0.00     0.054 A 
BRANCH  79  80
ATOM     80  S   UNL A   1      41.970  19.414  26.037  1.00  0.00     0.124 S 
ATOM     81  O   UNL A   1      42.787  19.520  24.832  1.00  0.00    -0.237 OA
ATOM     82  O   UNL A   1      42.515  18.572  27.100  1.00  0.00    -0.237 OA
ATOM     83  O   UNL A   1      40.534  19.265  25.811  1.00  0.00    -0.744 OA
ENDBRANCH  79  80
ENDBRANCH  51  74
BRANCH  63  84
ATOM     84  C   UNL A   1      47.738  26.687  31.164  1.00  0.00    -0.014 A 
ATOM     85  C   UNL A   1      48.848  26.883  30.324  1.00  0.00     0.010 A 
ATOM     86  C   UNL A   1      47.916  26.032  32.396  1.00  0.00     0.010 A 
ATOM     87  C   UNL A   1      50.104  26.390  30.687  1.00  0.00     0.020 A 
ATOM     88  C   UNL A   1      49.175  25.560  32.774  1.00  0.00     0.020 A 
ATOM     89  C   UNL A   1      50.257  25.723  31.908  1.00  0.00     0.054 A 
BRANCH  89  90
ATOM     90  S   UNL A   1      51.897  25.100  32.367  1.00  0.00     0.124 S 
ATOM     91  O   UNL A   1      51.689  23.656  32.343  1.00  0.00    -0.237 OA
ATOM     92  O   UNL A   1      52.754  25.629  31.307  1.00  0.00    -0.237 OA
ATOM     93  O   UNL A   1      52.127  25.677  33.690  1.00  0.00    -0.744 OA
ENDBRANCH  89  90
ENDBRANCH  63  84
ENDBRANCH  37  38
ENDBRANCH  29  32
ENDBRANCH  27  28
ENDBRANCH  26  27
ENDBRANCH   1  26
TORSDOF 17
ENDMDL
