MODEL 1
REMARK VINA RESULT:     -11.6      0.000      0.000
REMARK SMILES [NH3+][C@]1(C(=O)NCCCNC(=O)c2ccc(-c3c4nc(c(-c5ccc(S(=O)(=O)[O-])cc5)c5ccc([nH]5)c(-c5ccc(S(=O)(=O)[O-])cc5)c5nc(c(-c6ccc(S(=O)(=O)[O-])cc6)c6ccc3[nH]6)C=C5)C=C4)cc2)CCC[C@H]1CCSc1ncnc2nc[nH]c12
REMARK SMILES IDX 6 1 5 2 3 3 4 4 2 6 72 7 75 8 73 9 74 10 1 11 76 15 77 16
REMARK SMILES IDX 78 17 79 18 80 19 87 20 81 21 83 22 86 23 82 24 84 25 85 26
REMARK SMILES IDX 7 28 8 29 9 30 10 31 11 33 12 34 13 35 71 36 14 37 70 38
REMARK SMILES IDX 15 39 16 40 17 41 64 42 18 43 69 44 63 45 65 46 19 47 68 48
REMARK SMILES IDX 62 49 61 50 20 52 50 53 31 54 49 55 32 56 35 57 48 58 66 59
REMARK SMILES IDX 33 60 34 61 47 63 67 64 36 65 21 66 22 67 30 68 23 69 29 70
REMARK SMILES IDX 24 71 25 72 26 73 27 74 28 75 51 76 52 77 60 78 53 79 59 80
REMARK SMILES IDX 54 81 55 82 56 83 57 84 58 85 37 86 38 87 46 88 39 89 45 90
REMARK SMILES IDX 40 91 41 92 42 93 43 94 44 95
REMARK H PARENT 5 5 1 12 1 13 1 14 86 27 9 32 65 51 35 62
REMARK Flexibility Score: inf
ROOT
ATOM      1  C   UNL A   1      44.289  27.012  25.648  1.00  0.00     0.118 C 
ENDROOT
BRANCH   1   2
ATOM      2  N   UNL A   1      45.086  27.710  24.655  1.00  0.00    -0.351 N 
ATOM      3  C   UNL A   1      46.437  27.844  24.489  1.00  0.00     0.281 C 
ATOM      4  O   UNL A   1      46.795  28.359  23.428  1.00  0.00    -0.268 OA
ATOM      5  H   UNL A   1      44.552  28.176  23.971  1.00  0.00     0.163 HD
BRANCH   3   6
ATOM      6  C   UNL A   1      47.452  27.316  25.551  1.00  0.00     0.176 C 
ATOM      7  C   UNL A   1      47.161  28.010  26.905  1.00  0.00     0.079 C 
ATOM      8  C   UNL A   1      47.402  25.788  25.907  1.00  0.00     0.061 C 
ATOM      9  C   UNL A   1      47.396  26.948  27.970  1.00  0.00     0.008 C 
ATOM     10  C   UNL A   1      46.820  25.699  27.318  1.00  0.00     0.011 C 
BRANCH   6  11
ATOM     11  N   UNL A   1      48.843  27.557  25.115  1.00  0.00    -0.345 N 
ATOM     12  H   UNL A   1      48.852  27.784  24.121  1.00  0.00     0.345 HD
ATOM     13  H   UNL A   1      49.400  26.718  25.279  1.00  0.00     0.345 HD
ATOM     14  H   UNL A   1      49.235  28.335  25.644  1.00  0.00     0.345 HD
ENDBRANCH   6  11
BRANCH   8  15
ATOM     15  C   UNL A   1      46.893  24.755  24.897  1.00  0.00     0.022 C 
BRANCH  15  16
ATOM     16  C   UNL A   1      46.292  23.509  25.576  1.00  0.00     0.077 C 
BRANCH  16  17
ATOM     17  S   UNL A   1      45.322  22.549  24.342  1.00  0.00    -0.104 SA
BRANCH  17  18
ATOM     18  C   UNL A   1      45.359  20.901  24.979  1.00  0.00     0.125 A 
ATOM     19  N   UNL A   1      46.538  20.244  24.983  1.00  0.00    -0.228 NA
ATOM     20  C   UNL A   1      44.220  20.162  25.249  1.00  0.00     0.117 A 
ATOM     21  C   UNL A   1      46.530  18.919  25.237  1.00  0.00     0.225 A 
ATOM     22  C   UNL A   1      44.319  18.808  25.517  1.00  0.00     0.181 A 
ATOM     23  N   UNL A   1      42.877  20.407  25.317  1.00  0.00    -0.341 N 
ATOM     24  N   UNL A   1      45.482  18.138  25.513  1.00  0.00    -0.215 NA
ATOM     25  N   UNL A   1      43.093  18.254  25.774  1.00  0.00    -0.217 NA
ATOM     26  C   UNL A   1      42.245  19.250  25.676  1.00  0.00     0.199 A 
ATOM     27  H   UNL A   1      42.439  21.270  25.140  1.00  0.00     0.168 HD
ENDBRANCH  17  18
ENDBRANCH  16  17
ENDBRANCH  15  16
ENDBRANCH   8  15
ENDBRANCH   3   6
ENDBRANCH   1   2
BRANCH   1  28
ATOM     28  C   UNL A   1      43.373  25.945  25.046  1.00  0.00     0.042 C 
BRANCH  28  29
ATOM     29  C   UNL A   1      42.880  24.894  26.040  1.00  0.00     0.118 C 
BRANCH  29  30
ATOM     30  N   UNL A   1      41.506  24.491  25.778  1.00  0.00    -0.352 N 
ATOM     31  C   UNL A   1      40.351  24.756  26.466  1.00  0.00     0.251 C 
ATOM     32  H   UNL A   1      41.386  23.935  24.974  1.00  0.00     0.163 HD
ATOM     33  O   UNL A   1      39.345  24.088  26.211  1.00  0.00    -0.269 OA
BRANCH  31  34
ATOM     34  C   UNL A   1      40.288  25.818  27.493  1.00  0.00     0.039 A 
ATOM     35  C   UNL A   1      39.536  25.588  28.651  1.00  0.00     0.014 A 
ATOM     36  C   UNL A   1      40.899  27.059  27.297  1.00  0.00     0.014 A 
ATOM     37  C   UNL A   1      39.449  26.577  29.635  1.00  0.00     0.010 A 
ATOM     38  C   UNL A   1      40.861  28.024  28.305  1.00  0.00     0.010 A 
ATOM     39  C   UNL A   1      40.140  27.790  29.486  1.00  0.00    -0.014 A 
BRANCH  39  40
ATOM     40  C   UNL A   1      40.156  28.802  30.574  1.00  0.00     0.031 A 
ATOM     41  C   UNL A   1      41.070  28.645  31.760  1.00  0.00     0.074 A 
ATOM     42  C   UNL A   1      39.288  29.831  30.522  1.00  0.00     0.049 A 
ATOM     43  N   UNL A   1      41.168  29.396  32.827  1.00  0.00    -0.248 NA
ATOM     44  C   UNL A   1      41.979  27.487  31.754  1.00  0.00     0.031 C 
ATOM     45  C   UNL A   1      38.325  30.072  29.443  1.00  0.00     0.029 A 
ATOM     46  N   UNL A   1      39.063  30.861  31.401  1.00  0.00    -0.354 N 
ATOM     47  C   UNL A   1      42.134  28.797  33.627  1.00  0.00     0.074 A 
ATOM     48  C   UNL A   1      42.568  27.600  32.936  1.00  0.00     0.031 C 
ATOM     49  C   UNL A   1      37.625  31.184  29.717  1.00  0.00     0.029 A 
ATOM     50  C   UNL A   1      38.056  31.711  31.007  1.00  0.00     0.049 A 
ATOM     51  H   UNL A   1      39.573  30.980  32.234  1.00  0.00     0.167 HD
ATOM     52  C   UNL A   1      42.622  29.212  34.821  1.00  0.00     0.031 A 
ATOM     53  C   UNL A   1      37.523  32.785  31.621  1.00  0.00     0.031 A 
ATOM     54  C   UNL A   1      42.188  30.405  35.502  1.00  0.00     0.049 A 
ATOM     55  C   UNL A   1      38.067  33.211  32.957  1.00  0.00     0.074 A 
ATOM     56  C   UNL A   1      42.669  30.942  36.683  1.00  0.00     0.029 A 
ATOM     57  N   UNL A   1      41.169  31.240  35.069  1.00  0.00    -0.354 N 
ATOM     58  N   UNL A   1      39.035  32.673  33.659  1.00  0.00    -0.248 NA
ATOM     59  C   UNL A   1      37.452  34.392  33.578  1.00  0.00     0.031 C 
ATOM     60  C   UNL A   1      41.901  32.070  36.995  1.00  0.00     0.029 A 
ATOM     61  C   UNL A   1      40.981  32.268  35.978  1.00  0.00     0.049 A 
ATOM     62  H   UNL A   1      40.654  31.119  34.238  1.00  0.00     0.167 HD
ATOM     63  C   UNL A   1      39.155  33.460  34.799  1.00  0.00     0.074 A 
ATOM     64  C   UNL A   1      38.178  34.523  34.679  1.00  0.00     0.031 C 
ATOM     65  C   UNL A   1      39.997  33.313  35.851  1.00  0.00     0.031 A 
BRANCH  52  66
ATOM     66  C   UNL A   1      43.678  28.365  35.482  1.00  0.00    -0.014 A 
ATOM     67  C   UNL A   1      45.002  28.349  35.005  1.00  0.00     0.010 A 
ATOM     68  C   UNL A   1      43.359  27.623  36.635  1.00  0.00     0.010 A 
ATOM     69  C   UNL A   1      45.978  27.584  35.649  1.00  0.00     0.020 A 
ATOM     70  C   UNL A   1      44.339  26.876  37.296  1.00  0.00     0.020 A 
ATOM     71  C   UNL A   1      45.640  26.851  36.790  1.00  0.00     0.054 A 
BRANCH  71  72
ATOM     72  S   UNL A   1      46.935  25.892  37.624  1.00  0.00     0.124 S 
ATOM     73  O   UNL A   1      47.643  25.296  36.493  1.00  0.00    -0.237 OA
ATOM     74  O   UNL A   1      47.674  26.920  38.354  1.00  0.00    -0.237 OA
ATOM     75  O   UNL A   1      46.192  24.953  38.458  1.00  0.00    -0.744 OA
ENDBRANCH  71  72
ENDBRANCH  52  66
BRANCH  53  76
ATOM     76  C   UNL A   1      36.405  33.529  30.978  1.00  0.00    -0.014 A 
ATOM     77  C   UNL A   1      35.215  33.778  31.683  1.00  0.00     0.010 A 
ATOM     78  C   UNL A   1      36.531  34.002  29.659  1.00  0.00     0.010 A 
ATOM     79  C   UNL A   1      34.163  34.470  31.074  1.00  0.00     0.020 A 
ATOM     80  C   UNL A   1      35.493  34.720  29.057  1.00  0.00     0.020 A 
ATOM     81  C   UNL A   1      34.311  34.938  29.766  1.00  0.00     0.054 A 
BRANCH  81  82
ATOM     82  S   UNL A   1      32.950  35.874  29.016  1.00  0.00     0.124 S 
ATOM     83  O   UNL A   1      33.660  36.968  28.359  1.00  0.00    -0.237 OA
ATOM     84  O   UNL A   1      32.343  34.889  28.123  1.00  0.00    -0.237 OA
ATOM     85  O   UNL A   1      32.126  36.258  30.159  1.00  0.00    -0.744 OA
ENDBRANCH  81  82
ENDBRANCH  53  76
BRANCH  65  86
ATOM     86  C   UNL A   1      39.908  34.334  36.954  1.00  0.00    -0.014 A 
ATOM     87  C   UNL A   1      40.546  35.581  36.841  1.00  0.00     0.010 A 
ATOM     88  C   UNL A   1      39.134  34.060  38.097  1.00  0.00     0.010 A 
ATOM     89  C   UNL A   1      40.436  36.526  37.864  1.00  0.00     0.020 A 
ATOM     90  C   UNL A   1      38.998  35.013  39.110  1.00  0.00     0.020 A 
ATOM     91  C   UNL A   1      39.662  36.236  38.992  1.00  0.00     0.054 A 
BRANCH  91  92
ATOM     92  S   UNL A   1      39.496  37.499  40.285  1.00  0.00     0.124 S 
ATOM     93  O   UNL A   1      40.891  37.820  40.576  1.00  0.00    -0.237 OA
ATOM     94  O   UNL A   1      38.736  38.549  39.612  1.00  0.00    -0.237 OA
ATOM     95  O   UNL A   1      38.780  36.807  41.355  1.00  0.00    -0.744 OA
ENDBRANCH  91  92
ENDBRANCH  65  86
ENDBRANCH  39  40
ENDBRANCH  31  34
ENDBRANCH  29  30
ENDBRANCH  28  29
ENDBRANCH   1  28
TORSDOF 18
ENDMDL
MODEL 2
REMARK VINA RESULT:     -11.4      6.089     12.212
REMARK SMILES [NH3+][C@]1(C(=O)NCCCNC(=O)c2ccc(-c3c4nc(c(-c5ccc(S(=O)(=O)[O-])cc5)c5ccc([nH]5)c(-c5ccc(S(=O)(=O)[O-])cc5)c5nc(c(-c6ccc(S(=O)(=O)[O-])cc6)c6ccc3[nH]6)C=C5)C=C4)cc2)CCC[C@H]1CCSc1ncnc2nc[nH]c12
REMARK SMILES IDX 6 1 5 2 3 3 4 4 2 6 72 7 75 8 73 9 74 10 1 11 76 15 77 16
REMARK SMILES IDX 78 17 79 18 80 19 87 20 81 21 83 22 86 23 82 24 84 25 85 26
REMARK SMILES IDX 7 28 8 29 9 30 10 31 11 33 12 34 13 35 71 36 14 37 70 38
REMARK SMILES IDX 15 39 16 40 17 41 64 42 18 43 69 44 63 45 65 46 19 47 68 48
REMARK SMILES IDX 62 49 61 50 20 52 50 53 31 54 49 55 32 56 35 57 48 58 66 59
REMARK SMILES IDX 33 60 34 61 47 63 67 64 36 65 21 66 22 67 30 68 23 69 29 70
REMARK SMILES IDX 24 71 25 72 26 73 27 74 28 75 51 76 52 77 60 78 53 79 59 80
REMARK SMILES IDX 54 81 55 82 56 83 57 84 58 85 37 86 38 87 46 88 39 89 45 90
REMARK SMILES IDX 40 91 41 92 42 93 43 94 44 95
REMARK H PARENT 5 5 1 12 1 13 1 14 86 27 9 32 65 51 35 62
REMARK Flexibility Score: inf
ROOT
ATOM      1  C   UNL A   1      31.737  27.923  26.099  1.00  0.00     0.118 C 
ENDROOT
BRANCH   1   2
ATOM      2  N   UNL A   1      30.827  26.875  26.525  1.00  0.00    -0.351 N 
ATOM      3  C   UNL A   1      29.948  26.085  25.838  1.00  0.00     0.281 C 
ATOM      4  O   UNL A   1      29.448  25.158  26.479  1.00  0.00    -0.268 OA
ATOM      5  H   UNL A   1      30.846  26.699  27.495  1.00  0.00     0.163 HD
BRANCH   3   6
ATOM      6  C   UNL A   1      29.651  26.312  24.321  1.00  0.00     0.176 C 
ATOM      7  C   UNL A   1      29.976  27.784  23.965  1.00  0.00     0.079 C 
ATOM      8  C   UNL A   1      30.498  25.491  23.286  1.00  0.00     0.061 C 
ATOM      9  C   UNL A   1      30.580  27.745  22.569  1.00  0.00     0.008 C 
ATOM     10  C   UNL A   1      31.443  26.492  22.621  1.00  0.00     0.011 C 
BRANCH   6  11
ATOM     11  N   UNL A   1      28.246  25.983  24.005  1.00  0.00    -0.345 N 
ATOM     12  H   UNL A   1      27.876  26.671  23.349  1.00  0.00     0.345 HD
ATOM     13  H   UNL A   1      27.693  25.995  24.861  1.00  0.00     0.345 HD
ATOM     14  H   UNL A   1      28.201  25.056  23.584  1.00  0.00     0.345 HD
ENDBRANCH   6  11
BRANCH   8  15
ATOM     15  C   UNL A   1      31.100  24.131  23.653  1.00  0.00     0.022 C 
BRANCH  15  16
ATOM     16  C   UNL A   1      32.595  24.223  24.015  1.00  0.00     0.077 C 
BRANCH  16  17
ATOM     17  S   UNL A   1      32.832  23.717  25.768  1.00  0.00    -0.104 SA
BRANCH  17  18
ATOM     18  C   UNL A   1      33.897  22.312  25.652  1.00  0.00     0.125 A 
ATOM     19  N   UNL A   1      35.224  22.501  25.819  1.00  0.00    -0.228 NA
ATOM     20  C   UNL A   1      33.488  21.082  25.166  1.00  0.00     0.117 A 
ATOM     21  C   UNL A   1      36.059  21.491  25.496  1.00  0.00     0.225 A 
ATOM     22  C   UNL A   1      34.423  20.102  24.882  1.00  0.00     0.181 A 
ATOM     23  N   UNL A   1      32.298  20.498  24.835  1.00  0.00    -0.341 N 
ATOM     24  N   UNL A   1      35.745  20.278  25.031  1.00  0.00    -0.215 NA
ATOM     25  N   UNL A   1      33.829  18.954  24.429  1.00  0.00    -0.217 NA
ATOM     26  C   UNL A   1      32.543  19.213  24.440  1.00  0.00     0.199 A 
ATOM     27  H   UNL A   1      31.414  20.929  24.874  1.00  0.00     0.168 HD
ENDBRANCH  17  18
ENDBRANCH  16  17
ENDBRANCH  15  16
ENDBRANCH   8  15
ENDBRANCH   3   6
ENDBRANCH   1   2
BRANCH   1  28
ATOM     28  C   UNL A   1      33.200  27.626  26.435  1.00  0.00     0.042 C 
BRANCH  28  29
ATOM     29  C   UNL A   1      34.185  28.714  26.010  1.00  0.00     0.118 C 
BRANCH  29  30
ATOM     30  N   UNL A   1      33.957  29.968  26.712  1.00  0.00    -0.352 N 
ATOM     31  C   UNL A   1      34.645  30.553  27.742  1.00  0.00     0.251 C 
ATOM     32  H   UNL A   1      33.180  30.482  26.393  1.00  0.00     0.163 HD
ATOM     33  O   UNL A   1      34.113  31.483  28.355  1.00  0.00    -0.269 OA
BRANCH  31  34
ATOM     34  C   UNL A   1      35.998  30.098  28.127  1.00  0.00     0.039 A 
ATOM     35  C   UNL A   1      37.026  30.172  27.180  1.00  0.00     0.014 A 
ATOM     36  C   UNL A   1      36.249  29.536  29.382  1.00  0.00     0.014 A 
ATOM     37  C   UNL A   1      38.313  29.740  27.512  1.00  0.00     0.010 A 
ATOM     38  C   UNL A   1      37.547  29.160  29.732  1.00  0.00     0.010 A 
ATOM     39  C   UNL A   1      38.593  29.263  28.802  1.00  0.00    -0.014 A 
BRANCH  39  40
ATOM     40  C   UNL A   1      39.979  28.914  29.208  1.00  0.00     0.031 A 
ATOM     41  C   UNL A   1      40.856  29.920  29.901  1.00  0.00     0.074 A 
ATOM     42  C   UNL A   1      40.468  27.701  28.884  1.00  0.00     0.049 A 
ATOM     43  N   UNL A   1      42.108  29.807  30.266  1.00  0.00    -0.248 NA
ATOM     44  C   UNL A   1      40.258  31.229  30.208  1.00  0.00     0.031 C 
ATOM     45  C   UNL A   1      39.728  26.651  28.178  1.00  0.00     0.029 A 
ATOM     46  N   UNL A   1      41.707  27.149  29.091  1.00  0.00    -0.354 N 
ATOM     47  C   UNL A   1      42.453  31.029  30.831  1.00  0.00     0.074 A 
ATOM     48  C   UNL A   1      41.287  31.883  30.729  1.00  0.00     0.031 C 
ATOM     49  C   UNL A   1      40.520  25.579  28.025  1.00  0.00     0.029 A 
ATOM     50  C   UNL A   1      41.836  25.878  28.579  1.00  0.00     0.049 A 
ATOM     51  H   UNL A   1      42.435  27.616  29.560  1.00  0.00     0.167 HD
ATOM     52  C   UNL A   1      43.628  31.402  31.393  1.00  0.00     0.031 A 
ATOM     53  C   UNL A   1      42.898  25.050  28.543  1.00  0.00     0.031 A 
ATOM     54  C   UNL A   1      44.783  30.547  31.494  1.00  0.00     0.049 A 
ATOM     55  C   UNL A   1      44.198  25.497  29.153  1.00  0.00     0.074 A 
ATOM     56  C   UNL A   1      45.997  30.813  32.104  1.00  0.00     0.029 A 
ATOM     57  N   UNL A   1      44.873  29.267  30.968  1.00  0.00    -0.354 N 
ATOM     58  N   UNL A   1      44.478  26.629  29.751  1.00  0.00    -0.248 NA
ATOM     59  C   UNL A   1      45.320  24.551  29.089  1.00  0.00     0.031 C 
ATOM     60  C   UNL A   1      46.841  29.716  31.894  1.00  0.00     0.029 A 
ATOM     61  C   UNL A   1      46.133  28.745  31.206  1.00  0.00     0.049 A 
ATOM     62  H   UNL A   1      44.147  28.800  30.493  1.00  0.00     0.167 HD
ATOM     63  C   UNL A   1      45.807  26.527  30.149  1.00  0.00     0.074 A 
ATOM     64  C   UNL A   1      46.264  25.213  29.745  1.00  0.00     0.031 C 
ATOM     65  C   UNL A   1      46.578  27.439  30.788  1.00  0.00     0.031 A 
BRANCH  52  66
ATOM     66  C   UNL A   1      43.735  32.803  31.936  1.00  0.00    -0.014 A 
ATOM     67  C   UNL A   1      44.223  33.857  31.143  1.00  0.00     0.010 A 
ATOM     68  C   UNL A   1      43.279  33.084  33.238  1.00  0.00     0.010 A 
ATOM     69  C   UNL A   1      44.285  35.157  31.650  1.00  0.00     0.020 A 
ATOM     70  C   UNL A   1      43.316  34.389  33.742  1.00  0.00     0.020 A 
ATOM     71  C   UNL A   1      43.832  35.415  32.947  1.00  0.00     0.054 A 
BRANCH  71  72
ATOM     72  S   UNL A   1      43.893  37.118  33.569  1.00  0.00     0.124 S 
ATOM     73  O   UNL A   1      43.796  37.892  32.334  1.00  0.00    -0.237 OA
ATOM     74  O   UNL A   1      42.724  37.183  34.442  1.00  0.00    -0.237 OA
ATOM     75  O   UNL A   1      45.181  37.194  34.252  1.00  0.00    -0.744 OA
ENDBRANCH  71  72
ENDBRANCH  52  66
BRANCH  53  76
ATOM     76  C   UNL A   1      42.775  23.713  27.898  1.00  0.00    -0.014 A 
ATOM     77  C   UNL A   1      42.276  22.616  28.620  1.00  0.00     0.010 A 
ATOM     78  C   UNL A   1      43.146  23.536  26.553  1.00  0.00     0.010 A 
ATOM     79  C   UNL A   1      42.168  21.360  28.015  1.00  0.00     0.020 A 
ATOM     80  C   UNL A   1      43.012  22.288  25.935  1.00  0.00     0.020 A 
ATOM     81  C   UNL A   1      42.535  21.206  26.675  1.00  0.00     0.054 A 
BRANCH  81  82
ATOM     82  S   UNL A   1      42.341  19.577  25.899  1.00  0.00     0.124 S 
ATOM     83  O   UNL A   1      40.937  19.597  25.500  1.00  0.00    -0.237 OA
ATOM     84  O   UNL A   1      43.310  19.631  24.806  1.00  0.00    -0.237 OA
ATOM     85  O   UNL A   1      42.675  18.645  26.972  1.00  0.00    -0.744 OA
ENDBRANCH  81  82
ENDBRANCH  53  76
BRANCH  65  86
ATOM     86  C   UNL A   1      47.997  27.045  31.102  1.00  0.00    -0.014 A 
ATOM     87  C   UNL A   1      48.304  26.300  32.254  1.00  0.00     0.010 A 
ATOM     88  C   UNL A   1      49.029  27.382  30.207  1.00  0.00     0.010 A 
ATOM     89  C   UNL A   1      49.623  25.923  32.520  1.00  0.00     0.020 A 
ATOM     90  C   UNL A   1      50.345  26.983  30.456  1.00  0.00     0.020 A 
ATOM     91  C   UNL A   1      50.635  26.267  31.619  1.00  0.00     0.054 A 
BRANCH  91  92
ATOM     92  S   UNL A   1      52.332  25.725  31.964  1.00  0.00     0.124 S 
ATOM     93  O   UNL A   1      52.719  26.615  33.056  1.00  0.00    -0.237 OA
ATOM     94  O   UNL A   1      52.153  24.322  32.330  1.00  0.00    -0.237 OA
ATOM     95  O   UNL A   1      53.031  25.949  30.701  1.00  0.00    -0.744 OA
ENDBRANCH  91  92
ENDBRANCH  65  86
ENDBRANCH  39  40
ENDBRANCH  31  34
ENDBRANCH  29  30
ENDBRANCH  28  29
ENDBRANCH   1  28
TORSDOF 18
ENDMDL
MODEL 3
REMARK VINA RESULT:     -11.3      5.278     10.598
REMARK SMILES [NH3+][C@]1(C(=O)NCCCNC(=O)c2ccc(-c3c4nc(c(-c5ccc(S(=O)(=O)[O-])cc5)c5ccc([nH]5)c(-c5ccc(S(=O)(=O)[O-])cc5)c5nc(c(-c6ccc(S(=O)(=O)[O-])cc6)c6ccc3[nH]6)C=C5)C=C4)cc2)CCC[C@H]1CCSc1ncnc2nc[nH]c12
REMARK SMILES IDX 6 1 5 2 3 3 4 4 2 6 72 7 75 8 73 9 74 10 1 11 76 15 77 16
REMARK SMILES IDX 78 17 79 18 80 19 87 20 81 21 83 22 86 23 82 24 84 25 85 26
REMARK SMILES IDX 7 28 8 29 9 30 10 31 11 33 12 34 13 35 71 36 14 37 70 38
REMARK SMILES IDX 15 39 16 40 17 41 64 42 18 43 69 44 63 45 65 46 19 47 68 48
REMARK SMILES IDX 62 49 61 50 20 52 50 53 31 54 49 55 32 56 35 57 48 58 66 59
REMARK SMILES IDX 33 60 34 61 47 63 67 64 36 65 21 66 22 67 30 68 23 69 29 70
REMARK SMILES IDX 24 71 25 72 26 73 27 74 28 75 51 76 52 77 60 78 53 79 59 80
REMARK SMILES IDX 54 81 55 82 56 83 57 84 58 85 37 86 38 87 46 88 39 89 45 90
REMARK SMILES IDX 40 91 41 92 42 93 43 94 44 95
REMARK H PARENT 5 5 1 12 1 13 1 14 86 27 9 32 65 51 35 62
REMARK Flexibility Score: inf
ROOT
ATOM      1  C   UNL A   1      31.902  27.767  25.671  1.00  0.00     0.118 C 
ENDROOT
BRANCH   1   2
ATOM      2  N   UNL A   1      30.925  26.829  26.198  1.00  0.00    -0.351 N 
ATOM      3  C   UNL A   1      30.630  25.533  25.879  1.00  0.00     0.281 C 
ATOM      4  O   UNL A   1      29.857  24.957  26.647  1.00  0.00    -0.268 OA
ATOM      5  H   UNL A   1      30.369  27.197  26.924  1.00  0.00     0.163 HD
BRANCH   3   6
ATOM      6  C   UNL A   1      31.284  24.819  24.654  1.00  0.00     0.176 C 
ATOM      7  C   UNL A   1      31.130  25.726  23.408  1.00  0.00     0.079 C 
ATOM      8  C   UNL A   1      32.828  24.543  24.715  1.00  0.00     0.061 C 
ATOM      9  C   UNL A   1      32.421  25.561  22.618  1.00  0.00     0.008 C 
ATOM     10  C   UNL A   1      33.472  25.506  23.717  1.00  0.00     0.011 C 
BRANCH   6  11
ATOM     11  N   UNL A   1      30.673  23.493  24.430  1.00  0.00    -0.345 N 
ATOM     12  H   UNL A   1      29.767  23.609  23.976  1.00  0.00     0.345 HD
ATOM     13  H   UNL A   1      30.548  23.020  25.324  1.00  0.00     0.345 HD
ATOM     14  H   UNL A   1      31.282  22.935  23.832  1.00  0.00     0.345 HD
ENDBRANCH   6  11
BRANCH   8  15
ATOM     15  C   UNL A   1      33.552  24.371  26.054  1.00  0.00     0.022 C 
BRANCH  15  16
ATOM     16  C   UNL A   1      34.459  23.126  26.083  1.00  0.00     0.077 C 
BRANCH  16  17
ATOM     17  S   UNL A   1      33.521  21.703  26.777  1.00  0.00    -0.104 SA
BRANCH  17  18
ATOM     18  C   UNL A   1      33.215  20.683  25.367  1.00  0.00     0.125 A 
ATOM     19  N   UNL A   1      33.010  21.283  24.176  1.00  0.00    -0.228 NA
ATOM     20  C   UNL A   1      32.937  19.329  25.451  1.00  0.00     0.117 A 
ATOM     21  C   UNL A   1      32.541  20.535  23.155  1.00  0.00     0.225 A 
ATOM     22  C   UNL A   1      32.477  18.645  24.340  1.00  0.00     0.181 A 
ATOM     23  N   UNL A   1      32.973  18.372  26.427  1.00  0.00    -0.341 N 
ATOM     24  N   UNL A   1      32.256  19.230  23.152  1.00  0.00    -0.215 NA
ATOM     25  N   UNL A   1      32.273  17.318  24.613  1.00  0.00    -0.217 NA
ATOM     26  C   UNL A   1      32.611  17.177  25.873  1.00  0.00     0.199 A 
ATOM     27  H   UNL A   1      33.219  18.519  27.368  1.00  0.00     0.168 HD
ENDBRANCH  17  18
ENDBRANCH  16  17
ENDBRANCH  15  16
ENDBRANCH   8  15
ENDBRANCH   3   6
ENDBRANCH   1   2
BRANCH   1  28
ATOM     28  C   UNL A   1      33.083  28.002  26.614  1.00  0.00     0.042 C 
BRANCH  28  29
ATOM     29  C   UNL A   1      34.101  29.027  26.117  1.00  0.00     0.118 C 
BRANCH  29  30
ATOM     30  N   UNL A   1      33.799  30.373  26.581  1.00  0.00    -0.352 N 
ATOM     31  C   UNL A   1      34.340  31.107  27.604  1.00  0.00     0.251 C 
ATOM     32  H   UNL A   1      33.090  30.833  26.077  1.00  0.00     0.163 HD
ATOM     33  O   UNL A   1      33.744  32.118  27.985  1.00  0.00    -0.269 OA
BRANCH  31  34
ATOM     34  C   UNL A   1      35.611  30.716  28.251  1.00  0.00     0.039 A 
ATOM     35  C   UNL A   1      36.794  31.340  27.840  1.00  0.00     0.014 A 
ATOM     36  C   UNL A   1      35.660  29.694  29.203  1.00  0.00     0.014 A 
ATOM     37  C   UNL A   1      38.012  30.984  28.426  1.00  0.00     0.010 A 
ATOM     38  C   UNL A   1      36.867  29.380  29.830  1.00  0.00     0.010 A 
ATOM     39  C   UNL A   1      38.054  30.026  29.451  1.00  0.00    -0.014 A 
BRANCH  39  40
ATOM     40  C   UNL A   1      39.321  29.723  30.167  1.00  0.00     0.031 A 
ATOM     41  C   UNL A   1      40.221  28.609  29.704  1.00  0.00     0.074 A 
ATOM     42  C   UNL A   1      39.621  30.414  31.284  1.00  0.00     0.049 A 
ATOM     43  N   UNL A   1      41.327  28.167  30.247  1.00  0.00    -0.248 NA
ATOM     44  C   UNL A   1      39.819  27.888  28.486  1.00  0.00     0.031 C 
ATOM     45  C   UNL A   1      38.808  31.492  31.855  1.00  0.00     0.029 A 
ATOM     46  N   UNL A   1      40.682  30.306  32.148  1.00  0.00    -0.354 N 
ATOM     47  C   UNL A   1      41.746  27.109  29.449  1.00  0.00     0.074 A 
ATOM     48  C   UNL A   1      40.756  26.953  28.403  1.00  0.00     0.031 C 
ATOM     49  C   UNL A   1      39.407  31.955  32.964  1.00  0.00     0.029 A 
ATOM     50  C   UNL A   1      40.619  31.181  33.208  1.00  0.00     0.049 A 
ATOM     51  H   UNL A   1      41.417  29.665  32.022  1.00  0.00     0.167 HD
ATOM     52  C   UNL A   1      42.859  26.345  29.570  1.00  0.00     0.031 A 
ATOM     53  C   UNL A   1      41.435  31.335  34.269  1.00  0.00     0.031 A 
ATOM     54  C   UNL A   1      43.842  26.507  30.610  1.00  0.00     0.049 A 
ATOM     55  C   UNL A   1      42.651  30.459  34.391  1.00  0.00     0.074 A 
ATOM     56  C   UNL A   1      45.034  25.824  30.779  1.00  0.00     0.029 A 
ATOM     57  N   UNL A   1      43.744  27.405  31.662  1.00  0.00    -0.354 N 
ATOM     58  N   UNL A   1      43.069  29.515  33.582  1.00  0.00    -0.248 NA
ATOM     59  C   UNL A   1      43.507  30.673  35.566  1.00  0.00     0.031 C 
ATOM     60  C   UNL A   1      45.628  26.269  31.965  1.00  0.00     0.029 A 
ATOM     61  C   UNL A   1      44.836  27.270  32.503  1.00  0.00     0.049 A 
ATOM     62  H   UNL A   1      43.006  28.044  31.792  1.00  0.00     0.167 HD
ATOM     63  C   UNL A   1      44.247  29.033  34.142  1.00  0.00     0.074 A 
ATOM     64  C   UNL A   1      44.486  29.806  35.344  1.00  0.00     0.031 C 
ATOM     65  C   UNL A   1      45.055  28.038  33.702  1.00  0.00     0.031 A 
BRANCH  52  66
ATOM     66  C   UNL A   1      43.075  25.252  28.556  1.00  0.00    -0.014 A 
ATOM     67  C   UNL A   1      42.552  23.961  28.755  1.00  0.00     0.010 A 
ATOM     68  C   UNL A   1      43.754  25.535  27.356  1.00  0.00     0.010 A 
ATOM     69  C   UNL A   1      42.732  22.966  27.790  1.00  0.00     0.020 A 
ATOM     70  C   UNL A   1      43.915  24.549  26.377  1.00  0.00     0.020 A 
ATOM     71  C   UNL A   1      43.414  23.267  26.607  1.00  0.00     0.054 A 
BRANCH  71  72
ATOM     72  S   UNL A   1      43.605  21.965  25.358  1.00  0.00     0.124 S 
ATOM     73  O   UNL A   1      44.953  21.475  25.638  1.00  0.00    -0.237 OA
ATOM     74  O   UNL A   1      42.522  21.042  25.689  1.00  0.00    -0.237 OA
ATOM     75  O   UNL A   1      43.450  22.672  24.090  1.00  0.00    -0.744 OA
ENDBRANCH  71  72
ENDBRANCH  52  66
BRANCH  53  76
ATOM     76  C   UNL A   1      41.122  32.358  35.304  1.00  0.00    -0.014 A 
ATOM     77  C   UNL A   1      41.539  33.691  35.139  1.00  0.00     0.010 A 
ATOM     78  C   UNL A   1      40.394  32.007  36.455  1.00  0.00     0.010 A 
ATOM     79  C   UNL A   1      41.250  34.648  36.115  1.00  0.00     0.020 A 
ATOM     80  C   UNL A   1      40.078  32.968  37.420  1.00  0.00     0.020 A 
ATOM     81  C   UNL A   1      40.519  34.281  37.248  1.00  0.00     0.054 A 
BRANCH  81  82
ATOM     82  S   UNL A   1      40.117  35.553  38.478  1.00  0.00     0.124 S 
ATOM     83  O   UNL A   1      40.260  36.781  37.701  1.00  0.00    -0.237 OA
ATOM     84  O   UNL A   1      38.751  35.202  38.860  1.00  0.00    -0.237 OA
ATOM     85  O   UNL A   1      41.119  35.350  39.521  1.00  0.00    -0.744 OA
ENDBRANCH  81  82
ENDBRANCH  53  76
BRANCH  65  86
ATOM     86  C   UNL A   1      46.283  27.734  34.519  1.00  0.00    -0.014 A 
ATOM     87  C   UNL A   1      46.281  26.702  35.473  1.00  0.00     0.010 A 
ATOM     88  C   UNL A   1      47.468  28.458  34.293  1.00  0.00     0.010 A 
ATOM     89  C   UNL A   1      47.436  26.418  36.208  1.00  0.00     0.020 A 
ATOM     90  C   UNL A   1      48.632  28.158  35.006  1.00  0.00     0.020 A 
ATOM     91  C   UNL A   1      48.604  27.148  35.969  1.00  0.00     0.054 A 
BRANCH  91  92
ATOM     92  S   UNL A   1      50.102  26.728  36.903  1.00  0.00     0.124 S 
ATOM     93  O   UNL A   1      49.585  25.795  37.901  1.00  0.00    -0.237 OA
ATOM     94  O   UNL A   1      50.963  26.140  35.880  1.00  0.00    -0.237 OA
ATOM     95  O   UNL A   1      50.555  28.014  37.427  1.00  0.00    -0.744 OA
ENDBRANCH  91  92
ENDBRANCH  65  86
ENDBRANCH  39  40
ENDBRANCH  31  34
ENDBRANCH  29  30
ENDBRANCH  28  29
ENDBRANCH   1  28
TORSDOF 18
ENDMDL
