MODEL 1
REMARK VINA RESULT:     -11.2      0.000      0.000
REMARK SMILES CC[C@H]1CC[C@](C(=O)NCCCNC(=O)c2ccc(-c3c4nc(c(-c5ccc(S(=O)(=O)[O-])cc5)c5ccc([nH]5)c(-c5ccc(S(=O)(=O)[O-])cc5)c5nc(c(-c6ccc(S(=O)(=O)[O-])cc6)c6ccc3[nH]6)C=C5)C=C4)cc2)([C@H]2CCC[C@@H](S(C)(=O)=O)C2)CC1
REMARK SMILES IDX 11 1 10 2 9 3 7 4 8 5 6 7 3 8 87 9 4 10 86 11 5 12 2 13 1 14
REMARK SMILES IDX 76 15 77 16 85 17 78 18 80 19 79 20 81 21 82 22 83 23 84 24
REMARK SMILES IDX 12 25 13 26 14 27 15 29 16 30 17 31 75 32 18 33 74 34 19 35
REMARK SMILES IDX 20 36 21 37 68 38 22 39 73 40 67 41 69 42 23 43 72 44 66 45
REMARK SMILES IDX 65 46 24 48 54 49 35 50 53 51 36 52 39 53 52 54 70 55 37 56
REMARK SMILES IDX 38 57 51 59 71 60 40 61 25 62 26 63 34 64 27 65 33 66 28 67
REMARK SMILES IDX 29 68 30 69 31 70 32 71 55 72 56 73 64 74 57 75 63 76 58 77
REMARK SMILES IDX 59 78 60 79 61 80 62 81 41 82 42 83 50 84 43 85 49 86 44 87
REMARK SMILES IDX 45 88 46 89 47 90 48 91
REMARK H PARENT 9 6 13 28 69 47 39 58
REMARK Flexibility Score: inf
ROOT
ATOM      1  C   UNL A   1      32.691  28.263  25.761  1.00  0.00     0.042 C 
ENDROOT
BRANCH   1   2
ATOM      2  C   UNL A   1      32.762  27.968  24.279  1.00  0.00     0.117 C 
BRANCH   2   3
ATOM      3  N   UNL A   1      33.918  27.198  23.918  1.00  0.00    -0.356 N 
ATOM      4  C   UNL A   1      33.791  26.049  23.212  1.00  0.00     0.226 C 
ATOM      5  O   UNL A   1      33.942  26.102  21.990  1.00  0.00    -0.274 OA
ATOM      6  H   UNL A   1      34.812  27.509  24.184  1.00  0.00     0.163 HD
BRANCH   4   7
ATOM      7  C   UNL A   1      33.515  24.721  23.942  1.00  0.00     0.052 C 
ATOM      8  C   UNL A   1      30.462  24.895  24.500  1.00  0.00    -0.011 C 
ATOM      9  C   UNL A   1      31.075  24.749  23.094  1.00  0.00     0.005 C 
ATOM     10  C   UNL A   1      31.489  25.145  25.613  1.00  0.00     0.005 C 
ATOM     11  C   UNL A   1      32.435  24.012  23.068  1.00  0.00     0.017 C 
ATOM     12  C   UNL A   1      32.933  24.727  25.378  1.00  0.00     0.017 C 
BRANCH   8  13
ATOM     13  C   UNL A   1      29.378  26.007  24.611  1.00  0.00    -0.000 C 
ATOM     14  C   UNL A   1      29.376  27.045  23.510  1.00  0.00     0.004 C 
ENDBRANCH   8  13
BRANCH   7  15
ATOM     15  C   UNL A   1      34.900  23.892  24.011  1.00  0.00     0.006 C 
ATOM     16  C   UNL A   1      35.747  23.978  25.299  1.00  0.00     0.005 C 
ATOM     17  C   UNL A   1      34.894  22.412  23.511  1.00  0.00     0.024 C 
ATOM     18  C   UNL A   1      35.518  22.872  26.337  1.00  0.00     0.002 C 
ATOM     19  C   UNL A   1      34.660  21.275  24.522  1.00  0.00     0.108 C 
ATOM     20  C   UNL A   1      35.513  21.454  25.773  1.00  0.00     0.020 C 
BRANCH  19  21
ATOM     21  S   UNL A   1      32.923  20.906  24.857  1.00  0.00     0.150 S 
ATOM     22  C   UNL A   1      32.882  19.220  25.397  1.00  0.00     0.158 C 
ATOM     23  O   UNL A   1      32.455  21.690  25.983  1.00  0.00    -0.229 OA
ATOM     24  O   UNL A   1      32.200  20.910  23.597  1.00  0.00    -0.229 OA
ENDBRANCH  19  21
ENDBRANCH   7  15
ENDBRANCH   4   7
ENDBRANCH   2   3
ENDBRANCH   1   2
BRANCH   1  25
ATOM     25  C   UNL A   1      34.017  28.770  26.291  1.00  0.00     0.118 C 
BRANCH  25  26
ATOM     26  N   UNL A   1      33.887  30.119  26.839  1.00  0.00    -0.352 N 
ATOM     27  C   UNL A   1      34.600  30.755  27.825  1.00  0.00     0.251 C 
ATOM     28  H   UNL A   1      33.172  30.660  26.434  1.00  0.00     0.163 HD
ATOM     29  O   UNL A   1      34.111  31.729  28.390  1.00  0.00    -0.269 OA
BRANCH  27  30
ATOM     30  C   UNL A   1      35.950  30.282  28.196  1.00  0.00     0.039 A 
ATOM     31  C   UNL A   1      36.165  29.716  29.455  1.00  0.00     0.014 A 
ATOM     32  C   UNL A   1      37.024  30.456  27.324  1.00  0.00     0.014 A 
ATOM     33  C   UNL A   1      37.447  29.296  29.814  1.00  0.00     0.010 A 
ATOM     34  C   UNL A   1      38.261  29.909  27.621  1.00  0.00     0.010 A 
ATOM     35  C   UNL A   1      38.501  29.366  28.887  1.00  0.00    -0.014 A 
BRANCH  35  36
ATOM     36  C   UNL A   1      39.880  28.941  29.232  1.00  0.00     0.031 A 
ATOM     37  C   UNL A   1      40.802  29.900  29.944  1.00  0.00     0.074 A 
ATOM     38  C   UNL A   1      40.319  27.726  28.849  1.00  0.00     0.049 A 
ATOM     39  N   UNL A   1      42.059  29.747  30.272  1.00  0.00    -0.248 NA
ATOM     40  C   UNL A   1      40.253  31.222  30.299  1.00  0.00     0.031 C 
ATOM     41  C   UNL A   1      39.535  26.735  28.108  1.00  0.00     0.029 A 
ATOM     42  N   UNL A   1      41.535  27.118  29.030  1.00  0.00    -0.354 N 
ATOM     43  C   UNL A   1      42.450  30.954  30.842  1.00  0.00     0.074 A 
ATOM     44  C   UNL A   1      41.324  31.853  30.749  1.00  0.00     0.031 C 
ATOM     45  C   UNL A   1      40.272  25.625  27.943  1.00  0.00     0.029 A 
ATOM     46  C   UNL A   1      41.594  25.843  28.519  1.00  0.00     0.049 A 
ATOM     47  H   UNL A   1      42.292  27.553  29.484  1.00  0.00     0.167 HD
ATOM     48  C   UNL A   1      43.630  31.277  31.423  1.00  0.00     0.031 A 
ATOM     49  C   UNL A   1      42.602  24.951  28.516  1.00  0.00     0.031 A 
ATOM     50  C   UNL A   1      44.735  30.364  31.535  1.00  0.00     0.049 A 
ATOM     51  C   UNL A   1      43.903  25.328  29.170  1.00  0.00     0.074 A 
ATOM     52  C   UNL A   1      45.954  30.560  32.155  1.00  0.00     0.029 A 
ATOM     53  N   UNL A   1      44.750  29.077  31.016  1.00  0.00    -0.354 N 
ATOM     54  N   UNL A   1      44.233  26.452  29.762  1.00  0.00    -0.248 NA
ATOM     55  C   UNL A   1      44.962  24.311  29.169  1.00  0.00     0.031 C 
ATOM     56  C   UNL A   1      46.729  29.411  31.961  1.00  0.00     0.029 A 
ATOM     57  C   UNL A   1      45.966  28.474  31.283  1.00  0.00     0.049 A 
ATOM     58  H   UNL A   1      44.003  28.655  30.530  1.00  0.00     0.167 HD
ATOM     59  C   UNL A   1      45.527  26.265  30.233  1.00  0.00     0.074 A 
ATOM     60  C   UNL A   1      45.913  24.917  29.868  1.00  0.00     0.031 C 
ATOM     61  C   UNL A   1      46.325  27.129  30.910  1.00  0.00     0.031 A 
BRANCH  48  62
ATOM     62  C   UNL A   1      43.778  32.670  31.980  1.00  0.00    -0.014 A 
ATOM     63  C   UNL A   1      43.412  32.971  33.306  1.00  0.00     0.010 A 
ATOM     64  C   UNL A   1      44.313  33.693  31.175  1.00  0.00     0.010 A 
ATOM     65  C   UNL A   1      43.528  34.272  33.798  1.00  0.00     0.020 A 
ATOM     66  C   UNL A   1      44.465  34.990  31.675  1.00  0.00     0.020 A 
ATOM     67  C   UNL A   1      44.054  35.275  32.979  1.00  0.00     0.054 A 
BRANCH  67  68
ATOM     68  S   UNL A   1      44.211  36.952  33.651  1.00  0.00     0.124 S 
ATOM     69  O   UNL A   1      42.909  37.147  34.282  1.00  0.00    -0.237 OA
ATOM     70  O   UNL A   1      45.340  36.823  34.568  1.00  0.00    -0.237 OA
ATOM     71  O   UNL A   1      44.460  37.778  32.472  1.00  0.00    -0.744 OA
ENDBRANCH  67  68
ENDBRANCH  48  62
BRANCH  49  72
ATOM     72  C   UNL A   1      42.404  23.609  27.904  1.00  0.00    -0.014 A 
ATOM     73  C   UNL A   1      43.021  23.284  26.682  1.00  0.00     0.010 A 
ATOM     74  C   UNL A   1      41.621  22.635  28.551  1.00  0.00     0.010 A 
ATOM     75  C   UNL A   1      42.841  22.021  26.110  1.00  0.00     0.020 A 
ATOM     76  C   UNL A   1      41.464  21.361  27.997  1.00  0.00     0.020 A 
ATOM     77  C   UNL A   1      42.066  21.066  26.774  1.00  0.00     0.054 A 
BRANCH  77  78
ATOM     78  S   UNL A   1      41.888  19.419  26.035  1.00  0.00     0.124 S 
ATOM     79  O   UNL A   1      42.739  19.522  24.853  1.00  0.00    -0.237 OA
ATOM     80  O   UNL A   1      42.380  18.543  27.095  1.00  0.00    -0.237 OA
ATOM     81  O   UNL A   1      40.455  19.317  25.767  1.00  0.00    -0.744 OA
ENDBRANCH  77  78
ENDBRANCH  49  72
BRANCH  61  82
ATOM     82  C   UNL A   1      47.679  26.629  31.339  1.00  0.00    -0.014 A 
ATOM     83  C   UNL A   1      48.818  26.823  30.540  1.00  0.00     0.010 A 
ATOM     84  C   UNL A   1      47.817  26.009  32.595  1.00  0.00     0.010 A 
ATOM     85  C   UNL A   1      50.068  26.376  30.975  1.00  0.00     0.020 A 
ATOM     86  C   UNL A   1      49.069  25.590  33.047  1.00  0.00     0.020 A 
ATOM     87  C   UNL A   1      50.185  25.763  32.227  1.00  0.00     0.054 A 
BRANCH  87  88
ATOM     88  S   UNL A   1      51.827  25.234  32.787  1.00  0.00     0.124 S 
ATOM     89  O   UNL A   1      52.621  25.368  31.569  1.00  0.00    -0.237 OA
ATOM     90  O   UNL A   1      52.128  26.195  33.844  1.00  0.00    -0.237 OA
ATOM     91  O   UNL A   1      51.612  23.862  33.242  1.00  0.00    -0.744 OA
ENDBRANCH  87  88
ENDBRANCH  61  82
ENDBRANCH  35  36
ENDBRANCH  27  30
ENDBRANCH  25  26
ENDBRANCH   1  25
TORSDOF 16
ENDMDL
MODEL 2
REMARK VINA RESULT:     -11.0      2.447      3.053
REMARK SMILES CC[C@H]1CC[C@](C(=O)NCCCNC(=O)c2ccc(-c3c4nc(c(-c5ccc(S(=O)(=O)[O-])cc5)c5ccc([nH]5)c(-c5ccc(S(=O)(=O)[O-])cc5)c5nc(c(-c6ccc(S(=O)(=O)[O-])cc6)c6ccc3[nH]6)C=C5)C=C4)cc2)([C@H]2CCC[C@@H](S(C)(=O)=O)C2)CC1
REMARK SMILES IDX 11 1 10 2 9 3 7 4 8 5 6 7 3 8 87 9 4 10 86 11 5 12 2 13 1 14
REMARK SMILES IDX 76 15 77 16 85 17 78 18 80 19 79 20 81 21 82 22 83 23 84 24
REMARK SMILES IDX 12 25 13 26 14 27 15 29 16 30 17 31 75 32 18 33 74 34 19 35
REMARK SMILES IDX 20 36 21 37 68 38 22 39 73 40 67 41 69 42 23 43 72 44 66 45
REMARK SMILES IDX 65 46 24 48 54 49 35 50 53 51 36 52 39 53 52 54 70 55 37 56
REMARK SMILES IDX 38 57 51 59 71 60 40 61 25 62 26 63 34 64 27 65 33 66 28 67
REMARK SMILES IDX 29 68 30 69 31 70 32 71 55 72 56 73 64 74 57 75 63 76 58 77
REMARK SMILES IDX 59 78 60 79 61 80 62 81 41 82 42 83 50 84 43 85 49 86 44 87
REMARK SMILES IDX 45 88 46 89 47 90 48 91
REMARK H PARENT 9 6 13 28 69 47 39 58
REMARK Flexibility Score: inf
ROOT
ATOM      1  C   UNL A   1      32.758  28.508  25.716  1.00  0.00     0.042 C 
ENDROOT
BRANCH   1   2
ATOM      2  C   UNL A   1      32.799  28.232  24.229  1.00  0.00     0.117 C 
BRANCH   2   3
ATOM      3  N   UNL A   1      33.909  27.408  23.844  1.00  0.00    -0.356 N 
ATOM      4  C   UNL A   1      33.712  26.262  23.149  1.00  0.00     0.226 C 
ATOM      5  O   UNL A   1      33.835  26.302  21.923  1.00  0.00    -0.274 OA
ATOM      6  H   UNL A   1      34.823  27.677  24.087  1.00  0.00     0.163 HD
BRANCH   4   7
ATOM      7  C   UNL A   1      33.391  24.952  23.894  1.00  0.00     0.052 C 
ATOM      8  C   UNL A   1      30.300  25.094  24.184  1.00  0.00    -0.011 C 
ATOM      9  C   UNL A   1      31.033  24.916  22.840  1.00  0.00     0.005 C 
ATOM     10  C   UNL A   1      31.224  25.393  25.372  1.00  0.00     0.005 C 
ATOM     11  C   UNL A   1      32.400  24.200  22.953  1.00  0.00     0.017 C 
ATOM     12  C   UNL A   1      32.689  24.991  25.274  1.00  0.00     0.017 C 
BRANCH   8  13
ATOM     13  C   UNL A   1      29.195  26.191  24.168  1.00  0.00    -0.000 C 
ATOM     14  C   UNL A   1      29.518  27.447  23.387  1.00  0.00     0.004 C 
ENDBRANCH   8  13
BRANCH   7  15
ATOM     15  C   UNL A   1      34.777  24.147  24.105  1.00  0.00     0.006 C 
ATOM     16  C   UNL A   1      35.462  24.213  25.488  1.00  0.00     0.005 C 
ATOM     17  C   UNL A   1      34.863  22.683  23.569  1.00  0.00     0.024 C 
ATOM     18  C   UNL A   1      35.135  23.073  26.461  1.00  0.00     0.002 C 
ATOM     19  C   UNL A   1      34.536  21.513  24.515  1.00  0.00     0.108 C 
ATOM     20  C   UNL A   1      35.229  21.672  25.864  1.00  0.00     0.020 C 
BRANCH  19  21
ATOM     21  S   UNL A   1      32.779  21.102  24.631  1.00  0.00     0.150 S 
ATOM     22  C   UNL A   1      32.710  19.434  25.220  1.00  0.00     0.158 C 
ATOM     23  O   UNL A   1      32.145  21.906  25.656  1.00  0.00    -0.229 OA
ATOM     24  O   UNL A   1      32.230  21.044  23.287  1.00  0.00    -0.229 OA
ENDBRANCH  19  21
ENDBRANCH   7  15
ENDBRANCH   4   7
ENDBRANCH   2   3
ENDBRANCH   1   2
BRANCH   1  25
ATOM     25  C   UNL A   1      34.063  29.100  26.208  1.00  0.00     0.118 C 
BRANCH  25  26
ATOM     26  N   UNL A   1      33.904  30.510  26.561  1.00  0.00    -0.352 N 
ATOM     27  C   UNL A   1      34.443  31.239  27.592  1.00  0.00     0.251 C 
ATOM     28  H   UNL A   1      33.315  31.021  25.960  1.00  0.00     0.163 HD
ATOM     29  O   UNL A   1      33.908  32.290  27.932  1.00  0.00    -0.269 OA
BRANCH  27  30
ATOM     30  C   UNL A   1      35.664  30.770  28.280  1.00  0.00     0.039 A 
ATOM     31  C   UNL A   1      35.577  29.752  29.231  1.00  0.00     0.014 A 
ATOM     32  C   UNL A   1      36.893  31.384  28.035  1.00  0.00     0.014 A 
ATOM     33  C   UNL A   1      36.728  29.331  29.901  1.00  0.00     0.010 A 
ATOM     34  C   UNL A   1      38.053  30.870  28.590  1.00  0.00     0.010 A 
ATOM     35  C   UNL A   1      37.980  29.870  29.565  1.00  0.00    -0.014 A 
BRANCH  35  36
ATOM     36  C   UNL A   1      39.226  29.459  30.260  1.00  0.00     0.031 A 
ATOM     37  C   UNL A   1      39.641  30.164  31.528  1.00  0.00     0.074 A 
ATOM     38  C   UNL A   1      40.008  28.506  29.718  1.00  0.00     0.049 A 
ATOM     39  N   UNL A   1      40.722  30.002  32.245  1.00  0.00    -0.248 NA
ATOM     40  C   UNL A   1      38.744  31.218  32.036  1.00  0.00     0.031 C 
ATOM     41  C   UNL A   1      39.735  27.793  28.468  1.00  0.00     0.029 A 
ATOM     42  N   UNL A   1      41.194  27.972  30.152  1.00  0.00    -0.354 N 
ATOM     43  C   UNL A   1      40.645  30.946  33.264  1.00  0.00     0.074 A 
ATOM     44  C   UNL A   1      39.452  31.725  33.031  1.00  0.00     0.031 C 
ATOM     45  C   UNL A   1      40.698  26.881  28.262  1.00  0.00     0.029 A 
ATOM     46  C   UNL A   1      41.681  26.979  29.335  1.00  0.00     0.049 A 
ATOM     47  H   UNL A   1      41.652  28.270  30.970  1.00  0.00     0.167 HD
ATOM     48  C   UNL A   1      41.474  31.127  34.320  1.00  0.00     0.031 A 
ATOM     49  C   UNL A   1      42.795  26.231  29.441  1.00  0.00     0.031 A 
ATOM     50  C   UNL A   1      42.644  30.327  34.556  1.00  0.00     0.049 A 
ATOM     51  C   UNL A   1      43.700  26.446  30.624  1.00  0.00     0.074 A 
ATOM     52  C   UNL A   1      43.522  30.380  35.622  1.00  0.00     0.029 A 
ATOM     53  N   UNL A   1      43.095  29.321  33.713  1.00  0.00    -0.354 N 
ATOM     54  N   UNL A   1      43.577  27.300  31.612  1.00  0.00    -0.248 NA
ATOM     55  C   UNL A   1      44.887  25.586  30.713  1.00  0.00     0.031 C 
ATOM     56  C   UNL A   1      44.538  29.445  35.394  1.00  0.00     0.029 A 
ATOM     57  C   UNL A   1      44.252  28.761  34.222  1.00  0.00     0.049 A 
ATOM     58  H   UNL A   1      42.655  29.047  32.874  1.00  0.00     0.167 HD
ATOM     59  C   UNL A   1      44.652  27.058  32.459  1.00  0.00     0.074 A 
ATOM     60  C   UNL A   1      45.407  25.969  31.871  1.00  0.00     0.031 C 
ATOM     61  C   UNL A   1      44.985  27.676  33.619  1.00  0.00     0.031 A 
BRANCH  48  62
ATOM     62  C   UNL A   1      41.137  32.230  35.292  1.00  0.00    -0.014 A 
ATOM     63  C   UNL A   1      41.605  33.544  35.098  1.00  0.00     0.010 A 
ATOM     64  C   UNL A   1      40.319  31.958  36.403  1.00  0.00     0.010 A 
ATOM     65  C   UNL A   1      41.308  34.548  36.022  1.00  0.00     0.020 A 
ATOM     66  C   UNL A   1      39.988  32.969  37.311  1.00  0.00     0.020 A 
ATOM     67  C   UNL A   1      40.501  34.254  37.124  1.00  0.00     0.054 A 
BRANCH  67  68
ATOM     68  S   UNL A   1      40.115  35.581  38.297  1.00  0.00     0.124 S 
ATOM     69  O   UNL A   1      38.902  35.077  38.936  1.00  0.00    -0.237 OA
ATOM     70  O   UNL A   1      41.304  35.613  39.146  1.00  0.00    -0.237 OA
ATOM     71  O   UNL A   1      39.928  36.754  37.447  1.00  0.00    -0.744 OA
ENDBRANCH  67  68
ENDBRANCH  48  62
BRANCH  49  72
ATOM     72  C   UNL A   1      43.093  25.191  28.418  1.00  0.00    -0.014 A 
ATOM     73  C   UNL A   1      42.574  23.890  28.550  1.00  0.00     0.010 A 
ATOM     74  C   UNL A   1      43.875  25.501  27.290  1.00  0.00     0.010 A 
ATOM     75  C   UNL A   1      42.848  22.916  27.587  1.00  0.00     0.020 A 
ATOM     76  C   UNL A   1      44.126  24.537  26.309  1.00  0.00     0.020 A 
ATOM     77  C   UNL A   1      43.620  23.247  26.470  1.00  0.00     0.054 A 
BRANCH  77  78
ATOM     78  S   UNL A   1      43.920  21.977  25.209  1.00  0.00     0.124 S 
ATOM     79  O   UNL A   1      42.869  21.006  25.499  1.00  0.00    -0.237 OA
ATOM     80  O   UNL A   1      43.765  22.726  23.964  1.00  0.00    -0.237 OA
ATOM     81  O   UNL A   1      45.282  21.529  25.492  1.00  0.00    -0.744 OA
ENDBRANCH  77  78
ENDBRANCH  49  72
BRANCH  61  82
ATOM     82  C   UNL A   1      46.194  27.163  34.355  1.00  0.00    -0.014 A 
ATOM     83  C   UNL A   1      47.470  27.711  34.139  1.00  0.00     0.010 A 
ATOM     84  C   UNL A   1      46.034  26.155  35.324  1.00  0.00     0.010 A 
ATOM     85  C   UNL A   1      48.571  27.237  34.856  1.00  0.00     0.020 A 
ATOM     86  C   UNL A   1      47.125  25.702  36.066  1.00  0.00     0.020 A 
ATOM     87  C   UNL A   1      48.390  26.236  35.816  1.00  0.00     0.054 A 
BRANCH  87  88
ATOM     88  S   UNL A   1      49.829  25.672  36.766  1.00  0.00     0.124 S 
ATOM     89  O   UNL A   1      49.713  24.220  36.658  1.00  0.00    -0.237 OA
ATOM     90  O   UNL A   1      50.945  26.270  36.039  1.00  0.00    -0.237 OA
ATOM     91  O   UNL A   1      49.598  26.218  38.101  1.00  0.00    -0.744 OA
ENDBRANCH  87  88
ENDBRANCH  61  82
ENDBRANCH  35  36
ENDBRANCH  27  30
ENDBRANCH  25  26
ENDBRANCH   1  25
TORSDOF 16
ENDMDL
MODEL 3
REMARK VINA RESULT:     -10.9      3.173      9.114
REMARK SMILES CC[C@H]1CC[C@](C(=O)NCCCNC(=O)c2ccc(-c3c4nc(c(-c5ccc(S(=O)(=O)[O-])cc5)c5ccc([nH]5)c(-c5ccc(S(=O)(=O)[O-])cc5)c5nc(c(-c6ccc(S(=O)(=O)[O-])cc6)c6ccc3[nH]6)C=C5)C=C4)cc2)([C@H]2CCC[C@@H](S(C)(=O)=O)C2)CC1
REMARK SMILES IDX 11 1 10 2 9 3 7 4 8 5 6 7 3 8 87 9 4 10 86 11 5 12 2 13 1 14
REMARK SMILES IDX 76 15 77 16 85 17 78 18 80 19 79 20 81 21 82 22 83 23 84 24
REMARK SMILES IDX 12 25 13 26 14 27 15 29 16 30 17 31 75 32 18 33 74 34 19 35
REMARK SMILES IDX 20 36 21 37 68 38 22 39 73 40 67 41 69 42 23 43 72 44 66 45
REMARK SMILES IDX 65 46 24 48 54 49 35 50 53 51 36 52 39 53 52 54 70 55 37 56
REMARK SMILES IDX 38 57 51 59 71 60 40 61 25 62 26 63 34 64 27 65 33 66 28 67
REMARK SMILES IDX 29 68 30 69 31 70 32 71 55 72 56 73 64 74 57 75 63 76 58 77
REMARK SMILES IDX 59 78 60 79 61 80 62 81 41 82 42 83 50 84 43 85 49 86 44 87
REMARK SMILES IDX 45 88 46 89 47 90 48 91
REMARK H PARENT 9 6 13 28 69 47 39 58
REMARK Flexibility Score: inf
ROOT
ATOM      1  C   UNL A   1      35.829  22.769  24.915  1.00  0.00     0.042 C 
ENDROOT
BRANCH   1   2
ATOM      2  C   UNL A   1      34.546  22.504  25.672  1.00  0.00     0.117 C 
BRANCH   2   3
ATOM      3  N   UNL A   1      34.149  23.606  26.501  1.00  0.00    -0.356 N 
ATOM      4  C   UNL A   1      32.875  24.065  26.478  1.00  0.00     0.226 C 
ATOM      5  O   UNL A   1      32.098  23.656  27.343  1.00  0.00    -0.274 OA
ATOM      6  H   UNL A   1      34.808  24.032  27.093  1.00  0.00     0.163 HD
BRANCH   4   7
ATOM      7  C   UNL A   1      32.447  25.103  25.423  1.00  0.00     0.052 C 
ATOM      8  C   UNL A   1      31.883  23.325  22.937  1.00  0.00    -0.011 C 
ATOM      9  C   UNL A   1      31.028  23.311  24.219  1.00  0.00     0.005 C 
ATOM     10  C   UNL A   1      33.169  24.155  23.045  1.00  0.00     0.005 C 
ATOM     11  C   UNL A   1      31.017  24.652  24.989  1.00  0.00     0.017 C 
ATOM     12  C   UNL A   1      33.244  25.247  24.102  1.00  0.00     0.017 C 
BRANCH   8  13
ATOM     13  C   UNL A   1      32.285  21.912  22.422  1.00  0.00    -0.000 C 
ATOM     14  C   UNL A   1      32.341  20.816  23.465  1.00  0.00     0.004 C 
ENDBRANCH   8  13
BRANCH   7  15
ATOM     15  C   UNL A   1      32.452  26.559  26.125  1.00  0.00     0.006 C 
ATOM     16  C   UNL A   1      33.700  27.453  25.954  1.00  0.00     0.005 C 
ATOM     17  C   UNL A   1      31.174  27.445  25.983  1.00  0.00     0.024 C 
ATOM     18  C   UNL A   1      33.655  28.468  24.805  1.00  0.00     0.002 C 
ATOM     19  C   UNL A   1      31.090  28.470  24.838  1.00  0.00     0.108 C 
ATOM     20  C   UNL A   1      32.371  29.289  24.723  1.00  0.00     0.020 C 
BRANCH  19  21
ATOM     21  S   UNL A   1      30.496  27.802  23.267  1.00  0.00     0.150 S 
ATOM     22  C   UNL A   1      29.836  29.181  22.373  1.00  0.00     0.158 C 
ATOM     23  O   UNL A   1      31.611  27.320  22.476  1.00  0.00    -0.229 OA
ATOM     24  O   UNL A   1      29.351  26.949  23.533  1.00  0.00    -0.229 OA
ENDBRANCH  19  21
ENDBRANCH   7  15
ENDBRANCH   4   7
ENDBRANCH   2   3
ENDBRANCH   1   2
BRANCH   1  25
ATOM     25  C   UNL A   1      36.926  23.262  25.837  1.00  0.00     0.118 C 
BRANCH  25  26
ATOM     26  N   UNL A   1      37.885  22.199  26.133  1.00  0.00    -0.352 N 
ATOM     27  C   UNL A   1      39.237  22.255  26.366  1.00  0.00     0.251 C 
ATOM     28  H   UNL A   1      37.498  21.295  26.172  1.00  0.00     0.163 HD
ATOM     29  O   UNL A   1      39.916  21.242  26.227  1.00  0.00    -0.269 OA
BRANCH  27  30
ATOM     30  C   UNL A   1      39.870  23.520  26.794  1.00  0.00     0.039 A 
ATOM     31  C   UNL A   1      40.570  23.572  28.001  1.00  0.00     0.014 A 
ATOM     32  C   UNL A   1      39.716  24.679  26.033  1.00  0.00     0.014 A 
ATOM     33  C   UNL A   1      41.143  24.776  28.417  1.00  0.00     0.010 A 
ATOM     34  C   UNL A   1      40.404  25.833  26.371  1.00  0.00     0.010 A 
ATOM     35  C   UNL A   1      41.086  25.910  27.590  1.00  0.00    -0.014 A 
BRANCH  35  36
ATOM     36  C   UNL A   1      41.671  27.211  27.999  1.00  0.00     0.031 A 
ATOM     37  C   UNL A   1      43.162  27.422  27.904  1.00  0.00     0.074 A 
ATOM     38  C   UNL A   1      40.875  28.169  28.511  1.00  0.00     0.049 A 
ATOM     39  N   UNL A   1      43.874  28.455  28.272  1.00  0.00    -0.248 NA
ATOM     40  C   UNL A   1      43.966  26.310  27.361  1.00  0.00     0.031 C 
ATOM     41  C   UNL A   1      39.427  28.058  28.701  1.00  0.00     0.029 A 
ATOM     42  N   UNL A   1      41.173  29.428  28.967  1.00  0.00    -0.354 N 
ATOM     43  C   UNL A   1      45.200  28.106  28.031  1.00  0.00     0.074 A 
ATOM     44  C   UNL A   1      45.200  26.742  27.557  1.00  0.00     0.031 C 
ATOM     45  C   UNL A   1      38.957  29.218  29.185  1.00  0.00     0.029 A 
ATOM     46  C   UNL A   1      40.073  30.135  29.389  1.00  0.00     0.049 A 
ATOM     47  H   UNL A   1      42.088  29.790  28.988  1.00  0.00     0.167 HD
ATOM     48  C   UNL A   1      46.315  28.863  28.160  1.00  0.00     0.031 A 
ATOM     49  C   UNL A   1      39.975  31.383  29.883  1.00  0.00     0.031 A 
ATOM     50  C   UNL A   1      46.299  30.229  28.606  1.00  0.00     0.049 A 
ATOM     51  C   UNL A   1      41.226  32.209  30.014  1.00  0.00     0.074 A 
ATOM     52  C   UNL A   1      47.359  31.110  28.718  1.00  0.00     0.029 A 
ATOM     53  N   UNL A   1      45.162  30.913  29.011  1.00  0.00    -0.354 N 
ATOM     54  N   UNL A   1      42.463  31.883  29.721  1.00  0.00    -0.248 NA
ATOM     55  C   UNL A   1      41.066  33.574  30.530  1.00  0.00     0.031 C 
ATOM     56  C   UNL A   1      46.869  32.310  29.245  1.00  0.00     0.029 A 
ATOM     57  C   UNL A   1      45.496  32.199  29.395  1.00  0.00     0.049 A 
ATOM     58  H   UNL A   1      44.251  30.537  29.023  1.00  0.00     0.167 HD
ATOM     59  C   UNL A   1      43.225  33.016  29.985  1.00  0.00     0.074 A 
ATOM     60  C   UNL A   1      42.306  34.036  30.449  1.00  0.00     0.031 C 
ATOM     61  C   UNL A   1      44.562  33.198  29.852  1.00  0.00     0.031 A 
BRANCH  48  62
ATOM     62  C   UNL A   1      47.637  28.226  27.810  1.00  0.00    -0.014 A 
ATOM     63  C   UNL A   1      48.150  28.278  26.500  1.00  0.00     0.010 A 
ATOM     64  C   UNL A   1      48.392  27.586  28.811  1.00  0.00     0.010 A 
ATOM     65  C   UNL A   1      49.362  27.659  26.186  1.00  0.00     0.020 A 
ATOM     66  C   UNL A   1      49.623  26.996  28.509  1.00  0.00     0.020 A 
ATOM     67  C   UNL A   1      50.091  27.020  27.193  1.00  0.00     0.054 A 
BRANCH  67  68
ATOM     68  S   UNL A   1      51.671  26.242  26.761  1.00  0.00     0.124 S 
ATOM     69  O   UNL A   1      51.307  24.828  26.712  1.00  0.00    -0.237 OA
ATOM     70  O   UNL A   1      51.985  26.854  25.472  1.00  0.00    -0.237 OA
ATOM     71  O   UNL A   1      52.557  26.618  27.859  1.00  0.00    -0.744 OA
ENDBRANCH  67  68
ENDBRANCH  48  62
BRANCH  49  72
ATOM     72  C   UNL A   1      38.643  31.933  30.256  1.00  0.00    -0.014 A 
ATOM     73  C   UNL A   1      38.154  31.793  31.567  1.00  0.00     0.010 A 
ATOM     74  C   UNL A   1      37.865  32.626  29.310  1.00  0.00     0.010 A 
ATOM     75  C   UNL A   1      36.906  32.315  31.919  1.00  0.00     0.020 A 
ATOM     76  C   UNL A   1      36.630  33.176  29.666  1.00  0.00     0.020 A 
ATOM     77  C   UNL A   1      36.153  33.006  30.966  1.00  0.00     0.054 A 
BRANCH  77  78
ATOM     78  S   UNL A   1      34.559  33.717  31.461  1.00  0.00     0.124 S 
ATOM     79  O   UNL A   1      33.872  33.845  30.180  1.00  0.00    -0.237 OA
ATOM     80  O   UNL A   1      34.028  32.701  32.367  1.00  0.00    -0.237 OA
ATOM     81  O   UNL A   1      34.930  34.978  32.101  1.00  0.00    -0.744 OA
ENDBRANCH  77  78
ENDBRANCH  49  72
BRANCH  61  82
ATOM     82  C   UNL A   1      45.110  34.563  30.172  1.00  0.00    -0.014 A 
ATOM     83  C   UNL A   1      45.582  34.881  31.457  1.00  0.00     0.010 A 
ATOM     84  C   UNL A   1      45.208  35.523  29.146  1.00  0.00     0.010 A 
ATOM     85  C   UNL A   1      46.112  36.146  31.720  1.00  0.00     0.020 A 
ATOM     86  C   UNL A   1      45.768  36.776  29.397  1.00  0.00     0.020 A 
ATOM     87  C   UNL A   1      46.203  37.085  30.687  1.00  0.00     0.054 A 
BRANCH  87  88
ATOM     88  S   UNL A   1      46.938  38.704  31.045  1.00  0.00     0.124 S 
ATOM     89  O   UNL A   1      48.211  38.623  30.333  1.00  0.00    -0.237 OA
ATOM     90  O   UNL A   1      45.959  39.630  30.482  1.00  0.00    -0.237 OA
ATOM     91  O   UNL A   1      47.040  38.724  32.502  1.00  0.00    -0.744 OA
ENDBRANCH  87  88
ENDBRANCH  61  82
ENDBRANCH  35  36
ENDBRANCH  27  30
ENDBRANCH  25  26
ENDBRANCH   1  25
TORSDOF 16
ENDMDL
