MODEL 1
REMARK VINA RESULT:     -10.5      0.000      0.000
REMARK SMILES COc1cc(C(=O)NCCCNC(=O)c2ccc(-c3c4nc(c(-c5ccc(S(=O)(=O)[O-])cc5)c5ccc([nH]5)c(-c5ccc(S(=O)(=O)[O-])cc5)c5nc(c(-c6ccc(S(=O)(=O)[O-])cc6)c6ccc3[nH]6)C=C5)C=C4)cc2)c([N+](=O)[O-])cc1OCC[NH+](C)C
REMARK SMILES IDX 9 1 8 2 6 3 7 4 5 6 3 7 4 8 80 9 79 10 75 11 2 12 1 13 81 14
REMARK SMILES IDX 82 15 83 16 84 17 85 18 86 19 76 21 77 22 78 23 10 24 11 25
REMARK SMILES IDX 12 26 13 27 14 29 15 30 16 31 74 32 17 33 73 34 18 35 19 36
REMARK SMILES IDX 20 37 67 38 21 39 72 40 66 41 68 42 22 43 71 44 65 45 64 46
REMARK SMILES IDX 23 48 53 49 34 50 52 51 35 52 38 53 51 54 69 55 36 56 37 57
REMARK SMILES IDX 50 59 70 60 39 61 24 62 25 63 33 64 26 65 32 66 27 67 28 68
REMARK SMILES IDX 29 69 30 70 31 71 54 72 55 73 63 74 56 75 62 76 57 77 58 78
REMARK SMILES IDX 59 79 60 80 61 81 40 82 41 83 49 84 42 85 48 86 43 87 44 88
REMARK SMILES IDX 45 89 46 90 47 91
REMARK H PARENT 8 5 84 20 12 28 68 47 38 58
REMARK Flexibility Score: inf
ROOT
ATOM      1  C   UNL A   1      33.645  28.898  25.598  1.00  0.00     0.118 C 
ENDROOT
BRANCH   1   2
ATOM      2  N   UNL A   1      32.308  28.422  25.269  1.00  0.00    -0.352 N 
ATOM      3  C   UNL A   1      31.854  27.180  24.892  1.00  0.00     0.258 C 
ATOM      4  O   UNL A   1      30.655  27.013  24.682  1.00  0.00    -0.269 OA
ATOM      5  H   UNL A   1      31.606  29.111  25.326  1.00  0.00     0.163 HD
BRANCH   3   6
ATOM      6  C   UNL A   1      32.783  26.050  24.653  1.00  0.00     0.121 A 
ATOM      7  C   UNL A   1      34.001  24.158  25.607  1.00  0.00     0.162 A 
ATOM      8  C   UNL A   1      33.163  25.273  25.767  1.00  0.00     0.071 A 
ATOM      9  C   UNL A   1      34.426  23.790  24.325  1.00  0.00     0.168 A 
ATOM     10  C   UNL A   1      34.008  24.519  23.215  1.00  0.00     0.136 A 
ATOM     11  C   UNL A   1      33.283  25.697  23.399  1.00  0.00     0.286 A 
BRANCH   7  12
ATOM     12  O   UNL A   1      34.253  23.358  26.688  1.00  0.00    -0.493 OA
ATOM     13  C   UNL A   1      33.317  22.289  26.824  1.00  0.00     0.278 C 
ENDBRANCH   7  12
BRANCH   9  14
ATOM     14  O   UNL A   1      35.247  22.744  24.025  1.00  0.00    -0.484 OA
BRANCH  14  15
ATOM     15  C   UNL A   1      36.653  23.019  24.084  1.00  0.00     0.291 C 
BRANCH  15  16
ATOM     16  C   UNL A   1      37.560  22.177  25.030  1.00  0.00     0.303 C 
BRANCH  16  17
ATOM     17  N   UNL A   1      38.697  22.890  25.649  1.00  0.00    -0.337 N 
ATOM     18  C   UNL A   1      38.276  23.986  26.524  1.00  0.00     0.332 C 
ATOM     19  C   UNL A   1      39.549  21.986  26.426  1.00  0.00     0.332 C 
ATOM     20  H   UNL A   1      39.222  23.277  24.864  1.00  0.00     0.347 HD
ENDBRANCH  16  17
ENDBRANCH  15  16
ENDBRANCH  14  15
ENDBRANCH   9  14
BRANCH  11  21
ATOM     21  N   UNL A   1      33.226  26.610  22.270  1.00  0.00     0.063 N 
ATOM     22  O   UNL A   1      33.880  27.657  22.345  1.00  0.00    -0.258 OA
ATOM     23  O   UNL A   1      32.561  26.252  21.289  1.00  0.00    -0.258 OA
ENDBRANCH  11  21
ENDBRANCH   3   6
ENDBRANCH   1   2
BRANCH   1  24
ATOM     24  C   UNL A   1      34.115  28.576  27.001  1.00  0.00     0.042 C 
BRANCH  24  25
ATOM     25  C   UNL A   1      35.355  29.325  27.449  1.00  0.00     0.118 C 
BRANCH  25  26
ATOM     26  N   UNL A   1      35.343  29.701  28.857  1.00  0.00    -0.352 N 
ATOM     27  C   UNL A   1      36.355  29.819  29.784  1.00  0.00     0.251 C 
ATOM     28  H   UNL A   1      34.447  29.909  29.209  1.00  0.00     0.163 HD
ATOM     29  O   UNL A   1      36.068  30.047  30.953  1.00  0.00    -0.269 OA
BRANCH  27  30
ATOM     30  C   UNL A   1      37.775  29.631  29.398  1.00  0.00     0.039 A 
ATOM     31  C   UNL A   1      38.711  29.322  30.389  1.00  0.00     0.014 A 
ATOM     32  C   UNL A   1      38.197  29.759  28.077  1.00  0.00     0.014 A 
ATOM     33  C   UNL A   1      40.037  29.055  30.035  1.00  0.00     0.010 A 
ATOM     34  C   UNL A   1      39.474  29.352  27.709  1.00  0.00     0.010 A 
ATOM     35  C   UNL A   1      40.420  29.012  28.683  1.00  0.00    -0.014 A 
BRANCH  35  36
ATOM     36  C   UNL A   1      41.799  28.634  28.276  1.00  0.00     0.031 A 
ATOM     37  C   UNL A   1      42.888  29.676  28.204  1.00  0.00     0.074 A 
ATOM     38  C   UNL A   1      42.062  27.361  27.913  1.00  0.00     0.049 A 
ATOM     39  N   UNL A   1      44.141  29.537  27.851  1.00  0.00    -0.248 NA
ATOM     40  C   UNL A   1      42.516  31.063  28.535  1.00  0.00     0.031 C 
ATOM     41  C   UNL A   1      41.082  26.271  27.867  1.00  0.00     0.029 A 
ATOM     42  N   UNL A   1      43.233  26.765  27.516  1.00  0.00    -0.354 N 
ATOM     43  C   UNL A   1      44.694  30.813  27.897  1.00  0.00     0.074 A 
ATOM     44  C   UNL A   1      43.626  31.722  28.242  1.00  0.00     0.031 C 
ATOM     45  C   UNL A   1      41.703  25.133  27.518  1.00  0.00     0.029 A 
ATOM     46  C   UNL A   1      43.111  25.417  27.269  1.00  0.00     0.049 A 
ATOM     47  H   UNL A   1      44.081  27.255  27.419  1.00  0.00     0.167 HD
ATOM     48  C   UNL A   1      45.978  31.193  27.701  1.00  0.00     0.031 A 
ATOM     49  C   UNL A   1      44.030  24.508  26.887  1.00  0.00     0.031 A 
ATOM     50  C   UNL A   1      47.044  30.282  27.379  1.00  0.00     0.049 A 
ATOM     51  C   UNL A   1      45.454  24.948  26.696  1.00  0.00     0.074 A 
ATOM     52  C   UNL A   1      48.392  30.553  27.229  1.00  0.00     0.029 A 
ATOM     53  N   UNL A   1      46.882  28.923  27.155  1.00  0.00    -0.354 N 
ATOM     54  N   UNL A   1      45.971  26.148  26.829  1.00  0.00    -0.248 NA
ATOM     55  C   UNL A   1      46.423  23.909  26.325  1.00  0.00     0.031 C 
ATOM     56  C   UNL A   1      49.037  29.369  26.856  1.00  0.00     0.029 A 
ATOM     57  C   UNL A   1      48.101  28.347  26.841  1.00  0.00     0.049 A 
ATOM     58  H   UNL A   1      46.025  28.440  27.211  1.00  0.00     0.167 HD
ATOM     59  C   UNL A   1      47.331  26.002  26.578  1.00  0.00     0.074 A 
ATOM     60  C   UNL A   1      47.557  24.595  26.314  1.00  0.00     0.031 C 
ATOM     61  C   UNL A   1      48.306  26.947  26.566  1.00  0.00     0.031 A 
BRANCH  48  62
ATOM     62  C   UNL A   1      46.299  32.662  27.831  1.00  0.00    -0.014 A 
ATOM     63  C   UNL A   1      46.251  33.522  26.718  1.00  0.00     0.010 A 
ATOM     64  C   UNL A   1      46.623  33.198  29.091  1.00  0.00     0.010 A 
ATOM     65  C   UNL A   1      46.566  34.877  26.854  1.00  0.00     0.020 A 
ATOM     66  C   UNL A   1      46.905  34.559  29.238  1.00  0.00     0.020 A 
ATOM     67  C   UNL A   1      46.892  35.387  28.114  1.00  0.00     0.054 A 
BRANCH  67  68
ATOM     68  S   UNL A   1      47.271  37.155  28.263  1.00  0.00     0.124 S 
ATOM     69  O   UNL A   1      48.672  37.198  27.850  1.00  0.00    -0.237 OA
ATOM     70  O   UNL A   1      46.323  37.764  27.333  1.00  0.00    -0.237 OA
ATOM     71  O   UNL A   1      47.028  37.444  29.674  1.00  0.00    -0.744 OA
ENDBRANCH  67  68
ENDBRANCH  48  62
BRANCH  49  72
ATOM     72  C   UNL A   1      43.632  23.086  26.688  1.00  0.00    -0.014 A 
ATOM     73  C   UNL A   1      43.814  22.456  25.443  1.00  0.00     0.010 A 
ATOM     74  C   UNL A   1      43.082  22.345  27.751  1.00  0.00     0.010 A 
ATOM     75  C   UNL A   1      43.437  21.122  25.260  1.00  0.00     0.020 A 
ATOM     76  C   UNL A   1      42.732  21.002  27.581  1.00  0.00     0.020 A 
ATOM     77  C   UNL A   1      42.901  20.403  26.332  1.00  0.00     0.054 A 
BRANCH  77  78
ATOM     78  S   UNL A   1      42.470  18.657  26.085  1.00  0.00     0.124 S 
ATOM     79  O   UNL A   1      42.735  18.089  27.402  1.00  0.00    -0.237 OA
ATOM     80  O   UNL A   1      41.062  18.733  25.698  1.00  0.00    -0.237 OA
ATOM     81  O   UNL A   1      43.377  18.228  25.023  1.00  0.00    -0.744 OA
ENDBRANCH  77  78
ENDBRANCH  49  72
BRANCH  61  82
ATOM     82  C   UNL A   1      49.711  26.480  26.284  1.00  0.00    -0.014 A 
ATOM     83  C   UNL A   1      50.499  25.885  27.285  1.00  0.00     0.010 A 
ATOM     84  C   UNL A   1      50.242  26.626  24.989  1.00  0.00     0.010 A 
ATOM     85  C   UNL A   1      51.812  25.494  27.009  1.00  0.00     0.020 A 
ATOM     86  C   UNL A   1      51.541  26.203  24.700  1.00  0.00     0.020 A 
ATOM     87  C   UNL A   1      52.326  25.662  25.720  1.00  0.00     0.054 A 
BRANCH  87  88
ATOM     88  S   UNL A   1      54.031  25.142  25.386  1.00  0.00     0.124 S 
ATOM     89  O   UNL A   1      54.671  25.354  26.681  1.00  0.00    -0.237 OA
ATOM     90  O   UNL A   1      53.868  23.747  24.986  1.00  0.00    -0.237 OA
ATOM     91  O   UNL A   1      54.466  26.043  24.321  1.00  0.00    -0.744 OA
ENDBRANCH  87  88
ENDBRANCH  61  82
ENDBRANCH  35  36
ENDBRANCH  27  30
ENDBRANCH  25  26
ENDBRANCH  24  25
ENDBRANCH   1  24
TORSDOF 19
ENDMDL
MODEL 2
REMARK VINA RESULT:     -10.1      5.466      6.741
REMARK SMILES COc1cc(C(=O)NCCCNC(=O)c2ccc(-c3c4nc(c(-c5ccc(S(=O)(=O)[O-])cc5)c5ccc([nH]5)c(-c5ccc(S(=O)(=O)[O-])cc5)c5nc(c(-c6ccc(S(=O)(=O)[O-])cc6)c6ccc3[nH]6)C=C5)C=C4)cc2)c([N+](=O)[O-])cc1OCC[NH+](C)C
REMARK SMILES IDX 9 1 8 2 6 3 7 4 5 6 3 7 4 8 80 9 79 10 75 11 2 12 1 13 81 14
REMARK SMILES IDX 82 15 83 16 84 17 85 18 86 19 76 21 77 22 78 23 10 24 11 25
REMARK SMILES IDX 12 26 13 27 14 29 15 30 16 31 74 32 17 33 73 34 18 35 19 36
REMARK SMILES IDX 20 37 67 38 21 39 72 40 66 41 68 42 22 43 71 44 65 45 64 46
REMARK SMILES IDX 23 48 53 49 34 50 52 51 35 52 38 53 51 54 69 55 36 56 37 57
REMARK SMILES IDX 50 59 70 60 39 61 24 62 25 63 33 64 26 65 32 66 27 67 28 68
REMARK SMILES IDX 29 69 30 70 31 71 54 72 55 73 63 74 56 75 62 76 57 77 58 78
REMARK SMILES IDX 59 79 60 80 61 81 40 82 41 83 49 84 42 85 48 86 43 87 44 88
REMARK SMILES IDX 45 89 46 90 47 91
REMARK H PARENT 8 5 84 20 12 28 68 47 38 58
REMARK Flexibility Score: inf
ROOT
ATOM      1  C   UNL A   1      33.981  26.524  25.270  1.00  0.00     0.118 C 
ENDROOT
BRANCH   1   2
ATOM      2  N   UNL A   1      33.938  26.207  23.848  1.00  0.00    -0.352 N 
ATOM      3  C   UNL A   1      33.766  25.012  23.190  1.00  0.00     0.258 C 
ATOM      4  O   UNL A   1      33.746  24.996  21.961  1.00  0.00    -0.269 OA
ATOM      5  H   UNL A   1      34.053  26.985  23.255  1.00  0.00     0.163 HD
BRANCH   3   6
ATOM      6  C   UNL A   1      33.684  23.724  23.919  1.00  0.00     0.121 A 
ATOM      7  C   UNL A   1      32.274  22.142  25.136  1.00  0.00     0.162 A 
ATOM      8  C   UNL A   1      32.437  23.370  24.474  1.00  0.00     0.071 A 
ATOM      9  C   UNL A   1      33.346  21.246  25.206  1.00  0.00     0.168 A 
ATOM     10  C   UNL A   1      34.564  21.566  24.611  1.00  0.00     0.136 A 
ATOM     11  C   UNL A   1      34.751  22.838  24.070  1.00  0.00     0.286 A 
BRANCH   7  12
ATOM     12  O   UNL A   1      31.023  21.778  25.558  1.00  0.00    -0.493 OA
ATOM     13  C   UNL A   1      30.403  22.762  26.383  1.00  0.00     0.278 C 
ENDBRANCH   7  12
BRANCH   9  14
ATOM     14  O   UNL A   1      33.334  20.031  25.825  1.00  0.00    -0.484 OA
BRANCH  14  15
ATOM     15  C   UNL A   1      32.678  18.975  25.112  1.00  0.00     0.291 C 
BRANCH  15  16
ATOM     16  C   UNL A   1      32.721  17.525  25.679  1.00  0.00     0.303 C 
BRANCH  16  17
ATOM     17  N   UNL A   1      32.708  16.434  24.682  1.00  0.00    -0.337 N 
ATOM     18  C   UNL A   1      33.871  16.459  23.792  1.00  0.00     0.332 C 
ATOM     19  C   UNL A   1      32.649  15.114  25.319  1.00  0.00     0.332 C 
ATOM     20  H   UNL A   1      31.865  16.593  24.130  1.00  0.00     0.347 HD
ENDBRANCH  16  17
ENDBRANCH  15  16
ENDBRANCH  14  15
ENDBRANCH   9  14
BRANCH  11  21
ATOM     21  N   UNL A   1      36.124  23.251  23.837  1.00  0.00     0.063 N 
ATOM     22  O   UNL A   1      36.731  23.785  24.774  1.00  0.00    -0.258 OA
ATOM     23  O   UNL A   1      36.609  22.996  22.726  1.00  0.00    -0.258 OA
ENDBRANCH  11  21
ENDBRANCH   3   6
ENDBRANCH   1   2
BRANCH   1  24
ATOM     24  C   UNL A   1      33.558  27.932  25.628  1.00  0.00     0.042 C 
BRANCH  24  25
ATOM     25  C   UNL A   1      34.527  28.685  26.519  1.00  0.00     0.118 C 
BRANCH  25  26
ATOM     26  N   UNL A   1      34.127  30.057  26.802  1.00  0.00    -0.352 N 
ATOM     27  C   UNL A   1      34.640  31.005  27.660  1.00  0.00     0.251 C 
ATOM     28  H   UNL A   1      33.347  30.363  26.284  1.00  0.00     0.163 HD
ATOM     29  O   UNL A   1      34.046  32.067  27.799  1.00  0.00    -0.269 OA
BRANCH  27  30
ATOM     30  C   UNL A   1      35.869  30.741  28.448  1.00  0.00     0.039 A 
ATOM     31  C   UNL A   1      35.855  29.722  29.404  1.00  0.00     0.014 A 
ATOM     32  C   UNL A   1      37.032  31.486  28.261  1.00  0.00     0.014 A 
ATOM     33  C   UNL A   1      37.026  29.399  30.095  1.00  0.00     0.010 A 
ATOM     34  C   UNL A   1      38.227  31.070  28.837  1.00  0.00     0.010 A 
ATOM     35  C   UNL A   1      38.240  30.033  29.777  1.00  0.00    -0.014 A 
BRANCH  35  36
ATOM     36  C   UNL A   1      39.518  29.639  30.427  1.00  0.00     0.031 A 
ATOM     37  C   UNL A   1      40.024  30.387  31.636  1.00  0.00     0.074 A 
ATOM     38  C   UNL A   1      40.257  28.643  29.895  1.00  0.00     0.049 A 
ATOM     39  N   UNL A   1      41.124  30.200  32.322  1.00  0.00    -0.248 NA
ATOM     40  C   UNL A   1      39.209  31.516  32.119  1.00  0.00     0.031 C 
ATOM     41  C   UNL A   1      39.919  27.887  28.685  1.00  0.00     0.029 A 
ATOM     42  N   UNL A   1      41.446  28.091  30.304  1.00  0.00    -0.354 N 
ATOM     43  C   UNL A   1      41.140  31.195  33.294  1.00  0.00     0.074 A 
ATOM     44  C   UNL A   1      39.980  32.026  33.067  1.00  0.00     0.031 C 
ATOM     45  C   UNL A   1      40.848  26.939  28.482  1.00  0.00     0.029 A 
ATOM     46  C   UNL A   1      41.871  27.047  29.516  1.00  0.00     0.049 A 
ATOM     47  H   UNL A   1      41.946  28.412  31.089  1.00  0.00     0.167 HD
ATOM     48  C   UNL A   1      42.022  31.386  34.304  1.00  0.00     0.031 A 
ATOM     49  C   UNL A   1      42.960  26.260  29.614  1.00  0.00     0.031 A 
ATOM     50  C   UNL A   1      43.164  30.544  34.540  1.00  0.00     0.049 A 
ATOM     51  C   UNL A   1      43.914  26.475  30.755  1.00  0.00     0.074 A 
ATOM     52  C   UNL A   1      44.080  30.606  35.575  1.00  0.00     0.029 A 
ATOM     53  N   UNL A   1      43.548  29.486  33.729  1.00  0.00    -0.354 N 
ATOM     54  N   UNL A   1      43.864  27.371  31.714  1.00  0.00    -0.248 NA
ATOM     55  C   UNL A   1      45.060  25.561  30.840  1.00  0.00     0.031 C 
ATOM     56  C   UNL A   1      45.052  29.625  35.359  1.00  0.00     0.029 A 
ATOM     57  C   UNL A   1      44.703  28.905  34.226  1.00  0.00     0.049 A 
ATOM     58  H   UNL A   1      43.070  29.192  32.921  1.00  0.00     0.167 HD
ATOM     59  C   UNL A   1      44.960  27.113  32.529  1.00  0.00     0.074 A 
ATOM     60  C   UNL A   1      45.637  25.962  31.965  1.00  0.00     0.031 C 
ATOM     61  C   UNL A   1      45.372  27.769  33.644  1.00  0.00     0.031 A 
BRANCH  48  62
ATOM     62  C   UNL A   1      41.781  32.553  35.229  1.00  0.00    -0.014 A 
ATOM     63  C   UNL A   1      42.398  33.799  35.010  1.00  0.00     0.010 A 
ATOM     64  C   UNL A   1      40.900  32.413  36.317  1.00  0.00     0.010 A 
ATOM     65  C   UNL A   1      42.176  34.865  35.886  1.00  0.00     0.020 A 
ATOM     66  C   UNL A   1      40.648  33.487  37.176  1.00  0.00     0.020 A 
ATOM     67  C   UNL A   1      41.302  34.702  36.965  1.00  0.00     0.054 A 
BRANCH  67  68
ATOM     68  S   UNL A   1      41.014  36.111  38.069  1.00  0.00     0.124 S 
ATOM     69  O   UNL A   1      39.830  36.725  37.472  1.00  0.00    -0.237 OA
ATOM     70  O   UNL A   1      40.802  35.465  39.362  1.00  0.00    -0.237 OA
ATOM     71  O   UNL A   1      42.243  36.894  37.962  1.00  0.00    -0.744 OA
ENDBRANCH  67  68
ENDBRANCH  48  62
BRANCH  49  72
ATOM     72  C   UNL A   1      43.189  25.178  28.615  1.00  0.00    -0.014 A 
ATOM     73  C   UNL A   1      42.545  23.934  28.742  1.00  0.00     0.010 A 
ATOM     74  C   UNL A   1      44.043  25.393  27.516  1.00  0.00     0.010 A 
ATOM     75  C   UNL A   1      42.765  22.920  27.804  1.00  0.00     0.020 A 
ATOM     76  C   UNL A   1      44.241  24.393  26.559  1.00  0.00     0.020 A 
ATOM     77  C   UNL A   1      43.609  23.159  26.716  1.00  0.00     0.054 A 
BRANCH  77  78
ATOM     78  S   UNL A   1      43.837  21.847  25.482  1.00  0.00     0.124 S 
ATOM     79  O   UNL A   1      45.265  21.573  25.589  1.00  0.00    -0.237 OA
ATOM     80  O   UNL A   1      42.951  20.795  25.975  1.00  0.00    -0.237 OA
ATOM     81  O   UNL A   1      43.411  22.475  24.233  1.00  0.00    -0.744 OA
ENDBRANCH  77  78
ENDBRANCH  49  72
BRANCH  61  82
ATOM     82  C   UNL A   1      46.597  27.237  34.340  1.00  0.00    -0.014 A 
ATOM     83  C   UNL A   1      47.883  27.710  34.022  1.00  0.00     0.010 A 
ATOM     84  C   UNL A   1      46.455  26.260  35.343  1.00  0.00     0.010 A 
ATOM     85  C   UNL A   1      49.009  27.175  34.655  1.00  0.00     0.020 A 
ATOM     86  C   UNL A   1      47.575  25.750  36.004  1.00  0.00     0.020 A 
ATOM     87  C   UNL A   1      48.847  26.194  35.638  1.00  0.00     0.054 A 
BRANCH  87  88
ATOM     88  S   UNL A   1      50.321  25.519  36.448  1.00  0.00     0.124 S 
ATOM     89  O   UNL A   1      50.778  24.532  35.473  1.00  0.00    -0.237 OA
ATOM     90  O   UNL A   1      51.173  26.697  36.597  1.00  0.00    -0.237 OA
ATOM     91  O   UNL A   1      49.808  24.966  37.700  1.00  0.00    -0.744 OA
ENDBRANCH  87  88
ENDBRANCH  61  82
ENDBRANCH  35  36
ENDBRANCH  27  30
ENDBRANCH  25  26
ENDBRANCH  24  25
ENDBRANCH   1  24
TORSDOF 19
ENDMDL
MODEL 3
REMARK VINA RESULT:     -10.1      2.116      8.838
REMARK SMILES COc1cc(C(=O)NCCCNC(=O)c2ccc(-c3c4nc(c(-c5ccc(S(=O)(=O)[O-])cc5)c5ccc([nH]5)c(-c5ccc(S(=O)(=O)[O-])cc5)c5nc(c(-c6ccc(S(=O)(=O)[O-])cc6)c6ccc3[nH]6)C=C5)C=C4)cc2)c([N+](=O)[O-])cc1OCC[NH+](C)C
REMARK SMILES IDX 9 1 8 2 6 3 7 4 5 6 3 7 4 8 80 9 79 10 75 11 2 12 1 13 81 14
REMARK SMILES IDX 82 15 83 16 84 17 85 18 86 19 76 21 77 22 78 23 10 24 11 25
REMARK SMILES IDX 12 26 13 27 14 29 15 30 16 31 74 32 17 33 73 34 18 35 19 36
REMARK SMILES IDX 20 37 67 38 21 39 72 40 66 41 68 42 22 43 71 44 65 45 64 46
REMARK SMILES IDX 23 48 53 49 34 50 52 51 35 52 38 53 51 54 69 55 36 56 37 57
REMARK SMILES IDX 50 59 70 60 39 61 24 62 25 63 33 64 26 65 32 66 27 67 28 68
REMARK SMILES IDX 29 69 30 70 31 71 54 72 55 73 63 74 56 75 62 76 57 77 58 78
REMARK SMILES IDX 59 79 60 80 61 81 40 82 41 83 49 84 42 85 48 86 43 87 44 88
REMARK SMILES IDX 45 89 46 90 47 91
REMARK H PARENT 8 5 84 20 12 28 68 47 38 58
REMARK Flexibility Score: inf
ROOT
ATOM      1  C   UNL A   1      36.318  21.105  25.601  1.00  0.00     0.118 C 
ENDROOT
BRANCH   1   2
ATOM      2  N   UNL A   1      35.260  20.340  24.954  1.00  0.00    -0.352 N 
ATOM      3  C   UNL A   1      33.978  20.686  24.597  1.00  0.00     0.258 C 
ATOM      4  O   UNL A   1      33.264  19.861  24.034  1.00  0.00    -0.269 OA
ATOM      5  H   UNL A   1      35.507  19.413  24.733  1.00  0.00     0.163 HD
BRANCH   3   6
ATOM      6  C   UNL A   1      33.401  22.006  24.946  1.00  0.00     0.121 A 
ATOM      7  C   UNL A   1      31.922  23.273  26.424  1.00  0.00     0.162 A 
ATOM      8  C   UNL A   1      32.472  22.050  26.007  1.00  0.00     0.071 A 
ATOM      9  C   UNL A   1      32.334  24.461  25.810  1.00  0.00     0.168 A 
ATOM     10  C   UNL A   1      33.293  24.431  24.801  1.00  0.00     0.136 A 
ATOM     11  C   UNL A   1      33.735  23.202  24.310  1.00  0.00     0.286 A 
BRANCH   7  12
ATOM     12  O   UNL A   1      31.117  23.294  27.530  1.00  0.00    -0.493 OA
ATOM     13  C   UNL A   1      29.774  22.900  27.252  1.00  0.00     0.278 C 
ENDBRANCH   7  12
BRANCH   9  14
ATOM     14  O   UNL A   1      31.877  25.712  26.103  1.00  0.00    -0.484 OA
BRANCH  14  15
ATOM     15  C   UNL A   1      32.783  26.787  25.826  1.00  0.00     0.291 C 
BRANCH  15  16
ATOM     16  C   UNL A   1      32.277  28.031  25.035  1.00  0.00     0.303 C 
BRANCH  16  17
ATOM     17  N   UNL A   1      31.620  27.757  23.739  1.00  0.00    -0.337 N 
ATOM     18  C   UNL A   1      30.179  27.528  23.866  1.00  0.00     0.332 C 
ATOM     19  C   UNL A   1      31.827  28.848  22.782  1.00  0.00     0.332 C 
ATOM     20  H   UNL A   1      32.062  26.904  23.397  1.00  0.00     0.347 HD
ENDBRANCH  16  17
ENDBRANCH  15  16
ENDBRANCH  14  15
ENDBRANCH   9  14
BRANCH  11  21
ATOM     21  N   UNL A   1      34.405  23.219  23.021  1.00  0.00     0.063 N 
ATOM     22  O   UNL A   1      35.627  23.030  23.007  1.00  0.00    -0.258 OA
ATOM     23  O   UNL A   1      33.695  23.378  22.018  1.00  0.00    -0.258 OA
ENDBRANCH  11  21
ENDBRANCH   3   6
ENDBRANCH   1   2
BRANCH   1  24
ATOM     24  C   UNL A   1      37.706  20.888  25.037  1.00  0.00     0.042 C 
BRANCH  24  25
ATOM     25  C   UNL A   1      38.838  21.086  26.026  1.00  0.00     0.118 C 
BRANCH  25  26
ATOM     26  N   UNL A   1      39.830  20.019  26.012  1.00  0.00    -0.352 N 
ATOM     27  C   UNL A   1      41.202  20.038  26.143  1.00  0.00     0.251 C 
ATOM     28  H   UNL A   1      39.450  19.119  25.886  1.00  0.00     0.163 HD
ATOM     29  O   UNL A   1      41.830  19.000  25.982  1.00  0.00    -0.269 OA
BRANCH  27  30
ATOM     30  C   UNL A   1      41.926  21.300  26.431  1.00  0.00     0.039 A 
ATOM     31  C   UNL A   1      42.226  22.165  25.375  1.00  0.00     0.014 A 
ATOM     32  C   UNL A   1      42.319  21.640  27.724  1.00  0.00     0.014 A 
ATOM     33  C   UNL A   1      42.830  23.399  25.635  1.00  0.00     0.010 A 
ATOM     34  C   UNL A   1      42.783  22.922  27.999  1.00  0.00     0.010 A 
ATOM     35  C   UNL A   1      43.064  23.814  26.957  1.00  0.00    -0.014 A 
BRANCH  35  36
ATOM     36  C   UNL A   1      43.614  25.161  27.265  1.00  0.00     0.031 A 
ATOM     37  C   UNL A   1      45.074  25.463  27.030  1.00  0.00     0.074 A 
ATOM     38  C   UNL A   1      42.813  26.099  27.812  1.00  0.00     0.049 A 
ATOM     39  N   UNL A   1      45.734  26.570  27.257  1.00  0.00    -0.248 NA
ATOM     40  C   UNL A   1      45.912  24.370  26.506  1.00  0.00     0.031 C 
ATOM     41  C   UNL A   1      41.401  25.913  28.158  1.00  0.00     0.029 A 
ATOM     42  N   UNL A   1      43.070  27.399  28.171  1.00  0.00    -0.354 N 
ATOM     43  C   UNL A   1      47.058  26.299  26.927  1.00  0.00     0.074 A 
ATOM     44  C   UNL A   1      47.122  24.905  26.552  1.00  0.00     0.031 C 
ATOM     45  C   UNL A   1      40.905  27.069  28.628  1.00  0.00     0.029 A 
ATOM     46  C   UNL A   1      41.970  28.064  28.662  1.00  0.00     0.049 A 
ATOM     47  H   UNL A   1      43.957  27.816  28.084  1.00  0.00     0.167 HD
ATOM     48  C   UNL A   1      48.121  27.137  26.906  1.00  0.00     0.031 A 
ATOM     49  C   UNL A   1      41.832  29.335  29.089  1.00  0.00     0.031 A 
ATOM     50  C   UNL A   1      48.050  28.530  27.259  1.00  0.00     0.049 A 
ATOM     51  C   UNL A   1      43.020  30.255  29.037  1.00  0.00     0.074 A 
ATOM     52  C   UNL A   1      49.051  29.484  27.206  1.00  0.00     0.029 A 
ATOM     53  N   UNL A   1      46.914  29.169  27.734  1.00  0.00    -0.354 N 
ATOM     54  N   UNL A   1      44.244  29.998  28.640  1.00  0.00    -0.248 NA
ATOM     55  C   UNL A   1      42.802  31.640  29.472  1.00  0.00     0.031 C 
ATOM     56  C   UNL A   1      48.537  30.685  27.704  1.00  0.00     0.029 A 
ATOM     57  C   UNL A   1      47.196  30.497  28.002  1.00  0.00     0.049 A 
ATOM     58  H   UNL A   1      46.037  28.740  27.860  1.00  0.00     0.167 HD
ATOM     59  C   UNL A   1      44.938  31.197  28.756  1.00  0.00     0.074 A 
ATOM     60  C   UNL A   1      43.988  32.182  29.234  1.00  0.00     0.031 C 
ATOM     61  C   UNL A   1      46.243  31.461  28.492  1.00  0.00     0.031 A 
BRANCH  48  62
ATOM     62  C   UNL A   1      49.453  26.566  26.487  1.00  0.00    -0.014 A 
ATOM     63  C   UNL A   1      49.830  26.508  25.132  1.00  0.00     0.010 A 
ATOM     64  C   UNL A   1      50.357  26.109  27.463  1.00  0.00     0.010 A 
ATOM     65  C   UNL A   1      51.061  25.962  24.759  1.00  0.00     0.020 A 
ATOM     66  C   UNL A   1      51.605  25.594  27.097  1.00  0.00     0.020 A 
ATOM     67  C   UNL A   1      51.941  25.507  25.745  1.00  0.00     0.054 A 
BRANCH  67  68
ATOM     68  S   UNL A   1      53.542  24.828  25.233  1.00  0.00     0.124 S 
ATOM     69  O   UNL A   1      53.806  25.573  24.003  1.00  0.00    -0.237 OA
ATOM     70  O   UNL A   1      54.406  25.158  26.364  1.00  0.00    -0.237 OA
ATOM     71  O   UNL A   1      53.274  23.403  25.053  1.00  0.00    -0.744 OA
ENDBRANCH  67  68
ENDBRANCH  48  62
BRANCH  49  72
ATOM     72  C   UNL A   1      40.508  29.816  29.577  1.00  0.00    -0.014 A 
ATOM     73  C   UNL A   1      40.267  29.981  30.953  1.00  0.00     0.010 A 
ATOM     74  C   UNL A   1      39.484  30.129  28.664  1.00  0.00     0.010 A 
ATOM     75  C   UNL A   1      39.022  30.429  31.407  1.00  0.00     0.020 A 
ATOM     76  C   UNL A   1      38.249  30.609  29.112  1.00  0.00     0.020 A 
ATOM     77  C   UNL A   1      38.023  30.744  30.482  1.00  0.00     0.054 A 
BRANCH  77  78
ATOM     78  S   UNL A   1      36.435  31.377  31.092  1.00  0.00     0.124 S 
ATOM     79  O   UNL A   1      35.966  30.272  31.922  1.00  0.00    -0.237 OA
ATOM     80  O   UNL A   1      36.833  32.585  31.812  1.00  0.00    -0.237 OA
ATOM     81  O   UNL A   1      35.669  31.612  29.871  1.00  0.00    -0.744 OA
ENDBRANCH  77  78
ENDBRANCH  49  72
BRANCH  61  82
ATOM     82  C   UNL A   1      46.710  32.880  28.690  1.00  0.00    -0.014 A 
ATOM     83  C   UNL A   1      47.248  33.309  29.917  1.00  0.00     0.010 A 
ATOM     84  C   UNL A   1      46.626  33.792  27.622  1.00  0.00     0.010 A 
ATOM     85  C   UNL A   1      47.641  34.639  30.089  1.00  0.00     0.020 A 
ATOM     86  C   UNL A   1      47.052  35.113  27.779  1.00  0.00     0.020 A 
ATOM     87  C   UNL A   1      47.534  35.534  29.020  1.00  0.00     0.054 A 
BRANCH  87  88
ATOM     88  S   UNL A   1      48.054  37.253  29.266  1.00  0.00     0.124 S 
ATOM     89  O   UNL A   1      49.100  37.111  30.276  1.00  0.00    -0.237 OA
ATOM     90  O   UNL A   1      48.514  37.642  27.935  1.00  0.00    -0.237 OA
ATOM     91  O   UNL A   1      46.838  37.923  29.720  1.00  0.00    -0.744 OA
ENDBRANCH  87  88
ENDBRANCH  61  82
ENDBRANCH  35  36
ENDBRANCH  27  30
ENDBRANCH  25  26
ENDBRANCH  24  25
ENDBRANCH   1  24
TORSDOF 19
ENDMDL
