MODEL 1
REMARK VINA RESULT:     -12.5      0.000      0.000
REMARK SMILES COc1ccc(-c2nc3ccc(C)cc3[nH]2)c(C(=O)NCCCNC(=O)c2ccc(-c3c4nc(c(-c5ccc(S(=O)(=O)[O-])cc5)c5ccc([nH]5)c(-c5ccc(S(=O)(=O)[O-])cc5)c5nc(c(-c6ccc(S(=O)(=O)[O-])cc6)c6ccc3[nH]6)C=C5)C=C4)cc2)c1OC
REMARK SMILES IDX 23 1 22 2 21 3 20 4 18 5 19 6 17 8 3 9 4 10 87 11 5 12 6 13
REMARK SMILES IDX 2 14 1 15 88 16 89 17 7 18 8 19 16 20 9 21 15 22 10 24 14 25
REMARK SMILES IDX 11 26 12 27 13 28 24 29 25 30 26 32 27 33 28 34 86 35 29 36
REMARK SMILES IDX 85 37 30 38 31 39 32 40 79 41 33 42 84 43 78 44 80 45 34 46
REMARK SMILES IDX 83 47 77 48 76 49 35 51 65 52 46 53 64 54 47 55 50 56 63 57
REMARK SMILES IDX 81 58 48 59 49 60 62 62 82 63 51 64 36 65 37 66 45 67 38 68
REMARK SMILES IDX 44 69 39 70 40 71 41 72 42 73 43 74 66 75 67 76 75 77 68 78
REMARK SMILES IDX 74 79 69 80 70 81 71 82 72 83 73 84 52 85 53 86 61 87 54 88
REMARK SMILES IDX 60 89 55 90 56 91 57 92 58 93 59 94
REMARK H PARENT 20 7 16 23 24 31 80 50 50 61
REMARK Flexibility Score: inf
ROOT
ATOM      1  C   UNL A   1      38.309  24.024  26.350  1.00  0.00     0.118 C 
ENDROOT
BRANCH   1   2
ATOM      2  C   UNL A   1      37.552  22.803  25.864  1.00  0.00     0.042 C 
BRANCH   2   3
ATOM      3  C   UNL A   1      36.066  22.998  25.672  1.00  0.00     0.118 C 
BRANCH   3   4
ATOM      4  N   UNL A   1      35.199  23.004  26.821  1.00  0.00    -0.352 N 
ATOM      5  C   UNL A   1      33.852  22.681  26.776  1.00  0.00     0.255 C 
ATOM      6  O   UNL A   1      33.316  22.125  27.733  1.00  0.00    -0.269 OA
ATOM      7  H   UNL A   1      35.587  23.252  27.691  1.00  0.00     0.163 HD
BRANCH   5   8
ATOM      8  C   UNL A   1      33.020  23.119  25.614  1.00  0.00     0.096 A 
ATOM      9  C   UNL A   1      31.722  24.775  24.391  1.00  0.00     0.161 A 
ATOM     10  C   UNL A   1      31.314  23.741  23.527  1.00  0.00     0.051 A 
ATOM     11  C   UNL A   1      32.640  24.485  25.415  1.00  0.00     0.174 A 
ATOM     12  C   UNL A   1      31.781  22.434  23.652  1.00  0.00     0.017 A 
ATOM     13  C   UNL A   1      32.617  22.096  24.715  1.00  0.00     0.034 A 
BRANCH   9  14
ATOM     14  O   UNL A   1      31.042  25.916  24.081  1.00  0.00    -0.493 OA
ATOM     15  C   UNL A   1      30.504  26.767  25.068  1.00  0.00     0.278 C 
ENDBRANCH   9  14
BRANCH  11  16
ATOM     16  O   UNL A   1      33.328  25.414  26.158  1.00  0.00    -0.492 OA
ATOM     17  C   UNL A   1      34.184  26.338  25.494  1.00  0.00     0.278 C 
ENDBRANCH  11  16
BRANCH  13  18
ATOM     18  C   UNL A   1      33.028  20.693  24.866  1.00  0.00     0.139 A 
ATOM     19  N   UNL A   1      34.124  20.142  24.380  1.00  0.00    -0.228 NA
ATOM     20  N   UNL A   1      32.272  19.742  25.522  1.00  0.00    -0.338 N 
ATOM     21  C   UNL A   1      33.997  18.793  24.600  1.00  0.00     0.089 A 
ATOM     22  C   UNL A   1      32.852  18.510  25.333  1.00  0.00     0.066 A 
ATOM     23  H   UNL A   1      31.453  19.917  26.040  1.00  0.00     0.168 HD
ATOM     24  C   UNL A   1      34.817  17.739  24.180  1.00  0.00     0.031 A 
ATOM     25  C   UNL A   1      32.471  17.212  25.694  1.00  0.00     0.031 A 
ATOM     26  C   UNL A   1      34.445  16.425  24.498  1.00  0.00     0.006 A 
ATOM     27  C   UNL A   1      33.288  16.156  25.246  1.00  0.00    -0.049 A 
ATOM     28  C   UNL A   1      32.932  14.726  25.546  1.00  0.00     0.044 C 
ENDBRANCH  13  18
ENDBRANCH   5   8
ENDBRANCH   3   4
ENDBRANCH   2   3
ENDBRANCH   1   2
BRANCH   1  29
ATOM     29  N   UNL A   1      39.742  24.006  26.067  1.00  0.00    -0.352 N 
ATOM     30  C   UNL A   1      40.792  24.777  26.524  1.00  0.00     0.251 C 
ATOM     31  H   UNL A   1      40.012  23.308  25.427  1.00  0.00     0.163 HD
ATOM     32  O   UNL A   1      41.908  24.596  26.060  1.00  0.00    -0.269 OA
BRANCH  30  33
ATOM     33  C   UNL A   1      40.579  25.851  27.528  1.00  0.00     0.039 A 
ATOM     34  C   UNL A   1      39.633  25.660  28.542  1.00  0.00     0.014 A 
ATOM     35  C   UNL A   1      41.293  27.044  27.484  1.00  0.00     0.014 A 
ATOM     36  C   UNL A   1      39.486  26.620  29.550  1.00  0.00     0.010 A 
ATOM     37  C   UNL A   1      41.259  27.918  28.562  1.00  0.00     0.010 A 
ATOM     38  C   UNL A   1      40.338  27.734  29.600  1.00  0.00    -0.014 A 
BRANCH  38  39
ATOM     39  C   UNL A   1      40.262  28.744  30.691  1.00  0.00     0.031 A 
ATOM     40  C   UNL A   1      41.167  28.621  31.893  1.00  0.00     0.074 A 
ATOM     41  C   UNL A   1      39.334  29.722  30.644  1.00  0.00     0.049 A 
ATOM     42  N   UNL A   1      41.196  29.343  32.985  1.00  0.00    -0.248 NA
ATOM     43  C   UNL A   1      42.142  27.515  31.889  1.00  0.00     0.031 C 
ATOM     44  C   UNL A   1      38.359  29.920  29.568  1.00  0.00     0.029 A 
ATOM     45  N   UNL A   1      39.059  30.737  31.526  1.00  0.00    -0.354 N 
ATOM     46  C   UNL A   1      42.164  28.762  33.798  1.00  0.00     0.074 A 
ATOM     47  C   UNL A   1      42.646  27.587  33.110  1.00  0.00     0.031 C 
ATOM     48  C   UNL A   1      37.625  31.015  29.832  1.00  0.00     0.029 A 
ATOM     49  C   UNL A   1      38.043  31.570  31.114  1.00  0.00     0.049 A 
ATOM     50  H   UNL A   1      39.542  30.858  32.375  1.00  0.00     0.167 HD
ATOM     51  C   UNL A   1      42.638  29.184  34.994  1.00  0.00     0.031 A 
ATOM     52  C   UNL A   1      37.509  32.658  31.702  1.00  0.00     0.031 A 
ATOM     53  C   UNL A   1      42.183  30.374  35.660  1.00  0.00     0.049 A 
ATOM     54  C   UNL A   1      38.063  33.118  33.024  1.00  0.00     0.074 A 
ATOM     55  C   UNL A   1      42.638  30.924  36.845  1.00  0.00     0.029 A 
ATOM     56  N   UNL A   1      41.173  31.201  35.195  1.00  0.00    -0.354 N 
ATOM     57  N   UNL A   1      39.020  32.588  33.747  1.00  0.00    -0.248 NA
ATOM     58  C   UNL A   1      37.474  34.335  33.600  1.00  0.00     0.031 C 
ATOM     59  C   UNL A   1      41.869  32.059  37.121  1.00  0.00     0.029 A 
ATOM     60  C   UNL A   1      40.979  32.251  36.075  1.00  0.00     0.049 A 
ATOM     61  H   UNL A   1      40.667  31.061  34.361  1.00  0.00     0.167 HD
ATOM     62  C   UNL A   1      39.174  33.427  34.846  1.00  0.00     0.074 A 
ATOM     63  C   UNL A   1      38.220  34.506  34.683  1.00  0.00     0.031 C 
ATOM     64  C   UNL A   1      40.028  33.317  35.894  1.00  0.00     0.031 A 
BRANCH  51  65
ATOM     65  C   UNL A   1      43.716  28.356  35.647  1.00  0.00    -0.014 A 
ATOM     66  C   UNL A   1      45.076  28.554  35.338  1.00  0.00     0.010 A 
ATOM     67  C   UNL A   1      43.370  27.384  36.604  1.00  0.00     0.010 A 
ATOM     68  C   UNL A   1      46.062  27.767  35.935  1.00  0.00     0.020 A 
ATOM     69  C   UNL A   1      44.359  26.618  37.230  1.00  0.00     0.020 A 
ATOM     70  C   UNL A   1      45.697  26.802  36.878  1.00  0.00     0.054 A 
BRANCH  70  71
ATOM     71  S   UNL A   1      47.003  25.814  37.657  1.00  0.00     0.124 S 
ATOM     72  O   UNL A   1      48.103  25.968  36.709  1.00  0.00    -0.237 OA
ATOM     73  O   UNL A   1      47.185  26.481  38.943  1.00  0.00    -0.237 OA
ATOM     74  O   UNL A   1      46.428  24.473  37.730  1.00  0.00    -0.744 OA
ENDBRANCH  70  71
ENDBRANCH  51  65
BRANCH  52  75
ATOM     75  C   UNL A   1      36.412  33.411  31.030  1.00  0.00    -0.014 A 
ATOM     76  C   UNL A   1      35.195  33.645  31.696  1.00  0.00     0.010 A 
ATOM     77  C   UNL A   1      36.579  33.902  29.722  1.00  0.00     0.010 A 
ATOM     78  C   UNL A   1      34.158  34.333  31.059  1.00  0.00     0.020 A 
ATOM     79  C   UNL A   1      35.555  34.618  29.093  1.00  0.00     0.020 A 
ATOM     80  C   UNL A   1      34.345  34.817  29.761  1.00  0.00     0.054 A 
BRANCH  80  81
ATOM     81  S   UNL A   1      33.000  35.745  28.971  1.00  0.00     0.124 S 
ATOM     82  O   UNL A   1      33.729  36.785  28.252  1.00  0.00    -0.237 OA
ATOM     83  O   UNL A   1      32.362  34.727  28.139  1.00  0.00    -0.237 OA
ATOM     84  O   UNL A   1      32.196  36.208  30.100  1.00  0.00    -0.744 OA
ENDBRANCH  80  81
ENDBRANCH  52  75
BRANCH  64  85
ATOM     85  C   UNL A   1      40.007  34.418  36.921  1.00  0.00    -0.014 A 
ATOM     86  C   UNL A   1      39.173  34.353  38.050  1.00  0.00     0.010 A 
ATOM     87  C   UNL A   1      40.871  35.518  36.768  1.00  0.00     0.010 A 
ATOM     88  C   UNL A   1      39.169  35.392  38.985  1.00  0.00     0.020 A 
ATOM     89  C   UNL A   1      40.894  36.542  37.716  1.00  0.00     0.020 A 
ATOM     90  C   UNL A   1      40.029  36.482  38.810  1.00  0.00     0.054 A 
BRANCH  90  91
ATOM     91  S   UNL A   1      40.024  37.805  40.049  1.00  0.00     0.124 S 
ATOM     92  O   UNL A   1      41.275  38.500  39.756  1.00  0.00    -0.237 OA
ATOM     93  O   UNL A   1      38.804  38.542  39.728  1.00  0.00    -0.237 OA
ATOM     94  O   UNL A   1      39.994  37.088  41.323  1.00  0.00    -0.744 OA
ENDBRANCH  90  91
ENDBRANCH  64  85
ENDBRANCH  38  39
ENDBRANCH  30  33
ENDBRANCH   1  29
TORSDOF 16
ENDMDL
MODEL 2
REMARK VINA RESULT:     -12.5      4.734     10.877
REMARK SMILES COc1ccc(-c2nc3ccc(C)cc3[nH]2)c(C(=O)NCCCNC(=O)c2ccc(-c3c4nc(c(-c5ccc(S(=O)(=O)[O-])cc5)c5ccc([nH]5)c(-c5ccc(S(=O)(=O)[O-])cc5)c5nc(c(-c6ccc(S(=O)(=O)[O-])cc6)c6ccc3[nH]6)C=C5)C=C4)cc2)c1OC
REMARK SMILES IDX 23 1 22 2 21 3 20 4 18 5 19 6 17 8 3 9 4 10 87 11 5 12 6 13
REMARK SMILES IDX 2 14 1 15 88 16 89 17 7 18 8 19 16 20 9 21 15 22 10 24 14 25
REMARK SMILES IDX 11 26 12 27 13 28 24 29 25 30 26 32 27 33 28 34 86 35 29 36
REMARK SMILES IDX 85 37 30 38 31 39 32 40 79 41 33 42 84 43 78 44 80 45 34 46
REMARK SMILES IDX 83 47 77 48 76 49 35 51 65 52 46 53 64 54 47 55 50 56 63 57
REMARK SMILES IDX 81 58 48 59 49 60 62 62 82 63 51 64 36 65 37 66 45 67 38 68
REMARK SMILES IDX 44 69 39 70 40 71 41 72 42 73 43 74 66 75 67 76 75 77 68 78
REMARK SMILES IDX 74 79 69 80 70 81 71 82 72 83 73 84 52 85 53 86 61 87 54 88
REMARK SMILES IDX 60 89 55 90 56 91 57 92 58 93 59 94
REMARK H PARENT 20 7 16 23 24 31 80 50 50 61
REMARK Flexibility Score: inf
ROOT
ATOM      1  C   UNL A   1      33.384  28.400  27.468  1.00  0.00     0.118 C 
ENDROOT
BRANCH   1   2
ATOM      2  C   UNL A   1      33.966  27.870  26.171  1.00  0.00     0.042 C 
BRANCH   2   3
ATOM      3  C   UNL A   1      33.588  28.644  24.930  1.00  0.00     0.118 C 
BRANCH   3   4
ATOM      4  N   UNL A   1      34.090  28.216  23.650  1.00  0.00    -0.352 N 
ATOM      5  C   UNL A   1      33.354  27.477  22.737  1.00  0.00     0.255 C 
ATOM      6  O   UNL A   1      33.523  27.639  21.530  1.00  0.00    -0.269 OA
ATOM      7  H   UNL A   1      35.012  28.464  23.409  1.00  0.00     0.163 HD
BRANCH   5   8
ATOM      8  C   UNL A   1      32.441  26.396  23.218  1.00  0.00     0.096 A 
ATOM      9  C   UNL A   1      31.951  24.083  23.794  1.00  0.00     0.161 A 
ATOM     10  C   UNL A   1      30.597  24.453  23.908  1.00  0.00     0.051 A 
ATOM     11  C   UNL A   1      32.906  25.073  23.508  1.00  0.00     0.174 A 
ATOM     12  C   UNL A   1      30.165  25.767  23.742  1.00  0.00     0.017 A 
ATOM     13  C   UNL A   1      31.074  26.754  23.365  1.00  0.00     0.034 A 
BRANCH   9  14
ATOM     14  O   UNL A   1      32.061  22.730  23.923  1.00  0.00    -0.493 OA
ATOM     15  C   UNL A   1      32.154  22.095  25.178  1.00  0.00     0.278 C 
ENDBRANCH   9  14
BRANCH  11  16
ATOM     16  O   UNL A   1      34.267  24.928  23.625  1.00  0.00    -0.492 OA
ATOM     17  C   UNL A   1      34.831  24.669  24.907  1.00  0.00     0.278 C 
ENDBRANCH  11  16
BRANCH  13  18
ATOM     18  C   UNL A   1      30.573  28.113  23.119  1.00  0.00     0.139 A 
ATOM     19  N   UNL A   1      30.356  29.043  24.030  1.00  0.00    -0.228 NA
ATOM     20  N   UNL A   1      30.220  28.583  21.870  1.00  0.00    -0.338 N 
ATOM     21  C   UNL A   1      29.718  30.068  23.376  1.00  0.00     0.089 A 
ATOM     22  C   UNL A   1      29.634  29.818  22.013  1.00  0.00     0.066 A 
ATOM     23  H   UNL A   1      30.363  28.112  21.018  1.00  0.00     0.168 HD
ATOM     24  C   UNL A   1      29.160  31.244  23.891  1.00  0.00     0.031 A 
ATOM     25  C   UNL A   1      29.025  30.695  21.106  1.00  0.00     0.031 A 
ATOM     26  C   UNL A   1      28.515  32.126  23.013  1.00  0.00     0.006 A 
ATOM     27  C   UNL A   1      28.445  31.863  21.636  1.00  0.00    -0.049 A 
ATOM     28  C   UNL A   1      27.728  32.839  20.745  1.00  0.00     0.044 C 
ENDBRANCH  13  18
ENDBRANCH   5   8
ENDBRANCH   3   4
ENDBRANCH   2   3
ENDBRANCH   1   2
BRANCH   1  29
ATOM     29  N   UNL A   1      33.493  29.846  27.639  1.00  0.00    -0.352 N 
ATOM     30  C   UNL A   1      34.543  30.666  28.002  1.00  0.00     0.251 C 
ATOM     31  H   UNL A   1      32.654  30.331  27.462  1.00  0.00     0.163 HD
ATOM     32  O   UNL A   1      34.340  31.863  28.146  1.00  0.00    -0.269 OA
BRANCH  30  33
ATOM     33  C   UNL A   1      35.896  30.113  28.265  1.00  0.00     0.039 A 
ATOM     34  C   UNL A   1      36.864  30.168  27.256  1.00  0.00     0.014 A 
ATOM     35  C   UNL A   1      36.225  29.539  29.489  1.00  0.00     0.014 A 
ATOM     36  C   UNL A   1      38.171  29.738  27.516  1.00  0.00     0.010 A 
ATOM     37  C   UNL A   1      37.551  29.260  29.795  1.00  0.00     0.010 A 
ATOM     38  C   UNL A   1      38.540  29.331  28.807  1.00  0.00    -0.014 A 
BRANCH  38  39
ATOM     39  C   UNL A   1      39.933  28.931  29.145  1.00  0.00     0.031 A 
ATOM     40  C   UNL A   1      40.853  29.915  29.828  1.00  0.00     0.074 A 
ATOM     41  C   UNL A   1      40.398  27.719  28.774  1.00  0.00     0.049 A 
ATOM     42  N   UNL A   1      42.122  29.791  30.128  1.00  0.00    -0.248 NA
ATOM     43  C   UNL A   1      40.286  31.227  30.185  1.00  0.00     0.031 C 
ATOM     44  C   UNL A   1      39.632  26.696  28.058  1.00  0.00     0.029 A 
ATOM     45  N   UNL A   1      41.632  27.143  28.950  1.00  0.00    -0.354 N 
ATOM     46  C   UNL A   1      42.502  31.011  30.675  1.00  0.00     0.074 A 
ATOM     47  C   UNL A   1      41.356  31.886  30.600  1.00  0.00     0.031 C 
ATOM     48  C   UNL A   1      40.398  25.604  27.896  1.00  0.00     0.029 A 
ATOM     49  C   UNL A   1      41.720  25.862  28.453  1.00  0.00     0.049 A 
ATOM     50  H   UNL A   1      42.383  27.602  29.389  1.00  0.00     0.167 HD
ATOM     51  C   UNL A   1      43.687  31.367  31.226  1.00  0.00     0.031 A 
ATOM     52  C   UNL A   1      42.750  24.993  28.448  1.00  0.00     0.031 A 
ATOM     53  C   UNL A   1      44.817  30.483  31.333  1.00  0.00     0.049 A 
ATOM     54  C   UNL A   1      44.053  25.404  29.080  1.00  0.00     0.074 A 
ATOM     55  C   UNL A   1      46.043  30.723  31.927  1.00  0.00     0.029 A 
ATOM     56  N   UNL A   1      44.853  29.188  30.843  1.00  0.00    -0.354 N 
ATOM     57  N   UNL A   1      44.373  26.543  29.647  1.00  0.00    -0.248 NA
ATOM     58  C   UNL A   1      45.130  24.404  29.086  1.00  0.00     0.031 C 
ATOM     59  C   UNL A   1      46.840  29.586  31.752  1.00  0.00     0.029 A 
ATOM     60  C   UNL A   1      46.087  28.618  31.106  1.00  0.00     0.049 A 
ATOM     61  H   UNL A   1      44.112  28.740  30.374  1.00  0.00     0.167 HD
ATOM     62  C   UNL A   1      45.675  26.383  30.110  1.00  0.00     0.074 A 
ATOM     63  C   UNL A   1      46.076  25.034  29.769  1.00  0.00     0.031 C 
ATOM     64  C   UNL A   1      46.466  27.272  30.762  1.00  0.00     0.031 A 
BRANCH  51  65
ATOM     65  C   UNL A   1      43.811  32.769  31.767  1.00  0.00    -0.014 A 
ATOM     66  C   UNL A   1      43.485  33.066  33.104  1.00  0.00     0.010 A 
ATOM     67  C   UNL A   1      44.288  33.801  30.937  1.00  0.00     0.010 A 
ATOM     68  C   UNL A   1      43.585  34.373  33.587  1.00  0.00     0.020 A 
ATOM     69  C   UNL A   1      44.423  35.104  31.428  1.00  0.00     0.020 A 
ATOM     70  C   UNL A   1      44.053  35.385  32.744  1.00  0.00     0.054 A 
BRANCH  70  71
ATOM     71  S   UNL A   1      44.199  37.066  33.407  1.00  0.00     0.124 S 
ATOM     72  O   UNL A   1      42.830  37.340  33.836  1.00  0.00    -0.237 OA
ATOM     73  O   UNL A   1      45.174  36.902  34.482  1.00  0.00    -0.237 OA
ATOM     74  O   UNL A   1      44.662  37.851  32.265  1.00  0.00    -0.744 OA
ENDBRANCH  70  71
ENDBRANCH  51  65
BRANCH  52  75
ATOM     75  C   UNL A   1      42.582  23.636  27.857  1.00  0.00    -0.014 A 
ATOM     76  C   UNL A   1      41.869  22.639  28.549  1.00  0.00     0.010 A 
ATOM     77  C   UNL A   1      43.129  23.331  26.597  1.00  0.00     0.010 A 
ATOM     78  C   UNL A   1      41.728  21.359  28.005  1.00  0.00     0.020 A 
ATOM     79  C   UNL A   1      42.962  22.061  26.036  1.00  0.00     0.020 A 
ATOM     80  C   UNL A   1      42.274  21.079  26.750  1.00  0.00     0.054 A 
BRANCH  80  81
ATOM     81  S   UNL A   1      42.041  19.422  26.045  1.00  0.00     0.124 S 
ATOM     82  O   UNL A   1      42.598  18.566  27.088  1.00  0.00    -0.237 OA
ATOM     83  O   UNL A   1      40.591  19.354  25.876  1.00  0.00    -0.237 OA
ATOM     84  O   UNL A   1      42.803  19.471  24.800  1.00  0.00    -0.744 OA
ENDBRANCH  80  81
ENDBRANCH  52  75
BRANCH  64  85
ATOM     85  C   UNL A   1      47.828  26.797  31.194  1.00  0.00    -0.014 A 
ATOM     86  C   UNL A   1      48.967  27.009  30.398  1.00  0.00     0.010 A 
ATOM     87  C   UNL A   1      47.970  26.160  32.441  1.00  0.00     0.010 A 
ATOM     88  C   UNL A   1      50.218  26.552  30.822  1.00  0.00     0.020 A 
ATOM     89  C   UNL A   1      49.223  25.732  32.882  1.00  0.00     0.020 A 
ATOM     90  C   UNL A   1      50.337  25.914  32.061  1.00  0.00     0.054 A 
BRANCH  90  91
ATOM     91  S   UNL A   1      51.976  25.353  32.599  1.00  0.00     0.124 S 
ATOM     92  O   UNL A   1      51.723  23.953  32.930  1.00  0.00    -0.237 OA
ATOM     93  O   UNL A   1      52.798  25.580  31.413  1.00  0.00    -0.237 OA
ATOM     94  O   UNL A   1      52.282  26.217  33.737  1.00  0.00    -0.744 OA
ENDBRANCH  90  91
ENDBRANCH  64  85
ENDBRANCH  38  39
ENDBRANCH  30  33
ENDBRANCH   1  29
TORSDOF 16
ENDMDL
MODEL 3
REMARK VINA RESULT:     -12.2      3.253      3.847
REMARK SMILES COc1ccc(-c2nc3ccc(C)cc3[nH]2)c(C(=O)NCCCNC(=O)c2ccc(-c3c4nc(c(-c5ccc(S(=O)(=O)[O-])cc5)c5ccc([nH]5)c(-c5ccc(S(=O)(=O)[O-])cc5)c5nc(c(-c6ccc(S(=O)(=O)[O-])cc6)c6ccc3[nH]6)C=C5)C=C4)cc2)c1OC
REMARK SMILES IDX 23 1 22 2 21 3 20 4 18 5 19 6 17 8 3 9 4 10 87 11 5 12 6 13
REMARK SMILES IDX 2 14 1 15 88 16 89 17 7 18 8 19 16 20 9 21 15 22 10 24 14 25
REMARK SMILES IDX 11 26 12 27 13 28 24 29 25 30 26 32 27 33 28 34 86 35 29 36
REMARK SMILES IDX 85 37 30 38 31 39 32 40 79 41 33 42 84 43 78 44 80 45 34 46
REMARK SMILES IDX 83 47 77 48 76 49 35 51 65 52 46 53 64 54 47 55 50 56 63 57
REMARK SMILES IDX 81 58 48 59 49 60 62 62 82 63 51 64 36 65 37 66 45 67 38 68
REMARK SMILES IDX 44 69 39 70 40 71 41 72 42 73 43 74 66 75 67 76 75 77 68 78
REMARK SMILES IDX 74 79 69 80 70 81 71 82 72 83 73 84 52 85 53 86 61 87 54 88
REMARK SMILES IDX 60 89 55 90 56 91 57 92 58 93 59 94
REMARK H PARENT 20 7 16 23 24 31 80 50 50 61
REMARK Flexibility Score: inf
ROOT
ATOM      1  C   UNL A   1      36.964  23.607  24.968  1.00  0.00     0.118 C 
ENDROOT
BRANCH   1   2
ATOM      2  C   UNL A   1      36.031  24.022  26.089  1.00  0.00     0.042 C 
BRANCH   2   3
ATOM      3  C   UNL A   1      35.329  22.889  26.799  1.00  0.00     0.118 C 
BRANCH   3   4
ATOM      4  N   UNL A   1      33.973  23.067  27.247  1.00  0.00    -0.352 N 
ATOM      5  C   UNL A   1      32.860  22.883  26.440  1.00  0.00     0.255 C 
ATOM      6  O   UNL A   1      31.812  22.455  26.919  1.00  0.00    -0.269 OA
ATOM      7  H   UNL A   1      33.827  23.335  28.183  1.00  0.00     0.163 HD
BRANCH   5   8
ATOM      8  C   UNL A   1      32.897  23.321  25.012  1.00  0.00     0.096 A 
ATOM      9  C   UNL A   1      32.599  24.977  23.254  1.00  0.00     0.161 A 
ATOM     10  C   UNL A   1      32.794  23.943  22.318  1.00  0.00     0.051 A 
ATOM     11  C   UNL A   1      32.714  24.687  24.624  1.00  0.00     0.174 A 
ATOM     12  C   UNL A   1      33.091  22.636  22.700  1.00  0.00     0.017 A 
ATOM     13  C   UNL A   1      33.117  22.297  24.051  1.00  0.00     0.034 A 
BRANCH   9  14
ATOM     14  O   UNL A   1      32.243  26.118  22.597  1.00  0.00    -0.493 OA
ATOM     15  C   UNL A   1      31.714  26.104  21.290  1.00  0.00     0.278 C 
ENDBRANCH   9  14
BRANCH  11  16
ATOM     16  O   UNL A   1      32.815  25.616  25.632  1.00  0.00    -0.492 OA
ATOM     17  C   UNL A   1      31.629  26.202  26.157  1.00  0.00     0.278 C 
ENDBRANCH  11  16
BRANCH  13  18
ATOM     18  C   UNL A   1      33.354  20.895  24.419  1.00  0.00     0.139 A 
ATOM     19  N   UNL A   1      34.509  20.259  24.376  1.00  0.00    -0.228 NA
ATOM     20  N   UNL A   1      32.356  20.033  24.829  1.00  0.00    -0.338 N 
ATOM     21  C   UNL A   1      34.222  18.938  24.620  1.00  0.00     0.089 A 
ATOM     22  C   UNL A   1      32.878  18.766  24.927  1.00  0.00     0.066 A 
ATOM     23  H   UNL A   1      31.423  20.285  25.020  1.00  0.00     0.168 HD
ATOM     24  C   UNL A   1      35.061  17.820  24.574  1.00  0.00     0.031 A 
ATOM     25  C   UNL A   1      32.309  17.519  25.212  1.00  0.00     0.031 A 
ATOM     26  C   UNL A   1      34.513  16.553  24.822  1.00  0.00     0.006 A 
ATOM     27  C   UNL A   1      33.155  16.396  25.139  1.00  0.00    -0.049 A 
ATOM     28  C   UNL A   1      32.620  15.012  25.382  1.00  0.00     0.044 C 
ENDBRANCH  13  18
ENDBRANCH   5   8
ENDBRANCH   3   4
ENDBRANCH   2   3
ENDBRANCH   1   2
BRANCH   1  29
ATOM     29  N   UNL A   1      38.047  22.716  25.374  1.00  0.00    -0.352 N 
ATOM     30  C   UNL A   1      39.175  22.911  26.145  1.00  0.00     0.251 C 
ATOM     31  H   UNL A   1      37.956  21.797  25.031  1.00  0.00     0.163 HD
ATOM     32  O   UNL A   1      39.975  21.995  26.271  1.00  0.00    -0.269 OA
BRANCH  30  33
ATOM     33  C   UNL A   1      39.456  24.223  26.783  1.00  0.00     0.039 A 
ATOM     34  C   UNL A   1      39.048  24.442  28.104  1.00  0.00     0.014 A 
ATOM     35  C   UNL A   1      40.109  25.243  26.098  1.00  0.00     0.014 A 
ATOM     36  C   UNL A   1      39.386  25.636  28.751  1.00  0.00     0.010 A 
ATOM     37  C   UNL A   1      40.577  26.356  26.784  1.00  0.00     0.010 A 
ATOM     38  C   UNL A   1      40.203  26.583  28.113  1.00  0.00    -0.014 A 
BRANCH  38  39
ATOM     39  C   UNL A   1      40.642  27.835  28.788  1.00  0.00     0.031 A 
ATOM     40  C   UNL A   1      42.033  27.927  29.369  1.00  0.00     0.074 A 
ATOM     41  C   UNL A   1      39.775  28.857  28.948  1.00  0.00     0.049 A 
ATOM     42  N   UNL A   1      42.575  28.893  30.068  1.00  0.00    -0.248 NA
ATOM     43  C   UNL A   1      42.919  26.766  29.176  1.00  0.00     0.031 C 
ATOM     44  C   UNL A   1      38.385  28.875  28.487  1.00  0.00     0.029 A 
ATOM     45  N   UNL A   1      39.938  30.082  29.547  1.00  0.00    -0.354 N 
ATOM     46  C   UNL A   1      43.843  28.441  30.417  1.00  0.00     0.074 A 
ATOM     47  C   UNL A   1      43.964  27.090  29.920  1.00  0.00     0.031 C 
ATOM     48  C   UNL A   1      37.838  30.067  28.778  1.00  0.00     0.029 A 
ATOM     49  C   UNL A   1      38.819  30.881  29.487  1.00  0.00     0.049 A 
ATOM     50  H   UNL A   1      40.776  30.362  29.979  1.00  0.00     0.167 HD
ATOM     51  C   UNL A   1      44.836  29.099  31.061  1.00  0.00     0.031 A 
ATOM     52  C   UNL A   1      38.606  32.128  29.950  1.00  0.00     0.031 A 
ATOM     53  C   UNL A   1      44.727  30.456  31.524  1.00  0.00     0.049 A 
ATOM     54  C   UNL A   1      39.729  32.847  30.650  1.00  0.00     0.074 A 
ATOM     55  C   UNL A   1      45.691  31.237  32.135  1.00  0.00     0.029 A 
ATOM     56  N   UNL A   1      43.586  31.236  31.419  1.00  0.00    -0.354 N 
ATOM     57  N   UNL A   1      40.941  32.422  30.916  1.00  0.00    -0.248 NA
ATOM     58  C   UNL A   1      39.459  34.220  31.096  1.00  0.00     0.031 C 
ATOM     59  C   UNL A   1      45.118  32.474  32.443  1.00  0.00     0.029 A 
ATOM     60  C   UNL A   1      43.816  32.485  31.966  1.00  0.00     0.049 A 
ATOM     61  H   UNL A   1      42.737  30.943  31.015  1.00  0.00     0.167 HD
ATOM     62  C   UNL A   1      41.590  33.489  31.529  1.00  0.00     0.074 A 
ATOM     63  C   UNL A   1      40.639  34.581  31.579  1.00  0.00     0.031 C 
ATOM     64  C   UNL A   1      42.859  33.561  32.004  1.00  0.00     0.031 A 
BRANCH  51  65
ATOM     65  C   UNL A   1      46.130  28.358  31.289  1.00  0.00    -0.014 A 
ATOM     66  C   UNL A   1      46.337  27.594  32.453  1.00  0.00     0.010 A 
ATOM     67  C   UNL A   1      47.143  28.401  30.314  1.00  0.00     0.010 A 
ATOM     68  C   UNL A   1      47.547  26.930  32.661  1.00  0.00     0.020 A 
ATOM     69  C   UNL A   1      48.343  27.708  30.502  1.00  0.00     0.020 A 
ATOM     70  C   UNL A   1      48.544  26.991  31.684  1.00  0.00     0.054 A 
BRANCH  70  71
ATOM     71  S   UNL A   1      50.095  26.095  31.969  1.00  0.00     0.124 S 
ATOM     72  O   UNL A   1      51.092  27.082  31.564  1.00  0.00    -0.237 OA
ATOM     73  O   UNL A   1      50.040  25.809  33.400  1.00  0.00    -0.237 OA
ATOM     74  O   UNL A   1      49.986  24.927  31.098  1.00  0.00    -0.744 OA
ENDBRANCH  70  71
ENDBRANCH  51  65
BRANCH  52  75
ATOM     75  C   UNL A   1      37.290  32.793  29.736  1.00  0.00    -0.014 A 
ATOM     76  C   UNL A   1      36.997  33.416  28.509  1.00  0.00     0.010 A 
ATOM     77  C   UNL A   1      36.319  32.803  30.753  1.00  0.00     0.010 A 
ATOM     78  C   UNL A   1      35.770  34.058  28.313  1.00  0.00     0.020 A 
ATOM     79  C   UNL A   1      35.079  33.416  30.550  1.00  0.00     0.020 A 
ATOM     80  C   UNL A   1      34.818  34.052  29.335  1.00  0.00     0.054 A 
BRANCH  80  81
ATOM     81  S   UNL A   1      33.216  34.854  29.043  1.00  0.00     0.124 S 
ATOM     82  O   UNL A   1      33.619  36.179  28.581  1.00  0.00    -0.237 OA
ATOM     83  O   UNL A   1      32.610  33.989  28.034  1.00  0.00    -0.237 OA
ATOM     84  O   UNL A   1      32.571  34.816  30.353  1.00  0.00    -0.744 OA
ENDBRANCH  80  81
ENDBRANCH  52  75
BRANCH  64  85
ATOM     85  C   UNL A   1      43.310  34.879  32.574  1.00  0.00    -0.014 A 
ATOM     86  C   UNL A   1      43.162  35.179  33.939  1.00  0.00     0.010 A 
ATOM     87  C   UNL A   1      43.929  35.818  31.728  1.00  0.00     0.010 A 
ATOM     88  C   UNL A   1      43.585  36.413  34.440  1.00  0.00     0.020 A 
ATOM     89  C   UNL A   1      44.382  37.039  32.231  1.00  0.00     0.020 A 
ATOM     90  C   UNL A   1      44.190  37.336  33.581  1.00  0.00     0.054 A 
BRANCH  90  91
ATOM     91  S   UNL A   1      44.752  38.921  34.261  1.00  0.00     0.124 S 
ATOM     92  O   UNL A   1      43.508  39.683  34.323  1.00  0.00    -0.237 OA
ATOM     93  O   UNL A   1      45.318  38.535  35.551  1.00  0.00    -0.237 OA
ATOM     94  O   UNL A   1      45.724  39.395  33.277  1.00  0.00    -0.744 OA
ENDBRANCH  90  91
ENDBRANCH  64  85
ENDBRANCH  38  39
ENDBRANCH  30  33
ENDBRANCH   1  29
TORSDOF 16
ENDMDL
