MODEL 1
REMARK VINA RESULT:     -14.5      0.000      0.000
REMARK SMILES O=C1C[C@H](c2cn[nH]c2C(=O)NCCCNC(=O)c2ccc(-c3c4nc(c(-c5ccc(S(=O)(=O)[O-])cc5)c5ccc([nH]5)c(-c5ccc(S(=O)(=O)[O-])cc5)c5nc(c(-c6ccc(S(=O)(=O)[O-])cc6)c6ccc3[nH]6)C=C5)C=C4)cc2)c2c(-c3cccs3)n[nH]c2N1
REMARK SMILES IDX 14 1 13 2 12 3 10 4 11 5 9 7 5 8 6 9 7 10 8 11 4 13 1 14
REMARK SMILES IDX 2 15 3 16 89 17 88 18 79 20 87 21 80 22 86 23 81 25 82 26
REMARK SMILES IDX 85 27 83 28 84 29 15 30 16 31 17 32 18 34 19 35 20 36 78 37
REMARK SMILES IDX 21 38 77 39 22 40 23 41 24 42 71 43 25 44 76 45 70 46 72 47
REMARK SMILES IDX 26 48 75 49 69 50 68 51 27 53 57 54 38 55 56 56 39 57 42 58
REMARK SMILES IDX 55 59 73 60 40 61 41 62 54 64 74 65 43 66 28 67 29 68 37 69
REMARK SMILES IDX 30 70 36 71 31 72 32 73 33 74 34 75 35 76 58 77 59 78 67 79
REMARK SMILES IDX 60 80 66 81 61 82 62 83 63 84 64 85 65 86 44 87 45 88 53 89
REMARK SMILES IDX 46 90 52 91 47 92 48 93 49 94 50 95 51 96
REMARK H PARENT 12 6 8 12 89 19 87 24 16 33 72 52 42 63
REMARK Flexibility Score: inf
ROOT
ATOM      1  C   UNL A   1      33.318  30.820  27.520  1.00  0.00     0.042 C 
ENDROOT
BRANCH   1   2
ATOM      2  C   UNL A   1      33.654  29.584  26.341  1.00  0.00     0.118 C 
BRANCH   2   3
ATOM      3  N   UNL A   1      32.366  28.493  24.991  1.00  0.00    -0.351 N 
ATOM      4  C   UNL A   1      31.987  27.446  24.096  1.00  0.00     0.269 C 
ATOM      5  O   UNL A   1      30.816  27.471  23.708  1.00  0.00    -0.268 OA
ATOM      6  H   UNL A   1      31.555  29.052  24.996  1.00  0.00     0.163 HD
BRANCH   4   7
ATOM      7  C   UNL A   1      32.849  26.348  23.721  1.00  0.00     0.126 A 
ATOM      8  C   UNL A   1      33.356  25.281  24.443  1.00  0.00     0.011 A 
ATOM      9  C   UNL A   1      34.048  24.498  23.503  1.00  0.00     0.140 A 
ATOM     10  N   UNL A   1      34.012  25.029  22.279  1.00  0.00    -0.183 NA
ATOM     11  N   UNL A   1      33.292  26.157  22.442  1.00  0.00    -0.273 N 
ATOM     12  H   UNL A   1      33.104  26.785  21.707  1.00  0.00     0.190 HD
BRANCH   8  13
ATOM     13  C   UNL A   1      33.135  25.062  25.893  1.00  0.00     0.069 C 
ATOM     14  O   UNL A   1      29.365  25.339  26.427  1.00  0.00    -0.275 OA
ATOM     15  C   UNL A   1      30.440  24.819  26.108  1.00  0.00     0.226 C 
ATOM     16  C   UNL A   1      31.763  25.598  26.368  1.00  0.00     0.114 C 
ATOM     17  N   UNL A   1      30.422  23.519  25.658  1.00  0.00    -0.311 N 
ATOM     18  C   UNL A   1      31.587  22.814  25.761  1.00  0.00     0.132 A 
ATOM     19  H   UNL A   1      29.607  23.117  25.280  1.00  0.00     0.171 HD
ATOM     20  C   UNL A   1      33.136  23.607  26.059  1.00  0.00     0.031 A 
ATOM     21  N   UNL A   1      31.900  21.000  25.615  1.00  0.00    -0.262 N 
ATOM     22  C   UNL A   1      34.528  22.232  25.974  1.00  0.00     0.108 A 
ATOM     23  N   UNL A   1      33.758  20.676  25.694  1.00  0.00    -0.173 NA
ATOM     24  H   UNL A   1      31.206  20.309  25.512  1.00  0.00     0.192 HD
BRANCH  22  25
ATOM     25  C   UNL A   1      35.971  22.533  25.833  1.00  0.00     0.055 A 
ATOM     26  C   UNL A   1      36.522  23.743  26.177  1.00  0.00     0.022 A 
ATOM     27  S   UNL A   1      37.123  21.385  25.347  1.00  0.00    -0.142 S 
ATOM     28  C   UNL A   1      37.945  23.699  26.103  1.00  0.00     0.012 A 
ATOM     29  C   UNL A   1      38.400  22.499  25.596  1.00  0.00     0.065 A 
ENDBRANCH  22  25
ENDBRANCH   8  13
ENDBRANCH   4   7
ENDBRANCH   2   3
ENDBRANCH   1   2
BRANCH   1  30
ATOM     30  C   UNL A   1      34.441  31.822  27.661  1.00  0.00     0.118 C 
BRANCH  30  31
ATOM     31  N   UNL A   1      34.490  32.480  28.958  1.00  0.00    -0.352 N 
ATOM     32  C   UNL A   1      35.290  32.077  30.011  1.00  0.00     0.251 C 
ATOM     33  H   UNL A   1      33.914  33.267  29.095  1.00  0.00     0.163 HD
ATOM     34  O   UNL A   1      35.008  32.306  31.177  1.00  0.00    -0.269 OA
BRANCH  32  35
ATOM     35  C   UNL A   1      36.577  31.479  29.617  1.00  0.00     0.039 A 
ATOM     36  C   UNL A   1      37.801  32.130  29.690  1.00  0.00     0.014 A 
ATOM     37  C   UNL A   1      36.507  30.117  29.335  1.00  0.00     0.014 A 
ATOM     38  C   UNL A   1      38.946  31.372  29.412  1.00  0.00     0.010 A 
ATOM     39  C   UNL A   1      37.641  29.390  29.541  1.00  0.00     0.010 A 
ATOM     40  C   UNL A   1      38.856  29.963  29.288  1.00  0.00    -0.014 A 
BRANCH  40  41
ATOM     41  C   UNL A   1      39.990  29.030  29.304  1.00  0.00     0.031 A 
ATOM     42  C   UNL A   1      40.281  28.659  30.709  1.00  0.00     0.074 A 
ATOM     43  C   UNL A   1      40.652  28.516  28.221  1.00  0.00     0.049 A 
ATOM     44  N   UNL A   1      41.052  29.364  31.462  1.00  0.00    -0.248 NA
ATOM     45  C   UNL A   1      39.430  27.730  31.477  1.00  0.00     0.031 C 
ATOM     46  C   UNL A   1      40.411  28.659  26.775  1.00  0.00     0.029 A 
ATOM     47  N   UNL A   1      41.793  27.740  28.213  1.00  0.00    -0.354 N 
ATOM     48  C   UNL A   1      41.072  28.742  32.691  1.00  0.00     0.074 A 
ATOM     49  C   UNL A   1      39.905  27.899  32.720  1.00  0.00     0.031 C 
ATOM     50  C   UNL A   1      41.233  27.836  26.060  1.00  0.00     0.029 A 
ATOM     51  C   UNL A   1      42.176  27.191  26.965  1.00  0.00     0.049 A 
ATOM     52  H   UNL A   1      42.313  27.577  29.033  1.00  0.00     0.167 HD
ATOM     53  C   UNL A   1      42.234  28.766  33.396  1.00  0.00     0.031 A 
ATOM     54  C   UNL A   1      43.326  26.494  26.650  1.00  0.00     0.031 A 
ATOM     55  C   UNL A   1      43.142  29.745  32.831  1.00  0.00     0.049 A 
ATOM     56  C   UNL A   1      44.316  26.851  27.703  1.00  0.00     0.074 A 
ATOM     57  C   UNL A   1      43.088  31.113  32.632  1.00  0.00     0.029 A 
ATOM     58  N   UNL A   1      44.032  29.253  31.902  1.00  0.00    -0.354 N 
ATOM     59  N   UNL A   1      44.821  28.051  27.782  1.00  0.00    -0.248 NA
ATOM     60  C   UNL A   1      44.240  26.099  28.949  1.00  0.00     0.031 C 
ATOM     61  C   UNL A   1      43.590  31.314  31.311  1.00  0.00     0.029 A 
ATOM     62  C   UNL A   1      44.073  30.100  30.823  1.00  0.00     0.049 A 
ATOM     63  H   UNL A   1      44.556  28.425  31.998  1.00  0.00     0.167 HD
ATOM     64  C   UNL A   1      44.680  28.391  29.117  1.00  0.00     0.074 A 
ATOM     65  C   UNL A   1      44.318  27.134  29.792  1.00  0.00     0.031 C 
ATOM     66  C   UNL A   1      44.516  29.690  29.505  1.00  0.00     0.031 A 
BRANCH  53  67
ATOM     67  C   UNL A   1      42.732  27.602  34.205  1.00  0.00    -0.014 A 
ATOM     68  C   UNL A   1      42.878  27.783  35.594  1.00  0.00     0.010 A 
ATOM     69  C   UNL A   1      43.325  26.457  33.635  1.00  0.00     0.010 A 
ATOM     70  C   UNL A   1      43.611  26.882  36.370  1.00  0.00     0.020 A 
ATOM     71  C   UNL A   1      44.036  25.534  34.408  1.00  0.00     0.020 A 
ATOM     72  C   UNL A   1      44.182  25.759  35.772  1.00  0.00     0.054 A 
BRANCH  72  73
ATOM     73  S   UNL A   1      45.111  24.603  36.806  1.00  0.00     0.124 S 
ATOM     74  O   UNL A   1      44.573  24.877  38.135  1.00  0.00    -0.237 OA
ATOM     75  O   UNL A   1      44.739  23.315  36.225  1.00  0.00    -0.237 OA
ATOM     76  O   UNL A   1      46.502  24.996  36.595  1.00  0.00    -0.744 OA
ENDBRANCH  72  73
ENDBRANCH  53  67
BRANCH  54  77
ATOM     77  C   UNL A   1      43.484  25.178  25.915  1.00  0.00    -0.014 A 
ATOM     78  C   UNL A   1      44.605  24.881  25.086  1.00  0.00     0.010 A 
ATOM     79  C   UNL A   1      42.681  24.088  26.279  1.00  0.00     0.010 A 
ATOM     80  C   UNL A   1      44.945  23.550  24.726  1.00  0.00     0.020 A 
ATOM     81  C   UNL A   1      43.015  22.764  25.935  1.00  0.00     0.020 A 
ATOM     82  C   UNL A   1      44.161  22.492  25.189  1.00  0.00     0.054 A 
BRANCH  82  83
ATOM     83  S   UNL A   1      44.698  20.757  24.957  1.00  0.00     0.124 S 
ATOM     84  O   UNL A   1      44.585  20.576  23.513  1.00  0.00    -0.237 OA
ATOM     85  O   UNL A   1      46.059  20.765  25.486  1.00  0.00    -0.237 OA
ATOM     86  O   UNL A   1      43.736  19.995  25.751  1.00  0.00    -0.744 OA
ENDBRANCH  82  83
ENDBRANCH  54  77
BRANCH  66  87
ATOM     87  C   UNL A   1      44.723  30.789  28.481  1.00  0.00    -0.014 A 
ATOM     88  C   UNL A   1      43.748  31.287  27.587  1.00  0.00     0.010 A 
ATOM     89  C   UNL A   1      45.964  31.442  28.533  1.00  0.00     0.010 A 
ATOM     90  C   UNL A   1      44.036  32.382  26.747  1.00  0.00     0.020 A 
ATOM     91  C   UNL A   1      46.249  32.536  27.719  1.00  0.00     0.020 A 
ATOM     92  C   UNL A   1      45.294  32.992  26.814  1.00  0.00     0.054 A 
BRANCH  92  93
ATOM     93  S   UNL A   1      45.696  34.389  25.722  1.00  0.00     0.124 S 
ATOM     94  O   UNL A   1      44.890  34.108  24.538  1.00  0.00    -0.237 OA
ATOM     95  O   UNL A   1      45.277  35.547  26.508  1.00  0.00    -0.237 OA
ATOM     96  O   UNL A   1      47.140  34.274  25.526  1.00  0.00    -0.744 OA
ENDBRANCH  92  93
ENDBRANCH  66  87
ENDBRANCH  40  41
ENDBRANCH  32  35
ENDBRANCH  30  31
ENDBRANCH   1  30
TORSDOF 15
ENDMDL
MODEL 2
REMARK VINA RESULT:     -13.7      4.055     10.982
REMARK SMILES O=C1C[C@H](c2cn[nH]c2C(=O)NCCCNC(=O)c2ccc(-c3c4nc(c(-c5ccc(S(=O)(=O)[O-])cc5)c5ccc([nH]5)c(-c5ccc(S(=O)(=O)[O-])cc5)c5nc(c(-c6ccc(S(=O)(=O)[O-])cc6)c6ccc3[nH]6)C=C5)C=C4)cc2)c2c(-c3cccs3)n[nH]c2N1
REMARK SMILES IDX 14 1 13 2 12 3 10 4 11 5 9 7 5 8 6 9 7 10 8 11 4 13 1 14
REMARK SMILES IDX 2 15 3 16 89 17 88 18 79 20 87 21 80 22 86 23 81 25 82 26
REMARK SMILES IDX 85 27 83 28 84 29 15 30 16 31 17 32 18 34 19 35 20 36 78 37
REMARK SMILES IDX 21 38 77 39 22 40 23 41 24 42 71 43 25 44 76 45 70 46 72 47
REMARK SMILES IDX 26 48 75 49 69 50 68 51 27 53 57 54 38 55 56 56 39 57 42 58
REMARK SMILES IDX 55 59 73 60 40 61 41 62 54 64 74 65 43 66 28 67 29 68 37 69
REMARK SMILES IDX 30 70 36 71 31 72 32 73 33 74 34 75 35 76 58 77 59 78 67 79
REMARK SMILES IDX 60 80 66 81 61 82 62 83 63 84 64 85 65 86 44 87 45 88 53 89
REMARK SMILES IDX 46 90 52 91 47 92 48 93 49 94 50 95 51 96
REMARK H PARENT 12 6 8 12 89 19 87 24 16 33 72 52 42 63
REMARK Flexibility Score: inf
ROOT
ATOM      1  C   UNL A   1      47.831  26.828  29.511  1.00  0.00     0.042 C 
ENDROOT
BRANCH   1   2
ATOM      2  C   UNL A   1      47.228  26.552  27.902  1.00  0.00     0.118 C 
BRANCH   2   3
ATOM      3  N   UNL A   1      45.218  26.364  27.128  1.00  0.00    -0.351 N 
ATOM      4  C   UNL A   1      43.923  25.784  26.964  1.00  0.00     0.269 C 
ATOM      5  O   UNL A   1      43.130  26.431  26.275  1.00  0.00    -0.268 OA
ATOM      6  H   UNL A   1      45.162  27.144  26.531  1.00  0.00     0.163 HD
BRANCH   4   7
ATOM      7  C   UNL A   1      43.486  24.575  27.625  1.00  0.00     0.126 A 
ATOM      8  C   UNL A   1      43.114  23.335  27.135  1.00  0.00     0.011 A 
ATOM      9  C   UNL A   1      42.889  22.543  28.274  1.00  0.00     0.140 A 
ATOM     10  N   UNL A   1      43.077  23.222  29.407  1.00  0.00    -0.183 NA
ATOM     11  N   UNL A   1      43.423  24.455  28.986  1.00  0.00    -0.273 N 
ATOM     12  H   UNL A   1      43.613  25.199  29.602  1.00  0.00     0.190 HD
BRANCH   8  13
ATOM     13  C   UNL A   1      43.033  22.986  25.696  1.00  0.00     0.069 C 
ATOM     14  O   UNL A   1      46.330  21.253  24.856  1.00  0.00    -0.275 OA
ATOM     15  C   UNL A   1      45.182  21.376  25.298  1.00  0.00     0.226 C 
ATOM     16  C   UNL A   1      44.426  22.719  25.075  1.00  0.00     0.114 C 
ATOM     17  N   UNL A   1      44.581  20.271  25.854  1.00  0.00    -0.311 N 
ATOM     18  C   UNL A   1      43.216  20.267  25.899  1.00  0.00     0.132 A 
ATOM     19  H   UNL A   1      45.110  19.517  26.201  1.00  0.00     0.171 HD
ATOM     20  C   UNL A   1      42.270  21.737  25.653  1.00  0.00     0.031 A 
ATOM     21  N   UNL A   1      42.036  18.883  26.220  1.00  0.00    -0.262 N 
ATOM     22  C   UNL A   1      40.388  21.284  25.959  1.00  0.00     0.108 A 
ATOM     23  N   UNL A   1      40.278  19.565  26.308  1.00  0.00    -0.173 NA
ATOM     24  H   UNL A   1      42.285  17.936  26.327  1.00  0.00     0.192 HD
BRANCH  22  25
ATOM     25  C   UNL A   1      39.328  22.294  26.182  1.00  0.00     0.055 A 
ATOM     26  C   UNL A   1      39.521  23.434  26.923  1.00  0.00     0.022 A 
ATOM     27  S   UNL A   1      37.796  22.218  25.454  1.00  0.00    -0.142 S 
ATOM     28  C   UNL A   1      38.396  24.304  26.829  1.00  0.00     0.012 A 
ATOM     29  C   UNL A   1      37.359  23.734  26.120  1.00  0.00     0.065 A 
ENDBRANCH  22  25
ENDBRANCH   8  13
ENDBRANCH   4   7
ENDBRANCH   2   3
ENDBRANCH   1   2
BRANCH   1  30
ATOM     30  C   UNL A   1      46.744  27.203  30.492  1.00  0.00     0.118 C 
BRANCH  30  31
ATOM     31  N   UNL A   1      46.428  26.158  31.455  1.00  0.00    -0.352 N 
ATOM     32  C   UNL A   1      45.714  26.360  32.621  1.00  0.00     0.251 C 
ATOM     33  H   UNL A   1      46.743  25.246  31.262  1.00  0.00     0.163 HD
ATOM     34  O   UNL A   1      45.846  25.647  33.604  1.00  0.00    -0.269 OA
BRANCH  32  35
ATOM     35  C   UNL A   1      44.681  27.407  32.543  1.00  0.00     0.039 A 
ATOM     36  C   UNL A   1      44.792  28.665  33.119  1.00  0.00     0.014 A 
ATOM     37  C   UNL A   1      43.636  27.108  31.672  1.00  0.00     0.014 A 
ATOM     38  C   UNL A   1      43.782  29.592  32.830  1.00  0.00     0.010 A 
ATOM     39  C   UNL A   1      42.996  28.166  31.099  1.00  0.00     0.010 A 
ATOM     40  C   UNL A   1      42.827  29.314  31.821  1.00  0.00    -0.014 A 
BRANCH  40  41
ATOM     41  C   UNL A   1      41.919  30.295  31.210  1.00  0.00     0.031 A 
ATOM     42  C   UNL A   1      42.718  31.448  30.731  1.00  0.00     0.074 A 
ATOM     43  C   UNL A   1      40.566  30.172  31.037  1.00  0.00     0.049 A 
ATOM     44  N   UNL A   1      43.024  32.439  31.495  1.00  0.00    -0.248 NA
ATOM     45  C   UNL A   1      43.557  31.382  29.520  1.00  0.00     0.031 C 
ATOM     46  C   UNL A   1      39.646  29.056  31.315  1.00  0.00     0.029 A 
ATOM     47  N   UNL A   1      39.680  31.126  30.582  1.00  0.00    -0.354 N 
ATOM     48  C   UNL A   1      43.782  33.299  30.731  1.00  0.00     0.074 A 
ATOM     49  C   UNL A   1      44.268  32.515  29.627  1.00  0.00     0.031 C 
ATOM     50  C   UNL A   1      38.397  29.323  30.834  1.00  0.00     0.029 A 
ATOM     51  C   UNL A   1      38.356  30.689  30.327  1.00  0.00     0.049 A 
ATOM     52  H   UNL A   1      39.952  32.062  30.442  1.00  0.00     0.167 HD
ATOM     53  C   UNL A   1      43.639  34.634  30.948  1.00  0.00     0.031 A 
ATOM     54  C   UNL A   1      37.251  31.447  29.994  1.00  0.00     0.031 A 
ATOM     55  C   UNL A   1      42.932  34.865  32.193  1.00  0.00     0.049 A 
ATOM     56  C   UNL A   1      37.562  32.834  30.436  1.00  0.00     0.074 A 
ATOM     57  C   UNL A   1      43.178  34.550  33.517  1.00  0.00     0.029 A 
ATOM     58  N   UNL A   1      41.568  35.014  32.076  1.00  0.00    -0.354 N 
ATOM     59  N   UNL A   1      37.644  33.140  31.701  1.00  0.00    -0.248 NA
ATOM     60  C   UNL A   1      38.356  33.645  29.523  1.00  0.00     0.031 C 
ATOM     61  C   UNL A   1      41.929  34.076  34.022  1.00  0.00     0.029 A 
ATOM     62  C   UNL A   1      40.948  34.269  33.049  1.00  0.00     0.049 A 
ATOM     63  H   UNL A   1      41.110  35.566  31.402  1.00  0.00     0.167 HD
ATOM     64  C   UNL A   1      38.835  33.841  31.804  1.00  0.00     0.074 A 
ATOM     65  C   UNL A   1      39.228  34.127  30.415  1.00  0.00     0.031 C 
ATOM     66  C   UNL A   1      39.574  33.820  32.952  1.00  0.00     0.031 A 
BRANCH  53  67
ATOM     67  C   UNL A   1      43.649  35.654  29.845  1.00  0.00    -0.014 A 
ATOM     68  C   UNL A   1      44.492  36.772  29.994  1.00  0.00     0.010 A 
ATOM     69  C   UNL A   1      42.675  35.708  28.827  1.00  0.00     0.010 A 
ATOM     70  C   UNL A   1      44.346  37.904  29.188  1.00  0.00     0.020 A 
ATOM     71  C   UNL A   1      42.540  36.825  27.996  1.00  0.00     0.020 A 
ATOM     72  C   UNL A   1      43.372  37.921  28.190  1.00  0.00     0.054 A 
BRANCH  72  73
ATOM     73  S   UNL A   1      43.218  39.394  27.152  1.00  0.00     0.124 S 
ATOM     74  O   UNL A   1      42.000  39.111  26.398  1.00  0.00    -0.237 OA
ATOM     75  O   UNL A   1      43.112  40.455  28.151  1.00  0.00    -0.237 OA
ATOM     76  O   UNL A   1      44.454  39.397  26.376  1.00  0.00    -0.744 OA
ENDBRANCH  72  73
ENDBRANCH  53  67
BRANCH  54  77
ATOM     77  C   UNL A   1      36.247  31.246  28.876  1.00  0.00    -0.014 A 
ATOM     78  C   UNL A   1      36.107  30.016  28.169  1.00  0.00     0.010 A 
ATOM     79  C   UNL A   1      35.206  32.172  28.714  1.00  0.00     0.010 A 
ATOM     80  C   UNL A   1      34.942  29.706  27.420  1.00  0.00     0.020 A 
ATOM     81  C   UNL A   1      34.043  31.869  27.981  1.00  0.00     0.020 A 
ATOM     82  C   UNL A   1      33.895  30.628  27.363  1.00  0.00     0.054 A 
BRANCH  82  83
ATOM     83  S   UNL A   1      32.286  30.174  26.619  1.00  0.00     0.124 S 
ATOM     84  O   UNL A   1      31.844  29.064  27.458  1.00  0.00    -0.237 OA
ATOM     85  O   UNL A   1      31.512  31.406  26.745  1.00  0.00    -0.237 OA
ATOM     86  O   UNL A   1      32.637  29.808  25.247  1.00  0.00    -0.744 OA
ENDBRANCH  82  83
ENDBRANCH  54  77
BRANCH  66  87
ATOM     87  C   UNL A   1      38.965  33.211  34.201  1.00  0.00    -0.014 A 
ATOM     88  C   UNL A   1      38.920  31.834  34.518  1.00  0.00     0.010 A 
ATOM     89  C   UNL A   1      38.529  34.125  35.172  1.00  0.00     0.010 A 
ATOM     90  C   UNL A   1      38.413  31.398  35.759  1.00  0.00     0.020 A 
ATOM     91  C   UNL A   1      38.044  33.702  36.408  1.00  0.00     0.020 A 
ATOM     92  C   UNL A   1      37.967  32.341  36.692  1.00  0.00     0.054 A 
BRANCH  92  93
ATOM     93  S   UNL A   1      37.286  31.801  38.289  1.00  0.00     0.124 S 
ATOM     94  O   UNL A   1      37.016  30.386  38.056  1.00  0.00    -0.237 OA
ATOM     95  O   UNL A   1      38.374  32.089  39.220  1.00  0.00    -0.237 OA
ATOM     96  O   UNL A   1      36.097  32.635  38.460  1.00  0.00    -0.744 OA
ENDBRANCH  92  93
ENDBRANCH  66  87
ENDBRANCH  40  41
ENDBRANCH  32  35
ENDBRANCH  30  31
ENDBRANCH   1  30
TORSDOF 15
ENDMDL
MODEL 3
REMARK VINA RESULT:     -13.7      1.662      2.680
REMARK SMILES O=C1C[C@H](c2cn[nH]c2C(=O)NCCCNC(=O)c2ccc(-c3c4nc(c(-c5ccc(S(=O)(=O)[O-])cc5)c5ccc([nH]5)c(-c5ccc(S(=O)(=O)[O-])cc5)c5nc(c(-c6ccc(S(=O)(=O)[O-])cc6)c6ccc3[nH]6)C=C5)C=C4)cc2)c2c(-c3cccs3)n[nH]c2N1
REMARK SMILES IDX 14 1 13 2 12 3 10 4 11 5 9 7 5 8 6 9 7 10 8 11 4 13 1 14
REMARK SMILES IDX 2 15 3 16 89 17 88 18 79 20 87 21 80 22 86 23 81 25 82 26
REMARK SMILES IDX 85 27 83 28 84 29 15 30 16 31 17 32 18 34 19 35 20 36 78 37
REMARK SMILES IDX 21 38 77 39 22 40 23 41 24 42 71 43 25 44 76 45 70 46 72 47
REMARK SMILES IDX 26 48 75 49 69 50 68 51 27 53 57 54 38 55 56 56 39 57 42 58
REMARK SMILES IDX 55 59 73 60 40 61 41 62 54 64 74 65 43 66 28 67 29 68 37 69
REMARK SMILES IDX 30 70 36 71 31 72 32 73 33 74 34 75 35 76 58 77 59 78 67 79
REMARK SMILES IDX 60 80 66 81 61 82 62 83 63 84 64 85 65 86 44 87 45 88 53 89
REMARK SMILES IDX 46 90 52 91 47 92 48 93 49 94 50 95 51 96
REMARK H PARENT 12 6 8 12 89 19 87 24 16 33 72 52 42 63
REMARK Flexibility Score: inf
ROOT
ATOM      1  C   UNL A   1      33.184  29.654  26.398  1.00  0.00     0.042 C 
ENDROOT
BRANCH   1   2
ATOM      2  C   UNL A   1      31.967  28.469  26.775  1.00  0.00     0.118 C 
BRANCH   2   3
ATOM      3  N   UNL A   1      30.820  27.132  25.522  1.00  0.00    -0.351 N 
ATOM      4  C   UNL A   1      30.310  25.881  25.057  1.00  0.00     0.269 C 
ATOM      5  O   UNL A   1      29.464  25.948  24.161  1.00  0.00    -0.268 OA
ATOM      6  H   UNL A   1      30.394  27.763  24.898  1.00  0.00     0.163 HD
BRANCH   4   7
ATOM      7  C   UNL A   1      30.651  24.602  25.635  1.00  0.00     0.126 A 
ATOM      8  C   UNL A   1      31.591  23.648  25.283  1.00  0.00     0.011 A 
ATOM      9  C   UNL A   1      31.512  22.667  26.287  1.00  0.00     0.140 A 
ATOM     10  N   UNL A   1      30.581  22.951  27.199  1.00  0.00    -0.183 NA
ATOM     11  N   UNL A   1      30.063  24.121  26.772  1.00  0.00    -0.273 N 
ATOM     12  H   UNL A   1      29.330  24.585  27.237  1.00  0.00     0.190 HD
BRANCH   8  13
ATOM     13  C   UNL A   1      32.482  23.738  24.102  1.00  0.00     0.069 C 
ATOM     14  O   UNL A   1      33.973  27.252  24.185  1.00  0.00    -0.275 OA
ATOM     15  C   UNL A   1      33.833  26.061  24.485  1.00  0.00     0.226 C 
ATOM     16  C   UNL A   1      32.793  25.203  23.708  1.00  0.00     0.114 C 
ATOM     17  N   UNL A   1      34.700  25.520  25.406  1.00  0.00    -0.311 N 
ATOM     18  C   UNL A   1      34.858  24.164  25.383  1.00  0.00     0.132 A 
ATOM     19  H   UNL A   1      35.184  26.085  26.050  1.00  0.00     0.171 HD
ATOM     20  C   UNL A   1      33.734  23.107  24.525  1.00  0.00     0.031 A 
ATOM     21  N   UNL A   1      36.144  23.099  26.173  1.00  0.00    -0.262 N 
ATOM     22  C   UNL A   1      34.266  21.258  24.894  1.00  0.00     0.108 A 
ATOM     23  N   UNL A   1      35.710  21.283  25.897  1.00  0.00    -0.173 NA
ATOM     24  H   UNL A   1      36.933  23.428  26.662  1.00  0.00     0.192 HD
BRANCH  22  25
ATOM     25  C   UNL A   1      33.392  20.088  24.645  1.00  0.00     0.055 A 
ATOM     26  C   UNL A   1      32.822  19.825  23.424  1.00  0.00     0.022 A 
ATOM     27  S   UNL A   1      33.095  18.880  25.799  1.00  0.00    -0.142 S 
ATOM     28  C   UNL A   1      32.177  18.553  23.422  1.00  0.00     0.012 A 
ATOM     29  C   UNL A   1      32.189  17.966  24.670  1.00  0.00     0.065 A 
ENDBRANCH  22  25
ENDBRANCH   8  13
ENDBRANCH   4   7
ENDBRANCH   2   3
ENDBRANCH   1   2
BRANCH   1  30
ATOM     30  C   UNL A   1      33.647  30.432  27.608  1.00  0.00     0.118 C 
BRANCH  30  31
ATOM     31  N   UNL A   1      34.325  31.679  27.289  1.00  0.00    -0.352 N 
ATOM     32  C   UNL A   1      35.497  32.106  27.883  1.00  0.00     0.251 C 
ATOM     33  H   UNL A   1      33.921  32.258  26.603  1.00  0.00     0.163 HD
ATOM     34  O   UNL A   1      35.798  33.287  27.970  1.00  0.00    -0.269 OA
BRANCH  32  35
ATOM     35  C   UNL A   1      36.422  31.029  28.274  1.00  0.00     0.039 A 
ATOM     36  C   UNL A   1      36.535  29.812  27.615  1.00  0.00     0.014 A 
ATOM     37  C   UNL A   1      37.333  31.394  29.262  1.00  0.00     0.014 A 
ATOM     38  C   UNL A   1      37.563  28.954  28.028  1.00  0.00     0.010 A 
ATOM     39  C   UNL A   1      38.527  30.738  29.267  1.00  0.00     0.010 A 
ATOM     40  C   UNL A   1      38.563  29.417  28.917  1.00  0.00    -0.014 A 
BRANCH  40  41
ATOM     41  C   UNL A   1      39.842  28.745  29.189  1.00  0.00     0.031 A 
ATOM     42  C   UNL A   1      39.979  28.558  30.653  1.00  0.00     0.074 A 
ATOM     43  C   UNL A   1      40.750  28.295  28.268  1.00  0.00     0.049 A 
ATOM     44  N   UNL A   1      40.473  29.468  31.420  1.00  0.00    -0.248 NA
ATOM     45  C   UNL A   1      39.218  27.538  31.397  1.00  0.00     0.031 C 
ATOM     46  C   UNL A   1      40.711  28.266  26.796  1.00  0.00     0.029 A 
ATOM     47  N   UNL A   1      42.007  27.776  28.500  1.00  0.00    -0.354 N 
ATOM     48  C   UNL A   1      40.424  28.965  32.701  1.00  0.00     0.074 A 
ATOM     49  C   UNL A   1      39.453  27.903  32.666  1.00  0.00     0.031 C 
ATOM     50  C   UNL A   1      41.777  27.578  26.294  1.00  0.00     0.029 A 
ATOM     51  C   UNL A   1      42.677  27.219  27.383  1.00  0.00     0.049 A 
ATOM     52  H   UNL A   1      42.417  27.793  29.395  1.00  0.00     0.167 HD
ATOM     53  C   UNL A   1      41.436  29.288  33.549  1.00  0.00     0.031 A 
ATOM     54  C   UNL A   1      43.976  26.755  27.304  1.00  0.00     0.031 A 
ATOM     55  C   UNL A   1      42.212  30.387  33.006  1.00  0.00     0.049 A 
ATOM     56  C   UNL A   1      44.703  27.394  28.435  1.00  0.00     0.074 A 
ATOM     57  C   UNL A   1      41.924  31.692  32.652  1.00  0.00     0.029 A 
ATOM     58  N   UNL A   1      43.313  30.017  32.266  1.00  0.00    -0.354 N 
ATOM     59  N   UNL A   1      44.947  28.676  28.447  1.00  0.00    -0.248 NA
ATOM     60  C   UNL A   1      44.583  26.747  29.734  1.00  0.00     0.031 C 
ATOM     61  C   UNL A   1      42.575  31.886  31.395  1.00  0.00     0.029 A 
ATOM     62  C   UNL A   1      43.354  30.764  31.114  1.00  0.00     0.049 A 
ATOM     63  H   UNL A   1      43.968  29.328  32.522  1.00  0.00     0.167 HD
ATOM     64  C   UNL A   1      44.538  29.086  29.706  1.00  0.00     0.074 A 
ATOM     65  C   UNL A   1      44.327  27.841  30.461  1.00  0.00     0.031 C 
ATOM     66  C   UNL A   1      44.066  30.349  29.922  1.00  0.00     0.031 A 
BRANCH  53  67
ATOM     67  C   UNL A   1      42.020  28.324  34.541  1.00  0.00    -0.014 A 
ATOM     68  C   UNL A   1      42.844  28.846  35.558  1.00  0.00     0.010 A 
ATOM     69  C   UNL A   1      42.032  26.926  34.353  1.00  0.00     0.010 A 
ATOM     70  C   UNL A   1      43.666  28.017  36.325  1.00  0.00     0.020 A 
ATOM     71  C   UNL A   1      42.829  26.085  35.134  1.00  0.00     0.020 A 
ATOM     72  C   UNL A   1      43.649  26.639  36.111  1.00  0.00     0.054 A 
BRANCH  72  73
ATOM     73  S   UNL A   1      44.712  25.589  37.130  1.00  0.00     0.124 S 
ATOM     74  O   UNL A   1      44.557  24.284  36.493  1.00  0.00    -0.237 OA
ATOM     75  O   UNL A   1      46.016  26.226  36.960  1.00  0.00    -0.237 OA
ATOM     76  O   UNL A   1      44.134  25.711  38.466  1.00  0.00    -0.744 OA
ENDBRANCH  72  73
ENDBRANCH  53  67
BRANCH  54  77
ATOM     77  C   UNL A   1      44.498  25.446  26.748  1.00  0.00    -0.014 A 
ATOM     78  C   UNL A   1      44.733  24.296  27.557  1.00  0.00     0.010 A 
ATOM     79  C   UNL A   1      44.471  25.230  25.362  1.00  0.00     0.010 A 
ATOM     80  C   UNL A   1      44.839  22.993  27.003  1.00  0.00     0.020 A 
ATOM     81  C   UNL A   1      44.566  23.940  24.805  1.00  0.00     0.020 A 
ATOM     82  C   UNL A   1      44.716  22.821  25.623  1.00  0.00     0.054 A 
BRANCH  82  83
ATOM     83  S   UNL A   1      44.601  21.146  24.894  1.00  0.00     0.124 S 
ATOM     84  O   UNL A   1      45.801  20.489  25.405  1.00  0.00    -0.237 OA
ATOM     85  O   UNL A   1      43.336  20.648  25.425  1.00  0.00    -0.237 OA
ATOM     86  O   UNL A   1      44.604  21.401  23.454  1.00  0.00    -0.744 OA
ENDBRANCH  82  83
ENDBRANCH  54  77
BRANCH  66  87
ATOM     87  C   UNL A   1      44.211  31.381  28.820  1.00  0.00    -0.014 A 
ATOM     88  C   UNL A   1      45.053  32.515  28.848  1.00  0.00     0.010 A 
ATOM     89  C   UNL A   1      43.533  31.093  27.625  1.00  0.00     0.010 A 
ATOM     90  C   UNL A   1      45.173  33.351  27.718  1.00  0.00     0.020 A 
ATOM     91  C   UNL A   1      43.661  31.904  26.499  1.00  0.00     0.020 A 
ATOM     92  C   UNL A   1      44.464  33.041  26.552  1.00  0.00     0.054 A 
BRANCH  92  93
ATOM     93  S   UNL A   1      44.583  34.116  25.092  1.00  0.00     0.124 S 
ATOM     94  O   UNL A   1      44.337  33.188  23.993  1.00  0.00    -0.237 OA
ATOM     95  O   UNL A   1      43.533  35.104  25.329  1.00  0.00    -0.237 OA
ATOM     96  O   UNL A   1      45.945  34.645  25.159  1.00  0.00    -0.744 OA
ENDBRANCH  92  93
ENDBRANCH  66  87
ENDBRANCH  40  41
ENDBRANCH  32  35
ENDBRANCH  30  31
ENDBRANCH   1  30
TORSDOF 15
ENDMDL
