MODEL 1
REMARK VINA RESULT:     -10.9      0.000      0.000
REMARK SMILES COc1ccc(OCC(=O)N/N=C(/C)C(=O)NCCCNC(=O)c2ccc(-c3c4nc(c(-c5ccc(S(=O)(=O)[O-])cc5)c5ccc([nH]5)c(-c5ccc(S(=O)(=O)[O-])cc5)c5nc(c(-c6ccc(S(=O)(=O)[O-])cc6)c6ccc3[nH]6)C=C5)C=C4)cc2)cc1
REMARK SMILES IDX 18 1 17 2 15 3 16 4 13 6 12 7 14 8 11 9 9 10 10 11 8 13 7 14
REMARK SMILES IDX 6 15 3 16 4 17 85 18 5 19 84 20 2 21 1 22 19 23 20 24 21 25
REMARK SMILES IDX 22 26 23 28 24 29 25 30 83 31 26 32 82 33 27 34 28 35 29 36
REMARK SMILES IDX 76 37 30 38 81 39 75 40 77 41 31 42 80 43 74 44 73 45 32 47
REMARK SMILES IDX 62 48 43 49 61 50 44 51 47 52 60 53 78 54 45 55 46 56 59 58
REMARK SMILES IDX 79 59 48 60 33 61 34 62 42 63 35 64 41 65 36 66 37 67 38 68
REMARK SMILES IDX 39 69 40 70 63 71 64 72 72 73 65 74 71 75 66 76 67 77 68 78
REMARK SMILES IDX 69 79 70 80 49 81 50 82 58 83 51 84 57 85 52 86 53 87 54 88
REMARK SMILES IDX 55 89 56 90
REMARK H PARENT 17 5 11 12 21 27 77 46 47 57
REMARK Flexibility Score: inf
ROOT
ATOM      1  C   UNL A   1      32.487  28.828  24.903  1.00  0.00     0.118 C 
ENDROOT
BRANCH   1   2
ATOM      2  N   UNL A   1      31.217  29.497  24.673  1.00  0.00    -0.351 N 
ATOM      3  C   UNL A   1      30.268  29.332  23.697  1.00  0.00     0.267 C 
ATOM      4  O   UNL A   1      29.575  30.284  23.356  1.00  0.00    -0.268 OA
ATOM      5  H   UNL A   1      30.998  30.191  25.335  1.00  0.00     0.163 HD
BRANCH   3   6
ATOM      6  C   UNL A   1      29.921  27.950  23.186  1.00  0.00     0.122 C 
ATOM      7  N   UNL A   1      30.684  27.219  22.424  1.00  0.00    -0.172 NA
ATOM      8  C   UNL A   1      28.635  27.327  23.659  1.00  0.00     0.075 C 
BRANCH   7   9
ATOM      9  N   UNL A   1      31.949  27.563  22.055  1.00  0.00    -0.244 N 
ATOM     10  C   UNL A   1      33.054  26.849  21.680  1.00  0.00     0.277 C 
ATOM     11  O   UNL A   1      34.122  27.469  21.555  1.00  0.00    -0.269 OA
ATOM     12  H   UNL A   1      32.101  28.536  22.060  1.00  0.00     0.193 HD
BRANCH  10  13
ATOM     13  C   UNL A   1      33.034  25.347  21.410  1.00  0.00     0.331 C 
BRANCH  13  14
ATOM     14  O   UNL A   1      33.709  24.502  22.318  1.00  0.00    -0.484 OA
BRANCH  14  15
ATOM     15  C   UNL A   1      33.186  24.391  23.575  1.00  0.00     0.120 A 
ATOM     16  C   UNL A   1      31.855  24.096  26.032  1.00  0.00     0.119 A 
ATOM     17  C   UNL A   1      31.222  23.747  24.839  1.00  0.00     0.050 A 
ATOM     18  C   UNL A   1      33.167  24.565  25.993  1.00  0.00     0.050 A 
ATOM     19  C   UNL A   1      31.883  23.894  23.618  1.00  0.00     0.050 A 
ATOM     20  C   UNL A   1      33.830  24.715  24.770  1.00  0.00     0.050 A 
BRANCH  16  21
ATOM     21  O   UNL A   1      31.100  23.927  27.160  1.00  0.00    -0.497 OA
ATOM     22  C   UNL A   1      30.035  22.990  27.068  1.00  0.00     0.278 C 
ENDBRANCH  16  21
ENDBRANCH  14  15
ENDBRANCH  13  14
ENDBRANCH  10  13
ENDBRANCH   7   9
ENDBRANCH   3   6
ENDBRANCH   1   2
BRANCH   1  23
ATOM     23  C   UNL A   1      32.411  28.058  26.222  1.00  0.00     0.042 C 
BRANCH  23  24
ATOM     24  C   UNL A   1      33.451  28.507  27.246  1.00  0.00     0.118 C 
BRANCH  24  25
ATOM     25  N   UNL A   1      33.420  29.943  27.472  1.00  0.00    -0.352 N 
ATOM     26  C   UNL A   1      34.394  30.740  28.026  1.00  0.00     0.251 C 
ATOM     27  H   UNL A   1      32.596  30.403  27.191  1.00  0.00     0.163 HD
ATOM     28  O   UNL A   1      34.148  31.906  28.314  1.00  0.00    -0.269 OA
BRANCH  26  29
ATOM     29  C   UNL A   1      35.729  30.166  28.298  1.00  0.00     0.039 A 
ATOM     30  C   UNL A   1      36.691  30.178  27.285  1.00  0.00     0.014 A 
ATOM     31  C   UNL A   1      36.036  29.649  29.561  1.00  0.00     0.014 A 
ATOM     32  C   UNL A   1      37.987  29.735  27.561  1.00  0.00     0.010 A 
ATOM     33  C   UNL A   1      37.341  29.260  29.848  1.00  0.00     0.010 A 
ATOM     34  C   UNL A   1      38.331  29.307  28.853  1.00  0.00    -0.014 A 
BRANCH  34  35
ATOM     35  C   UNL A   1      39.722  28.920  29.196  1.00  0.00     0.031 A 
ATOM     36  C   UNL A   1      40.646  29.915  29.842  1.00  0.00     0.074 A 
ATOM     37  C   UNL A   1      40.181  27.701  28.851  1.00  0.00     0.049 A 
ATOM     38  N   UNL A   1      41.920  29.798  30.116  1.00  0.00    -0.248 NA
ATOM     39  C   UNL A   1      40.067  31.219  30.204  1.00  0.00     0.031 C 
ATOM     40  C   UNL A   1      39.399  26.657  28.185  1.00  0.00     0.029 A 
ATOM     41  N   UNL A   1      41.424  27.139  29.000  1.00  0.00    -0.354 N 
ATOM     42  C   UNL A   1      42.302  31.020  30.657  1.00  0.00     0.074 A 
ATOM     43  C   UNL A   1      41.132  31.872  30.645  1.00  0.00     0.031 C 
ATOM     44  C   UNL A   1      40.175  25.577  27.998  1.00  0.00     0.029 A 
ATOM     45  C   UNL A   1      41.517  25.863  28.497  1.00  0.00     0.049 A 
ATOM     46  H   UNL A   1      42.178  27.606  29.427  1.00  0.00     0.167 HD
ATOM     47  C   UNL A   1      43.515  31.397  31.128  1.00  0.00     0.031 A 
ATOM     48  C   UNL A   1      42.567  25.021  28.432  1.00  0.00     0.031 A 
ATOM     49  C   UNL A   1      44.672  30.546  31.163  1.00  0.00     0.049 A 
ATOM     50  C   UNL A   1      43.897  25.455  28.975  1.00  0.00     0.074 A 
ATOM     51  C   UNL A   1      45.928  30.820  31.676  1.00  0.00     0.029 A 
ATOM     52  N   UNL A   1      44.716  29.252  30.667  1.00  0.00    -0.354 N 
ATOM     53  N   UNL A   1      44.227  26.601  29.522  1.00  0.00    -0.248 NA
ATOM     54  C   UNL A   1      44.996  24.482  28.896  1.00  0.00     0.031 C 
ATOM     55  C   UNL A   1      46.741  29.700  31.465  1.00  0.00     0.029 A 
ATOM     56  C   UNL A   1      45.981  28.718  30.849  1.00  0.00     0.049 A 
ATOM     57  H   UNL A   1      43.960  28.782  30.246  1.00  0.00     0.167 HD
ATOM     58  C   UNL A   1      45.568  26.481  29.865  1.00  0.00     0.074 A 
ATOM     59  C   UNL A   1      45.986  25.149  29.475  1.00  0.00     0.031 C 
ATOM     60  C   UNL A   1      46.381  27.394  30.452  1.00  0.00     0.031 A 
BRANCH  47  61
ATOM     61  C   UNL A   1      43.643  32.805  31.640  1.00  0.00    -0.014 A 
ATOM     62  C   UNL A   1      43.387  33.109  32.989  1.00  0.00     0.010 A 
ATOM     63  C   UNL A   1      44.033  33.834  30.765  1.00  0.00     0.010 A 
ATOM     64  C   UNL A   1      43.473  34.426  33.443  1.00  0.00     0.020 A 
ATOM     65  C   UNL A   1      44.141  35.151  31.221  1.00  0.00     0.020 A 
ATOM     66  C   UNL A   1      43.838  35.441  32.554  1.00  0.00     0.054 A 
BRANCH  66  67
ATOM     67  S   UNL A   1      43.943  37.147  33.162  1.00  0.00     0.124 S 
ATOM     68  O   UNL A   1      42.766  37.229  34.024  1.00  0.00    -0.237 OA
ATOM     69  O   UNL A   1      45.230  37.167  33.855  1.00  0.00    -0.237 OA
ATOM     70  O   UNL A   1      43.884  37.952  31.945  1.00  0.00    -0.744 OA
ENDBRANCH  66  67
ENDBRANCH  47  61
BRANCH  48  71
ATOM     71  C   UNL A   1      42.389  23.671  27.837  1.00  0.00    -0.014 A 
ATOM     72  C   UNL A   1      42.779  23.429  26.508  1.00  0.00     0.010 A 
ATOM     73  C   UNL A   1      41.863  22.617  28.603  1.00  0.00     0.010 A 
ATOM     74  C   UNL A   1      42.644  22.154  25.954  1.00  0.00     0.020 A 
ATOM     75  C   UNL A   1      41.741  21.337  28.057  1.00  0.00     0.020 A 
ATOM     76  C   UNL A   1      42.126  21.115  26.733  1.00  0.00     0.054 A 
BRANCH  76  77
ATOM     77  S   UNL A   1      42.028  19.446  26.025  1.00  0.00     0.124 S 
ATOM     78  O   UNL A   1      42.579  18.628  27.100  1.00  0.00    -0.237 OA
ATOM     79  O   UNL A   1      40.597  19.287  25.779  1.00  0.00    -0.237 OA
ATOM     80  O   UNL A   1      42.850  19.543  24.821  1.00  0.00    -0.744 OA
ENDBRANCH  76  77
ENDBRANCH  48  71
BRANCH  60  81
ATOM     81  C   UNL A   1      47.798  26.978  30.726  1.00  0.00    -0.014 A 
ATOM     82  C   UNL A   1      48.809  27.200  29.775  1.00  0.00     0.010 A 
ATOM     83  C   UNL A   1      48.131  26.412  31.968  1.00  0.00     0.010 A 
ATOM     84  C   UNL A   1      50.130  26.843  30.057  1.00  0.00     0.020 A 
ATOM     85  C   UNL A   1      49.453  26.070  32.260  1.00  0.00     0.020 A 
ATOM     86  C   UNL A   1      50.444  26.278  31.297  1.00  0.00     0.054 A 
BRANCH  86  87
ATOM     87  S   UNL A   1      52.172  25.871  31.666  1.00  0.00     0.124 S 
ATOM     88  O   UNL A   1      52.078  24.465  32.047  1.00  0.00    -0.237 OA
ATOM     89  O   UNL A   1      52.847  26.134  30.397  1.00  0.00    -0.237 OA
ATOM     90  O   UNL A   1      52.518  26.790  32.748  1.00  0.00    -0.744 OA
ENDBRANCH  86  87
ENDBRANCH  60  81
ENDBRANCH  34  35
ENDBRANCH  26  29
ENDBRANCH  24  25
ENDBRANCH  23  24
ENDBRANCH   1  23
TORSDOF 18
ENDMDL
MODEL 2
REMARK VINA RESULT:     -10.5      1.444      2.503
REMARK SMILES COc1ccc(OCC(=O)N/N=C(/C)C(=O)NCCCNC(=O)c2ccc(-c3c4nc(c(-c5ccc(S(=O)(=O)[O-])cc5)c5ccc([nH]5)c(-c5ccc(S(=O)(=O)[O-])cc5)c5nc(c(-c6ccc(S(=O)(=O)[O-])cc6)c6ccc3[nH]6)C=C5)C=C4)cc2)cc1
REMARK SMILES IDX 18 1 17 2 15 3 16 4 13 6 12 7 14 8 11 9 9 10 10 11 8 13 7 14
REMARK SMILES IDX 6 15 3 16 4 17 85 18 5 19 84 20 2 21 1 22 19 23 20 24 21 25
REMARK SMILES IDX 22 26 23 28 24 29 25 30 83 31 26 32 82 33 27 34 28 35 29 36
REMARK SMILES IDX 76 37 30 38 81 39 75 40 77 41 31 42 80 43 74 44 73 45 32 47
REMARK SMILES IDX 62 48 43 49 61 50 44 51 47 52 60 53 78 54 45 55 46 56 59 58
REMARK SMILES IDX 79 59 48 60 33 61 34 62 42 63 35 64 41 65 36 66 37 67 38 68
REMARK SMILES IDX 39 69 40 70 63 71 64 72 72 73 65 74 71 75 66 76 67 77 68 78
REMARK SMILES IDX 69 79 70 80 49 81 50 82 58 83 51 84 57 85 52 86 53 87 54 88
REMARK SMILES IDX 55 89 56 90
REMARK H PARENT 17 5 11 12 21 27 77 46 47 57
REMARK Flexibility Score: inf
ROOT
ATOM      1  C   UNL A   1      32.335  27.522  25.370  1.00  0.00     0.118 C 
ENDROOT
BRANCH   1   2
ATOM      2  N   UNL A   1      30.937  27.336  25.020  1.00  0.00    -0.351 N 
ATOM      3  C   UNL A   1      30.342  26.663  23.983  1.00  0.00     0.267 C 
ATOM      4  O   UNL A   1      29.259  27.042  23.554  1.00  0.00    -0.268 OA
ATOM      5  H   UNL A   1      30.304  27.768  25.637  1.00  0.00     0.163 HD
BRANCH   3   6
ATOM      6  C   UNL A   1      30.901  25.341  23.503  1.00  0.00     0.122 C 
ATOM      7  N   UNL A   1      30.846  24.219  24.164  1.00  0.00    -0.172 NA
ATOM      8  C   UNL A   1      31.490  25.285  22.119  1.00  0.00     0.075 C 
BRANCH   7   9
ATOM      9  N   UNL A   1      30.192  24.062  25.348  1.00  0.00    -0.244 N 
ATOM     10  C   UNL A   1      30.542  23.536  26.562  1.00  0.00     0.277 C 
ATOM     11  O   UNL A   1      29.644  23.397  27.406  1.00  0.00    -0.269 OA
ATOM     12  H   UNL A   1      29.266  24.398  25.325  1.00  0.00     0.193 HD
BRANCH  10  13
ATOM     13  C   UNL A   1      31.967  23.121  26.919  1.00  0.00     0.331 C 
BRANCH  13  14
ATOM     14  O   UNL A   1      32.598  22.154  26.106  1.00  0.00    -0.484 OA
BRANCH  14  15
ATOM     15  C   UNL A   1      33.955  22.240  25.971  1.00  0.00     0.120 A 
ATOM     16  C   UNL A   1      36.743  22.129  25.646  1.00  0.00     0.119 A 
ATOM     17  C   UNL A   1      35.956  21.008  25.383  1.00  0.00     0.050 A 
ATOM     18  C   UNL A   1      36.128  23.314  26.045  1.00  0.00     0.050 A 
ATOM     19  C   UNL A   1      34.570  21.063  25.545  1.00  0.00     0.050 A 
ATOM     20  C   UNL A   1      34.739  23.370  26.210  1.00  0.00     0.050 A 
BRANCH  16  21
ATOM     21  O   UNL A   1      38.088  21.947  25.472  1.00  0.00    -0.497 OA
ATOM     22  C   UNL A   1      38.939  22.747  26.282  1.00  0.00     0.278 C 
ENDBRANCH  16  21
ENDBRANCH  14  15
ENDBRANCH  13  14
ENDBRANCH  10  13
ENDBRANCH   7   9
ENDBRANCH   3   6
ENDBRANCH   1   2
BRANCH   1  23
ATOM     23  C   UNL A   1      32.433  27.880  26.854  1.00  0.00     0.042 C 
BRANCH  23  24
ATOM     24  C   UNL A   1      33.785  28.472  27.246  1.00  0.00     0.118 C 
BRANCH  24  25
ATOM     25  N   UNL A   1      33.686  29.871  27.628  1.00  0.00    -0.352 N 
ATOM     26  C   UNL A   1      34.622  30.647  28.270  1.00  0.00     0.251 C 
ATOM     27  H   UNL A   1      32.841  30.320  27.396  1.00  0.00     0.163 HD
ATOM     28  O   UNL A   1      34.321  31.762  28.684  1.00  0.00    -0.269 OA
BRANCH  26  29
ATOM     29  C   UNL A   1      35.982  30.111  28.483  1.00  0.00     0.039 A 
ATOM     30  C   UNL A   1      36.900  30.153  27.431  1.00  0.00     0.014 A 
ATOM     31  C   UNL A   1      36.357  29.598  29.730  1.00  0.00     0.014 A 
ATOM     32  C   UNL A   1      38.219  29.747  27.650  1.00  0.00     0.010 A 
ATOM     33  C   UNL A   1      37.684  29.246  29.960  1.00  0.00     0.010 A 
ATOM     34  C   UNL A   1      38.629  29.325  28.925  1.00  0.00    -0.014 A 
BRANCH  34  35
ATOM     35  C   UNL A   1      40.044  28.976  29.206  1.00  0.00     0.031 A 
ATOM     36  C   UNL A   1      40.974  30.005  29.786  1.00  0.00     0.074 A 
ATOM     37  C   UNL A   1      40.514  27.760  28.864  1.00  0.00     0.049 A 
ATOM     38  N   UNL A   1      42.263  29.922  30.001  1.00  0.00    -0.248 NA
ATOM     39  C   UNL A   1      40.383  31.303  30.150  1.00  0.00     0.031 C 
ATOM     40  C   UNL A   1      39.725  26.685  28.259  1.00  0.00     0.029 A 
ATOM     41  N   UNL A   1      41.775  27.230  28.963  1.00  0.00    -0.354 N 
ATOM     42  C   UNL A   1      42.642  31.164  30.497  1.00  0.00     0.074 A 
ATOM     43  C   UNL A   1      41.453  31.989  30.525  1.00  0.00     0.031 C 
ATOM     44  C   UNL A   1      40.516  25.619  28.055  1.00  0.00     0.029 A 
ATOM     45  C   UNL A   1      41.874  25.946  28.482  1.00  0.00     0.049 A 
ATOM     46  H   UNL A   1      42.538  27.723  29.344  1.00  0.00     0.167 HD
ATOM     47  C   UNL A   1      43.867  31.577  30.900  1.00  0.00     0.031 A 
ATOM     48  C   UNL A   1      42.939  25.127  28.383  1.00  0.00     0.031 A 
ATOM     49  C   UNL A   1      45.044  30.754  30.896  1.00  0.00     0.049 A 
ATOM     50  C   UNL A   1      44.283  25.601  28.852  1.00  0.00     0.074 A 
ATOM     51  C   UNL A   1      46.317  31.066  31.342  1.00  0.00     0.029 A 
ATOM     52  N   UNL A   1      45.094  29.451  30.424  1.00  0.00    -0.354 N 
ATOM     53  N   UNL A   1      44.612  26.766  29.359  1.00  0.00    -0.248 NA
ATOM     54  C   UNL A   1      45.399  24.651  28.739  1.00  0.00     0.031 C 
ATOM     55  C   UNL A   1      47.144  29.960  31.114  1.00  0.00     0.029 A 
ATOM     56  C   UNL A   1      46.378  28.950  30.555  1.00  0.00     0.049 A 
ATOM     57  H   UNL A   1      44.330  28.955  30.051  1.00  0.00     0.167 HD
ATOM     58  C   UNL A   1      45.971  26.683  29.638  1.00  0.00     0.074 A 
ATOM     59  C   UNL A   1      46.401  25.353  29.255  1.00  0.00     0.031 C 
ATOM     60  C   UNL A   1      46.790  27.626  30.166  1.00  0.00     0.031 A 
BRANCH  47  61
ATOM     61  C   UNL A   1      43.986  32.999  31.378  1.00  0.00    -0.014 A 
ATOM     62  C   UNL A   1      43.799  33.324  32.732  1.00  0.00     0.010 A 
ATOM     63  C   UNL A   1      44.300  34.019  30.462  1.00  0.00     0.010 A 
ATOM     64  C   UNL A   1      43.875  34.652  33.156  1.00  0.00     0.020 A 
ATOM     65  C   UNL A   1      44.399  35.347  30.886  1.00  0.00     0.020 A 
ATOM     66  C   UNL A   1      44.164  35.657  32.227  1.00  0.00     0.054 A 
BRANCH  66  67
ATOM     67  S   UNL A   1      44.258  37.377  32.796  1.00  0.00     0.124 S 
ATOM     68  O   UNL A   1      43.156  37.436  33.753  1.00  0.00    -0.237 OA
ATOM     69  O   UNL A   1      45.597  37.455  33.377  1.00  0.00    -0.237 OA
ATOM     70  O   UNL A   1      44.068  38.155  31.575  1.00  0.00    -0.744 OA
ENDBRANCH  66  67
ENDBRANCH  47  61
BRANCH  48  71
ATOM     71  C   UNL A   1      42.764  23.761  27.824  1.00  0.00    -0.014 A 
ATOM     72  C   UNL A   1      42.482  22.680  28.677  1.00  0.00     0.010 A 
ATOM     73  C   UNL A   1      42.845  23.541  26.438  1.00  0.00     0.010 A 
ATOM     74  C   UNL A   1      42.286  21.399  28.153  1.00  0.00     0.020 A 
ATOM     75  C   UNL A   1      42.634  22.265  25.909  1.00  0.00     0.020 A 
ATOM     76  C   UNL A   1      42.362  21.201  26.771  1.00  0.00     0.054 A 
BRANCH  76  77
ATOM     77  S   UNL A   1      42.028  19.548  26.099  1.00  0.00     0.124 S 
ATOM     78  O   UNL A   1      42.411  18.685  27.211  1.00  0.00    -0.237 OA
ATOM     79  O   UNL A   1      40.598  19.605  25.806  1.00  0.00    -0.237 OA
ATOM     80  O   UNL A   1      42.893  19.482  24.923  1.00  0.00    -0.744 OA
ENDBRANCH  76  77
ENDBRANCH  48  71
BRANCH  60  81
ATOM     81  C   UNL A   1      48.227  27.248  30.379  1.00  0.00    -0.014 A 
ATOM     82  C   UNL A   1      49.195  27.516  29.394  1.00  0.00     0.010 A 
ATOM     83  C   UNL A   1      48.624  26.671  31.597  1.00  0.00     0.010 A 
ATOM     84  C   UNL A   1      50.535  27.194  29.620  1.00  0.00     0.020 A 
ATOM     85  C   UNL A   1      49.966  26.363  31.833  1.00  0.00     0.020 A 
ATOM     86  C   UNL A   1      50.912  26.617  30.837  1.00  0.00     0.054 A 
BRANCH  86  87
ATOM     87  S   UNL A   1      52.665  26.255  31.133  1.00  0.00     0.124 S 
ATOM     88  O   UNL A   1      52.594  25.001  31.876  1.00  0.00    -0.237 OA
ATOM     89  O   UNL A   1      53.209  26.155  29.781  1.00  0.00    -0.237 OA
ATOM     90  O   UNL A   1      53.130  27.410  31.899  1.00  0.00    -0.744 OA
ENDBRANCH  86  87
ENDBRANCH  60  81
ENDBRANCH  34  35
ENDBRANCH  26  29
ENDBRANCH  24  25
ENDBRANCH  23  24
ENDBRANCH   1  23
TORSDOF 18
ENDMDL
MODEL 3
REMARK VINA RESULT:     -10.1      4.488     10.304
REMARK SMILES COc1ccc(OCC(=O)N/N=C(/C)C(=O)NCCCNC(=O)c2ccc(-c3c4nc(c(-c5ccc(S(=O)(=O)[O-])cc5)c5ccc([nH]5)c(-c5ccc(S(=O)(=O)[O-])cc5)c5nc(c(-c6ccc(S(=O)(=O)[O-])cc6)c6ccc3[nH]6)C=C5)C=C4)cc2)cc1
REMARK SMILES IDX 18 1 17 2 15 3 16 4 13 6 12 7 14 8 11 9 9 10 10 11 8 13 7 14
REMARK SMILES IDX 6 15 3 16 4 17 85 18 5 19 84 20 2 21 1 22 19 23 20 24 21 25
REMARK SMILES IDX 22 26 23 28 24 29 25 30 83 31 26 32 82 33 27 34 28 35 29 36
REMARK SMILES IDX 76 37 30 38 81 39 75 40 77 41 31 42 80 43 74 44 73 45 32 47
REMARK SMILES IDX 62 48 43 49 61 50 44 51 47 52 60 53 78 54 45 55 46 56 59 58
REMARK SMILES IDX 79 59 48 60 33 61 34 62 42 63 35 64 41 65 36 66 37 67 38 68
REMARK SMILES IDX 39 69 40 70 63 71 64 72 72 73 65 74 71 75 66 76 67 77 68 78
REMARK SMILES IDX 69 79 70 80 49 81 50 82 58 83 51 84 57 85 52 86 53 87 54 88
REMARK SMILES IDX 55 89 56 90
REMARK H PARENT 17 5 11 12 21 27 77 46 47 57
REMARK Flexibility Score: inf
ROOT
ATOM      1  C   UNL A   1      36.150  23.837  25.141  1.00  0.00     0.118 C 
ENDROOT
BRANCH   1   2
ATOM      2  N   UNL A   1      34.968  23.516  25.923  1.00  0.00    -0.351 N 
ATOM      3  C   UNL A   1      33.701  23.149  25.546  1.00  0.00     0.267 C 
ATOM      4  O   UNL A   1      32.748  23.434  26.260  1.00  0.00    -0.268 OA
ATOM      5  H   UNL A   1      35.100  23.569  26.896  1.00  0.00     0.163 HD
BRANCH   3   6
ATOM      6  C   UNL A   1      33.487  22.218  24.371  1.00  0.00     0.122 C 
ATOM      7  N   UNL A   1      33.354  22.595  23.131  1.00  0.00    -0.172 NA
ATOM      8  C   UNL A   1      33.516  20.736  24.632  1.00  0.00     0.075 C 
BRANCH   7   9
ATOM      9  N   UNL A   1      33.481  23.882  22.705  1.00  0.00    -0.244 N 
ATOM     10  C   UNL A   1      32.600  24.913  22.526  1.00  0.00     0.277 C 
ATOM     11  O   UNL A   1      33.020  25.935  21.963  1.00  0.00    -0.269 OA
ATOM     12  H   UNL A   1      34.408  24.122  22.475  1.00  0.00     0.193 HD
BRANCH  10  13
ATOM     13  C   UNL A   1      31.144  24.864  22.983  1.00  0.00     0.331 C 
BRANCH  13  14
ATOM     14  O   UNL A   1      30.844  25.310  24.289  1.00  0.00    -0.484 OA
BRANCH  14  15
ATOM     15  C   UNL A   1      31.067  26.628  24.566  1.00  0.00     0.120 A 
ATOM     16  C   UNL A   1      31.666  29.250  25.379  1.00  0.00     0.119 A 
ATOM     17  C   UNL A   1      32.203  28.159  26.061  1.00  0.00     0.050 A 
ATOM     18  C   UNL A   1      30.851  29.025  24.271  1.00  0.00     0.050 A 
ATOM     19  C   UNL A   1      31.905  26.856  25.658  1.00  0.00     0.050 A 
ATOM     20  C   UNL A   1      30.550  27.719  23.867  1.00  0.00     0.050 A 
BRANCH  16  21
ATOM     21  O   UNL A   1      32.012  30.475  25.880  1.00  0.00    -0.497 OA
ATOM     22  C   UNL A   1      32.695  30.473  27.127  1.00  0.00     0.278 C 
ENDBRANCH  16  21
ENDBRANCH  14  15
ENDBRANCH  13  14
ENDBRANCH  10  13
ENDBRANCH   7   9
ENDBRANCH   3   6
ENDBRANCH   1   2
BRANCH   1  23
ATOM     23  C   UNL A   1      37.378  23.232  25.823  1.00  0.00     0.042 C 
BRANCH  23  24
ATOM     24  C   UNL A   1      38.321  24.279  26.410  1.00  0.00     0.118 C 
BRANCH  24  25
ATOM     25  N   UNL A   1      39.719  23.903  26.274  1.00  0.00    -0.352 N 
ATOM     26  C   UNL A   1      40.828  24.554  26.760  1.00  0.00     0.251 C 
ATOM     27  H   UNL A   1      39.893  23.075  25.770  1.00  0.00     0.163 HD
ATOM     28  O   UNL A   1      41.951  24.208  26.408  1.00  0.00    -0.269 OA
BRANCH  26  29
ATOM     29  C   UNL A   1      40.650  25.693  27.685  1.00  0.00     0.039 A 
ATOM     30  C   UNL A   1      39.655  25.623  28.662  1.00  0.00     0.014 A 
ATOM     31  C   UNL A   1      41.488  26.811  27.605  1.00  0.00     0.014 A 
ATOM     32  C   UNL A   1      39.545  26.646  29.608  1.00  0.00     0.010 A 
ATOM     33  C   UNL A   1      41.412  27.800  28.582  1.00  0.00     0.010 A 
ATOM     34  C   UNL A   1      40.445  27.723  29.597  1.00  0.00    -0.014 A 
BRANCH  34  35
ATOM     35  C   UNL A   1      40.408  28.773  30.645  1.00  0.00     0.031 A 
ATOM     36  C   UNL A   1      41.334  28.693  31.827  1.00  0.00     0.074 A 
ATOM     37  C   UNL A   1      39.487  29.754  30.576  1.00  0.00     0.049 A 
ATOM     38  N   UNL A   1      41.376  29.452  32.892  1.00  0.00    -0.248 NA
ATOM     39  C   UNL A   1      42.323  27.603  31.822  1.00  0.00     0.031 C 
ATOM     40  C   UNL A   1      38.506  29.924  29.502  1.00  0.00     0.029 A 
ATOM     41  N   UNL A   1      39.217  30.787  31.438  1.00  0.00    -0.354 N 
ATOM     42  C   UNL A   1      42.375  28.916  33.696  1.00  0.00     0.074 A 
ATOM     43  C   UNL A   1      42.894  27.753  33.009  1.00  0.00     0.031 C 
ATOM     44  C   UNL A   1      37.752  31.005  29.761  1.00  0.00     0.029 A 
ATOM     45  C   UNL A   1      38.172  31.584  31.034  1.00  0.00     0.049 A 
ATOM     46  H   UNL A   1      39.724  30.943  32.267  1.00  0.00     0.167 HD
ATOM     47  C   UNL A   1      42.827  29.358  34.895  1.00  0.00     0.031 A 
ATOM     48  C   UNL A   1      37.605  32.653  31.626  1.00  0.00     0.031 A 
ATOM     49  C   UNL A   1      42.332  30.526  35.569  1.00  0.00     0.049 A 
ATOM     50  C   UNL A   1      38.133  33.133  32.946  1.00  0.00     0.074 A 
ATOM     51  C   UNL A   1      42.767  31.085  36.758  1.00  0.00     0.029 A 
ATOM     52  N   UNL A   1      41.290  31.319  35.112  1.00  0.00    -0.354 N 
ATOM     53  N   UNL A   1      39.108  32.638  33.670  1.00  0.00    -0.248 NA
ATOM     54  C   UNL A   1      37.487  34.318  33.528  1.00  0.00     0.031 C 
ATOM     55  C   UNL A   1      41.970  32.202  37.035  1.00  0.00     0.029 A 
ATOM     56  C   UNL A   1      41.059  32.354  36.002  1.00  0.00     0.049 A 
ATOM     57  H   UNL A   1      40.788  31.167  34.279  1.00  0.00     0.167 HD
ATOM     58  C   UNL A   1      39.202  33.459  34.786  1.00  0.00     0.074 A 
ATOM     59  C   UNL A   1      38.193  34.490  34.639  1.00  0.00     0.031 C 
ATOM     60  C   UNL A   1      40.049  33.368  35.841  1.00  0.00     0.031 A 
BRANCH  47  61
ATOM     61  C   UNL A   1      43.917  28.557  35.552  1.00  0.00    -0.014 A 
ATOM     62  C   UNL A   1      45.271  28.854  35.321  1.00  0.00     0.010 A 
ATOM     63  C   UNL A   1      43.582  27.502  36.419  1.00  0.00     0.010 A 
ATOM     64  C   UNL A   1      46.273  28.078  35.909  1.00  0.00     0.020 A 
ATOM     65  C   UNL A   1      44.582  26.737  37.026  1.00  0.00     0.020 A 
ATOM     66  C   UNL A   1      45.922  27.018  36.749  1.00  0.00     0.054 A 
BRANCH  66  67
ATOM     67  S   UNL A   1      47.238  26.021  37.502  1.00  0.00     0.124 S 
ATOM     68  O   UNL A   1      48.268  27.026  37.750  1.00  0.00    -0.237 OA
ATOM     69  O   UNL A   1      46.592  25.477  38.695  1.00  0.00    -0.237 OA
ATOM     70  O   UNL A   1      47.560  25.038  36.471  1.00  0.00    -0.744 OA
ENDBRANCH  66  67
ENDBRANCH  47  61
BRANCH  48  71
ATOM     71  C   UNL A   1      36.475  33.349  30.957  1.00  0.00    -0.014 A 
ATOM     72  C   UNL A   1      35.285  33.599  31.661  1.00  0.00     0.010 A 
ATOM     73  C   UNL A   1      36.596  33.793  29.629  1.00  0.00     0.010 A 
ATOM     74  C   UNL A   1      34.231  34.281  31.047  1.00  0.00     0.020 A 
ATOM     75  C   UNL A   1      35.551  34.490  29.017  1.00  0.00     0.020 A 
ATOM     76  C   UNL A   1      34.372  34.724  29.728  1.00  0.00     0.054 A 
BRANCH  76  77
ATOM     77  S   UNL A   1      33.025  35.676  28.970  1.00  0.00     0.124 S 
ATOM     78  O   UNL A   1      32.423  34.691  28.077  1.00  0.00    -0.237 OA
ATOM     79  O   UNL A   1      32.216  36.061  30.124  1.00  0.00    -0.237 OA
ATOM     80  O   UNL A   1      33.722  36.779  28.313  1.00  0.00    -0.744 OA
ENDBRANCH  76  77
ENDBRANCH  48  71
BRANCH  60  81
ATOM     81  C   UNL A   1      39.937  34.420  36.907  1.00  0.00    -0.014 A 
ATOM     82  C   UNL A   1      40.724  35.583  36.856  1.00  0.00     0.010 A 
ATOM     83  C   UNL A   1      38.994  34.269  37.939  1.00  0.00     0.010 A 
ATOM     84  C   UNL A   1      40.583  36.571  37.834  1.00  0.00     0.020 A 
ATOM     85  C   UNL A   1      38.838  35.263  38.908  1.00  0.00     0.020 A 
ATOM     86  C   UNL A   1      39.642  36.404  38.855  1.00  0.00     0.054 A 
BRANCH  86  87
ATOM     87  S   UNL A   1      39.436  37.722  40.085  1.00  0.00     0.124 S 
ATOM     88  O   UNL A   1      40.677  38.474  39.934  1.00  0.00    -0.237 OA
ATOM     89  O   UNL A   1      38.227  38.405  39.629  1.00  0.00    -0.237 OA
ATOM     90  O   UNL A   1      39.293  36.996  41.345  1.00  0.00    -0.744 OA
ENDBRANCH  86  87
ENDBRANCH  60  81
ENDBRANCH  34  35
ENDBRANCH  26  29
ENDBRANCH  24  25
ENDBRANCH  23  24
ENDBRANCH   1  23
TORSDOF 18
ENDMDL
