MODEL 1
REMARK VINA RESULT:     -10.4      0.000      0.000
REMARK SMILES CSCCC(=O)N1[C@H](C)CCC[C@@H]1C(=O)NCCCNC(=O)c1ccc(-c2c3nc(c(-c4ccc(S(=O)(=O)[O-])cc4)c4ccc([nH]4)c(-c4ccc(S(=O)(=O)[O-])cc4)c4nc(c(-c5ccc(S(=O)(=O)[O-])cc5)c5ccc2[nH]5)C=C4)C=C3)cc1
REMARK SMILES IDX 17 1 16 2 14 3 15 4 13 6 7 7 8 8 9 9 10 10 12 11 11 12 5 13
REMARK SMILES IDX 6 14 4 15 3 16 2 17 1 18 18 19 19 20 20 21 21 22 22 24 23 25
REMARK SMILES IDX 24 26 82 27 25 28 81 29 26 30 27 31 28 32 75 33 29 34 80 35
REMARK SMILES IDX 74 36 76 37 30 38 79 39 73 40 72 41 31 43 61 44 42 45 60 46
REMARK SMILES IDX 43 47 46 48 59 49 77 50 44 51 45 52 58 54 78 55 47 56 32 57
REMARK SMILES IDX 33 58 41 59 34 60 40 61 35 62 36 63 37 64 38 65 39 66 62 67
REMARK SMILES IDX 63 68 71 69 64 70 70 71 65 72 66 73 67 74 68 75 69 76 48 77
REMARK SMILES IDX 49 78 57 79 50 80 56 81 51 82 52 83 53 84 54 85 55 86
REMARK H PARENT 16 5 20 23 76 42 46 53
REMARK Flexibility Score: inf
ROOT
ATOM      1  C   UNL A   1      31.400  27.514  26.392  1.00  0.00     0.117 C 
ENDROOT
BRANCH   1   2
ATOM      2  N   UNL A   1      31.061  26.119  26.573  1.00  0.00    -0.354 N 
ATOM      3  C   UNL A   1      31.764  24.962  26.424  1.00  0.00     0.242 C 
ATOM      4  O   UNL A   1      31.424  24.053  27.194  1.00  0.00    -0.273 OA
ATOM      5  H   UNL A   1      30.132  25.977  26.865  1.00  0.00     0.163 HD
BRANCH   3   6
ATOM      6  C   UNL A   1      32.861  24.690  25.344  1.00  0.00     0.174 C 
ATOM      7  N   UNL A   1      32.913  23.394  24.616  1.00  0.00    -0.328 N 
ATOM      8  C   UNL A   1      33.700  22.310  25.195  1.00  0.00     0.082 C 
ATOM      9  C   UNL A   1      32.848  21.211  25.832  1.00  0.00     0.031 C 
ATOM     10  C   UNL A   1      34.898  22.795  26.024  1.00  0.00     0.025 C 
ATOM     11  C   UNL A   1      34.247  25.203  25.768  1.00  0.00     0.035 C 
ATOM     12  C   UNL A   1      35.358  24.178  25.584  1.00  0.00     0.005 C 
BRANCH   7  13
ATOM     13  C   UNL A   1      32.562  23.354  23.258  1.00  0.00     0.224 C 
ATOM     14  O   UNL A   1      31.958  22.403  22.757  1.00  0.00    -0.275 OA
BRANCH  13  15
ATOM     15  C   UNL A   1      32.956  24.531  22.360  1.00  0.00     0.111 C 
BRANCH  15  16
ATOM     16  C   UNL A   1      31.806  25.465  21.961  1.00  0.00     0.079 C 
BRANCH  16  17
ATOM     17  S   UNL A   1      31.927  27.165  22.674  1.00  0.00    -0.165 SA
ATOM     18  C   UNL A   1      33.656  27.597  22.290  1.00  0.00     0.085 C 
ENDBRANCH  16  17
ENDBRANCH  15  16
ENDBRANCH  13  15
ENDBRANCH   7  13
ENDBRANCH   3   6
ENDBRANCH   1   2
BRANCH   1  19
ATOM     19  C   UNL A   1      31.995  28.202  27.609  1.00  0.00     0.042 C 
BRANCH  19  20
ATOM     20  C   UNL A   1      33.247  29.006  27.267  1.00  0.00     0.118 C 
BRANCH  20  21
ATOM     21  N   UNL A   1      33.347  30.356  27.813  1.00  0.00    -0.352 N 
ATOM     22  C   UNL A   1      34.473  30.983  28.331  1.00  0.00     0.251 C 
ATOM     23  H   UNL A   1      32.517  30.887  27.813  1.00  0.00     0.163 HD
ATOM     24  O   UNL A   1      34.407  32.133  28.735  1.00  0.00    -0.269 OA
BRANCH  22  25
ATOM     25  C   UNL A   1      35.737  30.212  28.453  1.00  0.00     0.039 A 
ATOM     26  C   UNL A   1      36.607  30.142  27.362  1.00  0.00     0.014 A 
ATOM     27  C   UNL A   1      36.113  29.660  29.676  1.00  0.00     0.014 A 
ATOM     28  C   UNL A   1      37.905  29.648  27.542  1.00  0.00     0.010 A 
ATOM     29  C   UNL A   1      37.435  29.295  29.884  1.00  0.00     0.010 A 
ATOM     30  C   UNL A   1      38.353  29.294  28.825  1.00  0.00    -0.014 A 
BRANCH  30  31
ATOM     31  C   UNL A   1      39.766  28.922  29.113  1.00  0.00     0.031 A 
ATOM     32  C   UNL A   1      40.708  29.961  29.665  1.00  0.00     0.074 A 
ATOM     33  C   UNL A   1      40.237  27.709  28.754  1.00  0.00     0.049 A 
ATOM     34  N   UNL A   1      42.010  29.919  29.785  1.00  0.00    -0.248 NA
ATOM     35  C   UNL A   1      40.110  31.241  30.084  1.00  0.00     0.031 C 
ATOM     36  C   UNL A   1      39.450  26.629  28.151  1.00  0.00     0.029 A 
ATOM     37  N   UNL A   1      41.504  27.185  28.828  1.00  0.00    -0.354 N 
ATOM     38  C   UNL A   1      42.387  31.179  30.236  1.00  0.00     0.074 A 
ATOM     39  C   UNL A   1      41.185  31.978  30.316  1.00  0.00     0.031 C 
ATOM     40  C   UNL A   1      40.243  25.565  27.941  1.00  0.00     0.029 A 
ATOM     41  C   UNL A   1      41.604  25.900  28.345  1.00  0.00     0.049 A 
ATOM     42  H   UNL A   1      42.272  27.683  29.191  1.00  0.00     0.167 HD
ATOM     43  C   UNL A   1      43.618  31.627  30.578  1.00  0.00     0.031 A 
ATOM     44  C   UNL A   1      42.671  25.084  28.234  1.00  0.00     0.031 A 
ATOM     45  C   UNL A   1      44.799  30.809  30.559  1.00  0.00     0.049 A 
ATOM     46  C   UNL A   1      44.019  25.579  28.682  1.00  0.00     0.074 A 
ATOM     47  C   UNL A   1      46.081  31.139  30.963  1.00  0.00     0.029 A 
ATOM     48  N   UNL A   1      44.838  29.490  30.135  1.00  0.00    -0.354 N 
ATOM     49  N   UNL A   1      44.347  26.760  29.148  1.00  0.00    -0.248 NA
ATOM     50  C   UNL A   1      45.137  24.630  28.599  1.00  0.00     0.031 C 
ATOM     51  C   UNL A   1      46.902  30.025  30.757  1.00  0.00     0.029 A 
ATOM     52  C   UNL A   1      46.121  28.990  30.266  1.00  0.00     0.049 A 
ATOM     53  H   UNL A   1      44.066  28.984  29.790  1.00  0.00     0.167 HD
ATOM     54  C   UNL A   1      45.703  26.687  29.443  1.00  0.00     0.074 A 
ATOM     55  C   UNL A   1      46.132  25.343  29.111  1.00  0.00     0.031 C 
ATOM     56  C   UNL A   1      46.520  27.644  29.946  1.00  0.00     0.031 A 
BRANCH  43  57
ATOM     57  C   UNL A   1      43.738  33.063  31.014  1.00  0.00    -0.014 A 
ATOM     58  C   UNL A   1      43.976  34.088  30.079  1.00  0.00     0.010 A 
ATOM     59  C   UNL A   1      43.599  33.397  32.373  1.00  0.00     0.010 A 
ATOM     60  C   UNL A   1      44.131  35.409  30.501  1.00  0.00     0.020 A 
ATOM     61  C   UNL A   1      43.721  34.724  32.796  1.00  0.00     0.020 A 
ATOM     62  C   UNL A   1      44.009  35.719  31.859  1.00  0.00     0.054 A 
BRANCH  62  63
ATOM     63  S   UNL A   1      44.208  37.444  32.379  1.00  0.00     0.124 S 
ATOM     64  O   UNL A   1      44.000  38.161  31.123  1.00  0.00    -0.237 OA
ATOM     65  O   UNL A   1      43.152  37.605  33.375  1.00  0.00    -0.237 OA
ATOM     66  O   UNL A   1      45.569  37.493  32.906  1.00  0.00    -0.744 OA
ENDBRANCH  62  63
ENDBRANCH  43  57
BRANCH  44  67
ATOM     67  C   UNL A   1      42.502  23.702  27.707  1.00  0.00    -0.014 A 
ATOM     68  C   UNL A   1      42.571  23.461  26.323  1.00  0.00     0.010 A 
ATOM     69  C   UNL A   1      42.291  22.619  28.578  1.00  0.00     0.010 A 
ATOM     70  C   UNL A   1      42.417  22.166  25.818  1.00  0.00     0.020 A 
ATOM     71  C   UNL A   1      42.160  21.318  28.079  1.00  0.00     0.020 A 
ATOM     72  C   UNL A   1      42.213  21.102  26.701  1.00  0.00     0.054 A 
BRANCH  72  73
ATOM     73  S   UNL A   1      42.073  19.422  26.028  1.00  0.00     0.124 S 
ATOM     74  O   UNL A   1      40.652  19.340  25.710  1.00  0.00    -0.237 OA
ATOM     75  O   UNL A   1      42.978  19.463  24.882  1.00  0.00    -0.237 OA
ATOM     76  O   UNL A   1      42.520  18.576  27.133  1.00  0.00    -0.744 OA
ENDBRANCH  72  73
ENDBRANCH  44  67
BRANCH  56  77
ATOM     77  C   UNL A   1      47.949  27.265  30.217  1.00  0.00    -0.014 A 
ATOM     78  C   UNL A   1      48.952  27.468  29.254  1.00  0.00     0.010 A 
ATOM     79  C   UNL A   1      48.301  26.771  31.487  1.00  0.00     0.010 A 
ATOM     80  C   UNL A   1      50.283  27.164  29.551  1.00  0.00     0.020 A 
ATOM     81  C   UNL A   1      49.633  26.489  31.794  1.00  0.00     0.020 A 
ATOM     82  C   UNL A   1      50.615  26.678  30.820  1.00  0.00     0.054 A 
BRANCH  82  83
ATOM     83  S   UNL A   1      52.357  26.351  31.203  1.00  0.00     0.124 S 
ATOM     84  O   UNL A   1      52.751  27.576  31.893  1.00  0.00    -0.237 OA
ATOM     85  O   UNL A   1      52.284  25.155  32.038  1.00  0.00    -0.237 OA
ATOM     86  O   UNL A   1      52.968  26.149  29.890  1.00  0.00    -0.744 OA
ENDBRANCH  82  83
ENDBRANCH  56  77
ENDBRANCH  30  31
ENDBRANCH  22  25
ENDBRANCH  20  21
ENDBRANCH  19  20
ENDBRANCH   1  19
TORSDOF 17
ENDMDL
MODEL 2
REMARK VINA RESULT:     -10.1      1.079      2.058
REMARK SMILES CSCCC(=O)N1[C@H](C)CCC[C@@H]1C(=O)NCCCNC(=O)c1ccc(-c2c3nc(c(-c4ccc(S(=O)(=O)[O-])cc4)c4ccc([nH]4)c(-c4ccc(S(=O)(=O)[O-])cc4)c4nc(c(-c5ccc(S(=O)(=O)[O-])cc5)c5ccc2[nH]5)C=C4)C=C3)cc1
REMARK SMILES IDX 17 1 16 2 14 3 15 4 13 6 7 7 8 8 9 9 10 10 12 11 11 12 5 13
REMARK SMILES IDX 6 14 4 15 3 16 2 17 1 18 18 19 19 20 20 21 21 22 22 24 23 25
REMARK SMILES IDX 24 26 82 27 25 28 81 29 26 30 27 31 28 32 75 33 29 34 80 35
REMARK SMILES IDX 74 36 76 37 30 38 79 39 73 40 72 41 31 43 61 44 42 45 60 46
REMARK SMILES IDX 43 47 46 48 59 49 77 50 44 51 45 52 58 54 78 55 47 56 32 57
REMARK SMILES IDX 33 58 41 59 34 60 40 61 35 62 36 63 37 64 38 65 39 66 62 67
REMARK SMILES IDX 63 68 71 69 64 70 70 71 65 72 66 73 67 74 68 75 69 76 48 77
REMARK SMILES IDX 49 78 57 79 50 80 56 81 51 82 52 83 53 84 54 85 55 86
REMARK H PARENT 16 5 20 23 76 42 46 53
REMARK Flexibility Score: inf
ROOT
ATOM      1  C   UNL A   1      31.518  27.574  26.284  1.00  0.00     0.117 C 
ENDROOT
BRANCH   1   2
ATOM      2  N   UNL A   1      30.605  26.475  26.511  1.00  0.00    -0.354 N 
ATOM      3  C   UNL A   1      30.625  25.159  26.161  1.00  0.00     0.242 C 
ATOM      4  O   UNL A   1      30.066  24.404  26.969  1.00  0.00    -0.273 OA
ATOM      5  H   UNL A   1      29.805  26.730  27.025  1.00  0.00     0.163 HD
BRANCH   3   6
ATOM      6  C   UNL A   1      31.205  24.574  24.833  1.00  0.00     0.174 C 
ATOM      7  N   UNL A   1      32.650  24.239  24.711  1.00  0.00    -0.328 N 
ATOM      8  C   UNL A   1      33.561  25.281  24.249  1.00  0.00     0.082 C 
ATOM      9  C   UNL A   1      34.426  25.872  25.363  1.00  0.00     0.031 C 
ATOM     10  C   UNL A   1      32.906  26.294  23.300  1.00  0.00     0.025 C 
ATOM     11  C   UNL A   1      30.636  25.266  23.583  1.00  0.00     0.035 C 
ATOM     12  C   UNL A   1      31.703  25.694  22.585  1.00  0.00     0.005 C 
BRANCH   7  13
ATOM     13  C   UNL A   1      33.041  22.893  24.652  1.00  0.00     0.224 C 
ATOM     14  O   UNL A   1      32.536  22.025  25.367  1.00  0.00    -0.275 OA
BRANCH  13  15
ATOM     15  C   UNL A   1      34.146  22.487  23.671  1.00  0.00     0.111 C 
BRANCH  15  16
ATOM     16  C   UNL A   1      35.577  22.609  24.209  1.00  0.00     0.079 C 
BRANCH  16  17
ATOM     17  S   UNL A   1      35.965  21.458  25.600  1.00  0.00    -0.165 SA
ATOM     18  C   UNL A   1      37.309  20.460  24.881  1.00  0.00     0.085 C 
ENDBRANCH  16  17
ENDBRANCH  15  16
ENDBRANCH  13  15
ENDBRANCH   7  13
ENDBRANCH   3   6
ENDBRANCH   1   2
BRANCH   1  19
ATOM     19  C   UNL A   1      32.194  28.124  27.529  1.00  0.00     0.042 C 
BRANCH  19  20
ATOM     20  C   UNL A   1      33.400  28.999  27.195  1.00  0.00     0.118 C 
BRANCH  20  21
ATOM     21  N   UNL A   1      33.474  30.311  27.831  1.00  0.00    -0.352 N 
ATOM     22  C   UNL A   1      34.586  30.918  28.402  1.00  0.00     0.251 C 
ATOM     23  H   UNL A   1      32.636  30.827  27.858  1.00  0.00     0.163 HD
ATOM     24  O   UNL A   1      34.498  32.037  28.881  1.00  0.00    -0.269 OA
BRANCH  22  25
ATOM     25  C   UNL A   1      35.860  30.159  28.486  1.00  0.00     0.039 A 
ATOM     26  C   UNL A   1      36.754  30.198  27.412  1.00  0.00     0.014 A 
ATOM     27  C   UNL A   1      36.219  29.510  29.665  1.00  0.00     0.014 A 
ATOM     28  C   UNL A   1      38.056  29.711  27.578  1.00  0.00     0.010 A 
ATOM     29  C   UNL A   1      37.543  29.149  29.871  1.00  0.00     0.010 A 
ATOM     30  C   UNL A   1      38.484  29.254  28.836  1.00  0.00    -0.014 A 
BRANCH  30  31
ATOM     31  C   UNL A   1      39.896  28.881  29.123  1.00  0.00     0.031 A 
ATOM     32  C   UNL A   1      40.837  29.917  29.683  1.00  0.00     0.074 A 
ATOM     33  C   UNL A   1      40.368  27.670  28.756  1.00  0.00     0.049 A 
ATOM     34  N   UNL A   1      42.139  29.874  29.805  1.00  0.00    -0.248 NA
ATOM     35  C   UNL A   1      40.238  31.193  30.111  1.00  0.00     0.031 C 
ATOM     36  C   UNL A   1      39.583  26.594  28.144  1.00  0.00     0.029 A 
ATOM     37  N   UNL A   1      41.636  27.148  28.827  1.00  0.00    -0.354 N 
ATOM     38  C   UNL A   1      42.515  31.132  30.265  1.00  0.00     0.074 A 
ATOM     39  C   UNL A   1      41.312  31.929  30.349  1.00  0.00     0.031 C 
ATOM     40  C   UNL A   1      40.377  25.533  27.928  1.00  0.00     0.029 A 
ATOM     41  C   UNL A   1      41.737  25.866  28.336  1.00  0.00     0.049 A 
ATOM     42  H   UNL A   1      42.403  27.643  29.195  1.00  0.00     0.167 HD
ATOM     43  C   UNL A   1      43.745  31.577  30.611  1.00  0.00     0.031 A 
ATOM     44  C   UNL A   1      42.805  25.051  28.220  1.00  0.00     0.031 A 
ATOM     45  C   UNL A   1      44.927  30.761  30.588  1.00  0.00     0.049 A 
ATOM     46  C   UNL A   1      44.152  25.544  28.672  1.00  0.00     0.074 A 
ATOM     47  C   UNL A   1      46.208  31.089  30.995  1.00  0.00     0.029 A 
ATOM     48  N   UNL A   1      44.967  29.445  30.154  1.00  0.00    -0.354 N 
ATOM     49  N   UNL A   1      44.479  26.722  29.147  1.00  0.00    -0.248 NA
ATOM     50  C   UNL A   1      45.271  24.596  28.584  1.00  0.00     0.031 C 
ATOM     51  C   UNL A   1      47.030  29.976  30.783  1.00  0.00     0.029 A 
ATOM     52  C   UNL A   1      46.250  28.945  30.283  1.00  0.00     0.049 A 
ATOM     53  H   UNL A   1      44.196  28.941  29.805  1.00  0.00     0.167 HD
ATOM     54  C   UNL A   1      45.835  26.647  29.443  1.00  0.00     0.074 A 
ATOM     55  C   UNL A   1      46.265  25.306  29.102  1.00  0.00     0.031 C 
ATOM     56  C   UNL A   1      46.650  27.602  29.954  1.00  0.00     0.031 A 
BRANCH  43  57
ATOM     57  C   UNL A   1      43.863  33.011  31.058  1.00  0.00    -0.014 A 
ATOM     58  C   UNL A   1      43.547  33.388  32.376  1.00  0.00     0.010 A 
ATOM     59  C   UNL A   1      44.308  33.992  30.155  1.00  0.00     0.010 A 
ATOM     60  C   UNL A   1      43.616  34.727  32.765  1.00  0.00     0.020 A 
ATOM     61  C   UNL A   1      44.410  35.330  30.550  1.00  0.00     0.020 A 
ATOM     62  C   UNL A   1      44.041  35.691  31.847  1.00  0.00     0.054 A 
BRANCH  62  63
ATOM     63  S   UNL A   1      44.129  37.422  32.381  1.00  0.00     0.124 S 
ATOM     64  O   UNL A   1      43.826  38.134  31.141  1.00  0.00    -0.237 OA
ATOM     65  O   UNL A   1      43.099  37.495  33.413  1.00  0.00    -0.237 OA
ATOM     66  O   UNL A   1      45.501  37.567  32.863  1.00  0.00    -0.744 OA
ENDBRANCH  62  63
ENDBRANCH  43  57
BRANCH  44  67
ATOM     67  C   UNL A   1      42.637  23.673  27.682  1.00  0.00    -0.014 A 
ATOM     68  C   UNL A   1      42.324  22.610  28.550  1.00  0.00     0.010 A 
ATOM     69  C   UNL A   1      42.768  23.414  26.306  1.00  0.00     0.010 A 
ATOM     70  C   UNL A   1      42.162  21.313  28.054  1.00  0.00     0.020 A 
ATOM     71  C   UNL A   1      42.583  22.122  25.804  1.00  0.00     0.020 A 
ATOM     72  C   UNL A   1      42.291  21.078  26.683  1.00  0.00     0.054 A 
BRANCH  72  73
ATOM     73  S   UNL A   1      42.019  19.396  26.054  1.00  0.00     0.124 S 
ATOM     74  O   UNL A   1      42.462  18.577  27.177  1.00  0.00    -0.237 OA
ATOM     75  O   UNL A   1      40.582  19.386  25.789  1.00  0.00    -0.237 OA
ATOM     76  O   UNL A   1      42.863  19.339  24.862  1.00  0.00    -0.744 OA
ENDBRANCH  72  73
ENDBRANCH  44  67
BRANCH  56  77
ATOM     77  C   UNL A   1      48.079  27.222  30.224  1.00  0.00    -0.014 A 
ATOM     78  C   UNL A   1      49.083  27.431  29.263  1.00  0.00     0.010 A 
ATOM     79  C   UNL A   1      48.430  26.719  31.491  1.00  0.00     0.010 A 
ATOM     80  C   UNL A   1      50.414  27.126  29.559  1.00  0.00     0.020 A 
ATOM     81  C   UNL A   1      49.762  26.436  31.798  1.00  0.00     0.020 A 
ATOM     82  C   UNL A   1      50.745  26.631  30.825  1.00  0.00     0.054 A 
BRANCH  82  83
ATOM     83  S   UNL A   1      52.487  26.303  31.207  1.00  0.00     0.124 S 
ATOM     84  O   UNL A   1      52.843  27.462  32.021  1.00  0.00    -0.237 OA
ATOM     85  O   UNL A   1      52.425  25.029  31.921  1.00  0.00    -0.237 OA
ATOM     86  O   UNL A   1      53.125  26.243  29.893  1.00  0.00    -0.744 OA
ENDBRANCH  82  83
ENDBRANCH  56  77
ENDBRANCH  30  31
ENDBRANCH  22  25
ENDBRANCH  20  21
ENDBRANCH  19  20
ENDBRANCH   1  19
TORSDOF 17
ENDMDL
MODEL 3
REMARK VINA RESULT:     -10.1      1.467      2.360
REMARK SMILES CSCCC(=O)N1[C@H](C)CCC[C@@H]1C(=O)NCCCNC(=O)c1ccc(-c2c3nc(c(-c4ccc(S(=O)(=O)[O-])cc4)c4ccc([nH]4)c(-c4ccc(S(=O)(=O)[O-])cc4)c4nc(c(-c5ccc(S(=O)(=O)[O-])cc5)c5ccc2[nH]5)C=C4)C=C3)cc1
REMARK SMILES IDX 17 1 16 2 14 3 15 4 13 6 7 7 8 8 9 9 10 10 12 11 11 12 5 13
REMARK SMILES IDX 6 14 4 15 3 16 2 17 1 18 18 19 19 20 20 21 21 22 22 24 23 25
REMARK SMILES IDX 24 26 82 27 25 28 81 29 26 30 27 31 28 32 75 33 29 34 80 35
REMARK SMILES IDX 74 36 76 37 30 38 79 39 73 40 72 41 31 43 61 44 42 45 60 46
REMARK SMILES IDX 43 47 46 48 59 49 77 50 44 51 45 52 58 54 78 55 47 56 32 57
REMARK SMILES IDX 33 58 41 59 34 60 40 61 35 62 36 63 37 64 38 65 39 66 62 67
REMARK SMILES IDX 63 68 71 69 64 70 70 71 65 72 66 73 67 74 68 75 69 76 48 77
REMARK SMILES IDX 49 78 57 79 50 80 56 81 51 82 52 83 53 84 54 85 55 86
REMARK H PARENT 16 5 20 23 76 42 46 53
REMARK Flexibility Score: inf
ROOT
ATOM      1  C   UNL A   1      33.019  28.374  24.828  1.00  0.00     0.117 C 
ENDROOT
BRANCH   1   2
ATOM      2  N   UNL A   1      33.623  27.990  23.570  1.00  0.00    -0.354 N 
ATOM      3  C   UNL A   1      33.672  26.818  22.879  1.00  0.00     0.242 C 
ATOM      4  O   UNL A   1      33.714  26.950  21.648  1.00  0.00    -0.273 OA
ATOM      5  H   UNL A   1      34.093  28.729  23.121  1.00  0.00     0.163 HD
BRANCH   3   6
ATOM      6  C   UNL A   1      33.760  25.389  23.506  1.00  0.00     0.174 C 
ATOM      7  N   UNL A   1      32.638  24.422  23.366  1.00  0.00    -0.328 N 
ATOM      8  C   UNL A   1      31.590  24.431  24.381  1.00  0.00     0.082 C 
ATOM      9  C   UNL A   1      30.285  25.068  23.905  1.00  0.00     0.031 C 
ATOM     10  C   UNL A   1      32.083  24.868  25.768  1.00  0.00     0.025 C 
ATOM     11  C   UNL A   1      34.380  25.398  24.913  1.00  0.00     0.035 C 
ATOM     12  C   UNL A   1      33.574  24.612  25.938  1.00  0.00     0.005 C 
BRANCH   7  13
ATOM     13  C   UNL A   1      32.796  23.302  22.534  1.00  0.00     0.224 C 
ATOM     14  O   UNL A   1      33.443  23.343  21.486  1.00  0.00    -0.275 OA
BRANCH  13  15
ATOM     15  C   UNL A   1      32.128  21.984  22.938  1.00  0.00     0.111 C 
BRANCH  15  16
ATOM     16  C   UNL A   1      32.951  21.094  23.879  1.00  0.00     0.079 C 
BRANCH  16  17
ATOM     17  S   UNL A   1      32.487  19.307  23.830  1.00  0.00    -0.165 SA
ATOM     18  C   UNL A   1      32.887  18.782  25.529  1.00  0.00     0.085 C 
ENDBRANCH  16  17
ENDBRANCH  15  16
ENDBRANCH  13  15
ENDBRANCH   7  13
ENDBRANCH   3   6
ENDBRANCH   1   2
BRANCH   1  19
ATOM     19  C   UNL A   1      33.965  28.421  26.016  1.00  0.00     0.042 C 
BRANCH  19  20
ATOM     20  C   UNL A   1      33.260  28.840  27.303  1.00  0.00     0.118 C 
BRANCH  20  21
ATOM     21  N   UNL A   1      33.382  30.236  27.711  1.00  0.00    -0.352 N 
ATOM     22  C   UNL A   1      34.524  30.899  28.146  1.00  0.00     0.251 C 
ATOM     23  H   UNL A   1      32.558  30.773  27.673  1.00  0.00     0.163 HD
ATOM     24  O   UNL A   1      34.475  32.084  28.435  1.00  0.00    -0.269 OA
BRANCH  22  25
ATOM     25  C   UNL A   1      35.782  30.129  28.323  1.00  0.00     0.039 A 
ATOM     26  C   UNL A   1      36.738  30.132  27.303  1.00  0.00     0.014 A 
ATOM     27  C   UNL A   1      36.065  29.506  29.536  1.00  0.00     0.014 A 
ATOM     28  C   UNL A   1      38.022  29.637  27.557  1.00  0.00     0.010 A 
ATOM     29  C   UNL A   1      37.370  29.137  29.828  1.00  0.00     0.010 A 
ATOM     30  C   UNL A   1      38.370  29.206  28.848  1.00  0.00    -0.014 A 
BRANCH  30  31
ATOM     31  C   UNL A   1      39.759  28.826  29.226  1.00  0.00     0.031 A 
ATOM     32  C   UNL A   1      40.654  29.847  29.883  1.00  0.00     0.074 A 
ATOM     33  C   UNL A   1      40.260  27.628  28.859  1.00  0.00     0.049 A 
ATOM     34  N   UNL A   1      41.943  29.802  30.098  1.00  0.00    -0.248 NA
ATOM     35  C   UNL A   1      40.021  31.109  30.303  1.00  0.00     0.031 C 
ATOM     36  C   UNL A   1      39.524  26.569  28.161  1.00  0.00     0.029 A 
ATOM     37  N   UNL A   1      41.521  27.104  29.007  1.00  0.00    -0.354 N 
ATOM     38  C   UNL A   1      42.281  31.045  30.620  1.00  0.00     0.074 A 
ATOM     39  C   UNL A   1      41.073  31.839  30.640  1.00  0.00     0.031 C 
ATOM     40  C   UNL A   1      40.336  25.515  27.972  1.00  0.00     0.029 A 
ATOM     41  C   UNL A   1      41.661  25.837  28.487  1.00  0.00     0.049 A 
ATOM     42  H   UNL A   1      42.258  27.590  29.444  1.00  0.00     0.167 HD
ATOM     43  C   UNL A   1      43.481  31.482  31.068  1.00  0.00     0.031 A 
ATOM     44  C   UNL A   1      42.737  25.027  28.426  1.00  0.00     0.031 A 
ATOM     45  C   UNL A   1      44.664  30.667  31.107  1.00  0.00     0.049 A 
ATOM     46  C   UNL A   1      44.046  25.508  28.990  1.00  0.00     0.074 A 
ATOM     47  C   UNL A   1      45.911  30.984  31.616  1.00  0.00     0.029 A 
ATOM     48  N   UNL A   1      44.740  29.364  30.640  1.00  0.00    -0.354 N 
ATOM     49  N   UNL A   1      44.334  26.672  29.521  1.00  0.00    -0.248 NA
ATOM     50  C   UNL A   1      45.172  24.564  28.956  1.00  0.00     0.031 C 
ATOM     51  C   UNL A   1      46.750  29.879  31.432  1.00  0.00     0.029 A 
ATOM     52  C   UNL A   1      46.011  28.862  30.847  1.00  0.00     0.049 A 
ATOM     53  H   UNL A   1      43.998  28.870  30.221  1.00  0.00     0.167 HD
ATOM     54  C   UNL A   1      45.665  26.590  29.912  1.00  0.00     0.074 A 
ATOM     55  C   UNL A   1      46.123  25.259  29.565  1.00  0.00     0.031 C 
ATOM     56  C   UNL A   1      46.439  27.529  30.509  1.00  0.00     0.031 A 
BRANCH  43  57
ATOM     57  C   UNL A   1      43.563  32.901  31.564  1.00  0.00    -0.014 A 
ATOM     58  C   UNL A   1      43.920  33.953  30.699  1.00  0.00     0.010 A 
ATOM     59  C   UNL A   1      43.267  33.193  32.907  1.00  0.00     0.010 A 
ATOM     60  C   UNL A   1      44.037  35.258  31.181  1.00  0.00     0.020 A 
ATOM     61  C   UNL A   1      43.351  34.504  33.387  1.00  0.00     0.020 A 
ATOM     62  C   UNL A   1      43.759  35.524  32.524  1.00  0.00     0.054 A 
BRANCH  62  63
ATOM     63  S   UNL A   1      43.911  37.229  33.123  1.00  0.00     0.124 S 
ATOM     64  O   UNL A   1      45.229  37.209  33.753  1.00  0.00    -0.237 OA
ATOM     65  O   UNL A   1      43.815  38.012  31.893  1.00  0.00    -0.237 OA
ATOM     66  O   UNL A   1      42.784  37.377  34.040  1.00  0.00    -0.744 OA
ENDBRANCH  62  63
ENDBRANCH  43  57
BRANCH  44  67
ATOM     67  C   UNL A   1      42.613  23.665  27.838  1.00  0.00    -0.014 A 
ATOM     68  C   UNL A   1      42.142  22.598  28.623  1.00  0.00     0.010 A 
ATOM     69  C   UNL A   1      42.944  23.428  26.492  1.00  0.00     0.010 A 
ATOM     70  C   UNL A   1      42.019  21.315  28.079  1.00  0.00     0.020 A 
ATOM     71  C   UNL A   1      42.800  22.152  25.937  1.00  0.00     0.020 A 
ATOM     72  C   UNL A   1      42.348  21.101  26.738  1.00  0.00     0.054 A 
BRANCH  72  73
ATOM     73  S   UNL A   1      42.126  19.441  26.037  1.00  0.00     0.124 S 
ATOM     74  O   UNL A   1      42.923  19.517  24.819  1.00  0.00    -0.237 OA
ATOM     75  O   UNL A   1      42.658  18.579  27.091  1.00  0.00    -0.237 OA
ATOM     76  O   UNL A   1      40.681  19.347  25.839  1.00  0.00    -0.744 OA
ENDBRANCH  72  73
ENDBRANCH  44  67
BRANCH  56  77
ATOM     77  C   UNL A   1      47.845  27.143  30.871  1.00  0.00    -0.014 A 
ATOM     78  C   UNL A   1      48.143  26.555  32.113  1.00  0.00     0.010 A 
ATOM     79  C   UNL A   1      48.870  27.300  29.919  1.00  0.00     0.010 A 
ATOM     80  C   UNL A   1      49.447  26.149  32.404  1.00  0.00     0.020 A 
ATOM     81  C   UNL A   1      50.169  26.874  30.199  1.00  0.00     0.020 A 
ATOM     82  C   UNL A   1      50.452  26.309  31.445  1.00  0.00     0.054 A 
BRANCH  82  83
ATOM     83  S   UNL A   1      52.124  25.717  31.821  1.00  0.00     0.124 S 
ATOM     84  O   UNL A   1      52.841  26.028  30.588  1.00  0.00    -0.237 OA
ATOM     85  O   UNL A   1      52.495  26.519  32.984  1.00  0.00    -0.237 OA
ATOM     86  O   UNL A   1      51.934  24.293  32.090  1.00  0.00    -0.744 OA
ENDBRANCH  82  83
ENDBRANCH  56  77
ENDBRANCH  30  31
ENDBRANCH  22  25
ENDBRANCH  20  21
ENDBRANCH  19  20
ENDBRANCH   1  19
TORSDOF 17
ENDMDL
