MODEL 1
REMARK VINA RESULT:     -11.4      0.000      0.000
REMARK SMILES O=C(Cc1ccc(F)cc1F)Nc1sccc1C(=O)NCCCNC(=O)c1ccc(-c2c3nc(c(-c4ccc(S(=O)(=O)[O-])cc4)c4ccc([nH]4)c(-c4ccc(S(=O)(=O)[O-])cc4)c4nc(c(-c5ccc(S(=O)(=O)[O-])cc5)c5ccc2[nH]5)C=C4)C=C3)cc1
REMARK SMILES IDX 22 1 21 2 20 3 18 4 19 5 17 7 13 8 14 9 15 10 16 11 12 12
REMARK SMILES IDX 1 13 2 14 3 16 4 17 5 18 10 19 6 20 9 21 11 22 7 23 8 24
REMARK SMILES IDX 23 25 24 26 25 27 26 29 27 30 28 31 86 32 29 33 85 34 30 35
REMARK SMILES IDX 31 36 32 37 79 38 33 39 84 40 78 41 80 42 34 43 83 44 77 45
REMARK SMILES IDX 76 46 35 48 65 49 46 50 64 51 47 52 50 53 63 54 81 55 48 56
REMARK SMILES IDX 49 57 62 59 82 60 51 61 36 62 37 63 45 64 38 65 44 66 39 67
REMARK SMILES IDX 40 68 41 69 42 70 43 71 66 72 67 73 75 74 68 75 74 76 69 77
REMARK SMILES IDX 70 78 71 79 72 80 73 81 52 82 53 83 61 84 54 85 60 86 55 87
REMARK SMILES IDX 56 88 57 89 58 90 59 91
REMARK H PARENT 20 6 12 15 24 28 80 47 50 58
REMARK Flexibility Score: inf
ROOT
ATOM      1  C   UNL A   1      33.852  28.198  26.062  1.00  0.00     0.042 C 
ENDROOT
BRANCH   1   2
ATOM      2  C   UNL A   1      33.241  28.566  24.726  1.00  0.00     0.118 C 
BRANCH   2   3
ATOM      3  N   UNL A   1      33.359  27.612  23.658  1.00  0.00    -0.352 N 
ATOM      4  C   UNL A   1      32.360  27.125  22.840  1.00  0.00     0.254 C 
ATOM      5  O   UNL A   1      32.708  26.411  21.897  1.00  0.00    -0.269 OA
ATOM      6  H   UNL A   1      34.264  27.261  23.489  1.00  0.00     0.163 HD
BRANCH   4   7
ATOM      7  C   UNL A   1      30.940  27.261  23.195  1.00  0.00     0.074 A 
ATOM      8  C   UNL A   1      30.079  26.432  23.902  1.00  0.00     0.108 A 
ATOM      9  S   UNL A   1      28.444  26.933  23.798  1.00  0.00    -0.126 S 
ATOM     10  C   UNL A   1      28.864  28.385  23.017  1.00  0.00     0.068 A 
ATOM     11  C   UNL A   1      30.212  28.439  22.757  1.00  0.00     0.028 A 
BRANCH   8  12
ATOM     12  N   UNL A   1      30.180  25.268  24.640  1.00  0.00    -0.317 N 
ATOM     13  O   UNL A   1      30.647  26.210  26.688  1.00  0.00    -0.274 OA
ATOM     14  C   UNL A   1      30.604  25.227  25.950  1.00  0.00     0.229 C 
ATOM     15  H   UNL A   1      29.936  24.419  24.206  1.00  0.00     0.170 HD
BRANCH  14  16
ATOM     16  C   UNL A   1      31.245  23.908  26.369  1.00  0.00     0.139 C 
BRANCH  16  17
ATOM     17  C   UNL A   1      32.726  23.747  26.185  1.00  0.00    -0.003 A 
ATOM     18  C   UNL A   1      33.432  24.547  25.271  1.00  0.00     0.010 A 
ATOM     19  C   UNL A   1      33.437  22.884  27.022  1.00  0.00     0.129 A 
ATOM     20  C   UNL A   1      34.826  24.492  25.228  1.00  0.00     0.040 A 
ATOM     21  C   UNL A   1      34.823  22.831  26.990  1.00  0.00     0.078 A 
ATOM     22  F   UNL A   1      32.779  22.126  27.909  1.00  0.00    -0.207 F 
ATOM     23  C   UNL A   1      35.507  23.641  26.095  1.00  0.00     0.126 A 
ATOM     24  F   UNL A   1      36.846  23.615  26.074  1.00  0.00    -0.207 F 
ENDBRANCH  16  17
ENDBRANCH  14  16
ENDBRANCH   8  12
ENDBRANCH   4   7
ENDBRANCH   2   3
ENDBRANCH   1   2
BRANCH   1  25
ATOM     25  C   UNL A   1      33.070  28.695  27.277  1.00  0.00     0.118 C 
BRANCH  25  26
ATOM     26  N   UNL A   1      33.297  30.101  27.619  1.00  0.00    -0.352 N 
ATOM     27  C   UNL A   1      34.378  30.794  28.117  1.00  0.00     0.251 C 
ATOM     28  H   UNL A   1      32.510  30.671  27.459  1.00  0.00     0.163 HD
ATOM     29  O   UNL A   1      34.220  31.974  28.427  1.00  0.00    -0.269 OA
BRANCH  27  30
ATOM     30  C   UNL A   1      35.697  30.154  28.339  1.00  0.00     0.039 A 
ATOM     31  C   UNL A   1      36.619  30.103  27.284  1.00  0.00     0.014 A 
ATOM     32  C   UNL A   1      36.043  29.589  29.561  1.00  0.00     0.014 A 
ATOM     33  C   UNL A   1      37.913  29.614  27.502  1.00  0.00     0.010 A 
ATOM     34  C   UNL A   1      37.363  29.227  29.815  1.00  0.00     0.010 A 
ATOM     35  C   UNL A   1      38.321  29.245  28.793  1.00  0.00    -0.014 A 
BRANCH  35  36
ATOM     36  C   UNL A   1      39.734  28.901  29.120  1.00  0.00     0.031 A 
ATOM     37  C   UNL A   1      40.664  29.954  29.674  1.00  0.00     0.074 A 
ATOM     38  C   UNL A   1      40.221  27.684  28.794  1.00  0.00     0.049 A 
ATOM     39  N   UNL A   1      41.962  29.907  29.833  1.00  0.00    -0.248 NA
ATOM     40  C   UNL A   1      40.062  31.244  30.053  1.00  0.00     0.031 C 
ATOM     41  C   UNL A   1      39.451  26.591  28.190  1.00  0.00     0.029 A 
ATOM     42  N   UNL A   1      41.489  27.167  28.903  1.00  0.00    -0.354 N 
ATOM     43  C   UNL A   1      42.336  31.172  30.278  1.00  0.00     0.074 A 
ATOM     44  C   UNL A   1      41.133  31.975  30.325  1.00  0.00     0.031 C 
ATOM     45  C   UNL A   1      40.254  25.532  28.006  1.00  0.00     0.029 A 
ATOM     46  C   UNL A   1      41.607  25.881  28.426  1.00  0.00     0.049 A 
ATOM     47  H   UNL A   1      42.244  27.670  29.285  1.00  0.00     0.167 HD
ATOM     48  C   UNL A   1      43.563  31.620  30.633  1.00  0.00     0.031 A 
ATOM     49  C   UNL A   1      42.681  25.076  28.320  1.00  0.00     0.031 A 
ATOM     50  C   UNL A   1      44.746  30.802  30.648  1.00  0.00     0.049 A 
ATOM     51  C   UNL A   1      44.023  25.579  28.775  1.00  0.00     0.074 A 
ATOM     52  C   UNL A   1      46.016  31.137  31.085  1.00  0.00     0.029 A 
ATOM     53  N   UNL A   1      44.803  29.486  30.222  1.00  0.00    -0.354 N 
ATOM     54  N   UNL A   1      44.339  26.759  29.252  1.00  0.00    -0.248 NA
ATOM     55  C   UNL A   1      45.150  24.640  28.685  1.00  0.00     0.031 C 
ATOM     56  C   UNL A   1      46.851  30.033  30.888  1.00  0.00     0.029 A 
ATOM     57  C   UNL A   1      46.090  28.997  30.373  1.00  0.00     0.049 A 
ATOM     58  H   UNL A   1      44.042  28.973  29.865  1.00  0.00     0.167 HD
ATOM     59  C   UNL A   1      45.697  26.696  29.541  1.00  0.00     0.074 A 
ATOM     60  C   UNL A   1      46.138  25.359  29.202  1.00  0.00     0.031 C 
ATOM     61  C   UNL A   1      46.509  27.661  30.038  1.00  0.00     0.031 A 
BRANCH  48  62
ATOM     62  C   UNL A   1      43.691  33.061  31.053  1.00  0.00    -0.014 A 
ATOM     63  C   UNL A   1      43.599  33.434  32.407  1.00  0.00     0.010 A 
ATOM     64  C   UNL A   1      43.971  34.047  30.090  1.00  0.00     0.010 A 
ATOM     65  C   UNL A   1      43.747  34.771  32.783  1.00  0.00     0.020 A 
ATOM     66  C   UNL A   1      44.148  35.383  30.466  1.00  0.00     0.020 A 
ATOM     67  C   UNL A   1      44.019  35.737  31.810  1.00  0.00     0.054 A 
BRANCH  67  68
ATOM     68  S   UNL A   1      44.249  37.458  32.335  1.00  0.00     0.124 S 
ATOM     69  O   UNL A   1      43.952  38.189  31.106  1.00  0.00    -0.237 OA
ATOM     70  O   UNL A   1      43.264  37.602  33.404  1.00  0.00    -0.237 OA
ATOM     71  O   UNL A   1      45.644  37.505  32.767  1.00  0.00    -0.744 OA
ENDBRANCH  67  68
ENDBRANCH  48  62
BRANCH  49  72
ATOM     72  C   UNL A   1      42.535  23.703  27.764  1.00  0.00    -0.014 A 
ATOM     73  C   UNL A   1      42.234  22.621  28.610  1.00  0.00     0.010 A 
ATOM     74  C   UNL A   1      42.698  23.468  26.387  1.00  0.00     0.010 A 
ATOM     75  C   UNL A   1      42.124  21.327  28.095  1.00  0.00     0.020 A 
ATOM     76  C   UNL A   1      42.562  22.180  25.863  1.00  0.00     0.020 A 
ATOM     77  C   UNL A   1      42.291  21.114  26.723  1.00  0.00     0.054 A 
BRANCH  77  78
ATOM     78  S   UNL A   1      42.104  19.432  26.066  1.00  0.00     0.124 S 
ATOM     79  O   UNL A   1      42.615  18.620  27.165  1.00  0.00    -0.237 OA
ATOM     80  O   UNL A   1      40.666  19.343  25.826  1.00  0.00    -0.237 OA
ATOM     81  O   UNL A   1      42.928  19.447  24.860  1.00  0.00    -0.744 OA
ENDBRANCH  77  78
ENDBRANCH  49  72
BRANCH  61  82
ATOM     82  C   UNL A   1      47.948  27.298  30.279  1.00  0.00    -0.014 A 
ATOM     83  C   UNL A   1      48.931  27.550  29.308  1.00  0.00     0.010 A 
ATOM     84  C   UNL A   1      48.325  26.751  31.518  1.00  0.00     0.010 A 
ATOM     85  C   UNL A   1      50.268  27.234  29.562  1.00  0.00     0.020 A 
ATOM     86  C   UNL A   1      49.665  26.457  31.785  1.00  0.00     0.020 A 
ATOM     87  C   UNL A   1      50.626  26.689  30.800  1.00  0.00     0.054 A 
BRANCH  87  88
ATOM     88  S   UNL A   1      52.374  26.333  31.125  1.00  0.00     0.124 S 
ATOM     89  O   UNL A   1      52.293  25.097  31.899  1.00  0.00    -0.237 OA
ATOM     90  O   UNL A   1      52.931  26.197  29.780  1.00  0.00    -0.237 OA
ATOM     91  O   UNL A   1      52.834  27.505  31.867  1.00  0.00    -0.744 OA
ENDBRANCH  87  88
ENDBRANCH  61  82
ENDBRANCH  35  36
ENDBRANCH  27  30
ENDBRANCH  25  26
ENDBRANCH   1  25
TORSDOF 16
ENDMDL
MODEL 2
REMARK VINA RESULT:     -11.1      1.194      1.798
REMARK SMILES O=C(Cc1ccc(F)cc1F)Nc1sccc1C(=O)NCCCNC(=O)c1ccc(-c2c3nc(c(-c4ccc(S(=O)(=O)[O-])cc4)c4ccc([nH]4)c(-c4ccc(S(=O)(=O)[O-])cc4)c4nc(c(-c5ccc(S(=O)(=O)[O-])cc5)c5ccc2[nH]5)C=C4)C=C3)cc1
REMARK SMILES IDX 22 1 21 2 20 3 18 4 19 5 17 7 13 8 14 9 15 10 16 11 12 12
REMARK SMILES IDX 1 13 2 14 3 16 4 17 5 18 10 19 6 20 9 21 11 22 7 23 8 24
REMARK SMILES IDX 23 25 24 26 25 27 26 29 27 30 28 31 86 32 29 33 85 34 30 35
REMARK SMILES IDX 31 36 32 37 79 38 33 39 84 40 78 41 80 42 34 43 83 44 77 45
REMARK SMILES IDX 76 46 35 48 65 49 46 50 64 51 47 52 50 53 63 54 81 55 48 56
REMARK SMILES IDX 49 57 62 59 82 60 51 61 36 62 37 63 45 64 38 65 44 66 39 67
REMARK SMILES IDX 40 68 41 69 42 70 43 71 66 72 67 73 75 74 68 75 74 76 69 77
REMARK SMILES IDX 70 78 71 79 72 80 73 81 52 82 53 83 61 84 54 85 60 86 55 87
REMARK SMILES IDX 56 88 57 89 58 90 59 91
REMARK H PARENT 20 6 12 15 24 28 80 47 50 58
REMARK Flexibility Score: inf
ROOT
ATOM      1  C   UNL A   1      31.936  28.626  26.705  1.00  0.00     0.042 C 
ENDROOT
BRANCH   1   2
ATOM      2  C   UNL A   1      31.625  29.474  25.489  1.00  0.00     0.118 C 
BRANCH   2   3
ATOM      3  N   UNL A   1      32.457  29.300  24.330  1.00  0.00    -0.352 N 
ATOM      4  C   UNL A   1      32.364  28.326  23.357  1.00  0.00     0.254 C 
ATOM      5  O   UNL A   1      33.102  28.445  22.375  1.00  0.00    -0.269 OA
ATOM      6  H   UNL A   1      33.184  29.955  24.216  1.00  0.00     0.163 HD
BRANCH   4   7
ATOM      7  C   UNL A   1      31.593  27.094  23.572  1.00  0.00     0.074 A 
ATOM      8  C   UNL A   1      31.988  25.778  23.776  1.00  0.00     0.108 A 
ATOM      9  S   UNL A   1      30.680  24.675  23.700  1.00  0.00    -0.126 S 
ATOM     10  C   UNL A   1      29.533  25.929  23.632  1.00  0.00     0.068 A 
ATOM     11  C   UNL A   1      30.142  27.159  23.572  1.00  0.00     0.028 A 
BRANCH   8  12
ATOM     12  N   UNL A   1      33.177  25.103  23.982  1.00  0.00    -0.317 N 
ATOM     13  O   UNL A   1      33.051  24.895  26.271  1.00  0.00    -0.274 OA
ATOM     14  C   UNL A   1      33.701  24.838  25.227  1.00  0.00     0.229 C 
ATOM     15  H   UNL A   1      33.678  24.794  23.193  1.00  0.00     0.170 HD
BRANCH  14  16
ATOM     16  C   UNL A   1      35.219  24.692  25.259  1.00  0.00     0.139 C 
BRANCH  16  17
ATOM     17  C   UNL A   1      35.799  23.308  25.266  1.00  0.00    -0.003 A 
ATOM     18  C   UNL A   1      34.988  22.182  25.045  1.00  0.00     0.010 A 
ATOM     19  C   UNL A   1      37.182  23.138  25.364  1.00  0.00     0.129 A 
ATOM     20  C   UNL A   1      35.569  20.922  24.900  1.00  0.00     0.040 A 
ATOM     21  C   UNL A   1      37.767  21.889  25.212  1.00  0.00     0.078 A 
ATOM     22  F   UNL A   1      37.970  24.204  25.559  1.00  0.00    -0.207 F 
ATOM     23  C   UNL A   1      36.953  20.790  24.975  1.00  0.00     0.126 A 
ATOM     24  F   UNL A   1      37.509  19.585  24.803  1.00  0.00    -0.207 F 
ENDBRANCH  16  17
ENDBRANCH  14  16
ENDBRANCH   8  12
ENDBRANCH   4   7
ENDBRANCH   2   3
ENDBRANCH   1   2
BRANCH   1  25
ATOM     25  C   UNL A   1      33.311  28.877  27.321  1.00  0.00     0.118 C 
BRANCH  25  26
ATOM     26  N   UNL A   1      33.530  30.245  27.794  1.00  0.00    -0.352 N 
ATOM     27  C   UNL A   1      34.601  30.888  28.376  1.00  0.00     0.251 C 
ATOM     28  H   UNL A   1      32.748  30.830  27.670  1.00  0.00     0.163 HD
ATOM     29  O   UNL A   1      34.437  32.035  28.790  1.00  0.00    -0.269 OA
BRANCH  27  30
ATOM     30  C   UNL A   1      35.915  30.226  28.568  1.00  0.00     0.039 A 
ATOM     31  C   UNL A   1      36.819  30.181  27.498  1.00  0.00     0.014 A 
ATOM     32  C   UNL A   1      36.271  29.637  29.775  1.00  0.00     0.014 A 
ATOM     33  C   UNL A   1      38.110  29.671  27.688  1.00  0.00     0.010 A 
ATOM     34  C   UNL A   1      37.590  29.254  30.003  1.00  0.00     0.010 A 
ATOM     35  C   UNL A   1      38.533  29.276  28.966  1.00  0.00    -0.014 A 
BRANCH  35  36
ATOM     36  C   UNL A   1      39.946  28.908  29.266  1.00  0.00     0.031 A 
ATOM     37  C   UNL A   1      40.898  29.939  29.822  1.00  0.00     0.074 A 
ATOM     38  C   UNL A   1      40.411  27.690  28.914  1.00  0.00     0.049 A 
ATOM     39  N   UNL A   1      42.198  29.873  29.961  1.00  0.00    -0.248 NA
ATOM     40  C   UNL A   1      40.319  31.232  30.231  1.00  0.00     0.031 C 
ATOM     41  C   UNL A   1      39.617  26.617  28.305  1.00  0.00     0.029 A 
ATOM     42  N   UNL A   1      41.673  27.155  28.995  1.00  0.00    -0.354 N 
ATOM     43  C   UNL A   1      42.595  31.125  30.420  1.00  0.00     0.074 A 
ATOM     44  C   UNL A   1      41.405  31.943  30.498  1.00  0.00     0.031 C 
ATOM     45  C   UNL A   1      40.403  25.551  28.091  1.00  0.00     0.029 A 
ATOM     46  C   UNL A   1      41.767  25.875  28.496  1.00  0.00     0.049 A 
ATOM     47  H   UNL A   1      42.440  27.642  29.373  1.00  0.00     0.167 HD
ATOM     48  C   UNL A   1      43.833  31.552  30.763  1.00  0.00     0.031 A 
ATOM     49  C   UNL A   1      42.828  25.057  28.361  1.00  0.00     0.031 A 
ATOM     50  C   UNL A   1      45.006  30.718  30.746  1.00  0.00     0.049 A 
ATOM     51  C   UNL A   1      44.183  25.535  28.803  1.00  0.00     0.074 A 
ATOM     52  C   UNL A   1      46.287  31.029  31.169  1.00  0.00     0.029 A 
ATOM     53  N   UNL A   1      45.039  29.407  30.299  1.00  0.00    -0.354 N 
ATOM     54  N   UNL A   1      44.523  26.703  29.294  1.00  0.00    -0.248 NA
ATOM     55  C   UNL A   1      45.296  24.583  28.681  1.00  0.00     0.031 C 
ATOM     56  C   UNL A   1      47.103  29.917  30.941  1.00  0.00     0.029 A 
ATOM     57  C   UNL A   1      46.320  28.900  30.422  1.00  0.00     0.049 A 
ATOM     58  H   UNL A   1      44.265  28.911  29.945  1.00  0.00     0.167 HD
ATOM     59  C   UNL A   1      45.884  26.618  29.560  1.00  0.00     0.074 A 
ATOM     60  C   UNL A   1      46.302  25.280  29.194  1.00  0.00     0.031 C 
ATOM     61  C   UNL A   1      46.716  27.564  30.060  1.00  0.00     0.031 A 
BRANCH  48  62
ATOM     62  C   UNL A   1      43.988  32.983  31.204  1.00  0.00    -0.014 A 
ATOM     63  C   UNL A   1      44.174  34.016  30.266  1.00  0.00     0.010 A 
ATOM     64  C   UNL A   1      43.884  33.309  32.568  1.00  0.00     0.010 A 
ATOM     65  C   UNL A   1      44.290  35.342  30.689  1.00  0.00     0.020 A 
ATOM     66  C   UNL A   1      43.971  34.639  32.993  1.00  0.00     0.020 A 
ATOM     67  C   UNL A   1      44.188  35.645  32.050  1.00  0.00     0.054 A 
BRANCH  67  68
ATOM     68  S   UNL A   1      44.299  37.381  32.564  1.00  0.00     0.124 S 
ATOM     69  O   UNL A   1      43.123  37.517  33.419  1.00  0.00    -0.237 OA
ATOM     70  O   UNL A   1      45.586  37.430  33.254  1.00  0.00    -0.237 OA
ATOM     71  O   UNL A   1      44.243  38.120  31.304  1.00  0.00    -0.744 OA
ENDBRANCH  67  68
ENDBRANCH  48  62
BRANCH  49  72
ATOM     72  C   UNL A   1      42.655  23.695  27.786  1.00  0.00    -0.014 A 
ATOM     73  C   UNL A   1      42.202  22.635  28.591  1.00  0.00     0.010 A 
ATOM     74  C   UNL A   1      42.942  23.450  26.431  1.00  0.00     0.010 A 
ATOM     75  C   UNL A   1      42.067  21.350  28.060  1.00  0.00     0.020 A 
ATOM     76  C   UNL A   1      42.782  22.171  25.889  1.00  0.00     0.020 A 
ATOM     77  C   UNL A   1      42.359  21.126  26.711  1.00  0.00     0.054 A 
BRANCH  77  78
ATOM     78  S   UNL A   1      42.136  19.458  26.030  1.00  0.00     0.124 S 
ATOM     79  O   UNL A   1      42.649  18.620  27.109  1.00  0.00    -0.237 OA
ATOM     80  O   UNL A   1      40.694  19.396  25.808  1.00  0.00    -0.237 OA
ATOM     81  O   UNL A   1      42.944  19.479  24.813  1.00  0.00    -0.744 OA
ENDBRANCH  77  78
ENDBRANCH  49  72
BRANCH  61  82
ATOM     82  C   UNL A   1      48.153  27.177  30.273  1.00  0.00    -0.014 A 
ATOM     83  C   UNL A   1      49.140  27.506  29.328  1.00  0.00     0.010 A 
ATOM     84  C   UNL A   1      48.527  26.529  31.463  1.00  0.00     0.010 A 
ATOM     85  C   UNL A   1      50.475  27.166  29.558  1.00  0.00     0.020 A 
ATOM     86  C   UNL A   1      49.865  26.211  31.708  1.00  0.00     0.020 A 
ATOM     87  C   UNL A   1      50.829  26.520  30.747  1.00  0.00     0.054 A 
BRANCH  87  88
ATOM     88  S   UNL A   1      52.576  26.133  31.044  1.00  0.00     0.124 S 
ATOM     89  O   UNL A   1      53.032  27.321  31.761  1.00  0.00    -0.237 OA
ATOM     90  O   UNL A   1      52.503  24.908  31.838  1.00  0.00    -0.237 OA
ATOM     91  O   UNL A   1      53.126  25.965  29.701  1.00  0.00    -0.744 OA
ENDBRANCH  87  88
ENDBRANCH  61  82
ENDBRANCH  35  36
ENDBRANCH  27  30
ENDBRANCH  25  26
ENDBRANCH   1  25
TORSDOF 16
ENDMDL
MODEL 3
REMARK VINA RESULT:     -11.0      3.337      4.926
REMARK SMILES O=C(Cc1ccc(F)cc1F)Nc1sccc1C(=O)NCCCNC(=O)c1ccc(-c2c3nc(c(-c4ccc(S(=O)(=O)[O-])cc4)c4ccc([nH]4)c(-c4ccc(S(=O)(=O)[O-])cc4)c4nc(c(-c5ccc(S(=O)(=O)[O-])cc5)c5ccc2[nH]5)C=C4)C=C3)cc1
REMARK SMILES IDX 22 1 21 2 20 3 18 4 19 5 17 7 13 8 14 9 15 10 16 11 12 12
REMARK SMILES IDX 1 13 2 14 3 16 4 17 5 18 10 19 6 20 9 21 11 22 7 23 8 24
REMARK SMILES IDX 23 25 24 26 25 27 26 29 27 30 28 31 86 32 29 33 85 34 30 35
REMARK SMILES IDX 31 36 32 37 79 38 33 39 84 40 78 41 80 42 34 43 83 44 77 45
REMARK SMILES IDX 76 46 35 48 65 49 46 50 64 51 47 52 50 53 63 54 81 55 48 56
REMARK SMILES IDX 49 57 62 59 82 60 51 61 36 62 37 63 45 64 38 65 44 66 39 67
REMARK SMILES IDX 40 68 41 69 42 70 43 71 66 72 67 73 75 74 68 75 74 76 69 77
REMARK SMILES IDX 70 78 71 79 72 80 73 81 52 82 53 83 61 84 54 85 60 86 55 87
REMARK SMILES IDX 56 88 57 89 58 90 59 91
REMARK H PARENT 20 6 12 15 24 28 80 47 50 58
REMARK Flexibility Score: inf
ROOT
ATOM      1  C   UNL A   1      34.823  29.651  27.393  1.00  0.00     0.042 C 
ENDROOT
BRANCH   1   2
ATOM      2  C   UNL A   1      33.507  29.829  26.664  1.00  0.00     0.118 C 
BRANCH   2   3
ATOM      3  N   UNL A   1      32.339  29.230  27.250  1.00  0.00    -0.352 N 
ATOM      4  C   UNL A   1      31.856  27.951  27.061  1.00  0.00     0.254 C 
ATOM      5  O   UNL A   1      30.910  27.601  27.771  1.00  0.00    -0.269 OA
ATOM      6  H   UNL A   1      31.819  29.802  27.860  1.00  0.00     0.163 HD
BRANCH   4   7
ATOM      7  C   UNL A   1      32.293  27.122  25.929  1.00  0.00     0.074 A 
ATOM      8  C   UNL A   1      31.706  26.849  24.701  1.00  0.00     0.108 A 
ATOM      9  S   UNL A   1      32.504  25.597  23.849  1.00  0.00    -0.126 S 
ATOM     10  C   UNL A   1      33.781  25.548  24.973  1.00  0.00     0.068 A 
ATOM     11  C   UNL A   1      33.551  26.403  26.023  1.00  0.00     0.028 A 
BRANCH   8  12
ATOM     12  N   UNL A   1      30.606  27.291  23.989  1.00  0.00    -0.317 N 
ATOM     13  O   UNL A   1      31.381  29.390  23.445  1.00  0.00    -0.274 OA
ATOM     14  C   UNL A   1      30.456  28.584  23.537  1.00  0.00     0.229 C 
ATOM     15  H   UNL A   1      29.888  26.646  23.794  1.00  0.00     0.170 HD
BRANCH  14  16
ATOM     16  C   UNL A   1      29.009  29.033  23.369  1.00  0.00     0.139 C 
BRANCH  16  17
ATOM     17  C   UNL A   1      28.736  30.262  22.552  1.00  0.00    -0.003 A 
ATOM     18  C   UNL A   1      28.250  30.163  21.238  1.00  0.00     0.010 A 
ATOM     19  C   UNL A   1      28.841  31.524  23.143  1.00  0.00     0.129 A 
ATOM     20  C   UNL A   1      27.855  31.312  20.552  1.00  0.00     0.040 A 
ATOM     21  C   UNL A   1      28.442  32.669  22.469  1.00  0.00     0.078 A 
ATOM     22  F   UNL A   1      29.289  31.633  24.401  1.00  0.00    -0.207 F 
ATOM     23  C   UNL A   1      27.946  32.552  21.179  1.00  0.00     0.126 A 
ATOM     24  F   UNL A   1      27.537  33.649  20.529  1.00  0.00    -0.207 F 
ENDBRANCH  16  17
ENDBRANCH  14  16
ENDBRANCH   8  12
ENDBRANCH   4   7
ENDBRANCH   2   3
ENDBRANCH   1   2
BRANCH   1  25
ATOM     25  C   UNL A   1      35.414  30.939  27.962  1.00  0.00     0.118 C 
BRANCH  25  26
ATOM     26  N   UNL A   1      35.494  30.982  29.424  1.00  0.00    -0.352 N 
ATOM     27  C   UNL A   1      36.405  30.502  30.339  1.00  0.00     0.251 C 
ATOM     28  H   UNL A   1      34.737  31.454  29.841  1.00  0.00     0.163 HD
ATOM     29  O   UNL A   1      36.130  30.585  31.535  1.00  0.00    -0.269 OA
BRANCH  27  30
ATOM     30  C   UNL A   1      37.671  29.845  29.929  1.00  0.00     0.039 A 
ATOM     31  C   UNL A   1      38.141  30.025  28.620  1.00  0.00     0.014 A 
ATOM     32  C   UNL A   1      38.399  29.045  30.801  1.00  0.00     0.014 A 
ATOM     33  C   UNL A   1      39.391  29.517  28.245  1.00  0.00     0.010 A 
ATOM     34  C   UNL A   1      39.694  28.654  30.474  1.00  0.00     0.010 A 
ATOM     35  C   UNL A   1      40.215  28.894  29.195  1.00  0.00    -0.014 A 
BRANCH  35  36
ATOM     36  C   UNL A   1      41.625  28.507  28.904  1.00  0.00     0.031 A 
ATOM     37  C   UNL A   1      42.712  29.555  28.881  1.00  0.00     0.074 A 
ATOM     38  C   UNL A   1      41.908  27.242  28.527  1.00  0.00     0.049 A 
ATOM     39  N   UNL A   1      43.946  29.454  28.459  1.00  0.00    -0.248 NA
ATOM     40  C   UNL A   1      42.348  30.904  29.349  1.00  0.00     0.031 C 
ATOM     41  C   UNL A   1      40.943  26.141  28.439  1.00  0.00     0.029 A 
ATOM     42  N   UNL A   1      43.090  26.670  28.122  1.00  0.00    -0.354 N 
ATOM     43  C   UNL A   1      44.488  30.732  28.561  1.00  0.00     0.074 A 
ATOM     44  C   UNL A   1      43.436  31.599  29.046  1.00  0.00     0.031 C 
ATOM     45  C   UNL A   1      41.574  25.028  28.033  1.00  0.00     0.029 A 
ATOM     46  C   UNL A   1      42.976  25.342  27.779  1.00  0.00     0.049 A 
ATOM     47  H   UNL A   1      43.940  27.165  28.080  1.00  0.00     0.167 HD
ATOM     48  C   UNL A   1      45.749  31.146  28.294  1.00  0.00     0.031 A 
ATOM     49  C   UNL A   1      43.887  24.475  27.298  1.00  0.00     0.031 A 
ATOM     50  C   UNL A   1      46.811  30.271  27.873  1.00  0.00     0.049 A 
ATOM     51  C   UNL A   1      45.296  24.945  27.064  1.00  0.00     0.074 A 
ATOM     52  C   UNL A   1      48.146  30.577  27.672  1.00  0.00     0.029 A 
ATOM     53  N   UNL A   1      46.664  28.920  27.606  1.00  0.00    -0.354 N 
ATOM     54  N   UNL A   1      45.799  26.145  27.228  1.00  0.00    -0.248 NA
ATOM     55  C   UNL A   1      46.260  23.944  26.588  1.00  0.00     0.031 C 
ATOM     56  C   UNL A   1      48.799  29.417  27.245  1.00  0.00     0.029 A 
ATOM     57  C   UNL A   1      47.881  28.380  27.227  1.00  0.00     0.049 A 
ATOM     58  H   UNL A   1      45.820  28.418  27.674  1.00  0.00     0.167 HD
ATOM     59  C   UNL A   1      47.144  26.037  26.897  1.00  0.00     0.074 A 
ATOM     60  C   UNL A   1      47.380  24.653  26.541  1.00  0.00     0.031 C 
ATOM     61  C   UNL A   1      48.099  26.999  26.884  1.00  0.00     0.031 A 
BRANCH  48  62
ATOM     62  C   UNL A   1      46.061  32.609  28.462  1.00  0.00    -0.014 A 
ATOM     63  C   UNL A   1      46.416  33.137  29.716  1.00  0.00     0.010 A 
ATOM     64  C   UNL A   1      46.059  33.457  27.339  1.00  0.00     0.010 A 
ATOM     65  C   UNL A   1      46.728  34.492  29.851  1.00  0.00     0.020 A 
ATOM     66  C   UNL A   1      46.399  34.808  27.465  1.00  0.00     0.020 A 
ATOM     67  C   UNL A   1      46.717  35.319  28.724  1.00  0.00     0.054 A 
BRANCH  67  68
ATOM     68  S   UNL A   1      47.168  37.064  28.923  1.00  0.00     0.124 S 
ATOM     69  O   UNL A   1      48.626  37.007  28.853  1.00  0.00    -0.237 OA
ATOM     70  O   UNL A   1      46.510  37.699  27.784  1.00  0.00    -0.237 OA
ATOM     71  O   UNL A   1      46.620  37.417  30.231  1.00  0.00    -0.744 OA
ENDBRANCH  67  68
ENDBRANCH  48  62
BRANCH  49  72
ATOM     72  C   UNL A   1      43.500  23.067  27.009  1.00  0.00    -0.014 A 
ATOM     73  C   UNL A   1      42.909  22.272  28.007  1.00  0.00     0.010 A 
ATOM     74  C   UNL A   1      43.722  22.511  25.735  1.00  0.00     0.010 A 
ATOM     75  C   UNL A   1      42.571  20.942  27.746  1.00  0.00     0.020 A 
ATOM     76  C   UNL A   1      43.360  21.189  25.463  1.00  0.00     0.020 A 
ATOM     77  C   UNL A   1      42.801  20.408  26.475  1.00  0.00     0.054 A 
BRANCH  77  78
ATOM     78  S   UNL A   1      42.317  18.690  26.143  1.00  0.00     0.124 S 
ATOM     79  O   UNL A   1      40.929  18.843  25.720  1.00  0.00    -0.237 OA
ATOM     80  O   UNL A   1      43.259  18.291  25.101  1.00  0.00    -0.237 OA
ATOM     81  O   UNL A   1      42.513  18.029  27.432  1.00  0.00    -0.744 OA
ENDBRANCH  77  78
ENDBRANCH  49  72
BRANCH  61  82
ATOM     82  C   UNL A   1      49.494  26.583  26.507  1.00  0.00    -0.014 A 
ATOM     83  C   UNL A   1      50.359  26.008  27.453  1.00  0.00     0.010 A 
ATOM     84  C   UNL A   1      49.921  26.718  25.174  1.00  0.00     0.010 A 
ATOM     85  C   UNL A   1      51.641  25.598  27.076  1.00  0.00     0.020 A 
ATOM     86  C   UNL A   1      51.192  26.287  24.789  1.00  0.00     0.020 A 
ATOM     87  C   UNL A   1      52.050  25.742  25.746  1.00  0.00     0.054 A 
BRANCH  87  88
ATOM     88  S   UNL A   1      53.700  25.159  25.272  1.00  0.00     0.124 S 
ATOM     89  O   UNL A   1      54.522  25.644  26.377  1.00  0.00    -0.237 OA
ATOM     90  O   UNL A   1      53.524  23.710  25.207  1.00  0.00    -0.237 OA
ATOM     91  O   UNL A   1      53.938  25.809  23.984  1.00  0.00    -0.744 OA
ENDBRANCH  87  88
ENDBRANCH  61  82
ENDBRANCH  35  36
ENDBRANCH  27  30
ENDBRANCH  25  26
ENDBRANCH   1  25
TORSDOF 16
ENDMDL
