MODEL 1
REMARK VINA RESULT:     -11.2      0.000      0.000
REMARK SMILES O=C(NCCCNC(=O)[C@H]1C[N@H+](Cc2ccc(Cl)c(Cl)c2)CC12CCCCC2)c1ccc(-c2c3nc(c(-c4ccc(S(=O)(=O)[O-])cc4)c4ccc([nH]4)c(-c4ccc(S(=O)(=O)[O-])cc4)c4nc(c(-c5ccc(S(=O)(=O)[O-])cc5)c5ccc2[nH]5)C=C4)C=C3)cc1
REMARK SMILES IDX 4 1 3 2 1 3 2 4 29 6 30 7 88 8 31 9 87 10 32 11 33 12 34 13
REMARK SMILES IDX 81 14 35 15 86 16 80 17 82 18 36 19 85 20 79 21 78 22 37 24
REMARK SMILES IDX 67 25 48 26 66 27 49 28 52 29 65 30 83 31 50 32 51 33 64 35
REMARK SMILES IDX 84 36 53 37 38 38 39 39 47 40 40 41 46 42 41 43 42 44 43 45
REMARK SMILES IDX 44 46 45 47 68 48 69 49 77 50 70 51 76 52 71 53 72 54 73 55
REMARK SMILES IDX 74 56 75 57 54 58 55 59 63 60 56 61 62 62 57 63 58 64 59 65
REMARK SMILES IDX 60 66 61 67 5 68 6 69 7 70 8 71 9 73 10 74 11 75 23 76 12 77
REMARK SMILES IDX 22 78 24 79 28 80 25 82 27 83 26 84 13 85 14 86 15 87 21 88
REMARK SMILES IDX 16 89 19 90 17 91 20 92 18 93
REMARK H PARENT 3 5 82 23 52 34 7 72 12 81
REMARK Flexibility Score: inf
ROOT
ATOM      1  C   UNL A   1      34.089  29.081  26.122  1.00  0.00     0.118 C 
ENDROOT
BRANCH   1   2
ATOM      2  N   UNL A   1      33.726  30.428  26.544  1.00  0.00    -0.352 N 
ATOM      3  O   UNL A   1      33.669  32.261  27.840  1.00  0.00    -0.269 OA
ATOM      4  C   UNL A   1      34.252  31.225  27.530  1.00  0.00     0.251 C 
ATOM      5  H   UNL A   1      32.981  30.832  26.041  1.00  0.00     0.163 HD
BRANCH   4   6
ATOM      6  C   UNL A   1      35.499  30.837  28.225  1.00  0.00     0.039 A 
ATOM      7  C   UNL A   1      35.535  29.719  29.060  1.00  0.00     0.014 A 
ATOM      8  C   UNL A   1      36.661  31.583  28.006  1.00  0.00     0.014 A 
ATOM      9  C   UNL A   1      36.684  29.437  29.790  1.00  0.00     0.010 A 
ATOM     10  C   UNL A   1      37.844  31.241  28.670  1.00  0.00     0.010 A 
ATOM     11  C   UNL A   1      37.856  30.183  29.590  1.00  0.00    -0.014 A 
BRANCH  11  12
ATOM     12  C   UNL A   1      39.095  29.785  30.305  1.00  0.00     0.031 A 
ATOM     13  C   UNL A   1      39.989  28.699  29.774  1.00  0.00     0.074 A 
ATOM     14  C   UNL A   1      39.426  30.442  31.435  1.00  0.00     0.049 A 
ATOM     15  N   UNL A   1      41.123  28.259  30.259  1.00  0.00    -0.248 NA
ATOM     16  C   UNL A   1      39.556  28.013  28.546  1.00  0.00     0.031 C 
ATOM     17  C   UNL A   1      38.630  31.507  32.053  1.00  0.00     0.029 A 
ATOM     18  N   UNL A   1      40.520  30.332  32.252  1.00  0.00    -0.354 N 
ATOM     19  C   UNL A   1      41.530  27.236  29.411  1.00  0.00     0.074 A 
ATOM     20  C   UNL A   1      40.510  27.102  28.394  1.00  0.00     0.031 C 
ATOM     21  C   UNL A   1      39.285  31.985  33.121  1.00  0.00     0.029 A 
ATOM     22  C   UNL A   1      40.513  31.221  33.301  1.00  0.00     0.049 A 
ATOM     23  H   UNL A   1      41.242  29.679  32.103  1.00  0.00     0.167 HD
ATOM     24  C   UNL A   1      42.653  26.480  29.476  1.00  0.00     0.031 A 
ATOM     25  C   UNL A   1      41.388  31.395  34.310  1.00  0.00     0.031 A 
ATOM     26  C   UNL A   1      43.663  26.619  30.494  1.00  0.00     0.049 A 
ATOM     27  C   UNL A   1      42.612  30.531  34.369  1.00  0.00     0.074 A 
ATOM     28  C   UNL A   1      44.852  25.922  30.626  1.00  0.00     0.029 A 
ATOM     29  N   UNL A   1      43.605  27.509  31.555  1.00  0.00    -0.354 N 
ATOM     30  N   UNL A   1      42.995  29.592  33.536  1.00  0.00    -0.248 NA
ATOM     31  C   UNL A   1      43.524  30.751  35.498  1.00  0.00     0.031 C 
ATOM     32  C   UNL A   1      45.486  26.353  31.796  1.00  0.00     0.029 A 
ATOM     33  C   UNL A   1      44.722  27.362  32.361  1.00  0.00     0.049 A 
ATOM     34  H   UNL A   1      42.876  28.152  31.714  1.00  0.00     0.167 HD
ATOM     35  C   UNL A   1      44.202  29.118  34.035  1.00  0.00     0.074 A 
ATOM     36  C   UNL A   1      44.495  29.889  35.227  1.00  0.00     0.031 C 
ATOM     37  C   UNL A   1      44.994  28.130  33.550  1.00  0.00     0.031 A 
BRANCH  24  38
ATOM     38  C   UNL A   1      42.840  25.409  28.431  1.00  0.00    -0.014 A 
ATOM     39  C   UNL A   1      43.475  25.685  27.208  1.00  0.00     0.010 A 
ATOM     40  C   UNL A   1      42.423  24.092  28.704  1.00  0.00     0.010 A 
ATOM     41  C   UNL A   1      43.659  24.671  26.261  1.00  0.00     0.020 A 
ATOM     42  C   UNL A   1      42.629  23.071  27.771  1.00  0.00     0.020 A 
ATOM     43  C   UNL A   1      43.231  23.370  26.548  1.00  0.00     0.054 A 
BRANCH  43  44
ATOM     44  S   UNL A   1      43.504  22.071  25.312  1.00  0.00     0.124 S 
ATOM     45  O   UNL A   1      43.391  22.817  24.062  1.00  0.00    -0.237 OA
ATOM     46  O   UNL A   1      44.845  21.593  25.639  1.00  0.00    -0.237 OA
ATOM     47  O   UNL A   1      42.427  21.117  25.568  1.00  0.00    -0.744 OA
ENDBRANCH  43  44
ENDBRANCH  24  38
BRANCH  25  48
ATOM     48  C   UNL A   1      41.114  32.423  35.350  1.00  0.00    -0.014 A 
ATOM     49  C   UNL A   1      41.611  33.730  35.217  1.00  0.00     0.010 A 
ATOM     50  C   UNL A   1      40.315  32.103  36.465  1.00  0.00     0.010 A 
ATOM     51  C   UNL A   1      41.327  34.696  36.187  1.00  0.00     0.020 A 
ATOM     52  C   UNL A   1      40.003  33.073  37.419  1.00  0.00     0.020 A 
ATOM     53  C   UNL A   1      40.521  34.362  37.280  1.00  0.00     0.054 A 
BRANCH  53  54
ATOM     54  S   UNL A   1      40.112  35.646  38.494  1.00  0.00     0.124 S 
ATOM     55  O   UNL A   1      39.739  36.765  37.637  1.00  0.00    -0.237 OA
ATOM     56  O   UNL A   1      39.021  35.033  39.249  1.00  0.00    -0.237 OA
ATOM     57  O   UNL A   1      41.356  35.816  39.243  1.00  0.00    -0.744 OA
ENDBRANCH  53  54
ENDBRANCH  25  48
BRANCH  37  58
ATOM     58  C   UNL A   1      46.270  27.845  34.297  1.00  0.00    -0.014 A 
ATOM     59  C   UNL A   1      47.457  28.538  33.999  1.00  0.00     0.010 A 
ATOM     60  C   UNL A   1      46.269  26.897  35.334  1.00  0.00     0.010 A 
ATOM     61  C   UNL A   1      48.631  28.260  34.704  1.00  0.00     0.020 A 
ATOM     62  C   UNL A   1      47.434  26.636  36.060  1.00  0.00     0.020 A 
ATOM     63  C   UNL A   1      48.612  27.309  35.730  1.00  0.00     0.054 A 
BRANCH  63  64
ATOM     64  S   UNL A   1      50.139  26.991  36.654  1.00  0.00     0.124 S 
ATOM     65  O   UNL A   1      50.315  28.239  37.390  1.00  0.00    -0.237 OA
ATOM     66  O   UNL A   1      49.789  25.826  37.462  1.00  0.00    -0.237 OA
ATOM     67  O   UNL A   1      51.130  26.740  35.608  1.00  0.00    -0.744 OA
ENDBRANCH  63  64
ENDBRANCH  37  58
ENDBRANCH  11  12
ENDBRANCH   4   6
ENDBRANCH   1   2
BRANCH   1  68
ATOM     68  C   UNL A   1      32.877  28.219  25.795  1.00  0.00     0.042 C 
BRANCH  68  69
ATOM     69  C   UNL A   1      32.515  27.231  26.896  1.00  0.00     0.117 C 
BRANCH  69  70
ATOM     70  N   UNL A   1      31.121  26.833  26.849  1.00  0.00    -0.356 N 
ATOM     71  C   UNL A   1      30.538  25.741  26.270  1.00  0.00     0.229 C 
ATOM     72  H   UNL A   1      30.498  27.444  27.307  1.00  0.00     0.163 HD
ATOM     73  O   UNL A   1      29.322  25.618  26.400  1.00  0.00    -0.275 OA
BRANCH  71  74
ATOM     74  C   UNL A   1      31.435  24.709  25.598  1.00  0.00     0.145 C 
ATOM     75  C   UNL A   1      30.746  23.349  25.736  1.00  0.00     0.276 C 
ATOM     76  C   UNL A   1      31.799  24.835  24.081  1.00  0.00     0.037 C 
ATOM     77  N   UNL A   1      31.241  22.517  24.654  1.00  0.00    -0.330 N 
ATOM     78  C   UNL A   1      31.491  23.411  23.526  1.00  0.00     0.270 C 
ATOM     79  C   UNL A   1      31.029  25.918  23.289  1.00  0.00     0.014 C 
ATOM     80  C   UNL A   1      33.303  25.202  23.955  1.00  0.00     0.014 C 
ATOM     81  H   UNL A   1      30.528  21.838  24.384  1.00  0.00     0.348 HD
ATOM     82  C   UNL A   1      31.500  26.074  21.838  1.00  0.00     0.001 C 
ATOM     83  C   UNL A   1      33.797  25.295  22.513  1.00  0.00     0.001 C 
ATOM     84  C   UNL A   1      33.000  26.332  21.738  1.00  0.00     0.000 C 
BRANCH  77  85
ATOM     85  C   UNL A   1      32.246  21.503  24.978  1.00  0.00     0.299 C 
BRANCH  85  86
ATOM     86  C   UNL A   1      33.664  21.970  25.227  1.00  0.00     0.008 A 
ATOM     87  C   UNL A   1      34.075  22.401  26.497  1.00  0.00     0.011 A 
ATOM     88  C   UNL A   1      34.589  22.020  24.171  1.00  0.00     0.031 A 
ATOM     89  C   UNL A   1      35.333  22.981  26.680  1.00  0.00     0.022 A 
ATOM     90  C   UNL A   1      35.858  22.584  24.354  1.00  0.00     0.060 A 
ATOM     91  C   UNL A   1      36.218  23.096  25.605  1.00  0.00     0.059 A 
ATOM     92  Cl  UNL A   1      36.898  22.674  22.978  1.00  0.00    -0.083 Cl
ATOM     93  Cl  UNL A   1      37.711  23.915  25.878  1.00  0.00    -0.083 Cl
ENDBRANCH  85  86
ENDBRANCH  77  85
ENDBRANCH  71  74
ENDBRANCH  69  70
ENDBRANCH  68  69
ENDBRANCH   1  68
TORSDOF 15
ENDMDL
MODEL 2
REMARK VINA RESULT:     -11.2      0.417      8.112
REMARK SMILES O=C(NCCCNC(=O)[C@H]1C[N@H+](Cc2ccc(Cl)c(Cl)c2)CC12CCCCC2)c1ccc(-c2c3nc(c(-c4ccc(S(=O)(=O)[O-])cc4)c4ccc([nH]4)c(-c4ccc(S(=O)(=O)[O-])cc4)c4nc(c(-c5ccc(S(=O)(=O)[O-])cc5)c5ccc2[nH]5)C=C4)C=C3)cc1
REMARK SMILES IDX 4 1 3 2 1 3 2 4 29 6 30 7 88 8 31 9 87 10 32 11 33 12 34 13
REMARK SMILES IDX 81 14 35 15 86 16 80 17 82 18 36 19 85 20 79 21 78 22 37 24
REMARK SMILES IDX 67 25 48 26 66 27 49 28 52 29 65 30 83 31 50 32 51 33 64 35
REMARK SMILES IDX 84 36 53 37 38 38 39 39 47 40 40 41 46 42 41 43 42 44 43 45
REMARK SMILES IDX 44 46 45 47 68 48 69 49 77 50 70 51 76 52 71 53 72 54 73 55
REMARK SMILES IDX 74 56 75 57 54 58 55 59 63 60 56 61 62 62 57 63 58 64 59 65
REMARK SMILES IDX 60 66 61 67 5 68 6 69 7 70 8 71 9 73 10 74 11 75 23 76 12 77
REMARK SMILES IDX 22 78 24 79 28 80 25 82 27 83 26 84 13 85 14 86 15 87 21 88
REMARK SMILES IDX 16 89 19 90 17 91 20 92 18 93
REMARK H PARENT 3 5 82 23 52 34 7 72 12 81
REMARK Flexibility Score: inf
ROOT
ATOM      1  C   UNL A   1      34.046  29.129  26.139  1.00  0.00     0.118 C 
ENDROOT
BRANCH   1   2
ATOM      2  N   UNL A   1      33.690  30.476  26.570  1.00  0.00    -0.352 N 
ATOM      3  O   UNL A   1      33.656  32.306  27.871  1.00  0.00    -0.269 OA
ATOM      4  C   UNL A   1      34.233  31.269  27.549  1.00  0.00     0.251 C 
ATOM      5  H   UNL A   1      32.939  30.881  26.079  1.00  0.00     0.163 HD
BRANCH   4   6
ATOM      6  C   UNL A   1      35.490  30.879  28.223  1.00  0.00     0.039 A 
ATOM      7  C   UNL A   1      35.539  29.759  29.055  1.00  0.00     0.014 A 
ATOM      8  C   UNL A   1      36.649  31.625  27.989  1.00  0.00     0.014 A 
ATOM      9  C   UNL A   1      36.699  29.474  29.766  1.00  0.00     0.010 A 
ATOM     10  C   UNL A   1      37.842  31.281  28.634  1.00  0.00     0.010 A 
ATOM     11  C   UNL A   1      37.868  30.220  29.550  1.00  0.00    -0.014 A 
BRANCH  11  12
ATOM     12  C   UNL A   1      39.118  29.820  30.244  1.00  0.00     0.031 A 
ATOM     13  C   UNL A   1      39.546  30.482  31.525  1.00  0.00     0.074 A 
ATOM     14  C   UNL A   1      39.856  28.822  29.718  1.00  0.00     0.049 A 
ATOM     15  N   UNL A   1      40.590  30.224  32.272  1.00  0.00    -0.248 NA
ATOM     16  C   UNL A   1      38.702  31.576  32.031  1.00  0.00     0.031 C 
ATOM     17  C   UNL A   1      39.546  28.112  28.473  1.00  0.00     0.029 A 
ATOM     18  N   UNL A   1      41.000  28.215  30.167  1.00  0.00    -0.354 N 
ATOM     19  C   UNL A   1      40.541  31.131  33.324  1.00  0.00     0.074 A 
ATOM     20  C   UNL A   1      39.377  31.964  33.106  1.00  0.00     0.031 C 
ATOM     21  C   UNL A   1      40.447  27.136  28.285  1.00  0.00     0.029 A 
ATOM     22  C   UNL A   1      41.432  27.191  29.358  1.00  0.00     0.049 A 
ATOM     23  H   UNL A   1      41.467  28.486  30.991  1.00  0.00     0.167 HD
ATOM     24  C   UNL A   1      41.388  31.255  34.375  1.00  0.00     0.031 A 
ATOM     25  C   UNL A   1      42.511  26.392  29.454  1.00  0.00     0.031 A 
ATOM     26  C   UNL A   1      42.544  30.422  34.583  1.00  0.00     0.049 A 
ATOM     27  C   UNL A   1      43.442  26.564  30.617  1.00  0.00     0.074 A 
ATOM     28  C   UNL A   1      43.445  30.449  35.634  1.00  0.00     0.029 A 
ATOM     29  N   UNL A   1      42.965  29.417  33.725  1.00  0.00    -0.354 N 
ATOM     30  N   UNL A   1      43.358  27.407  31.619  1.00  0.00    -0.248 NA
ATOM     31  C   UNL A   1      44.611  25.678  30.665  1.00  0.00     0.031 C 
ATOM     32  C   UNL A   1      44.439  29.497  35.385  1.00  0.00     0.029 A 
ATOM     33  C   UNL A   1      44.126  28.834  34.209  1.00  0.00     0.049 A 
ATOM     34  H   UNL A   1      42.506  29.155  32.894  1.00  0.00     0.167 HD
ATOM     35  C   UNL A   1      44.456  27.142  32.426  1.00  0.00     0.074 A 
ATOM     36  C   UNL A   1      45.177  26.046  31.807  1.00  0.00     0.031 C 
ATOM     37  C   UNL A   1      44.836  27.753  33.576  1.00  0.00     0.031 A 
BRANCH  24  38
ATOM     38  C   UNL A   1      41.114  32.353  35.372  1.00  0.00    -0.014 A 
ATOM     39  C   UNL A   1      40.334  32.120  36.518  1.00  0.00     0.010 A 
ATOM     40  C   UNL A   1      41.693  33.621  35.185  1.00  0.00     0.010 A 
ATOM     41  C   UNL A   1      40.111  33.146  37.443  1.00  0.00     0.020 A 
ATOM     42  C   UNL A   1      41.494  34.642  36.120  1.00  0.00     0.020 A 
ATOM     43  C   UNL A   1      40.690  34.403  37.235  1.00  0.00     0.054 A 
BRANCH  43  44
ATOM     44  S   UNL A   1      40.404  35.708  38.462  1.00  0.00     0.124 S 
ATOM     45  O   UNL A   1      39.972  36.822  37.621  1.00  0.00    -0.237 OA
ATOM     46  O   UNL A   1      39.370  35.127  39.314  1.00  0.00    -0.237 OA
ATOM     47  O   UNL A   1      41.708  35.878  39.099  1.00  0.00    -0.744 OA
ENDBRANCH  43  44
ENDBRANCH  24  38
BRANCH  25  48
ATOM     48  C   UNL A   1      42.765  25.371  28.402  1.00  0.00    -0.014 A 
ATOM     49  C   UNL A   1      43.520  25.687  27.260  1.00  0.00     0.010 A 
ATOM     50  C   UNL A   1      42.280  24.058  28.562  1.00  0.00     0.010 A 
ATOM     51  C   UNL A   1      43.774  24.713  26.290  1.00  0.00     0.020 A 
ATOM     52  C   UNL A   1      42.558  23.076  27.610  1.00  0.00     0.020 A 
ATOM     53  C   UNL A   1      43.295  23.412  26.474  1.00  0.00     0.054 A 
BRANCH  53  54
ATOM     54  S   UNL A   1      43.689  22.149  25.233  1.00  0.00     0.124 S 
ATOM     55  O   UNL A   1      43.518  22.885  23.986  1.00  0.00    -0.237 OA
ATOM     56  O   UNL A   1      45.064  21.789  25.574  1.00  0.00    -0.237 OA
ATOM     57  O   UNL A   1      42.700  21.103  25.486  1.00  0.00    -0.744 OA
ENDBRANCH  53  54
ENDBRANCH  25  48
BRANCH  37  58
ATOM     58  C   UNL A   1      46.076  27.231  34.252  1.00  0.00    -0.014 A 
ATOM     59  C   UNL A   1      46.008  26.182  35.185  1.00  0.00     0.010 A 
ATOM     60  C   UNL A   1      47.328  27.778  33.921  1.00  0.00     0.010 A 
ATOM     61  C   UNL A   1      47.170  25.711  35.802  1.00  0.00     0.020 A 
ATOM     62  C   UNL A   1      48.495  27.291  34.515  1.00  0.00     0.020 A 
ATOM     63  C   UNL A   1      48.407  26.270  35.464  1.00  0.00     0.054 A 
BRANCH  63  64
ATOM     64  S   UNL A   1      49.904  25.619  36.253  1.00  0.00     0.124 S 
ATOM     65  O   UNL A   1      50.293  26.724  37.125  1.00  0.00    -0.237 OA
ATOM     66  O   UNL A   1      49.416  24.422  36.932  1.00  0.00    -0.237 OA
ATOM     67  O   UNL A   1      50.805  25.367  35.129  1.00  0.00    -0.744 OA
ENDBRANCH  63  64
ENDBRANCH  37  58
ENDBRANCH  11  12
ENDBRANCH   4   6
ENDBRANCH   1   2
BRANCH   1  68
ATOM     68  C   UNL A   1      32.830  28.281  25.791  1.00  0.00     0.042 C 
BRANCH  68  69
ATOM     69  C   UNL A   1      32.512  27.214  26.829  1.00  0.00     0.117 C 
BRANCH  69  70
ATOM     70  N   UNL A   1      31.118  26.813  26.805  1.00  0.00    -0.356 N 
ATOM     71  C   UNL A   1      30.527  25.721  26.232  1.00  0.00     0.229 C 
ATOM     72  H   UNL A   1      30.502  27.420  27.276  1.00  0.00     0.163 HD
ATOM     73  O   UNL A   1      29.314  25.595  26.383  1.00  0.00    -0.275 OA
BRANCH  71  74
ATOM     74  C   UNL A   1      31.415  24.694  25.540  1.00  0.00     0.145 C 
ATOM     75  C   UNL A   1      30.711  23.339  25.650  1.00  0.00     0.276 C 
ATOM     76  C   UNL A   1      31.783  24.847  24.027  1.00  0.00     0.037 C 
ATOM     77  N   UNL A   1      31.198  22.524  24.551  1.00  0.00    -0.330 N 
ATOM     78  C   UNL A   1      31.461  23.439  23.442  1.00  0.00     0.270 C 
ATOM     79  C   UNL A   1      31.025  25.954  23.256  1.00  0.00     0.014 C 
ATOM     80  C   UNL A   1      33.291  25.201  23.911  1.00  0.00     0.014 C 
ATOM     81  H   UNL A   1      30.479  21.859  24.266  1.00  0.00     0.348 HD
ATOM     82  C   UNL A   1      31.501  26.135  21.809  1.00  0.00     0.001 C 
ATOM     83  C   UNL A   1      33.788  25.318  22.472  1.00  0.00     0.001 C 
ATOM     84  C   UNL A   1      33.003  26.379  21.717  1.00  0.00     0.000 C 
BRANCH  77  85
ATOM     85  C   UNL A   1      32.193  21.493  24.857  1.00  0.00     0.299 C 
BRANCH  85  86
ATOM     86  C   UNL A   1      33.604  21.944  25.164  1.00  0.00     0.008 A 
ATOM     87  C   UNL A   1      33.975  22.341  26.456  1.00  0.00     0.011 A 
ATOM     88  C   UNL A   1      34.565  22.010  24.140  1.00  0.00     0.031 A 
ATOM     89  C   UNL A   1      35.230  22.908  26.694  1.00  0.00     0.022 A 
ATOM     90  C   UNL A   1      35.831  22.560  24.379  1.00  0.00     0.060 A 
ATOM     91  C   UNL A   1      36.152  23.040  25.652  1.00  0.00     0.059 A 
ATOM     92  Cl  UNL A   1      36.917  22.674  23.041  1.00  0.00    -0.083 Cl
ATOM     93  Cl  UNL A   1      37.641  23.842  25.993  1.00  0.00    -0.083 Cl
ENDBRANCH  85  86
ENDBRANCH  77  85
ENDBRANCH  71  74
ENDBRANCH  69  70
ENDBRANCH  68  69
ENDBRANCH   1  68
TORSDOF 15
ENDMDL
MODEL 3
REMARK VINA RESULT:     -11.2      5.139      9.378
REMARK SMILES O=C(NCCCNC(=O)[C@H]1C[N@H+](Cc2ccc(Cl)c(Cl)c2)CC12CCCCC2)c1ccc(-c2c3nc(c(-c4ccc(S(=O)(=O)[O-])cc4)c4ccc([nH]4)c(-c4ccc(S(=O)(=O)[O-])cc4)c4nc(c(-c5ccc(S(=O)(=O)[O-])cc5)c5ccc2[nH]5)C=C4)C=C3)cc1
REMARK SMILES IDX 4 1 3 2 1 3 2 4 29 6 30 7 88 8 31 9 87 10 32 11 33 12 34 13
REMARK SMILES IDX 81 14 35 15 86 16 80 17 82 18 36 19 85 20 79 21 78 22 37 24
REMARK SMILES IDX 67 25 48 26 66 27 49 28 52 29 65 30 83 31 50 32 51 33 64 35
REMARK SMILES IDX 84 36 53 37 38 38 39 39 47 40 40 41 46 42 41 43 42 44 43 45
REMARK SMILES IDX 44 46 45 47 68 48 69 49 77 50 70 51 76 52 71 53 72 54 73 55
REMARK SMILES IDX 74 56 75 57 54 58 55 59 63 60 56 61 62 62 57 63 58 64 59 65
REMARK SMILES IDX 60 66 61 67 5 68 6 69 7 70 8 71 9 73 10 74 11 75 23 76 12 77
REMARK SMILES IDX 22 78 24 79 28 80 25 82 27 83 26 84 13 85 14 86 15 87 21 88
REMARK SMILES IDX 16 89 19 90 17 91 20 92 18 93
REMARK H PARENT 3 5 82 23 52 34 7 72 12 81
REMARK Flexibility Score: inf
ROOT
ATOM      1  C   UNL A   1      35.253  29.407  27.755  1.00  0.00     0.118 C 
ENDROOT
BRANCH   1   2
ATOM      2  N   UNL A   1      35.324  30.062  29.056  1.00  0.00    -0.352 N 
ATOM      3  O   UNL A   1      36.165  30.631  31.058  1.00  0.00    -0.269 OA
ATOM      4  C   UNL A   1      36.376  30.199  29.927  1.00  0.00     0.251 C 
ATOM      5  H   UNL A   1      34.481  30.472  29.358  1.00  0.00     0.163 HD
BRANCH   4   6
ATOM      6  C   UNL A   1      37.745  29.818  29.519  1.00  0.00     0.039 A 
ATOM      7  C   UNL A   1      38.656  29.317  30.451  1.00  0.00     0.014 A 
ATOM      8  C   UNL A   1      38.112  29.929  28.175  1.00  0.00     0.014 A 
ATOM      9  C   UNL A   1      39.970  29.071  30.071  1.00  0.00     0.010 A 
ATOM     10  C   UNL A   1      39.409  29.591  27.776  1.00  0.00     0.010 A 
ATOM     11  C   UNL A   1      40.357  29.188  28.726  1.00  0.00    -0.014 A 
BRANCH  11  12
ATOM     12  C   UNL A   1      41.740  28.812  28.338  1.00  0.00     0.031 A 
ATOM     13  C   UNL A   1      42.855  29.822  28.343  1.00  0.00     0.074 A 
ATOM     14  C   UNL A   1      41.989  27.530  28.005  1.00  0.00     0.049 A 
ATOM     15  N   UNL A   1      44.122  29.645  28.066  1.00  0.00    -0.248 NA
ATOM     16  C   UNL A   1      42.506  31.206  28.699  1.00  0.00     0.031 C 
ATOM     17  C   UNL A   1      40.985  26.463  27.952  1.00  0.00     0.029 A 
ATOM     18  N   UNL A   1      43.159  26.898  27.670  1.00  0.00    -0.354 N 
ATOM     19  C   UNL A   1      44.719  30.894  28.194  1.00  0.00     0.074 A 
ATOM     20  C   UNL A   1      43.670  31.826  28.551  1.00  0.00     0.031 C 
ATOM     21  C   UNL A   1      41.588  25.303  27.656  1.00  0.00     0.029 A 
ATOM     22  C   UNL A   1      43.007  25.552  27.435  1.00  0.00     0.049 A 
ATOM     23  H   UNL A   1      44.024  27.363  27.605  1.00  0.00     0.167 HD
ATOM     24  C   UNL A   1      46.021  31.230  28.031  1.00  0.00     0.031 A 
ATOM     25  C   UNL A   1      43.904  24.619  27.064  1.00  0.00     0.031 A 
ATOM     26  C   UNL A   1      47.058  30.296  27.674  1.00  0.00     0.049 A 
ATOM     27  C   UNL A   1      45.335  25.022  26.872  1.00  0.00     0.074 A 
ATOM     28  C   UNL A   1      48.413  30.534  27.518  1.00  0.00     0.029 A 
ATOM     29  N   UNL A   1      46.859  28.949  27.415  1.00  0.00    -0.354 N 
ATOM     30  N   UNL A   1      45.885  26.203  27.032  1.00  0.00    -0.248 NA
ATOM     31  C   UNL A   1      46.269  23.970  26.452  1.00  0.00     0.031 C 
ATOM     32  C   UNL A   1      49.024  29.344  27.111  1.00  0.00     0.029 A 
ATOM     33  C   UNL A   1      48.061  28.348  27.073  1.00  0.00     0.049 A 
ATOM     34  H   UNL A   1      45.992  28.486  27.465  1.00  0.00     0.167 HD
ATOM     35  C   UNL A   1      47.233  26.033  26.746  1.00  0.00     0.074 A 
ATOM     36  C   UNL A   1      47.419  24.631  26.426  1.00  0.00     0.031 C 
ATOM     37  C   UNL A   1      48.227  26.954  26.747  1.00  0.00     0.031 A 
BRANCH  24  38
ATOM     38  C   UNL A   1      46.401  32.679  28.208  1.00  0.00    -0.014 A 
ATOM     39  C   UNL A   1      46.826  33.176  29.453  1.00  0.00     0.010 A 
ATOM     40  C   UNL A   1      46.383  33.543  27.098  1.00  0.00     0.010 A 
ATOM     41  C   UNL A   1      47.196  34.518  29.591  1.00  0.00     0.020 A 
ATOM     42  C   UNL A   1      46.776  34.878  27.226  1.00  0.00     0.020 A 
ATOM     43  C   UNL A   1      47.164  35.362  28.476  1.00  0.00     0.054 A 
BRANCH  43  44
ATOM     44  S   UNL A   1      47.671  37.092  28.678  1.00  0.00     0.124 S 
ATOM     45  O   UNL A   1      48.614  37.260  27.575  1.00  0.00    -0.237 OA
ATOM     46  O   UNL A   1      46.410  37.815  28.541  1.00  0.00    -0.237 OA
ATOM     47  O   UNL A   1      48.263  37.126  30.014  1.00  0.00    -0.744 OA
ENDBRANCH  43  44
ENDBRANCH  24  38
BRANCH  25  48
ATOM     48  C   UNL A   1      43.457  23.219  26.838  1.00  0.00    -0.014 A 
ATOM     49  C   UNL A   1      43.501  22.647  25.555  1.00  0.00     0.010 A 
ATOM     50  C   UNL A   1      43.018  22.435  27.923  1.00  0.00     0.010 A 
ATOM     51  C   UNL A   1      43.102  21.321  25.359  1.00  0.00     0.020 A 
ATOM     52  C   UNL A   1      42.649  21.102  27.736  1.00  0.00     0.020 A 
ATOM     53  C   UNL A   1      42.682  20.556  26.452  1.00  0.00     0.054 A 
BRANCH  53  54
ATOM     54  S   UNL A   1      42.229  18.820  26.185  1.00  0.00     0.124 S 
ATOM     55  O   UNL A   1      40.834  18.931  25.771  1.00  0.00    -0.237 OA
ATOM     56  O   UNL A   1      43.168  18.404  25.145  1.00  0.00    -0.237 OA
ATOM     57  O   UNL A   1      42.449  18.206  27.492  1.00  0.00    -0.744 OA
ENDBRANCH  53  54
ENDBRANCH  25  48
BRANCH  37  58
ATOM     58  C   UNL A   1      49.613  26.469  26.414  1.00  0.00    -0.014 A 
ATOM     59  C   UNL A   1      50.442  25.905  27.399  1.00  0.00     0.010 A 
ATOM     60  C   UNL A   1      50.075  26.547  25.088  1.00  0.00     0.010 A 
ATOM     61  C   UNL A   1      51.725  25.460  27.070  1.00  0.00     0.020 A 
ATOM     62  C   UNL A   1      51.346  26.077  24.750  1.00  0.00     0.020 A 
ATOM     63  C   UNL A   1      52.170  25.550  25.747  1.00  0.00     0.054 A 
BRANCH  63  64
ATOM     64  S   UNL A   1      53.825  24.934  25.338  1.00  0.00     0.124 S 
ATOM     65  O   UNL A   1      54.586  25.292  26.532  1.00  0.00    -0.237 OA
ATOM     66  O   UNL A   1      53.597  23.505  25.143  1.00  0.00    -0.237 OA
ATOM     67  O   UNL A   1      54.180  25.673  24.128  1.00  0.00    -0.744 OA
ENDBRANCH  63  64
ENDBRANCH  37  58
ENDBRANCH  11  12
ENDBRANCH   4   6
ENDBRANCH   1   2
BRANCH   1  68
ATOM     68  C   UNL A   1      34.075  29.888  26.918  1.00  0.00     0.042 C 
BRANCH  68  69
ATOM     69  C   UNL A   1      33.701  28.938  25.788  1.00  0.00     0.117 C 
BRANCH  69  70
ATOM     70  N   UNL A   1      32.428  29.275  25.177  1.00  0.00    -0.356 N 
ATOM     71  C   UNL A   1      31.418  28.461  24.746  1.00  0.00     0.229 C 
ATOM     72  H   UNL A   1      32.267  30.238  25.056  1.00  0.00     0.163 HD
ATOM     73  O   UNL A   1      30.416  29.005  24.286  1.00  0.00    -0.275 OA
BRANCH  71  74
ATOM     74  C   UNL A   1      31.556  26.958  24.957  1.00  0.00     0.145 C 
ATOM     75  C   UNL A   1      30.280  26.478  25.655  1.00  0.00     0.276 C 
ATOM     76  C   UNL A   1      31.746  25.995  23.738  1.00  0.00     0.037 C 
ATOM     77  N   UNL A   1      30.132  25.070  25.335  1.00  0.00    -0.330 N 
ATOM     78  C   UNL A   1      30.676  24.891  23.990  1.00  0.00     0.270 C 
ATOM     79  C   UNL A   1      31.566  26.633  22.339  1.00  0.00     0.014 C 
ATOM     80  C   UNL A   1      33.192  25.429  23.767  1.00  0.00     0.014 C 
ATOM     81  H   UNL A   1      29.144  24.817  25.327  1.00  0.00     0.348 HD
ATOM     82  C   UNL A   1      31.871  25.675  21.181  1.00  0.00     0.001 C 
ATOM     83  C   UNL A   1      33.484  24.425  22.654  1.00  0.00     0.001 C 
ATOM     84  C   UNL A   1      33.260  25.055  21.290  1.00  0.00     0.000 C 
BRANCH  77  85
ATOM     85  C   UNL A   1      30.491  24.096  26.368  1.00  0.00     0.299 C 
BRANCH  85  86
ATOM     86  C   UNL A   1      31.683  23.200  26.111  1.00  0.00     0.008 A 
ATOM     87  C   UNL A   1      32.943  23.494  26.650  1.00  0.00     0.011 A 
ATOM     88  C   UNL A   1      31.554  22.071  25.284  1.00  0.00     0.031 A 
ATOM     89  C   UNL A   1      34.069  22.756  26.276  1.00  0.00     0.022 A 
ATOM     90  C   UNL A   1      32.677  21.316  24.921  1.00  0.00     0.060 A 
ATOM     91  C   UNL A   1      33.942  21.681  25.393  1.00  0.00     0.059 A 
ATOM     92  Cl  UNL A   1      32.434  19.993  23.837  1.00  0.00    -0.083 Cl
ATOM     93  Cl  UNL A   1      35.385  20.878  24.892  1.00  0.00    -0.083 Cl
ENDBRANCH  85  86
ENDBRANCH  77  85
ENDBRANCH  71  74
ENDBRANCH  69  70
ENDBRANCH  68  69
ENDBRANCH   1  68
TORSDOF 15
ENDMDL
