MODEL 1
REMARK VINA RESULT:     -12.0      0.000      0.000
REMARK SMILES CC[NH+]1CCC2(CC1)OC[C@@H](C(=O)NCCCNC(=O)c1ccc(-c3c4nc(c(-c5ccc(S(=O)(=O)[O-])cc5)c5ccc([nH]5)c(-c5ccc(S(=O)(=O)[O-])cc5)c5nc(c(-c6ccc(S(=O)(=O)[O-])cc6)c6ccc3[nH]6)C=C5)C=C4)cc1)N2C(=O)c1ccc(Cl)c([N+](=O)[O-])c1
REMARK SMILES IDX 16 1 15 2 14 3 12 4 13 5 11 7 3 8 4 9 8 10 5 12 7 13 6 14
REMARK SMILES IDX 9 15 81 16 10 17 2 18 1 19 82 20 83 21 84 22 85 23 93 24
REMARK SMILES IDX 86 25 89 26 87 27 88 28 90 29 91 30 92 31 17 32 18 33 19 34
REMARK SMILES IDX 20 36 21 37 22 38 80 39 23 40 79 41 24 42 25 43 26 44 73 45
REMARK SMILES IDX 27 46 78 47 72 48 74 49 28 50 77 51 71 52 70 53 29 55 59 56
REMARK SMILES IDX 40 57 58 58 41 59 44 60 57 61 75 62 42 63 43 64 56 66 76 67
REMARK SMILES IDX 45 68 30 69 31 70 39 71 32 72 38 73 33 74 34 75 35 76 36 77
REMARK SMILES IDX 37 78 60 79 61 80 69 81 62 82 68 83 63 84 64 85 65 86 66 87
REMARK SMILES IDX 67 88 46 89 47 90 55 91 48 92 54 93 49 94 50 95 51 96 52 97
REMARK SMILES IDX 53 98
REMARK H PARENT 14 6 3 11 18 35 74 54 44 65
REMARK Flexibility Score: inf
ROOT
ATOM      1  C   UNL A   1      37.977  20.555  25.241  1.00  0.00     0.042 C 
ENDROOT
BRANCH   1   2
ATOM      2  C   UNL A   1      37.033  21.731  25.091  1.00  0.00     0.117 C 
BRANCH   2   3
ATOM      3  N   UNL A   1      36.139  21.832  26.223  1.00  0.00    -0.354 N 
ATOM      4  C   UNL A   1      35.042  22.615  26.403  1.00  0.00     0.245 C 
ATOM      5  O   UNL A   1      34.369  22.401  27.418  1.00  0.00    -0.273 OA
ATOM      6  H   UNL A   1      36.358  21.242  26.980  1.00  0.00     0.163 HD
BRANCH   4   7
ATOM      7  C   UNL A   1      34.492  23.524  25.295  1.00  0.00     0.203 C 
ATOM      8  N   UNL A   1      30.856  26.357  23.235  1.00  0.00    -0.335 N 
ATOM      9  C   UNL A   1      31.921  25.536  22.684  1.00  0.00     0.267 C 
ATOM     10  C   UNL A   1      30.816  26.535  24.690  1.00  0.00     0.267 C 
ATOM     11  H   UNL A   1      30.089  25.721  23.022  1.00  0.00     0.348 HD
ATOM     12  C   UNL A   1      33.249  25.677  23.374  1.00  0.00     0.120 C 
ATOM     13  C   UNL A   1      32.120  26.408  25.470  1.00  0.00     0.120 C 
ATOM     14  C   UNL A   1      33.137  25.437  24.886  1.00  0.00     0.155 C 
ATOM     15  O   UNL A   1      34.422  25.884  25.410  1.00  0.00    -0.352 OA
ATOM     16  N   UNL A   1      33.110  24.017  25.291  1.00  0.00    -0.295 N 
ATOM     17  C   UNL A   1      35.342  24.788  25.304  1.00  0.00     0.198 C 
BRANCH   8  18
ATOM     18  C   UNL A   1      30.543  27.607  22.535  1.00  0.00     0.258 C 
ATOM     19  C   UNL A   1      29.287  28.337  22.995  1.00  0.00     0.071 C 
ENDBRANCH   8  18
BRANCH  16  20
ATOM     20  C   UNL A   1      32.118  23.033  25.321  1.00  0.00     0.257 C 
ATOM     21  O   UNL A   1      31.125  23.134  26.041  1.00  0.00    -0.269 OA
BRANCH  20  22
ATOM     22  C   UNL A   1      32.142  21.819  24.479  1.00  0.00     0.047 A 
ATOM     23  C   UNL A   1      31.929  21.877  23.098  1.00  0.00     0.016 A 
ATOM     24  C   UNL A   1      32.268  20.571  25.089  1.00  0.00     0.101 A 
ATOM     25  C   UNL A   1      31.985  20.705  22.326  1.00  0.00     0.028 A 
ATOM     26  C   UNL A   1      32.463  19.420  24.302  1.00  0.00     0.288 A 
ATOM     27  C   UNL A   1      32.302  19.473  22.917  1.00  0.00     0.118 A 
ATOM     28  Cl  UNL A   1      32.431  18.116  21.863  1.00  0.00    -0.077 Cl
BRANCH  26  29
ATOM     29  N   UNL A   1      32.979  18.236  24.985  1.00  0.00     0.064 N 
ATOM     30  O   UNL A   1      32.310  17.742  25.900  1.00  0.00    -0.258 OA
ATOM     31  O   UNL A   1      34.024  17.740  24.535  1.00  0.00    -0.258 OA
ENDBRANCH  26  29
ENDBRANCH  20  22
ENDBRANCH  16  20
ENDBRANCH   4   7
ENDBRANCH   2   3
ENDBRANCH   1   2
BRANCH   1  32
ATOM     32  C   UNL A   1      39.223  20.864  26.055  1.00  0.00     0.118 C 
BRANCH  32  33
ATOM     33  N   UNL A   1      40.135  19.733  26.130  1.00  0.00    -0.352 N 
ATOM     34  C   UNL A   1      41.503  19.718  26.232  1.00  0.00     0.251 C 
ATOM     35  H   UNL A   1      39.707  18.847  26.104  1.00  0.00     0.163 HD
ATOM     36  O   UNL A   1      42.113  18.661  26.075  1.00  0.00    -0.269 OA
BRANCH  34  37
ATOM     37  C   UNL A   1      42.237  20.972  26.499  1.00  0.00     0.039 A 
ATOM     38  C   UNL A   1      42.597  21.790  25.427  1.00  0.00     0.014 A 
ATOM     39  C   UNL A   1      42.559  21.345  27.806  1.00  0.00     0.014 A 
ATOM     40  C   UNL A   1      43.214  23.020  25.674  1.00  0.00     0.010 A 
ATOM     41  C   UNL A   1      43.078  22.609  28.055  1.00  0.00     0.010 A 
ATOM     42  C   UNL A   1      43.420  23.458  26.991  1.00  0.00    -0.014 A 
BRANCH  42  43
ATOM     43  C   UNL A   1      44.007  24.789  27.290  1.00  0.00     0.031 A 
ATOM     44  C   UNL A   1      43.118  25.907  27.765  1.00  0.00     0.074 A 
ATOM     45  C   UNL A   1      45.317  25.012  27.063  1.00  0.00     0.049 A 
ATOM     46  N   UNL A   1      43.415  27.164  27.974  1.00  0.00    -0.248 NA
ATOM     47  C   UNL A   1      41.705  25.576  28.011  1.00  0.00     0.031 C 
ATOM     48  C   UNL A   1      46.277  24.018  26.576  1.00  0.00     0.029 A 
ATOM     49  N   UNL A   1      46.068  26.153  27.205  1.00  0.00    -0.354 N 
ATOM     50  C   UNL A   1      42.227  27.772  28.364  1.00  0.00     0.074 A 
ATOM     51  C   UNL A   1      41.194  26.763  28.300  1.00  0.00     0.031 C 
ATOM     52  C   UNL A   1      47.490  24.587  26.479  1.00  0.00     0.029 A 
ATOM     53  C   UNL A   1      47.387  25.995  26.847  1.00  0.00     0.049 A 
ATOM     54  H   UNL A   1      45.697  27.004  27.531  1.00  0.00     0.167 HD
ATOM     55  C   UNL A   1      42.019  29.048  28.766  1.00  0.00     0.031 A 
ATOM     56  C   UNL A   1      48.396  26.887  26.805  1.00  0.00     0.031 A 
ATOM     57  C   UNL A   1      43.051  30.048  28.832  1.00  0.00     0.049 A 
ATOM     58  C   UNL A   1      48.130  28.311  27.217  1.00  0.00     0.074 A 
ATOM     59  C   UNL A   1      42.950  31.361  29.255  1.00  0.00     0.029 A 
ATOM     60  N   UNL A   1      44.374  29.844  28.469  1.00  0.00    -0.354 N 
ATOM     61  N   UNL A   1      47.011  28.854  27.631  1.00  0.00    -0.248 NA
ATOM     62  C   UNL A   1      49.267  29.241  27.164  1.00  0.00     0.031 C 
ATOM     63  C   UNL A   1      44.199  31.967  29.097  1.00  0.00     0.029 A 
ATOM     64  C   UNL A   1      45.095  31.013  28.641  1.00  0.00     0.049 A 
ATOM     65  H   UNL A   1      44.746  28.994  28.140  1.00  0.00     0.167 HD
ATOM     66  C   UNL A   1      47.317  30.179  27.923  1.00  0.00     0.074 A 
ATOM     67  C   UNL A   1      48.729  30.352  27.651  1.00  0.00     0.031 C 
ATOM     68  C   UNL A   1      46.504  31.163  28.378  1.00  0.00     0.031 A 
BRANCH  55  69
ATOM     69  C   UNL A   1      40.620  29.431  29.172  1.00  0.00    -0.014 A 
ATOM     70  C   UNL A   1      40.304  29.697  30.517  1.00  0.00     0.010 A 
ATOM     71  C   UNL A   1      39.617  29.571  28.194  1.00  0.00     0.010 A 
ATOM     72  C   UNL A   1      39.005  30.056  30.884  1.00  0.00     0.020 A 
ATOM     73  C   UNL A   1      38.323  29.962  28.553  1.00  0.00     0.020 A 
ATOM     74  C   UNL A   1      38.022  30.187  29.898  1.00  0.00     0.054 A 
BRANCH  74  75
ATOM     75  S   UNL A   1      36.353  30.684  30.402  1.00  0.00     0.124 S 
ATOM     76  O   UNL A   1      35.637  30.669  29.129  1.00  0.00    -0.237 OA
ATOM     77  O   UNL A   1      35.979  29.635  31.346  1.00  0.00    -0.237 OA
ATOM     78  O   UNL A   1      36.547  32.007  30.991  1.00  0.00    -0.744 OA
ENDBRANCH  74  75
ENDBRANCH  55  69
BRANCH  56  79
ATOM     79  C   UNL A   1      49.752  26.465  26.355  1.00  0.00    -0.014 A 
ATOM     80  C   UNL A   1      50.645  25.850  27.249  1.00  0.00     0.010 A 
ATOM     81  C   UNL A   1      50.164  26.692  25.028  1.00  0.00     0.010 A 
ATOM     82  C   UNL A   1      51.934  25.499  26.835  1.00  0.00     0.020 A 
ATOM     83  C   UNL A   1      51.439  26.313  24.601  1.00  0.00     0.020 A 
ATOM     84  C   UNL A   1      52.323  25.734  25.515  1.00  0.00     0.054 A 
BRANCH  84  85
ATOM     85  S   UNL A   1      53.992  25.247  24.996  1.00  0.00     0.124 S 
ATOM     86  O   UNL A   1      54.807  25.738  26.102  1.00  0.00    -0.237 OA
ATOM     87  O   UNL A   1      53.876  23.795  24.887  1.00  0.00    -0.237 OA
ATOM     88  O   UNL A   1      54.171  25.947  23.725  1.00  0.00    -0.744 OA
ENDBRANCH  84  85
ENDBRANCH  56  79
BRANCH  68  89
ATOM     89  C   UNL A   1      47.124  32.506  28.662  1.00  0.00    -0.014 A 
ATOM     90  C   UNL A   1      47.159  33.519  27.688  1.00  0.00     0.010 A 
ATOM     91  C   UNL A   1      47.610  32.781  29.955  1.00  0.00     0.010 A 
ATOM     92  C   UNL A   1      47.692  34.775  27.995  1.00  0.00     0.020 A 
ATOM     93  C   UNL A   1      48.113  34.044  30.274  1.00  0.00     0.020 A 
ATOM     94  C   UNL A   1      48.160  35.030  29.288  1.00  0.00     0.054 A 
BRANCH  94  95
ATOM     95  S   UNL A   1      48.784  36.687  29.676  1.00  0.00     0.124 S 
ATOM     96  O   UNL A   1      49.723  36.924  28.583  1.00  0.00    -0.237 OA
ATOM     97  O   UNL A   1      47.569  37.500  29.649  1.00  0.00    -0.237 OA
ATOM     98  O   UNL A   1      49.391  36.530  30.996  1.00  0.00    -0.744 OA
ENDBRANCH  94  95
ENDBRANCH  68  89
ENDBRANCH  42  43
ENDBRANCH  34  37
ENDBRANCH  32  33
ENDBRANCH   1  32
TORSDOF 17
ENDMDL
MODEL 2
REMARK VINA RESULT:     -12.0      3.595      7.818
REMARK SMILES CC[NH+]1CCC2(CC1)OC[C@@H](C(=O)NCCCNC(=O)c1ccc(-c3c4nc(c(-c5ccc(S(=O)(=O)[O-])cc5)c5ccc([nH]5)c(-c5ccc(S(=O)(=O)[O-])cc5)c5nc(c(-c6ccc(S(=O)(=O)[O-])cc6)c6ccc3[nH]6)C=C5)C=C4)cc1)N2C(=O)c1ccc(Cl)c([N+](=O)[O-])c1
REMARK SMILES IDX 16 1 15 2 14 3 12 4 13 5 11 7 3 8 4 9 8 10 5 12 7 13 6 14
REMARK SMILES IDX 9 15 81 16 10 17 2 18 1 19 82 20 83 21 84 22 85 23 93 24
REMARK SMILES IDX 86 25 89 26 87 27 88 28 90 29 91 30 92 31 17 32 18 33 19 34
REMARK SMILES IDX 20 36 21 37 22 38 80 39 23 40 79 41 24 42 25 43 26 44 73 45
REMARK SMILES IDX 27 46 78 47 72 48 74 49 28 50 77 51 71 52 70 53 29 55 59 56
REMARK SMILES IDX 40 57 58 58 41 59 44 60 57 61 75 62 42 63 43 64 56 66 76 67
REMARK SMILES IDX 45 68 30 69 31 70 39 71 32 72 38 73 33 74 34 75 35 76 36 77
REMARK SMILES IDX 37 78 60 79 61 80 69 81 62 82 68 83 63 84 64 85 65 86 66 87
REMARK SMILES IDX 67 88 46 89 47 90 55 91 48 92 54 93 49 94 50 95 51 96 52 97
REMARK SMILES IDX 53 98
REMARK H PARENT 14 6 3 11 18 35 74 54 44 65
REMARK Flexibility Score: inf
ROOT
ATOM      1  C   UNL A   1      31.867  27.909  26.953  1.00  0.00     0.042 C 
ENDROOT
BRANCH   1   2
ATOM      2  C   UNL A   1      31.555  28.224  25.504  1.00  0.00     0.117 C 
BRANCH   2   3
ATOM      3  N   UNL A   1      30.944  27.093  24.842  1.00  0.00    -0.354 N 
ATOM      4  C   UNL A   1      31.445  25.855  24.585  1.00  0.00     0.245 C 
ATOM      5  O   UNL A   1      30.655  25.022  24.126  1.00  0.00    -0.273 OA
ATOM      6  H   UNL A   1      30.023  27.242  24.529  1.00  0.00     0.163 HD
BRANCH   4   7
ATOM      7  C   UNL A   1      32.826  25.410  25.085  1.00  0.00     0.203 C 
ATOM      8  N   UNL A   1      36.626  22.095  25.348  1.00  0.00    -0.335 N 
ATOM      9  C   UNL A   1      36.085  23.077  26.273  1.00  0.00     0.267 C 
ATOM     10  C   UNL A   1      36.072  22.061  23.990  1.00  0.00     0.267 C 
ATOM     11  H   UNL A   1      36.249  21.270  25.812  1.00  0.00     0.348 HD
ATOM     12  C   UNL A   1      35.747  24.406  25.659  1.00  0.00     0.120 C 
ATOM     13  C   UNL A   1      35.460  23.339  23.427  1.00  0.00     0.120 C 
ATOM     14  C   UNL A   1      34.810  24.258  24.452  1.00  0.00     0.155 C 
ATOM     15  O   UNL A   1      34.823  25.576  23.832  1.00  0.00    -0.352 OA
ATOM     16  N   UNL A   1      33.383  24.084  24.790  1.00  0.00    -0.295 N 
ATOM     17  C   UNL A   1      33.839  26.382  24.497  1.00  0.00     0.198 C 
BRANCH   8  18
ATOM     18  C   UNL A   1      38.081  21.915  25.336  1.00  0.00     0.258 C 
ATOM     19  C   UNL A   1      38.871  22.767  26.322  1.00  0.00     0.071 C 
ENDBRANCH   8  18
BRANCH  16  20
ATOM     20  C   UNL A   1      32.606  22.998  25.202  1.00  0.00     0.257 C 
ATOM     21  O   UNL A   1      31.959  23.023  26.249  1.00  0.00    -0.269 OA
BRANCH  20  22
ATOM     22  C   UNL A   1      32.457  21.753  24.422  1.00  0.00     0.047 A 
ATOM     23  C   UNL A   1      32.166  21.773  23.053  1.00  0.00     0.016 A 
ATOM     24  C   UNL A   1      32.494  20.526  25.085  1.00  0.00     0.101 A 
ATOM     25  C   UNL A   1      32.057  20.569  22.339  1.00  0.00     0.028 A 
ATOM     26  C   UNL A   1      32.525  19.328  24.345  1.00  0.00     0.288 A 
ATOM     27  C   UNL A   1      32.285  19.337  22.970  1.00  0.00     0.118 A 
ATOM     28  Cl  UNL A   1      32.212  17.930  21.978  1.00  0.00    -0.077 Cl
BRANCH  26  29
ATOM     29  N   UNL A   1      32.960  18.128  25.055  1.00  0.00     0.064 N 
ATOM     30  O   UNL A   1      32.143  17.531  25.765  1.00  0.00    -0.258 OA
ATOM     31  O   UNL A   1      34.111  17.725  24.822  1.00  0.00    -0.258 OA
ENDBRANCH  26  29
ENDBRANCH  20  22
ENDBRANCH  16  20
ENDBRANCH   4   7
ENDBRANCH   2   3
ENDBRANCH   1   2
BRANCH   1  32
ATOM     32  C   UNL A   1      33.198  28.463  27.431  1.00  0.00     0.118 C 
BRANCH  32  33
ATOM     33  N   UNL A   1      33.232  29.918  27.422  1.00  0.00    -0.352 N 
ATOM     34  C   UNL A   1      34.217  30.773  27.849  1.00  0.00     0.251 C 
ATOM     35  H   UNL A   1      32.429  30.353  27.056  1.00  0.00     0.163 HD
ATOM     36  O   UNL A   1      33.978  31.975  27.951  1.00  0.00    -0.269 OA
BRANCH  34  37
ATOM     37  C   UNL A   1      35.548  30.243  28.211  1.00  0.00     0.039 A 
ATOM     38  C   UNL A   1      36.564  30.244  27.254  1.00  0.00     0.014 A 
ATOM     39  C   UNL A   1      35.795  29.757  29.497  1.00  0.00     0.014 A 
ATOM     40  C   UNL A   1      37.849  29.827  27.611  1.00  0.00     0.010 A 
ATOM     41  C   UNL A   1      37.093  29.439  29.877  1.00  0.00     0.010 A 
ATOM     42  C   UNL A   1      38.134  29.462  28.936  1.00  0.00    -0.014 A 
BRANCH  42  43
ATOM     43  C   UNL A   1      39.504  29.082  29.365  1.00  0.00     0.031 A 
ATOM     44  C   UNL A   1      40.354  30.075  30.111  1.00  0.00     0.074 A 
ATOM     45  C   UNL A   1      40.006  27.879  29.021  1.00  0.00     0.049 A 
ATOM     46  N   UNL A   1      41.607  29.977  30.476  1.00  0.00    -0.248 NA
ATOM     47  C   UNL A   1      39.724  31.356  30.470  1.00  0.00     0.031 C 
ATOM     48  C   UNL A   1      39.292  26.841  28.274  1.00  0.00     0.029 A 
ATOM     49  N   UNL A   1      41.244  27.330  29.248  1.00  0.00    -0.354 N 
ATOM     50  C   UNL A   1      41.915  31.183  31.096  1.00  0.00     0.074 A 
ATOM     51  C   UNL A   1      40.740  32.020  31.000  1.00  0.00     0.031 C 
ATOM     52  C   UNL A   1      40.096  25.775  28.122  1.00  0.00     0.029 A 
ATOM     53  C   UNL A   1      41.396  26.070  28.715  1.00  0.00     0.049 A 
ATOM     54  H   UNL A   1      41.956  27.793  29.744  1.00  0.00     0.167 HD
ATOM     55  C   UNL A   1      43.062  31.553  31.712  1.00  0.00     0.031 A 
ATOM     56  C   UNL A   1      42.466  25.252  28.692  1.00  0.00     0.031 A 
ATOM     57  C   UNL A   1      44.227  30.715  31.809  1.00  0.00     0.049 A 
ATOM     58  C   UNL A   1      43.744  25.702  29.348  1.00  0.00     0.074 A 
ATOM     59  C   UNL A   1      45.428  30.984  32.440  1.00  0.00     0.029 A 
ATOM     60  N   UNL A   1      44.335  29.445  31.264  1.00  0.00    -0.354 N 
ATOM     61  N   UNL A   1      43.999  26.826  29.973  1.00  0.00    -0.248 NA
ATOM     62  C   UNL A   1      44.878  24.768  29.305  1.00  0.00     0.031 C 
ATOM     63  C   UNL A   1      46.283  29.898  32.230  1.00  0.00     0.029 A 
ATOM     64  C   UNL A   1      45.590  28.924  31.527  1.00  0.00     0.049 A 
ATOM     65  H   UNL A   1      43.625  28.981  30.764  1.00  0.00     0.167 HD
ATOM     66  C   UNL A   1      45.309  26.720  30.429  1.00  0.00     0.074 A 
ATOM     67  C   UNL A   1      45.789  25.416  30.019  1.00  0.00     0.031 C 
ATOM     68  C   UNL A   1      46.047  27.618  31.125  1.00  0.00     0.031 A 
BRANCH  55  69
ATOM     69  C   UNL A   1      43.107  32.923  32.337  1.00  0.00    -0.014 A 
ATOM     70  C   UNL A   1      43.583  34.032  31.614  1.00  0.00     0.010 A 
ATOM     71  C   UNL A   1      42.627  33.116  33.645  1.00  0.00     0.010 A 
ATOM     72  C   UNL A   1      43.617  35.299  32.199  1.00  0.00     0.020 A 
ATOM     73  C   UNL A   1      42.629  34.389  34.224  1.00  0.00     0.020 A 
ATOM     74  C   UNL A   1      43.140  35.470  33.502  1.00  0.00     0.054 A 
BRANCH  74  75
ATOM     75  S   UNL A   1      43.169  37.133  34.222  1.00  0.00     0.124 S 
ATOM     76  O   UNL A   1      43.392  37.968  33.043  1.00  0.00    -0.237 OA
ATOM     77  O   UNL A   1      41.844  37.243  34.827  1.00  0.00    -0.237 OA
ATOM     78  O   UNL A   1      44.280  37.084  35.168  1.00  0.00    -0.744 OA
ENDBRANCH  74  75
ENDBRANCH  55  69
BRANCH  56  79
ATOM     79  C   UNL A   1      42.381  23.924  28.022  1.00  0.00    -0.014 A 
ATOM     80  C   UNL A   1      42.140  22.758  28.770  1.00  0.00     0.010 A 
ATOM     81  C   UNL A   1      42.555  23.816  26.629  1.00  0.00     0.010 A 
ATOM     82  C   UNL A   1      42.109  21.508  28.144  1.00  0.00     0.020 A 
ATOM     83  C   UNL A   1      42.491  22.572  25.996  1.00  0.00     0.020 A 
ATOM     84  C   UNL A   1      42.286  21.423  26.762  1.00  0.00     0.054 A 
BRANCH  84  85
ATOM     85  S   UNL A   1      42.216  19.792  25.970  1.00  0.00     0.124 S 
ATOM     86  O   UNL A   1      40.869  19.787  25.407  1.00  0.00    -0.237 OA
ATOM     87  O   UNL A   1      43.308  19.865  25.004  1.00  0.00    -0.237 OA
ATOM     88  O   UNL A   1      42.436  18.866  27.079  1.00  0.00    -0.744 OA
ENDBRANCH  84  85
ENDBRANCH  56  79
BRANCH  68  89
ATOM     89  C   UNL A   1      47.437  27.210  31.538  1.00  0.00    -0.014 A 
ATOM     90  C   UNL A   1      47.664  26.448  32.697  1.00  0.00     0.010 A 
ATOM     91  C   UNL A   1      48.525  27.533  30.704  1.00  0.00     0.010 A 
ATOM     92  C   UNL A   1      48.959  26.037  33.028  1.00  0.00     0.020 A 
ATOM     93  C   UNL A   1      49.815  27.096  31.015  1.00  0.00     0.020 A 
ATOM     94  C   UNL A   1      50.024  26.359  32.181  1.00  0.00     0.054 A 
BRANCH  94  95
ATOM     95  S   UNL A   1      51.682  25.756  32.600  1.00  0.00     0.124 S 
ATOM     96  O   UNL A   1      51.611  25.656  34.055  1.00  0.00    -0.237 OA
ATOM     97  O   UNL A   1      51.749  24.484  31.884  1.00  0.00    -0.237 OA
ATOM     98  O   UNL A   1      52.570  26.798  32.090  1.00  0.00    -0.744 OA
ENDBRANCH  94  95
ENDBRANCH  68  89
ENDBRANCH  42  43
ENDBRANCH  34  37
ENDBRANCH  32  33
ENDBRANCH   1  32
TORSDOF 17
ENDMDL
MODEL 3
REMARK VINA RESULT:     -11.5      1.134      7.999
REMARK SMILES CC[NH+]1CCC2(CC1)OC[C@@H](C(=O)NCCCNC(=O)c1ccc(-c3c4nc(c(-c5ccc(S(=O)(=O)[O-])cc5)c5ccc([nH]5)c(-c5ccc(S(=O)(=O)[O-])cc5)c5nc(c(-c6ccc(S(=O)(=O)[O-])cc6)c6ccc3[nH]6)C=C5)C=C4)cc1)N2C(=O)c1ccc(Cl)c([N+](=O)[O-])c1
REMARK SMILES IDX 16 1 15 2 14 3 12 4 13 5 11 7 3 8 4 9 8 10 5 12 7 13 6 14
REMARK SMILES IDX 9 15 81 16 10 17 2 18 1 19 82 20 83 21 84 22 85 23 93 24
REMARK SMILES IDX 86 25 89 26 87 27 88 28 90 29 91 30 92 31 17 32 18 33 19 34
REMARK SMILES IDX 20 36 21 37 22 38 80 39 23 40 79 41 24 42 25 43 26 44 73 45
REMARK SMILES IDX 27 46 78 47 72 48 74 49 28 50 77 51 71 52 70 53 29 55 59 56
REMARK SMILES IDX 40 57 58 58 41 59 44 60 57 61 75 62 42 63 43 64 56 66 76 67
REMARK SMILES IDX 45 68 30 69 31 70 39 71 32 72 38 73 33 74 34 75 35 76 36 77
REMARK SMILES IDX 37 78 60 79 61 80 69 81 62 82 68 83 63 84 64 85 65 86 66 87
REMARK SMILES IDX 67 88 46 89 47 90 55 91 48 92 54 93 49 94 50 95 51 96 52 97
REMARK SMILES IDX 53 98
REMARK H PARENT 14 6 3 11 18 35 74 54 44 65
REMARK Flexibility Score: inf
ROOT
ATOM      1  C   UNL A   1      37.733  20.658  25.058  1.00  0.00     0.042 C 
ENDROOT
BRANCH   1   2
ATOM      2  C   UNL A   1      36.498  21.512  24.848  1.00  0.00     0.117 C 
BRANCH   2   3
ATOM      3  N   UNL A   1      35.858  21.826  26.106  1.00  0.00    -0.354 N 
ATOM      4  C   UNL A   1      34.946  22.789  26.407  1.00  0.00     0.245 C 
ATOM      5  O   UNL A   1      34.451  22.748  27.539  1.00  0.00    -0.273 OA
ATOM      6  H   UNL A   1      36.124  21.253  26.862  1.00  0.00     0.163 HD
BRANCH   4   7
ATOM      7  C   UNL A   1      34.342  23.709  25.337  1.00  0.00     0.203 C 
ATOM      8  N   UNL A   1      30.557  26.445  23.419  1.00  0.00    -0.335 N 
ATOM      9  C   UNL A   1      31.649  25.691  22.828  1.00  0.00     0.267 C 
ATOM     10  C   UNL A   1      30.530  26.573  24.880  1.00  0.00     0.267 C 
ATOM     11  H   UNL A   1      29.815  25.782  23.195  1.00  0.00     0.348 HD
ATOM     12  C   UNL A   1      32.979  25.866  23.505  1.00  0.00     0.120 C 
ATOM     13  C   UNL A   1      31.848  26.477  25.639  1.00  0.00     0.120 C 
ATOM     14  C   UNL A   1      32.899  25.572  25.010  1.00  0.00     0.155 C 
ATOM     15  O   UNL A   1      34.170  26.057  25.532  1.00  0.00    -0.352 OA
ATOM     16  N   UNL A   1      32.939  24.139  25.367  1.00  0.00    -0.295 N 
ATOM     17  C   UNL A   1      35.135  25.008  25.378  1.00  0.00     0.198 C 
BRANCH   8  18
ATOM     18  C   UNL A   1      30.179  27.702  22.766  1.00  0.00     0.258 C 
ATOM     19  C   UNL A   1      31.090  28.895  23.027  1.00  0.00     0.071 C 
ENDBRANCH   8  18
BRANCH  16  20
ATOM     20  C   UNL A   1      31.992  23.112  25.376  1.00  0.00     0.257 C 
ATOM     21  O   UNL A   1      31.014  23.138  26.122  1.00  0.00    -0.269 OA
BRANCH  20  22
ATOM     22  C   UNL A   1      32.047  21.939  24.480  1.00  0.00     0.047 A 
ATOM     23  C   UNL A   1      31.850  22.055  23.101  1.00  0.00     0.016 A 
ATOM     24  C   UNL A   1      32.188  20.666  25.036  1.00  0.00     0.101 A 
ATOM     25  C   UNL A   1      31.936  20.921  22.278  1.00  0.00     0.028 A 
ATOM     26  C   UNL A   1      32.413  19.556  24.200  1.00  0.00     0.288 A 
ATOM     27  C   UNL A   1      32.268  19.669  22.816  1.00  0.00     0.118 A 
ATOM     28  Cl  UNL A   1      32.433  18.363  21.704  1.00  0.00    -0.077 Cl
BRANCH  26  29
ATOM     29  N   UNL A   1      32.941  18.351  24.835  1.00  0.00     0.064 N 
ATOM     30  O   UNL A   1      34.139  18.081  24.687  1.00  0.00    -0.258 OA
ATOM     31  O   UNL A   1      32.167  17.718  25.570  1.00  0.00    -0.258 OA
ENDBRANCH  26  29
ENDBRANCH  20  22
ENDBRANCH  16  20
ENDBRANCH   4   7
ENDBRANCH   2   3
ENDBRANCH   1   2
BRANCH   1  32
ATOM     32  C   UNL A   1      38.862  21.374  25.780  1.00  0.00     0.118 C 
BRANCH  32  33
ATOM     33  N   UNL A   1      39.894  20.461  26.245  1.00  0.00    -0.352 N 
ATOM     34  C   UNL A   1      41.157  20.731  26.711  1.00  0.00     0.251 C 
ATOM     35  H   UNL A   1      39.652  19.507  26.222  1.00  0.00     0.163 HD
ATOM     36  O   UNL A   1      41.959  19.812  26.863  1.00  0.00    -0.269 OA
BRANCH  34  37
ATOM     37  C   UNL A   1      41.555  22.125  26.997  1.00  0.00     0.039 A 
ATOM     38  C   UNL A   1      41.844  22.493  28.313  1.00  0.00     0.014 A 
ATOM     39  C   UNL A   1      41.653  23.064  25.968  1.00  0.00     0.014 A 
ATOM     40  C   UNL A   1      42.304  23.784  28.583  1.00  0.00     0.010 A 
ATOM     41  C   UNL A   1      42.207  24.313  26.223  1.00  0.00     0.010 A 
ATOM     42  C   UNL A   1      42.531  24.690  27.535  1.00  0.00    -0.014 A 
BRANCH  42  43
ATOM     43  C   UNL A   1      43.087  26.045  27.780  1.00  0.00     0.031 A 
ATOM     44  C   UNL A   1      44.547  26.310  27.522  1.00  0.00     0.074 A 
ATOM     45  C   UNL A   1      42.303  27.010  28.301  1.00  0.00     0.049 A 
ATOM     46  N   UNL A   1      45.246  27.387  27.774  1.00  0.00    -0.248 NA
ATOM     47  C   UNL A   1      45.329  25.212  26.930  1.00  0.00     0.031 C 
ATOM     48  C   UNL A   1      40.880  26.868  28.621  1.00  0.00     0.029 A 
ATOM     49  N   UNL A   1      42.595  28.302  28.662  1.00  0.00    -0.354 N 
ATOM     50  C   UNL A   1      46.547  27.092  27.382  1.00  0.00     0.074 A 
ATOM     51  C   UNL A   1      46.554  25.717  26.937  1.00  0.00     0.031 C 
ATOM     52  C   UNL A   1      40.421  28.032  29.112  1.00  0.00     0.029 A 
ATOM     53  C   UNL A   1      41.523  28.985  29.188  1.00  0.00     0.049 A 
ATOM     54  H   UNL A   1      43.488  28.701  28.556  1.00  0.00     0.167 HD
ATOM     55  C   UNL A   1      47.632  27.901  27.367  1.00  0.00     0.031 A 
ATOM     56  C   UNL A   1      41.440  30.233  29.691  1.00  0.00     0.031 A 
ATOM     57  C   UNL A   1      47.620  29.270  27.806  1.00  0.00     0.049 A 
ATOM     58  C   UNL A   1      42.672  31.099  29.702  1.00  0.00     0.074 A 
ATOM     59  C   UNL A   1      48.659  30.183  27.803  1.00  0.00     0.029 A 
ATOM     60  N   UNL A   1      46.512  29.925  28.324  1.00  0.00    -0.354 N 
ATOM     61  N   UNL A   1      43.881  30.818  29.280  1.00  0.00    -0.248 NA
ATOM     62  C   UNL A   1      42.526  32.455  30.250  1.00  0.00     0.031 C 
ATOM     63  C   UNL A   1      48.195  31.374  28.369  1.00  0.00     0.029 A 
ATOM     64  C   UNL A   1      46.848  31.224  28.661  1.00  0.00     0.049 A 
ATOM     65  H   UNL A   1      45.620  29.525  28.434  1.00  0.00     0.167 HD
ATOM     66  C   UNL A   1      44.630  31.973  29.477  1.00  0.00     0.074 A 
ATOM     67  C   UNL A   1      43.734  32.961  30.045  1.00  0.00     0.031 C 
ATOM     68  C   UNL A   1      45.940  32.199  29.211  1.00  0.00     0.031 A 
BRANCH  55  69
ATOM     69  C   UNL A   1      48.925  27.322  26.852  1.00  0.00    -0.014 A 
ATOM     70  C   UNL A   1      49.293  27.466  25.501  1.00  0.00     0.010 A 
ATOM     71  C   UNL A   1      49.803  26.666  27.733  1.00  0.00     0.010 A 
ATOM     72  C   UNL A   1      50.495  26.931  25.033  1.00  0.00     0.020 A 
ATOM     73  C   UNL A   1      51.022  26.157  27.275  1.00  0.00     0.020 A 
ATOM     74  C   UNL A   1      51.353  26.279  25.924  1.00  0.00     0.054 A 
BRANCH  74  75
ATOM     75  S   UNL A   1      52.920  25.623  25.291  1.00  0.00     0.124 S 
ATOM     76  O   UNL A   1      52.782  24.195  25.570  1.00  0.00    -0.237 OA
ATOM     77  O   UNL A   1      52.875  25.994  23.879  1.00  0.00    -0.237 OA
ATOM     78  O   UNL A   1      53.933  26.316  26.083  1.00  0.00    -0.744 OA
ENDBRANCH  74  75
ENDBRANCH  55  69
BRANCH  56  79
ATOM     79  C   UNL A   1      40.147  30.740  30.228  1.00  0.00    -0.014 A 
ATOM     80  C   UNL A   1      39.171  31.268  29.366  1.00  0.00     0.010 A 
ATOM     81  C   UNL A   1      39.891  30.713  31.612  1.00  0.00     0.010 A 
ATOM     82  C   UNL A   1      37.978  31.788  29.878  1.00  0.00     0.020 A 
ATOM     83  C   UNL A   1      38.687  31.201  32.125  1.00  0.00     0.020 A 
ATOM     84  C   UNL A   1      37.744  31.753  31.255  1.00  0.00     0.054 A 
BRANCH  84  85
ATOM     85  S   UNL A   1      36.179  32.411  31.893  1.00  0.00     0.124 S 
ATOM     86  O   UNL A   1      36.160  31.881  33.252  1.00  0.00    -0.237 OA
ATOM     87  O   UNL A   1      36.374  33.854  31.776  1.00  0.00    -0.237 OA
ATOM     88  O   UNL A   1      35.179  31.850  30.986  1.00  0.00    -0.744 OA
ENDBRANCH  84  85
ENDBRANCH  56  79
BRANCH  68  89
ATOM     89  C   UNL A   1      46.480  33.579  29.479  1.00  0.00    -0.014 A 
ATOM     90  C   UNL A   1      46.405  34.597  28.512  1.00  0.00     0.010 A 
ATOM     91  C   UNL A   1      47.001  33.879  30.752  1.00  0.00     0.010 A 
ATOM     92  C   UNL A   1      46.865  35.884  28.806  1.00  0.00     0.020 A 
ATOM     93  C   UNL A   1      47.432  35.171  31.059  1.00  0.00     0.020 A 
ATOM     94  C   UNL A   1      47.371  36.163  30.080  1.00  0.00     0.054 A 
BRANCH  94  95
ATOM     95  S   UNL A   1      47.898  37.857  30.455  1.00  0.00     0.124 S 
ATOM     96  O   UNL A   1      49.337  37.788  30.214  1.00  0.00    -0.237 OA
ATOM     97  O   UNL A   1      47.136  38.650  29.492  1.00  0.00    -0.237 OA
ATOM     98  O   UNL A   1      47.509  38.041  31.851  1.00  0.00    -0.744 OA
ENDBRANCH  94  95
ENDBRANCH  68  89
ENDBRANCH  42  43
ENDBRANCH  34  37
ENDBRANCH  32  33
ENDBRANCH   1  32
TORSDOF 17
ENDMDL
