MODEL 1
REMARK VINA RESULT:     -11.1      0.000      0.000
REMARK SMILES O=C(COc1ccccc1/C=C1/SC(=S)N(c2ccc(F)c(Cl)c2)C1=O)NCCCNC(=O)c1ccc(-c2c3nc(c(-c4ccc(S(=O)(=O)[O-])cc4)c4ccc([nH]4)c(-c4ccc(S(=O)(=O)[O-])cc4)c4nc(c(-c5ccc(S(=O)(=O)[O-])cc5)c5ccc2[nH]5)C=C4)C=C3)cc1
REMARK SMILES IDX 28 1 27 2 1 3 2 4 3 6 4 7 5 8 6 9 10 10 7 11 9 12 8 13 11 14
REMARK SMILES IDX 12 15 13 16 25 17 14 18 16 19 26 20 15 21 17 22 18 23 24 24
REMARK SMILES IDX 19 25 22 26 20 27 23 28 21 29 29 30 30 31 31 32 32 33 33 35
REMARK SMILES IDX 34 36 35 37 93 38 36 39 92 40 37 41 38 42 39 43 86 44 40 45
REMARK SMILES IDX 91 46 85 47 87 48 41 49 90 50 84 51 83 52 42 54 72 55 53 56
REMARK SMILES IDX 71 57 54 58 57 59 70 60 88 61 55 62 56 63 69 65 89 66 58 67
REMARK SMILES IDX 43 68 44 69 52 70 45 71 51 72 46 73 47 74 48 75 49 76 50 77
REMARK SMILES IDX 73 78 74 79 82 80 75 81 81 82 76 83 77 84 78 85 79 86 80 87
REMARK SMILES IDX 59 88 60 89 68 90 61 91 67 92 62 93 63 94 64 95 65 96 66 97
REMARK H PARENT 27 5 31 34 87 53 57 64
REMARK Flexibility Score: inf
ROOT
ATOM      1  C   UNL A   1      33.541  31.229  27.545  1.00  0.00     0.117 C 
ENDROOT
BRANCH   1   2
ATOM      2  N   UNL A   1      34.055  31.868  28.747  1.00  0.00    -0.353 N 
ATOM      3  O   UNL A   1      35.160  33.535  27.607  1.00  0.00    -0.271 OA
ATOM      4  C   UNL A   1      34.804  33.032  28.671  1.00  0.00     0.257 C 
ATOM      5  H   UNL A   1      33.867  31.468  29.626  1.00  0.00     0.163 HD
BRANCH   4   6
ATOM      6  C   UNL A   1      35.158  33.666  30.022  1.00  0.00     0.329 C 
BRANCH   6   7
ATOM      7  O   UNL A   1      34.129  33.536  31.004  1.00  0.00    -0.483 OA
BRANCH   7   8
ATOM      8  C   UNL A   1      34.044  34.661  31.793  1.00  0.00     0.127 A 
ATOM      9  C   UNL A   1      33.626  35.866  31.226  1.00  0.00     0.047 A 
ATOM     10  C   UNL A   1      34.497  34.628  33.123  1.00  0.00     0.018 A 
ATOM     11  C   UNL A   1      33.589  37.024  32.007  1.00  0.00     0.004 A 
ATOM     12  C   UNL A   1      34.407  35.780  33.911  1.00  0.00     0.012 A 
ATOM     13  C   UNL A   1      33.956  36.976  33.353  1.00  0.00     0.001 A 
BRANCH  10  14
ATOM     14  C   UNL A   1      35.117  33.432  33.694  1.00  0.00     0.033 C 
ATOM     15  C   UNL A   1      36.398  33.097  33.483  1.00  0.00     0.081 C 
ATOM     16  S   UNL A   1      37.065  31.597  34.003  1.00  0.00    -0.054 SA
ATOM     17  C   UNL A   1      37.428  33.864  32.712  1.00  0.00     0.270 C 
ATOM     18  C   UNL A   1      38.492  31.775  32.994  1.00  0.00     0.152 C 
ATOM     19  N   UNL A   1      38.455  33.004  32.359  1.00  0.00    -0.261 N 
ATOM     20  O   UNL A   1      37.387  35.067  32.502  1.00  0.00    -0.268 OA
ATOM     21  S   UNL A   1      39.694  30.618  32.903  1.00  0.00    -0.051 S 
BRANCH  19  22
ATOM     22  C   UNL A   1      39.542  33.454  31.576  1.00  0.00     0.052 A 
ATOM     23  C   UNL A   1      39.327  33.740  30.224  1.00  0.00     0.030 A 
ATOM     24  C   UNL A   1      40.732  33.846  32.208  1.00  0.00     0.050 A 
ATOM     25  C   UNL A   1      40.271  34.486  29.520  1.00  0.00     0.043 A 
ATOM     26  C   UNL A   1      41.676  34.578  31.492  1.00  0.00     0.078 A 
ATOM     27  C   UNL A   1      41.431  34.913  30.161  1.00  0.00     0.141 A 
ATOM     28  Cl  UNL A   1      43.107  35.107  32.287  1.00  0.00    -0.081 Cl
ATOM     29  F   UNL A   1      42.297  35.674  29.476  1.00  0.00    -0.205 F 
ENDBRANCH  19  22
ENDBRANCH  10  14
ENDBRANCH   7   8
ENDBRANCH   6   7
ENDBRANCH   4   6
ENDBRANCH   1   2
BRANCH   1  30
ATOM     30  C   UNL A   1      34.071  29.818  27.295  1.00  0.00     0.042 C 
BRANCH  30  31
ATOM     31  C   UNL A   1      35.511  29.550  27.729  1.00  0.00     0.118 C 
BRANCH  31  32
ATOM     32  N   UNL A   1      35.728  29.658  29.159  1.00  0.00    -0.352 N 
ATOM     33  C   UNL A   1      36.808  29.334  29.951  1.00  0.00     0.251 C 
ATOM     34  H   UNL A   1      34.964  30.032  29.655  1.00  0.00     0.163 HD
ATOM     35  O   UNL A   1      36.680  29.502  31.165  1.00  0.00    -0.269 OA
BRANCH  33  36
ATOM     36  C   UNL A   1      38.077  28.751  29.419  1.00  0.00     0.039 A 
ATOM     37  C   UNL A   1      38.430  29.083  28.102  1.00  0.00     0.014 A 
ATOM     38  C   UNL A   1      38.940  27.935  30.153  1.00  0.00     0.014 A 
ATOM     39  C   UNL A   1      39.690  28.752  27.598  1.00  0.00     0.010 A 
ATOM     40  C   UNL A   1      40.228  27.662  29.682  1.00  0.00     0.010 A 
ATOM     41  C   UNL A   1      40.634  28.128  28.427  1.00  0.00    -0.014 A 
BRANCH  41  42
ATOM     42  C   UNL A   1      42.077  28.180  28.086  1.00  0.00     0.031 A 
ATOM     43  C   UNL A   1      42.901  29.420  28.261  1.00  0.00     0.074 A 
ATOM     44  C   UNL A   1      42.615  27.083  27.512  1.00  0.00     0.049 A 
ATOM     45  N   UNL A   1      44.176  29.594  28.014  1.00  0.00    -0.248 NA
ATOM     46  C   UNL A   1      42.211  30.620  28.752  1.00  0.00     0.031 C 
ATOM     47  C   UNL A   1      41.884  25.847  27.209  1.00  0.00     0.029 A 
ATOM     48  N   UNL A   1      43.889  26.824  27.077  1.00  0.00    -0.354 N 
ATOM     49  C   UNL A   1      44.444  30.922  28.319  1.00  0.00     0.074 A 
ATOM     50  C   UNL A   1      43.190  31.518  28.731  1.00  0.00     0.031 C 
ATOM     51  C   UNL A   1      42.727  24.954  26.672  1.00  0.00     0.029 A 
ATOM     52  C   UNL A   1      44.048  25.558  26.564  1.00  0.00     0.049 A 
ATOM     53  H   UNL A   1      44.620  27.481  27.128  1.00  0.00     0.167 HD
ATOM     54  C   UNL A   1      45.631  31.576  28.270  1.00  0.00     0.031 A 
ATOM     55  C   UNL A   1      45.135  24.942  26.065  1.00  0.00     0.031 A 
ATOM     56  C   UNL A   1      46.870  30.975  27.842  1.00  0.00     0.049 A 
ATOM     57  C   UNL A   1      46.442  25.677  26.054  1.00  0.00     0.074 A 
ATOM     58  C   UNL A   1      48.136  31.535  27.812  1.00  0.00     0.029 A 
ATOM     59  N   UNL A   1      47.000  29.679  27.361  1.00  0.00    -0.354 N 
ATOM     60  N   UNL A   1      46.695  26.904  26.438  1.00  0.00    -0.248 NA
ATOM     61  C   UNL A   1      47.611  24.939  25.560  1.00  0.00     0.031 C 
ATOM     62  C   UNL A   1      49.022  30.593  27.276  1.00  0.00     0.029 A 
ATOM     63  C   UNL A   1      48.318  29.429  27.015  1.00  0.00     0.049 A 
ATOM     64  H   UNL A   1      46.262  29.033  27.278  1.00  0.00     0.167 HD
ATOM     65  C   UNL A   1      48.059  27.082  26.253  1.00  0.00     0.074 A 
ATOM     66  C   UNL A   1      48.578  25.829  25.737  1.00  0.00     0.031 C 
ATOM     67  C   UNL A   1      48.815  28.182  26.491  1.00  0.00     0.031 A 
BRANCH  54  68
ATOM     68  C   UNL A   1      45.647  33.022  28.691  1.00  0.00    -0.014 A 
ATOM     69  C   UNL A   1      45.289  34.040  27.789  1.00  0.00     0.010 A 
ATOM     70  C   UNL A   1      45.976  33.367  30.015  1.00  0.00     0.010 A 
ATOM     71  C   UNL A   1      45.301  35.379  28.189  1.00  0.00     0.020 A 
ATOM     72  C   UNL A   1      45.966  34.705  30.426  1.00  0.00     0.020 A 
ATOM     73  C   UNL A   1      45.646  35.704  29.504  1.00  0.00     0.054 A 
BRANCH  73  74
ATOM     74  S   UNL A   1      45.638  37.449  30.003  1.00  0.00     0.124 S 
ATOM     75  O   UNL A   1      46.712  37.483  30.993  1.00  0.00    -0.237 OA
ATOM     76  O   UNL A   1      45.918  38.144  28.750  1.00  0.00    -0.237 OA
ATOM     77  O   UNL A   1      44.292  37.651  30.536  1.00  0.00    -0.744 OA
ENDBRANCH  73  74
ENDBRANCH  54  68
BRANCH  55  78
ATOM     78  C   UNL A   1      45.029  23.540  25.584  1.00  0.00    -0.014 A 
ATOM     79  C   UNL A   1      44.692  23.272  24.247  1.00  0.00     0.010 A 
ATOM     80  C   UNL A   1      45.313  22.468  26.449  1.00  0.00     0.010 A 
ATOM     81  C   UNL A   1      44.628  21.956  23.783  1.00  0.00     0.020 A 
ATOM     82  C   UNL A   1      45.274  21.150  25.983  1.00  0.00     0.020 A 
ATOM     83  C   UNL A   1      44.921  20.902  24.655  1.00  0.00     0.054 A 
BRANCH  83  84
ATOM     84  S   UNL A   1      44.897  19.203  24.018  1.00  0.00     0.124 S 
ATOM     85  O   UNL A   1      46.269  18.772  24.257  1.00  0.00    -0.237 OA
ATOM     86  O   UNL A   1      43.879  18.565  24.849  1.00  0.00    -0.237 OA
ATOM     87  O   UNL A   1      44.527  19.373  22.614  1.00  0.00    -0.744 OA
ENDBRANCH  83  84
ENDBRANCH  55  78
BRANCH  67  88
ATOM     88  C   UNL A   1      50.287  28.067  26.208  1.00  0.00    -0.014 A 
ATOM     89  C   UNL A   1      51.197  27.731  27.227  1.00  0.00     0.010 A 
ATOM     90  C   UNL A   1      50.762  28.275  24.902  1.00  0.00     0.010 A 
ATOM     91  C   UNL A   1      52.563  27.644  26.951  1.00  0.00     0.020 A 
ATOM     92  C   UNL A   1      52.126  28.167  24.617  1.00  0.00     0.020 A 
ATOM     93  C   UNL A   1      53.020  27.868  25.648  1.00  0.00     0.054 A 
BRANCH  93  94
ATOM     94  S   UNL A   1      54.795  27.722  25.305  1.00  0.00     0.124 S 
ATOM     95  O   UNL A   1      55.173  29.113  25.071  1.00  0.00    -0.237 OA
ATOM     96  O   UNL A   1      55.314  27.128  26.534  1.00  0.00    -0.237 OA
ATOM     97  O   UNL A   1      54.848  26.855  24.130  1.00  0.00    -0.744 OA
ENDBRANCH  93  94
ENDBRANCH  67  88
ENDBRANCH  41  42
ENDBRANCH  33  36
ENDBRANCH  31  32
ENDBRANCH  30  31
ENDBRANCH   1  30
TORSDOF 17
ENDMDL
MODEL 2
REMARK VINA RESULT:     -10.7      3.771      9.522
REMARK SMILES O=C(COc1ccccc1/C=C1/SC(=S)N(c2ccc(F)c(Cl)c2)C1=O)NCCCNC(=O)c1ccc(-c2c3nc(c(-c4ccc(S(=O)(=O)[O-])cc4)c4ccc([nH]4)c(-c4ccc(S(=O)(=O)[O-])cc4)c4nc(c(-c5ccc(S(=O)(=O)[O-])cc5)c5ccc2[nH]5)C=C4)C=C3)cc1
REMARK SMILES IDX 28 1 27 2 1 3 2 4 3 6 4 7 5 8 6 9 10 10 7 11 9 12 8 13 11 14
REMARK SMILES IDX 12 15 13 16 25 17 14 18 16 19 26 20 15 21 17 22 18 23 24 24
REMARK SMILES IDX 19 25 22 26 20 27 23 28 21 29 29 30 30 31 31 32 32 33 33 35
REMARK SMILES IDX 34 36 35 37 93 38 36 39 92 40 37 41 38 42 39 43 86 44 40 45
REMARK SMILES IDX 91 46 85 47 87 48 41 49 90 50 84 51 83 52 42 54 72 55 53 56
REMARK SMILES IDX 71 57 54 58 57 59 70 60 88 61 55 62 56 63 69 65 89 66 58 67
REMARK SMILES IDX 43 68 44 69 52 70 45 71 51 72 46 73 47 74 48 75 49 76 50 77
REMARK SMILES IDX 73 78 74 79 82 80 75 81 81 82 76 83 77 84 78 85 79 86 80 87
REMARK SMILES IDX 59 88 60 89 68 90 61 91 67 92 62 93 63 94 64 95 65 96 66 97
REMARK H PARENT 27 5 31 34 87 53 57 64
REMARK Flexibility Score: inf
ROOT
ATOM      1  C   UNL A   1      35.059  34.595  32.257  1.00  0.00     0.117 C 
ENDROOT
BRANCH   1   2
ATOM      2  N   UNL A   1      36.178  33.780  32.706  1.00  0.00    -0.353 N 
ATOM      3  O   UNL A   1      35.306  33.418  34.806  1.00  0.00    -0.271 OA
ATOM      4  C   UNL A   1      36.179  33.204  33.967  1.00  0.00     0.257 C 
ATOM      5  H   UNL A   1      36.944  33.637  32.106  1.00  0.00     0.163 HD
BRANCH   4   6
ATOM      6  C   UNL A   1      37.356  32.262  34.249  1.00  0.00     0.329 C 
BRANCH   6   7
ATOM      7  O   UNL A   1      38.546  32.600  33.534  1.00  0.00    -0.483 OA
BRANCH   7   8
ATOM      8  C   UNL A   1      39.467  31.577  33.580  1.00  0.00     0.127 A 
ATOM      9  C   UNL A   1      39.079  30.288  33.215  1.00  0.00     0.047 A 
ATOM     10  C   UNL A   1      40.747  31.804  34.114  1.00  0.00     0.018 A 
ATOM     11  C   UNL A   1      39.992  29.235  33.311  1.00  0.00     0.004 A 
ATOM     12  C   UNL A   1      41.671  30.754  34.159  1.00  0.00     0.012 A 
ATOM     13  C   UNL A   1      41.293  29.472  33.759  1.00  0.00     0.001 A 
BRANCH  10  14
ATOM     14  C   UNL A   1      41.125  33.098  34.683  1.00  0.00     0.033 C 
ATOM     15  C   UNL A   1      40.722  33.515  35.892  1.00  0.00     0.081 C 
ATOM     16  S   UNL A   1      41.018  35.109  36.471  1.00  0.00    -0.054 SA
ATOM     17  C   UNL A   1      39.898  32.763  36.890  1.00  0.00     0.270 C 
ATOM     18  C   UNL A   1      39.854  34.951  37.777  1.00  0.00     0.152 C 
ATOM     19  N   UNL A   1      39.341  33.665  37.781  1.00  0.00    -0.261 N 
ATOM     20  O   UNL A   1      39.802  31.545  36.937  1.00  0.00    -0.268 OA
ATOM     21  S   UNL A   1      39.507  36.188  38.845  1.00  0.00    -0.051 S 
BRANCH  19  22
ATOM     22  C   UNL A   1      38.468  33.231  38.804  1.00  0.00     0.052 A 
ATOM     23  C   UNL A   1      37.122  33.009  38.494  1.00  0.00     0.030 A 
ATOM     24  C   UNL A   1      39.001  32.790  40.024  1.00  0.00     0.050 A 
ATOM     25  C   UNL A   1      36.325  32.279  39.373  1.00  0.00     0.043 A 
ATOM     26  C   UNL A   1      38.192  32.073  40.904  1.00  0.00     0.078 A 
ATOM     27  C   UNL A   1      36.867  31.802  40.564  1.00  0.00     0.141 A 
ATOM     28  Cl  UNL A   1      38.865  31.483  42.372  1.00  0.00    -0.081 Cl
ATOM     29  F   UNL A   1      36.094  31.057  41.366  1.00  0.00    -0.205 F 
ENDBRANCH  19  22
ENDBRANCH  10  14
ENDBRANCH   7   8
ENDBRANCH   6   7
ENDBRANCH   4   6
ENDBRANCH   1   2
BRANCH   1  30
ATOM     30  C   UNL A   1      34.511  34.226  30.880  1.00  0.00     0.042 C 
BRANCH  30  31
ATOM     31  C   UNL A   1      35.214  33.078  30.158  1.00  0.00     0.118 C 
BRANCH  31  32
ATOM     32  N   UNL A   1      34.391  32.408  29.169  1.00  0.00    -0.352 N 
ATOM     33  C   UNL A   1      34.576  31.242  28.459  1.00  0.00     0.251 C 
ATOM     34  H   UNL A   1      33.545  32.870  28.970  1.00  0.00     0.163 HD
ATOM     35  O   UNL A   1      33.704  30.941  27.642  1.00  0.00    -0.269 OA
BRANCH  33  36
ATOM     36  C   UNL A   1      35.786  30.375  28.595  1.00  0.00     0.039 A 
ATOM     37  C   UNL A   1      36.535  30.136  27.434  1.00  0.00     0.014 A 
ATOM     38  C   UNL A   1      36.231  29.823  29.799  1.00  0.00     0.014 A 
ATOM     39  C   UNL A   1      37.783  29.512  27.507  1.00  0.00     0.010 A 
ATOM     40  C   UNL A   1      37.508  29.262  29.891  1.00  0.00     0.010 A 
ATOM     41  C   UNL A   1      38.319  29.165  28.756  1.00  0.00    -0.014 A 
BRANCH  41  42
ATOM     42  C   UNL A   1      39.778  28.937  28.904  1.00  0.00     0.031 A 
ATOM     43  C   UNL A   1      40.427  27.629  28.567  1.00  0.00     0.074 A 
ATOM     44  C   UNL A   1      40.506  29.934  29.453  1.00  0.00     0.049 A 
ATOM     45  N   UNL A   1      41.693  27.303  28.639  1.00  0.00    -0.248 NA
ATOM     46  C   UNL A   1      39.548  26.541  28.115  1.00  0.00     0.031 C 
ATOM     47  C   UNL A   1      39.964  31.221  29.905  1.00  0.00     0.029 A 
ATOM     48  N   UNL A   1      41.845  30.026  29.731  1.00  0.00    -0.354 N 
ATOM     49  C   UNL A   1      41.768  25.975  28.240  1.00  0.00     0.074 A 
ATOM     50  C   UNL A   1      40.412  25.544  27.968  1.00  0.00     0.031 C 
ATOM     51  C   UNL A   1      40.964  31.983  30.369  1.00  0.00     0.029 A 
ATOM     52  C   UNL A   1      42.210  31.235  30.276  1.00  0.00     0.049 A 
ATOM     53  H   UNL A   1      42.484  29.299  29.555  1.00  0.00     0.167 HD
ATOM     54  C   UNL A   1      42.869  25.195  28.105  1.00  0.00     0.031 A 
ATOM     55  C   UNL A   1      43.414  31.699  30.657  1.00  0.00     0.031 A 
ATOM     56  C   UNL A   1      44.212  25.631  28.396  1.00  0.00     0.049 A 
ATOM     57  C   UNL A   1      44.620  30.828  30.466  1.00  0.00     0.074 A 
ATOM     58  C   UNL A   1      45.399  24.937  28.236  1.00  0.00     0.029 A 
ATOM     59  N   UNL A   1      44.548  26.874  28.914  1.00  0.00    -0.354 N 
ATOM     60  N   UNL A   1      44.681  29.606  29.996  1.00  0.00    -0.248 NA
ATOM     61  C   UNL A   1      45.918  31.404  30.837  1.00  0.00     0.031 C 
ATOM     62  C   UNL A   1      46.447  25.744  28.695  1.00  0.00     0.029 A 
ATOM     63  C   UNL A   1      45.919  26.960  29.099  1.00  0.00     0.049 A 
ATOM     64  H   UNL A   1      43.905  27.591  29.122  1.00  0.00     0.167 HD
ATOM     65  C   UNL A   1      46.028  29.270  29.994  1.00  0.00     0.074 A 
ATOM     66  C   UNL A   1      46.747  30.426  30.496  1.00  0.00     0.031 C 
ATOM     67  C   UNL A   1      46.616  28.112  29.610  1.00  0.00     0.031 A 
BRANCH  54  68
ATOM     68  C   UNL A   1      42.666  23.783  27.620  1.00  0.00    -0.014 A 
ATOM     69  C   UNL A   1      42.449  22.732  28.529  1.00  0.00     0.010 A 
ATOM     70  C   UNL A   1      42.645  23.509  26.240  1.00  0.00     0.010 A 
ATOM     71  C   UNL A   1      42.256  21.426  28.070  1.00  0.00     0.020 A 
ATOM     72  C   UNL A   1      42.428  22.206  25.776  1.00  0.00     0.020 A 
ATOM     73  C   UNL A   1      42.253  21.170  26.695  1.00  0.00     0.054 A 
BRANCH  73  74
ATOM     74  S   UNL A   1      41.985  19.468  26.125  1.00  0.00     0.124 S 
ATOM     75  O   UNL A   1      40.544  19.456  25.885  1.00  0.00    -0.237 OA
ATOM     76  O   UNL A   1      42.820  19.394  24.929  1.00  0.00    -0.237 OA
ATOM     77  O   UNL A   1      42.438  18.651  27.248  1.00  0.00    -0.744 OA
ENDBRANCH  73  74
ENDBRANCH  54  68
BRANCH  55  78
ATOM     78  C   UNL A   1      43.530  33.072  31.212  1.00  0.00    -0.014 A 
ATOM     79  C   UNL A   1      43.858  33.267  32.565  1.00  0.00     0.010 A 
ATOM     80  C   UNL A   1      43.362  34.193  30.379  1.00  0.00     0.010 A 
ATOM     81  C   UNL A   1      44.004  34.557  33.079  1.00  0.00     0.020 A 
ATOM     82  C   UNL A   1      43.531  35.485  30.884  1.00  0.00     0.020 A 
ATOM     83  C   UNL A   1      43.840  35.660  32.235  1.00  0.00     0.054 A 
BRANCH  83  84
ATOM     84  S   UNL A   1      44.098  37.326  32.906  1.00  0.00     0.124 S 
ATOM     85  O   UNL A   1      45.358  37.170  33.623  1.00  0.00    -0.237 OA
ATOM     86  O   UNL A   1      44.153  38.150  31.701  1.00  0.00    -0.237 OA
ATOM     87  O   UNL A   1      42.920  37.540  33.744  1.00  0.00    -0.744 OA
ENDBRANCH  83  84
ENDBRANCH  55  78
BRANCH  67  88
ATOM     88  C   UNL A   1      48.116  28.050  29.705  1.00  0.00    -0.014 A 
ATOM     89  C   UNL A   1      48.927  28.449  28.627  1.00  0.00     0.010 A 
ATOM     90  C   UNL A   1      48.720  27.608  30.894  1.00  0.00     0.010 A 
ATOM     91  C   UNL A   1      50.318  28.370  28.725  1.00  0.00     0.020 A 
ATOM     92  C   UNL A   1      50.112  27.549  31.005  1.00  0.00     0.020 A 
ATOM     93  C   UNL A   1      50.902  27.915  29.912  1.00  0.00     0.054 A 
BRANCH  93  94
ATOM     94  S   UNL A   1      52.710  27.847  30.029  1.00  0.00     0.124 S 
ATOM     95  O   UNL A   1      53.050  29.246  30.272  1.00  0.00    -0.237 OA
ATOM     96  O   UNL A   1      52.927  26.943  31.156  1.00  0.00    -0.237 OA
ATOM     97  O   UNL A   1      53.120  27.322  28.729  1.00  0.00    -0.744 OA
ENDBRANCH  93  94
ENDBRANCH  67  88
ENDBRANCH  41  42
ENDBRANCH  33  36
ENDBRANCH  31  32
ENDBRANCH  30  31
ENDBRANCH   1  30
TORSDOF 17
ENDMDL
MODEL 3
REMARK VINA RESULT:     -10.7      4.009      5.633
REMARK SMILES O=C(COc1ccccc1/C=C1/SC(=S)N(c2ccc(F)c(Cl)c2)C1=O)NCCCNC(=O)c1ccc(-c2c3nc(c(-c4ccc(S(=O)(=O)[O-])cc4)c4ccc([nH]4)c(-c4ccc(S(=O)(=O)[O-])cc4)c4nc(c(-c5ccc(S(=O)(=O)[O-])cc5)c5ccc2[nH]5)C=C4)C=C3)cc1
REMARK SMILES IDX 28 1 27 2 1 3 2 4 3 6 4 7 5 8 6 9 10 10 7 11 9 12 8 13 11 14
REMARK SMILES IDX 12 15 13 16 25 17 14 18 16 19 26 20 15 21 17 22 18 23 24 24
REMARK SMILES IDX 19 25 22 26 20 27 23 28 21 29 29 30 30 31 31 32 32 33 33 35
REMARK SMILES IDX 34 36 35 37 93 38 36 39 92 40 37 41 38 42 39 43 86 44 40 45
REMARK SMILES IDX 91 46 85 47 87 48 41 49 90 50 84 51 83 52 42 54 72 55 53 56
REMARK SMILES IDX 71 57 54 58 57 59 70 60 88 61 55 62 56 63 69 65 89 66 58 67
REMARK SMILES IDX 43 68 44 69 52 70 45 71 51 72 46 73 47 74 48 75 49 76 50 77
REMARK SMILES IDX 73 78 74 79 82 80 75 81 81 82 76 83 77 84 78 85 79 86 80 87
REMARK SMILES IDX 59 88 60 89 68 90 61 91 67 92 62 93 63 94 64 95 65 96 66 97
REMARK H PARENT 27 5 31 34 87 53 57 64
REMARK Flexibility Score: inf
ROOT
ATOM      1  C   UNL A   1      34.966  34.817  32.097  1.00  0.00     0.117 C 
ENDROOT
BRANCH   1   2
ATOM      2  N   UNL A   1      36.077  34.086  32.688  1.00  0.00    -0.353 N 
ATOM      3  O   UNL A   1      34.797  33.111  34.334  1.00  0.00    -0.271 OA
ATOM      4  C   UNL A   1      35.878  33.231  33.761  1.00  0.00     0.257 C 
ATOM      5  H   UNL A   1      36.983  34.201  32.321  1.00  0.00     0.163 HD
BRANCH   4   6
ATOM      6  C   UNL A   1      37.112  32.426  34.188  1.00  0.00     0.329 C 
BRANCH   6   7
ATOM      7  O   UNL A   1      38.301  32.781  33.480  1.00  0.00    -0.483 OA
BRANCH   7   8
ATOM      8  C   UNL A   1      39.215  31.751  33.485  1.00  0.00     0.127 A 
ATOM      9  C   UNL A   1      38.823  30.485  33.050  1.00  0.00     0.047 A 
ATOM     10  C   UNL A   1      40.489  31.940  34.046  1.00  0.00     0.018 A 
ATOM     11  C   UNL A   1      39.728  29.421  33.104  1.00  0.00     0.004 A 
ATOM     12  C   UNL A   1      41.406  30.883  34.048  1.00  0.00     0.012 A 
ATOM     13  C   UNL A   1      41.024  29.625  33.580  1.00  0.00     0.001 A 
BRANCH  10  14
ATOM     14  C   UNL A   1      40.870  33.201  34.684  1.00  0.00     0.033 C 
ATOM     15  C   UNL A   1      40.535  33.517  35.943  1.00  0.00     0.081 C 
ATOM     16  S   UNL A   1      40.826  35.074  36.619  1.00  0.00    -0.054 SA
ATOM     17  C   UNL A   1      39.798  32.669  36.933  1.00  0.00     0.270 C 
ATOM     18  C   UNL A   1      39.754  34.785  37.981  1.00  0.00     0.152 C 
ATOM     19  N   UNL A   1      39.276  33.487  37.921  1.00  0.00    -0.261 N 
ATOM     20  O   UNL A   1      39.738  31.449  36.896  1.00  0.00    -0.268 OA
ATOM     21  S   UNL A   1      39.445  35.930  39.157  1.00  0.00    -0.051 S 
BRANCH  19  22
ATOM     22  C   UNL A   1      38.484  32.953  38.963  1.00  0.00     0.052 A 
ATOM     23  C   UNL A   1      39.077  32.713  40.207  1.00  0.00     0.030 A 
ATOM     24  C   UNL A   1      37.089  32.916  38.819  1.00  0.00     0.050 A 
ATOM     25  C   UNL A   1      38.271  32.509  41.325  1.00  0.00     0.043 A 
ATOM     26  C   UNL A   1      36.292  32.696  39.940  1.00  0.00     0.078 A 
ATOM     27  C   UNL A   1      36.885  32.517  41.189  1.00  0.00     0.141 A 
ATOM     28  Cl  UNL A   1      34.580  32.709  39.770  1.00  0.00    -0.081 Cl
ATOM     29  F   UNL A   1      36.134  32.371  42.290  1.00  0.00    -0.205 F 
ENDBRANCH  19  22
ENDBRANCH  10  14
ENDBRANCH   7   8
ENDBRANCH   6   7
ENDBRANCH   4   6
ENDBRANCH   1   2
BRANCH   1  30
ATOM     30  C   UNL A   1      34.595  34.381  30.681  1.00  0.00     0.042 C 
BRANCH  30  31
ATOM     31  C   UNL A   1      35.203  33.066  30.197  1.00  0.00     0.118 C 
BRANCH  31  32
ATOM     32  N   UNL A   1      34.430  32.400  29.165  1.00  0.00    -0.352 N 
ATOM     33  C   UNL A   1      34.655  31.243  28.453  1.00  0.00     0.251 C 
ATOM     34  H   UNL A   1      33.591  32.859  28.932  1.00  0.00     0.163 HD
ATOM     35  O   UNL A   1      33.823  30.946  27.594  1.00  0.00    -0.269 OA
BRANCH  33  36
ATOM     36  C   UNL A   1      35.863  30.382  28.635  1.00  0.00     0.039 A 
ATOM     37  C   UNL A   1      36.685  30.190  27.515  1.00  0.00     0.014 A 
ATOM     38  C   UNL A   1      36.238  29.793  29.845  1.00  0.00     0.014 A 
ATOM     39  C   UNL A   1      37.932  29.574  27.645  1.00  0.00     0.010 A 
ATOM     40  C   UNL A   1      37.513  29.240  29.998  1.00  0.00     0.010 A 
ATOM     41  C   UNL A   1      38.394  29.189  28.912  1.00  0.00    -0.014 A 
BRANCH  41  42
ATOM     42  C   UNL A   1      39.843  28.968  29.143  1.00  0.00     0.031 A 
ATOM     43  C   UNL A   1      40.750  30.045  29.657  1.00  0.00     0.074 A 
ATOM     44  C   UNL A   1      40.350  27.771  28.779  1.00  0.00     0.049 A 
ATOM     45  N   UNL A   1      42.032  29.979  29.915  1.00  0.00    -0.248 NA
ATOM     46  C   UNL A   1      40.155  31.368  29.890  1.00  0.00     0.031 C 
ATOM     47  C   UNL A   1      39.577  26.675  28.182  1.00  0.00     0.029 A 
ATOM     48  N   UNL A   1      41.625  27.271  28.849  1.00  0.00    -0.354 N 
ATOM     49  C   UNL A   1      42.401  31.247  30.343  1.00  0.00     0.074 A 
ATOM     50  C   UNL A   1      41.214  32.074  30.270  1.00  0.00     0.031 C 
ATOM     51  C   UNL A   1      40.384  25.626  27.974  1.00  0.00     0.029 A 
ATOM     52  C   UNL A   1      41.734  25.978  28.393  1.00  0.00     0.049 A 
ATOM     53  H   UNL A   1      42.389  27.788  29.194  1.00  0.00     0.167 HD
ATOM     54  C   UNL A   1      43.616  31.675  30.766  1.00  0.00     0.031 A 
ATOM     55  C   UNL A   1      42.798  25.159  28.321  1.00  0.00     0.031 A 
ATOM     56  C   UNL A   1      44.794  30.846  30.819  1.00  0.00     0.049 A 
ATOM     57  C   UNL A   1      44.123  25.646  28.828  1.00  0.00     0.074 A 
ATOM     58  C   UNL A   1      46.057  31.168  31.287  1.00  0.00     0.029 A 
ATOM     59  N   UNL A   1      44.860  29.530  30.380  1.00  0.00    -0.354 N 
ATOM     60  N   UNL A   1      44.430  26.822  29.320  1.00  0.00    -0.248 NA
ATOM     61  C   UNL A   1      45.238  24.692  28.788  1.00  0.00     0.031 C 
ATOM     62  C   UNL A   1      46.894  30.063  31.095  1.00  0.00     0.029 A 
ATOM     63  C   UNL A   1      46.142  29.034  30.549  1.00  0.00     0.049 A 
ATOM     64  H   UNL A   1      44.104  29.024  30.004  1.00  0.00     0.167 HD
ATOM     65  C   UNL A   1      45.771  26.745  29.669  1.00  0.00     0.074 A 
ATOM     66  C   UNL A   1      46.210  25.400  29.346  1.00  0.00     0.031 C 
ATOM     67  C   UNL A   1      46.566  27.699  30.210  1.00  0.00     0.031 A 
BRANCH  54  68
ATOM     68  C   UNL A   1      43.733  33.111  31.210  1.00  0.00    -0.014 A 
ATOM     69  C   UNL A   1      43.949  34.139  30.275  1.00  0.00     0.010 A 
ATOM     70  C   UNL A   1      43.578  33.443  32.568  1.00  0.00     0.010 A 
ATOM     71  C   UNL A   1      44.051  35.468  30.694  1.00  0.00     0.020 A 
ATOM     72  C   UNL A   1      43.655  34.776  32.988  1.00  0.00     0.020 A 
ATOM     73  C   UNL A   1      43.909  35.778  32.049  1.00  0.00     0.054 A 
BRANCH  73  74
ATOM     74  S   UNL A   1      44.029  37.514  32.565  1.00  0.00     0.124 S 
ATOM     75  O   UNL A   1      43.716  38.218  31.324  1.00  0.00    -0.237 OA
ATOM     76  O   UNL A   1      43.016  37.610  33.613  1.00  0.00    -0.237 OA
ATOM     77  O   UNL A   1      45.410  37.644  33.025  1.00  0.00    -0.744 OA
ENDBRANCH  73  74
ENDBRANCH  54  68
BRANCH  55  78
ATOM     78  C   UNL A   1      42.630  23.781  27.790  1.00  0.00    -0.014 A 
ATOM     79  C   UNL A   1      42.393  22.707  28.663  1.00  0.00     0.010 A 
ATOM     80  C   UNL A   1      42.659  23.545  26.403  1.00  0.00     0.010 A 
ATOM     81  C   UNL A   1      42.198  21.417  28.162  1.00  0.00     0.020 A 
ATOM     82  C   UNL A   1      42.441  22.261  25.896  1.00  0.00     0.020 A 
ATOM     83  C   UNL A   1      42.223  21.202  26.781  1.00  0.00     0.054 A 
BRANCH  83  84
ATOM     84  S   UNL A   1      41.903  19.533  26.146  1.00  0.00     0.124 S 
ATOM     85  O   UNL A   1      42.233  18.703  27.300  1.00  0.00    -0.237 OA
ATOM     86  O   UNL A   1      40.487  19.591  25.793  1.00  0.00    -0.237 OA
ATOM     87  O   UNL A   1      42.816  19.421  25.010  1.00  0.00    -0.744 OA
ENDBRANCH  83  84
ENDBRANCH  55  78
BRANCH  67  88
ATOM     88  C   UNL A   1      47.989  27.311  30.501  1.00  0.00    -0.014 A 
ATOM     89  C   UNL A   1      48.999  27.484  29.537  1.00  0.00     0.010 A 
ATOM     90  C   UNL A   1      48.323  26.790  31.762  1.00  0.00     0.010 A 
ATOM     91  C   UNL A   1      50.313  27.103  29.817  1.00  0.00     0.020 A 
ATOM     92  C   UNL A   1      49.642  26.429  32.055  1.00  0.00     0.020 A 
ATOM     93  C   UNL A   1      50.625  26.573  31.073  1.00  0.00     0.054 A 
BRANCH  93  94
ATOM     94  S   UNL A   1      52.343  26.112  31.427  1.00  0.00     0.124 S 
ATOM     95  O   UNL A   1      52.194  24.748  31.925  1.00  0.00    -0.237 OA
ATOM     96  O   UNL A   1      52.987  26.237  30.122  1.00  0.00    -0.237 OA
ATOM     97  O   UNL A   1      52.766  27.096  32.421  1.00  0.00    -0.744 OA
ENDBRANCH  93  94
ENDBRANCH  67  88
ENDBRANCH  41  42
ENDBRANCH  33  36
ENDBRANCH  31  32
ENDBRANCH  30  31
ENDBRANCH   1  30
TORSDOF 17
ENDMDL
