MODEL 1
REMARK VINA RESULT:     -12.6      0.000      0.000
REMARK SMILES [H]/N=C1\C=CC2=NC(C(=O)NCCCNC(=O)c3ccc(-c4c5nc(c(-c6ccc(S(=O)(=O)[O-])cc6)c6ccc([nH]6)c(-c6ccc(S(=O)(=O)[O-])cc6)c6nc(c(-c7ccc(S(=O)(=O)[O-])cc7)c7ccc4[nH]7)C=C6)C=C5)cc3)=C[C@@H]2C1
REMARK SMILES IDX 15 1 16 2 17 3 14 5 13 6 12 7 11 8 9 9 10 10 8 12 2 13 3 14
REMARK SMILES IDX 1 15 4 16 80 17 5 18 79 19 6 20 78 21 7 22 18 23 19 24 77 25
REMARK SMILES IDX 20 26 76 27 21 28 22 29 23 30 70 31 24 32 75 33 69 34 71 35
REMARK SMILES IDX 25 36 74 37 68 38 67 39 26 41 56 42 37 43 55 44 38 45 41 46
REMARK SMILES IDX 54 47 72 48 39 49 40 50 53 52 73 53 42 54 27 55 28 56 36 57
REMARK SMILES IDX 29 58 35 59 30 60 31 61 32 62 33 63 34 64 57 65 58 66 66 67
REMARK SMILES IDX 59 68 65 69 60 70 61 71 62 72 63 73 64 74 43 75 44 76 52 77
REMARK SMILES IDX 45 78 51 79 46 80 47 81 48 82 49 83 50 84
REMARK H PARENT 15 4 11 11 71 40 41 51
REMARK Flexibility Score: inf
ROOT
ATOM      1  N   UNL A   1      40.360  20.806  26.719  1.00  0.00    -0.352 N 
ATOM      2  C   UNL A   1      39.535  21.897  26.507  1.00  0.00     0.251 C 
ATOM      3  O   UNL A   1      38.440  21.755  25.993  1.00  0.00    -0.269 OA
ATOM      4  H   UNL A   1      40.157  20.003  26.188  1.00  0.00     0.163 HD
ENDROOT
BRANCH   1   5
ATOM      5  C   UNL A   1      41.499  20.697  27.632  1.00  0.00     0.118 C 
BRANCH   5   6
ATOM      6  C   UNL A   1      42.314  19.429  27.393  1.00  0.00     0.042 C 
BRANCH   6   7
ATOM      7  C   UNL A   1      42.363  19.050  25.908  1.00  0.00     0.118 C 
BRANCH   7   8
ATOM      8  N   UNL A   1      43.691  18.601  25.532  1.00  0.00    -0.351 N 
ATOM      9  C   UNL A   1      44.795  19.210  25.025  1.00  0.00     0.269 C 
ATOM     10  O   UNL A   1      45.757  18.475  24.782  1.00  0.00    -0.268 OA
ATOM     11  H   UNL A   1      43.821  17.636  25.679  1.00  0.00     0.163 HD
BRANCH   9  12
ATOM     12  C   UNL A   1      44.919  20.700  24.844  1.00  0.00     0.125 C 
ATOM     13  N   UNL A   1      45.905  26.407  24.974  1.00  0.00    -0.305 NA
ATOM     14  C   UNL A   1      45.351  25.241  25.026  1.00  0.00     0.032 C 
ATOM     15  H   UNL A   1      45.346  27.217  24.929  1.00  0.00     0.187 HD
ATOM     16  C   UNL A   1      43.873  25.074  25.068  1.00  0.00     0.025 C 
ATOM     17  C   UNL A   1      46.244  24.011  25.094  1.00  0.00     0.069 C 
ATOM     18  C   UNL A   1      43.306  23.867  24.973  1.00  0.00     0.026 C 
ATOM     19  C   UNL A   1      45.592  22.865  24.360  1.00  0.00     0.069 C 
ATOM     20  C   UNL A   1      44.161  22.690  24.781  1.00  0.00     0.049 C 
ATOM     21  C   UNL A   1      46.010  21.459  24.651  1.00  0.00     0.017 C 
ATOM     22  N   UNL A   1      43.771  21.469  24.944  1.00  0.00    -0.247 NA
ENDBRANCH   9  12
ENDBRANCH   7   8
ENDBRANCH   6   7
ENDBRANCH   5   6
ENDBRANCH   1   5
BRANCH   2  23
ATOM     23  C   UNL A   1      40.008  23.230  26.927  1.00  0.00     0.039 A 
ATOM     24  C   UNL A   1      39.331  24.388  26.533  1.00  0.00     0.014 A 
ATOM     25  C   UNL A   1      41.126  23.302  27.753  1.00  0.00     0.014 A 
ATOM     26  C   UNL A   1      39.732  25.617  27.058  1.00  0.00     0.010 A 
ATOM     27  C   UNL A   1      41.445  24.494  28.361  1.00  0.00     0.010 A 
ATOM     28  C   UNL A   1      40.777  25.661  27.991  1.00  0.00    -0.014 A 
BRANCH  28  29
ATOM     29  C   UNL A   1      41.105  26.905  28.689  1.00  0.00     0.031 A 
ATOM     30  C   UNL A   1      42.242  27.682  28.120  1.00  0.00     0.074 A 
ATOM     31  C   UNL A   1      40.278  27.469  29.596  1.00  0.00     0.049 A 
ATOM     32  N   UNL A   1      43.379  27.958  28.671  1.00  0.00    -0.248 NA
ATOM     33  C   UNL A   1      42.141  28.123  26.718  1.00  0.00     0.031 C 
ATOM     34  C   UNL A   1      38.945  27.010  30.006  1.00  0.00     0.029 A 
ATOM     35  N   UNL A   1      40.388  28.670  30.228  1.00  0.00    -0.354 N 
ATOM     36  C   UNL A   1      44.051  28.789  27.777  1.00  0.00     0.074 A 
ATOM     37  C   UNL A   1      43.329  28.702  26.532  1.00  0.00     0.031 C 
ATOM     38  C   UNL A   1      38.279  28.029  30.591  1.00  0.00     0.029 A 
ATOM     39  C   UNL A   1      39.193  29.142  30.759  1.00  0.00     0.049 A 
ATOM     40  H   UNL A   1      41.239  29.160  30.303  1.00  0.00     0.167 HD
ATOM     41  C   UNL A   1      45.002  29.677  28.188  1.00  0.00     0.031 A 
ATOM     42  C   UNL A   1      38.955  30.378  31.263  1.00  0.00     0.031 A 
ATOM     43  C   UNL A   1      45.414  29.427  29.545  1.00  0.00     0.049 A 
ATOM     44  C   UNL A   1      40.271  30.972  31.602  1.00  0.00     0.074 A 
ATOM     45  C   UNL A   1      45.965  28.356  30.221  1.00  0.00     0.029 A 
ATOM     46  N   UNL A   1      44.906  30.264  30.512  1.00  0.00    -0.354 N 
ATOM     47  N   UNL A   1      41.053  30.501  32.534  1.00  0.00    -0.248 NA
ATOM     48  C   UNL A   1      40.917  31.831  30.624  1.00  0.00     0.031 C 
ATOM     49  C   UNL A   1      45.332  28.367  31.500  1.00  0.00     0.029 A 
ATOM     50  C   UNL A   1      44.488  29.478  31.555  1.00  0.00     0.049 A 
ATOM     51  H   UNL A   1      44.852  31.245  30.465  1.00  0.00     0.167 HD
ATOM     52  C   UNL A   1      42.335  30.635  32.023  1.00  0.00     0.074 A 
ATOM     53  C   UNL A   1      42.196  31.566  30.904  1.00  0.00     0.031 C 
ATOM     54  C   UNL A   1      43.330  29.768  32.375  1.00  0.00     0.031 A 
BRANCH  41  55
ATOM     55  C   UNL A   1      45.264  31.012  27.523  1.00  0.00    -0.014 A 
ATOM     56  C   UNL A   1      46.599  31.447  27.370  1.00  0.00     0.010 A 
ATOM     57  C   UNL A   1      44.255  31.973  27.307  1.00  0.00     0.010 A 
ATOM     58  C   UNL A   1      46.904  32.789  27.103  1.00  0.00     0.020 A 
ATOM     59  C   UNL A   1      44.548  33.303  26.993  1.00  0.00     0.020 A 
ATOM     60  C   UNL A   1      45.873  33.711  26.933  1.00  0.00     0.054 A 
BRANCH  60  61
ATOM     61  S   UNL A   1      46.272  35.463  26.712  1.00  0.00     0.124 S 
ATOM     62  O   UNL A   1      46.897  35.462  25.393  1.00  0.00    -0.237 OA
ATOM     63  O   UNL A   1      44.956  36.092  26.791  1.00  0.00    -0.237 OA
ATOM     64  O   UNL A   1      47.165  35.753  27.831  1.00  0.00    -0.744 OA
ENDBRANCH  60  61
ENDBRANCH  41  55
BRANCH  42  65
ATOM     65  C   UNL A   1      37.701  31.167  31.219  1.00  0.00    -0.014 A 
ATOM     66  C   UNL A   1      36.627  30.865  32.076  1.00  0.00     0.010 A 
ATOM     67  C   UNL A   1      37.662  32.396  30.526  1.00  0.00     0.010 A 
ATOM     68  C   UNL A   1      35.588  31.787  32.286  1.00  0.00     0.020 A 
ATOM     69  C   UNL A   1      36.625  33.316  30.724  1.00  0.00     0.020 A 
ATOM     70  C   UNL A   1      35.606  33.018  31.625  1.00  0.00     0.054 A 
BRANCH  70  71
ATOM     71  S   UNL A   1      34.365  34.277  32.050  1.00  0.00     0.124 S 
ATOM     72  O   UNL A   1      33.715  34.519  30.765  1.00  0.00    -0.237 OA
ATOM     73  O   UNL A   1      33.550  33.595  33.051  1.00  0.00    -0.237 OA
ATOM     74  O   UNL A   1      35.163  35.390  32.560  1.00  0.00    -0.744 OA
ENDBRANCH  70  71
ENDBRANCH  42  65
BRANCH  54  75
ATOM     75  C   UNL A   1      43.111  28.861  33.565  1.00  0.00    -0.014 A 
ATOM     76  C   UNL A   1      43.523  29.173  34.877  1.00  0.00     0.010 A 
ATOM     77  C   UNL A   1      42.320  27.716  33.368  1.00  0.00     0.010 A 
ATOM     78  C   UNL A   1      43.173  28.343  35.954  1.00  0.00     0.020 A 
ATOM     79  C   UNL A   1      41.952  26.897  34.438  1.00  0.00     0.020 A 
ATOM     80  C   UNL A   1      42.389  27.209  35.726  1.00  0.00     0.054 A 
BRANCH  80  81
ATOM     81  S   UNL A   1      41.899  26.164  37.126  1.00  0.00     0.124 S 
ATOM     82  O   UNL A   1      41.822  24.837  36.521  1.00  0.00    -0.237 OA
ATOM     83  O   UNL A   1      42.991  26.360  38.077  1.00  0.00    -0.237 OA
ATOM     84  O   UNL A   1      40.615  26.724  37.547  1.00  0.00    -0.744 OA
ENDBRANCH  80  81
ENDBRANCH  54  75
ENDBRANCH  28  29
ENDBRANCH   2  23
TORSDOF 13
ENDMDL
MODEL 2
REMARK VINA RESULT:     -12.5      3.153     11.906
REMARK SMILES [H]/N=C1\C=CC2=NC(C(=O)NCCCNC(=O)c3ccc(-c4c5nc(c(-c6ccc(S(=O)(=O)[O-])cc6)c6ccc([nH]6)c(-c6ccc(S(=O)(=O)[O-])cc6)c6nc(c(-c7ccc(S(=O)(=O)[O-])cc7)c7ccc4[nH]7)C=C6)C=C5)cc3)=C[C@@H]2C1
REMARK SMILES IDX 15 1 16 2 17 3 14 5 13 6 12 7 11 8 9 9 10 10 8 12 2 13 3 14
REMARK SMILES IDX 1 15 4 16 80 17 5 18 79 19 6 20 78 21 7 22 18 23 19 24 77 25
REMARK SMILES IDX 20 26 76 27 21 28 22 29 23 30 70 31 24 32 75 33 69 34 71 35
REMARK SMILES IDX 25 36 74 37 68 38 67 39 26 41 56 42 37 43 55 44 38 45 41 46
REMARK SMILES IDX 54 47 72 48 39 49 40 50 53 52 73 53 42 54 27 55 28 56 36 57
REMARK SMILES IDX 29 58 35 59 30 60 31 61 32 62 33 63 34 64 57 65 58 66 66 67
REMARK SMILES IDX 59 68 65 69 60 70 61 71 62 72 63 73 64 74 43 75 44 76 52 77
REMARK SMILES IDX 45 78 51 79 46 80 47 81 48 82 49 83 50 84
REMARK H PARENT 15 4 11 11 71 40 41 51
REMARK Flexibility Score: inf
ROOT
ATOM      1  N   UNL A   1      34.171  33.044  28.006  1.00  0.00    -0.352 N 
ATOM      2  C   UNL A   1      34.433  31.691  27.884  1.00  0.00     0.251 C 
ATOM      3  O   UNL A   1      33.637  30.953  27.331  1.00  0.00    -0.269 OA
ATOM      4  H   UNL A   1      33.229  33.311  27.902  1.00  0.00     0.163 HD
ENDROOT
BRANCH   1   5
ATOM      5  C   UNL A   1      35.117  34.128  28.273  1.00  0.00     0.118 C 
BRANCH   5   6
ATOM      6  C   UNL A   1      34.418  35.471  28.470  1.00  0.00     0.042 C 
BRANCH   6   7
ATOM      7  C   UNL A   1      32.947  35.300  28.862  1.00  0.00     0.118 C 
BRANCH   7   8
ATOM      8  N   UNL A   1      32.627  36.096  30.032  1.00  0.00    -0.351 N 
ATOM      9  C   UNL A   1      33.012  36.073  31.336  1.00  0.00     0.269 C 
ATOM     10  O   UNL A   1      32.478  36.906  32.075  1.00  0.00    -0.268 OA
ATOM     11  H   UNL A   1      31.987  36.818  29.838  1.00  0.00     0.163 HD
BRANCH   9  12
ATOM     12  C   UNL A   1      34.091  35.168  31.873  1.00  0.00     0.125 C 
ATOM     13  N   UNL A   1      38.803  32.094  33.253  1.00  0.00    -0.305 NA
ATOM     14  C   UNL A   1      37.641  32.461  32.821  1.00  0.00     0.032 C 
ATOM     15  H   UNL A   1      39.009  31.137  33.360  1.00  0.00     0.187 HD
ATOM     16  C   UNL A   1      36.601  31.472  32.427  1.00  0.00     0.025 C 
ATOM     17  C   UNL A   1      37.355  33.947  32.669  1.00  0.00     0.069 C 
ATOM     18  C   UNL A   1      35.357  31.855  32.122  1.00  0.00     0.026 C 
ATOM     19  C   UNL A   1      35.901  34.221  32.967  1.00  0.00     0.069 C 
ATOM     20  C   UNL A   1      35.003  33.275  32.221  1.00  0.00     0.049 C 
ATOM     21  C   UNL A   1      35.259  35.473  32.461  1.00  0.00     0.017 C 
ATOM     22  N   UNL A   1      33.942  33.801  31.706  1.00  0.00    -0.247 NA
ENDBRANCH   9  12
ENDBRANCH   7   8
ENDBRANCH   6   7
ENDBRANCH   5   6
ENDBRANCH   1   5
BRANCH   2  23
ATOM     23  C   UNL A   1      35.701  31.167  28.428  1.00  0.00     0.039 A 
ATOM     24  C   UNL A   1      35.895  29.793  28.596  1.00  0.00     0.014 A 
ATOM     25  C   UNL A   1      36.710  32.074  28.737  1.00  0.00     0.014 A 
ATOM     26  C   UNL A   1      37.152  29.331  28.988  1.00  0.00     0.010 A 
ATOM     27  C   UNL A   1      37.977  31.614  29.007  1.00  0.00     0.010 A 
ATOM     28  C   UNL A   1      38.198  30.246  29.170  1.00  0.00    -0.014 A 
BRANCH  28  29
ATOM     29  C   UNL A   1      39.565  29.782  29.409  1.00  0.00     0.031 A 
ATOM     30  C   UNL A   1      39.914  29.513  30.833  1.00  0.00     0.074 A 
ATOM     31  C   UNL A   1      40.370  29.348  28.415  1.00  0.00     0.049 A 
ATOM     32  N   UNL A   1      40.793  30.111  31.569  1.00  0.00    -0.248 NA
ATOM     33  C   UNL A   1      39.110  28.517  31.562  1.00  0.00     0.031 C 
ATOM     34  C   UNL A   1      40.045  29.212  26.990  1.00  0.00     0.029 A 
ATOM     35  N   UNL A   1      41.604  28.780  28.496  1.00  0.00    -0.354 N 
ATOM     36  C   UNL A   1      40.809  29.428  32.784  1.00  0.00     0.074 A 
ATOM     37  C   UNL A   1      39.637  28.590  32.786  1.00  0.00     0.031 C 
ATOM     38  C   UNL A   1      40.929  28.375  26.405  1.00  0.00     0.029 A 
ATOM     39  C   UNL A   1      41.975  28.067  27.361  1.00  0.00     0.049 A 
ATOM     40  H   UNL A   1      42.183  28.866  29.288  1.00  0.00     0.167 HD
ATOM     41  C   UNL A   1      41.909  29.414  33.592  1.00  0.00     0.031 A 
ATOM     42  C   UNL A   1      43.044  27.244  27.227  1.00  0.00     0.031 A 
ATOM     43  C   UNL A   1      42.878  30.401  33.192  1.00  0.00     0.049 A 
ATOM     44  C   UNL A   1      44.006  27.599  28.298  1.00  0.00     0.074 A 
ATOM     45  C   UNL A   1      42.873  31.774  33.038  1.00  0.00     0.029 A 
ATOM     46  N   UNL A   1      43.978  29.947  32.501  1.00  0.00    -0.354 N 
ATOM     47  N   UNL A   1      44.620  28.749  28.361  1.00  0.00    -0.248 NA
ATOM     48  C   UNL A   1      43.970  26.846  29.541  1.00  0.00     0.031 C 
ATOM     49  C   UNL A   1      43.668  32.013  31.877  1.00  0.00     0.029 A 
ATOM     50  C   UNL A   1      44.167  30.787  31.434  1.00  0.00     0.049 A 
ATOM     51  H   UNL A   1      44.527  29.164  32.730  1.00  0.00     0.167 HD
ATOM     52  C   UNL A   1      44.657  29.058  29.711  1.00  0.00     0.074 A 
ATOM     53  C   UNL A   1      44.354  27.801  30.392  1.00  0.00     0.031 C 
ATOM     54  C   UNL A   1      44.651  30.356  30.139  1.00  0.00     0.031 A 
BRANCH  41  55
ATOM     55  C   UNL A   1      42.296  28.251  34.481  1.00  0.00    -0.014 A 
ATOM     56  C   UNL A   1      42.624  28.505  35.831  1.00  0.00     0.010 A 
ATOM     57  C   UNL A   1      42.628  26.976  33.977  1.00  0.00     0.010 A 
ATOM     58  C   UNL A   1      43.323  27.566  36.602  1.00  0.00     0.020 A 
ATOM     59  C   UNL A   1      43.281  26.016  34.753  1.00  0.00     0.020 A 
ATOM     60  C   UNL A   1      43.661  26.332  36.049  1.00  0.00     0.054 A 
BRANCH  60  61
ATOM     61  S   UNL A   1      44.669  25.172  37.006  1.00  0.00     0.124 S 
ATOM     62  O   UNL A   1      44.323  23.896  36.388  1.00  0.00    -0.237 OA
ATOM     63  O   UNL A   1      46.024  25.655  36.749  1.00  0.00    -0.237 OA
ATOM     64  O   UNL A   1      44.196  25.358  38.375  1.00  0.00    -0.744 OA
ENDBRANCH  60  61
ENDBRANCH  41  55
BRANCH  42  65
ATOM     65  C   UNL A   1      43.164  26.012  26.411  1.00  0.00    -0.014 A 
ATOM     66  C   UNL A   1      44.225  25.848  25.502  1.00  0.00     0.010 A 
ATOM     67  C   UNL A   1      42.389  24.876  26.728  1.00  0.00     0.010 A 
ATOM     68  C   UNL A   1      44.543  24.581  24.983  1.00  0.00     0.020 A 
ATOM     69  C   UNL A   1      42.694  23.612  26.208  1.00  0.00     0.020 A 
ATOM     70  C   UNL A   1      43.788  23.466  25.358  1.00  0.00     0.054 A 
BRANCH  70  71
ATOM     71  S   UNL A   1      44.325  21.810  24.836  1.00  0.00     0.124 S 
ATOM     72  O   UNL A   1      43.201  20.974  25.246  1.00  0.00    -0.237 OA
ATOM     73  O   UNL A   1      44.499  21.971  23.396  1.00  0.00    -0.237 OA
ATOM     74  O   UNL A   1      45.562  21.595  25.586  1.00  0.00    -0.744 OA
ENDBRANCH  70  71
ENDBRANCH  42  65
BRANCH  54  75
ATOM     75  C   UNL A   1      44.929  31.450  29.133  1.00  0.00    -0.014 A 
ATOM     76  C   UNL A   1      46.189  32.058  28.960  1.00  0.00     0.010 A 
ATOM     77  C   UNL A   1      43.906  31.764  28.221  1.00  0.00     0.010 A 
ATOM     78  C   UNL A   1      46.406  32.976  27.920  1.00  0.00     0.020 A 
ATOM     79  C   UNL A   1      44.120  32.661  27.173  1.00  0.00     0.020 A 
ATOM     80  C   UNL A   1      45.367  33.271  27.033  1.00  0.00     0.054 A 
BRANCH  80  81
ATOM     81  S   UNL A   1      45.662  34.423  25.661  1.00  0.00     0.124 S 
ATOM     82  O   UNL A   1      45.257  35.705  26.229  1.00  0.00    -0.237 OA
ATOM     83  O   UNL A   1      47.093  34.270  25.409  1.00  0.00    -0.237 OA
ATOM     84  O   UNL A   1      44.798  33.921  24.593  1.00  0.00    -0.744 OA
ENDBRANCH  80  81
ENDBRANCH  54  75
ENDBRANCH  28  29
ENDBRANCH   2  23
TORSDOF 13
ENDMDL
MODEL 3
REMARK VINA RESULT:     -12.2      3.249      5.564
REMARK SMILES [H]/N=C1\C=CC2=NC(C(=O)NCCCNC(=O)c3ccc(-c4c5nc(c(-c6ccc(S(=O)(=O)[O-])cc6)c6ccc([nH]6)c(-c6ccc(S(=O)(=O)[O-])cc6)c6nc(c(-c7ccc(S(=O)(=O)[O-])cc7)c7ccc4[nH]7)C=C6)C=C5)cc3)=C[C@@H]2C1
REMARK SMILES IDX 15 1 16 2 17 3 14 5 13 6 12 7 11 8 9 9 10 10 8 12 2 13 3 14
REMARK SMILES IDX 1 15 4 16 80 17 5 18 79 19 6 20 78 21 7 22 18 23 19 24 77 25
REMARK SMILES IDX 20 26 76 27 21 28 22 29 23 30 70 31 24 32 75 33 69 34 71 35
REMARK SMILES IDX 25 36 74 37 68 38 67 39 26 41 56 42 37 43 55 44 38 45 41 46
REMARK SMILES IDX 54 47 72 48 39 49 40 50 53 52 73 53 42 54 27 55 28 56 36 57
REMARK SMILES IDX 29 58 35 59 30 60 31 61 32 62 33 63 34 64 57 65 58 66 66 67
REMARK SMILES IDX 59 68 65 69 60 70 61 71 62 72 63 73 64 74 43 75 44 76 52 77
REMARK SMILES IDX 45 78 51 79 46 80 47 81 48 82 49 83 50 84
REMARK H PARENT 15 4 11 11 71 40 41 51
REMARK Flexibility Score: inf
ROOT
ATOM      1  N   UNL A   1      38.312  22.090  25.983  1.00  0.00    -0.352 N 
ATOM      2  C   UNL A   1      39.590  22.242  26.490  1.00  0.00     0.251 C 
ATOM      3  O   UNL A   1      40.355  21.295  26.541  1.00  0.00    -0.269 OA
ATOM      4  H   UNL A   1      37.969  21.168  25.951  1.00  0.00     0.163 HD
ENDROOT
BRANCH   1   5
ATOM      5  C   UNL A   1      37.405  23.127  25.491  1.00  0.00     0.118 C 
BRANCH   5   6
ATOM      6  C   UNL A   1      36.031  23.057  26.154  1.00  0.00     0.042 C 
BRANCH   6   7
ATOM      7  C   UNL A   1      34.949  23.733  25.304  1.00  0.00     0.118 C 
BRANCH   7   8
ATOM      8  N   UNL A   1      33.661  23.682  25.970  1.00  0.00    -0.351 N 
ATOM      9  C   UNL A   1      32.658  22.767  26.039  1.00  0.00     0.269 C 
ATOM     10  O   UNL A   1      31.662  23.101  26.686  1.00  0.00    -0.268 OA
ATOM     11  H   UNL A   1      33.470  24.495  26.492  1.00  0.00     0.163 HD
BRANCH   9  12
ATOM     12  C   UNL A   1      32.752  21.380  25.457  1.00  0.00     0.125 C 
ATOM     13  N   UNL A   1      34.063  16.232  23.147  1.00  0.00    -0.305 NA
ATOM     14  C   UNL A   1      33.623  17.432  23.338  1.00  0.00     0.032 C 
ATOM     15  H   UNL A   1      33.744  15.707  22.377  1.00  0.00     0.187 HD
ATOM     16  C   UNL A   1      32.671  18.080  22.396  1.00  0.00     0.025 C 
ATOM     17  C   UNL A   1      34.136  18.215  24.537  1.00  0.00     0.069 C 
ATOM     18  C   UNL A   1      32.108  19.260  22.676  1.00  0.00     0.026 C 
ATOM     19  C   UNL A   1      33.045  19.114  25.066  1.00  0.00     0.069 C 
ATOM     20  C   UNL A   1      32.407  19.905  23.959  1.00  0.00     0.049 C 
ATOM     21  C   UNL A   1      33.397  20.294  25.914  1.00  0.00     0.017 C 
ATOM     22  N   UNL A   1      32.152  21.142  24.231  1.00  0.00    -0.247 NA
ENDBRANCH   9  12
ENDBRANCH   7   8
ENDBRANCH   6   7
ENDBRANCH   5   6
ENDBRANCH   1   5
BRANCH   2  23
ATOM     23  C   UNL A   1      40.008  23.578  26.958  1.00  0.00     0.039 A 
ATOM     24  C   UNL A   1      39.261  24.716  26.639  1.00  0.00     0.014 A 
ATOM     25  C   UNL A   1      41.145  23.671  27.755  1.00  0.00     0.014 A 
ATOM     26  C   UNL A   1      39.615  25.939  27.209  1.00  0.00     0.010 A 
ATOM     27  C   UNL A   1      41.422  24.849  28.408  1.00  0.00     0.010 A 
ATOM     28  C   UNL A   1      40.685  25.996  28.113  1.00  0.00    -0.014 A 
BRANCH  28  29
ATOM     29  C   UNL A   1      40.970  27.222  28.859  1.00  0.00     0.031 A 
ATOM     30  C   UNL A   1      42.041  28.088  28.288  1.00  0.00     0.074 A 
ATOM     31  C   UNL A   1      40.149  27.696  29.821  1.00  0.00     0.049 A 
ATOM     32  N   UNL A   1      43.181  28.401  28.811  1.00  0.00    -0.248 NA
ATOM     33  C   UNL A   1      41.862  28.588  26.914  1.00  0.00     0.031 C 
ATOM     34  C   UNL A   1      38.860  27.143  30.255  1.00  0.00     0.029 A 
ATOM     35  N   UNL A   1      40.218  28.870  30.507  1.00  0.00    -0.354 N 
ATOM     36  C   UNL A   1      43.771  29.310  27.935  1.00  0.00     0.074 A 
ATOM     37  C   UNL A   1      43.008  29.241  26.714  1.00  0.00     0.031 C 
ATOM     38  C   UNL A   1      38.162  28.094  30.913  1.00  0.00     0.029 A 
ATOM     39  C   UNL A   1      39.019  29.248  31.102  1.00  0.00     0.049 A 
ATOM     40  H   UNL A   1      41.042  29.403  30.575  1.00  0.00     0.167 HD
ATOM     41  C   UNL A   1      44.687  30.231  28.355  1.00  0.00     0.031 A 
ATOM     42  C   UNL A   1      38.734  30.444  31.674  1.00  0.00     0.031 A 
ATOM     43  C   UNL A   1      45.164  29.941  29.682  1.00  0.00     0.049 A 
ATOM     44  C   UNL A   1      40.027  31.094  31.995  1.00  0.00     0.074 A 
ATOM     45  C   UNL A   1      45.798  28.872  30.285  1.00  0.00     0.029 A 
ATOM     46  N   UNL A   1      44.649  30.702  30.707  1.00  0.00    -0.354 N 
ATOM     47  N   UNL A   1      40.869  30.626  32.874  1.00  0.00    -0.248 NA
ATOM     48  C   UNL A   1      40.587  32.033  31.038  1.00  0.00     0.031 C 
ATOM     49  C   UNL A   1      45.215  28.788  31.585  1.00  0.00     0.029 A 
ATOM     50  C   UNL A   1      44.315  29.846  31.724  1.00  0.00     0.049 A 
ATOM     51  H   UNL A   1      44.540  31.679  30.709  1.00  0.00     0.167 HD
ATOM     52  C   UNL A   1      42.121  30.856  32.324  1.00  0.00     0.074 A 
ATOM     53  C   UNL A   1      41.889  31.828  31.258  1.00  0.00     0.031 C 
ATOM     54  C   UNL A   1      43.175  30.030  32.598  1.00  0.00     0.031 A 
BRANCH  41  55
ATOM     55  C   UNL A   1      44.850  31.608  27.747  1.00  0.00    -0.014 A 
ATOM     56  C   UNL A   1      46.122  31.997  27.271  1.00  0.00     0.010 A 
ATOM     57  C   UNL A   1      43.886  32.627  27.886  1.00  0.00     0.010 A 
ATOM     58  C   UNL A   1      46.433  33.343  27.034  1.00  0.00     0.020 A 
ATOM     59  C   UNL A   1      44.172  33.966  27.606  1.00  0.00     0.020 A 
ATOM     60  C   UNL A   1      45.457  34.321  27.220  1.00  0.00     0.054 A 
BRANCH  60  61
ATOM     61  S   UNL A   1      45.897  36.066  27.033  1.00  0.00     0.124 S 
ATOM     62  O   UNL A   1      46.668  36.311  28.248  1.00  0.00    -0.237 OA
ATOM     63  O   UNL A   1      46.661  36.060  25.787  1.00  0.00    -0.237 OA
ATOM     64  O   UNL A   1      44.603  36.739  26.961  1.00  0.00    -0.744 OA
ENDBRANCH  60  61
ENDBRANCH  41  55
BRANCH  42  65
ATOM     65  C   UNL A   1      37.438  31.162  31.713  1.00  0.00    -0.014 A 
ATOM     66  C   UNL A   1      36.791  31.420  32.937  1.00  0.00     0.010 A 
ATOM     67  C   UNL A   1      36.969  31.840  30.568  1.00  0.00     0.010 A 
ATOM     68  C   UNL A   1      35.762  32.372  33.023  1.00  0.00     0.020 A 
ATOM     69  C   UNL A   1      35.938  32.785  30.646  1.00  0.00     0.020 A 
ATOM     70  C   UNL A   1      35.357  33.066  31.880  1.00  0.00     0.054 A 
BRANCH  70  71
ATOM     71  S   UNL A   1      34.165  34.429  32.039  1.00  0.00     0.124 S 
ATOM     72  O   UNL A   1      33.664  34.565  30.674  1.00  0.00    -0.237 OA
ATOM     73  O   UNL A   1      33.211  33.905  33.012  1.00  0.00    -0.237 OA
ATOM     74  O   UNL A   1      34.979  35.546  32.515  1.00  0.00    -0.744 OA
ENDBRANCH  70  71
ENDBRANCH  42  65
BRANCH  54  75
ATOM     75  C   UNL A   1      43.052  29.058  33.750  1.00  0.00    -0.014 A 
ATOM     76  C   UNL A   1      43.381  29.374  35.084  1.00  0.00     0.010 A 
ATOM     77  C   UNL A   1      42.432  27.823  33.489  1.00  0.00     0.010 A 
ATOM     78  C   UNL A   1      43.121  28.465  36.121  1.00  0.00     0.020 A 
ATOM     79  C   UNL A   1      42.153  26.922  34.519  1.00  0.00     0.020 A 
ATOM     80  C   UNL A   1      42.508  27.243  35.830  1.00  0.00     0.054 A 
BRANCH  80  81
ATOM     81  S   UNL A   1      42.130  26.088  37.178  1.00  0.00     0.124 S 
ATOM     82  O   UNL A   1      42.439  24.791  36.582  1.00  0.00    -0.237 OA
ATOM     83  O   UNL A   1      43.032  26.523  38.242  1.00  0.00    -0.237 OA
ATOM     84  O   UNL A   1      40.711  26.320  37.448  1.00  0.00    -0.744 OA
ENDBRANCH  80  81
ENDBRANCH  54  75
ENDBRANCH  28  29
ENDBRANCH   2  23
TORSDOF 13
ENDMDL
