MODEL 1
REMARK VINA RESULT:     -13.3      0.000      0.000
REMARK SMILES COc1cc2c(cc1OC)[C@H](C(=O)NCCCNC(=O)c1ccc(-c3c4nc(c(-c5ccc(S(=O)(=O)[O-])cc5)c5ccc([nH]5)c(-c5ccc(S(=O)(=O)[O-])cc5)c5nc(c(-c6ccc(S(=O)(=O)[O-])cc6)c6ccc3[nH]6)C=C5)C=C4)cc1)[C@H](c1cccc(Cl)c1)N(C)C2=O
REMARK SMILES IDX 17 1 16 2 15 3 14 4 12 5 13 6 11 8 3 9 4 10 8 11 5 12 7 13
REMARK SMILES IDX 6 14 91 15 89 16 92 17 81 18 90 19 2 20 1 21 9 22 10 23
REMARK SMILES IDX 82 24 83 25 88 26 84 27 86 28 85 29 87 30 18 31 19 32 20 34
REMARK SMILES IDX 21 35 22 36 80 37 23 38 79 39 24 40 25 41 26 42 73 43 27 44
REMARK SMILES IDX 78 45 72 46 74 47 28 48 77 49 71 50 70 51 29 53 59 54 40 55
REMARK SMILES IDX 58 56 41 57 44 58 57 59 75 60 42 61 43 62 56 64 76 65 45 66
REMARK SMILES IDX 30 67 31 68 39 69 32 70 38 71 33 72 34 73 35 74 36 75 37 76
REMARK SMILES IDX 60 77 61 78 69 79 62 80 68 81 63 82 64 83 65 84 66 85 67 86
REMARK SMILES IDX 46 87 47 88 55 89 48 90 54 91 49 92 50 93 51 94 52 95 53 96
REMARK H PARENT 14 7 18 33 74 52 44 63
REMARK Flexibility Score: inf
ROOT
ATOM      1  C   UNL A   1      35.830  31.276  28.203  1.00  0.00     0.118 C 
ENDROOT
BRANCH   1   2
ATOM      2  C   UNL A   1      34.637  30.792  27.391  1.00  0.00     0.042 C 
BRANCH   2   3
ATOM      3  C   UNL A   1      34.529  29.281  27.304  1.00  0.00     0.117 C 
BRANCH   3   4
ATOM      4  N   UNL A   1      33.254  28.781  27.800  1.00  0.00    -0.355 N 
ATOM      5  C   UNL A   1      32.419  27.848  27.251  1.00  0.00     0.230 C 
ATOM      6  O   UNL A   1      31.338  27.679  27.811  1.00  0.00    -0.274 OA
ATOM      7  H   UNL A   1      32.952  29.169  28.652  1.00  0.00     0.163 HD
BRANCH   5   8
ATOM      8  C   UNL A   1      32.791  27.195  25.932  1.00  0.00     0.136 C 
ATOM      9  C   UNL A   1      32.252  22.958  25.262  1.00  0.00     0.161 A 
ATOM     10  C   UNL A   1      32.902  23.775  24.326  1.00  0.00     0.064 A 
ATOM     11  C   UNL A   1      31.647  23.541  26.386  1.00  0.00     0.161 A 
ATOM     12  C   UNL A   1      33.010  25.151  24.551  1.00  0.00     0.048 A 
ATOM     13  C   UNL A   1      31.738  24.924  26.586  1.00  0.00     0.056 A 
ATOM     14  C   UNL A   1      32.492  25.722  25.725  1.00  0.00    -0.016 A 
ATOM     15  C   UNL A   1      33.587  26.044  23.492  1.00  0.00     0.254 C 
ATOM     16  N   UNL A   1      33.257  27.405  23.572  1.00  0.00    -0.333 N 
ATOM     17  O   UNL A   1      34.270  25.560  22.597  1.00  0.00    -0.269 OA
ATOM     18  C   UNL A   1      32.348  27.921  24.636  1.00  0.00     0.132 C 
ATOM     19  C   UNL A   1      33.727  28.315  22.546  1.00  0.00     0.147 C 
BRANCH   9  20
ATOM     20  O   UNL A   1      32.095  21.614  25.047  1.00  0.00    -0.493 OA
ATOM     21  C   UNL A   1      33.079  20.804  25.689  1.00  0.00     0.278 C 
ENDBRANCH   9  20
BRANCH  11  22
ATOM     22  O   UNL A   1      30.923  22.898  27.355  1.00  0.00    -0.493 OA
ATOM     23  C   UNL A   1      29.509  22.923  27.195  1.00  0.00     0.278 C 
ENDBRANCH  11  22
BRANCH  18  24
ATOM     24  C   UNL A   1      30.858  27.763  24.277  1.00  0.00    -0.023 A 
ATOM     25  C   UNL A   1      30.158  26.602  24.649  1.00  0.00     0.006 A 
ATOM     26  C   UNL A   1      30.149  28.724  23.532  1.00  0.00     0.026 A 
ATOM     27  C   UNL A   1      28.849  26.363  24.222  1.00  0.00     0.002 A 
ATOM     28  C   UNL A   1      28.835  28.490  23.117  1.00  0.00     0.041 A 
ATOM     29  C   UNL A   1      28.189  27.304  23.442  1.00  0.00     0.020 A 
ATOM     30  Cl  UNL A   1      28.014  29.679  22.180  1.00  0.00    -0.084 Cl
ENDBRANCH  18  24
ENDBRANCH   5   8
ENDBRANCH   3   4
ENDBRANCH   2   3
ENDBRANCH   1   2
BRANCH   1  31
ATOM     31  N   UNL A   1      35.659  31.109  29.642  1.00  0.00    -0.352 N 
ATOM     32  C   UNL A   1      36.422  30.390  30.532  1.00  0.00     0.251 C 
ATOM     33  H   UNL A   1      34.887  31.580  30.032  1.00  0.00     0.163 HD
ATOM     34  O   UNL A   1      36.047  30.245  31.691  1.00  0.00    -0.269 OA
BRANCH  32  35
ATOM     35  C   UNL A   1      37.675  29.761  30.065  1.00  0.00     0.039 A 
ATOM     36  C   UNL A   1      38.030  29.868  28.720  1.00  0.00     0.014 A 
ATOM     37  C   UNL A   1      38.525  29.128  30.973  1.00  0.00     0.014 A 
ATOM     38  C   UNL A   1      39.288  29.422  28.306  1.00  0.00     0.010 A 
ATOM     39  C   UNL A   1      39.811  28.783  30.581  1.00  0.00     0.010 A 
ATOM     40  C   UNL A   1      40.208  28.926  29.244  1.00  0.00    -0.014 A 
BRANCH  40  41
ATOM     41  C   UNL A   1      41.592  28.548  28.857  1.00  0.00     0.031 A 
ATOM     42  C   UNL A   1      42.670  29.598  28.821  1.00  0.00     0.074 A 
ATOM     43  C   UNL A   1      41.856  27.288  28.452  1.00  0.00     0.049 A 
ATOM     44  N   UNL A   1      43.904  29.497  28.400  1.00  0.00    -0.248 NA
ATOM     45  C   UNL A   1      42.303  30.949  29.279  1.00  0.00     0.031 C 
ATOM     46  C   UNL A   1      40.885  26.192  28.381  1.00  0.00     0.029 A 
ATOM     47  N   UNL A   1      43.025  26.719  28.008  1.00  0.00    -0.354 N 
ATOM     48  C   UNL A   1      44.445  30.773  28.507  1.00  0.00     0.074 A 
ATOM     49  C   UNL A   1      43.396  31.641  28.990  1.00  0.00     0.031 C 
ATOM     50  C   UNL A   1      41.503  25.080  27.949  1.00  0.00     0.029 A 
ATOM     51  C   UNL A   1      42.902  25.390  27.673  1.00  0.00     0.049 A 
ATOM     52  H   UNL A   1      43.872  27.215  27.937  1.00  0.00     0.167 HD
ATOM     53  C   UNL A   1      45.711  31.182  28.249  1.00  0.00     0.031 A 
ATOM     54  C   UNL A   1      43.812  24.520  27.193  1.00  0.00     0.031 A 
ATOM     55  C   UNL A   1      46.766  30.306  27.824  1.00  0.00     0.049 A 
ATOM     56  C   UNL A   1      45.221  24.991  26.961  1.00  0.00     0.074 A 
ATOM     57  C   UNL A   1      48.101  30.608  27.619  1.00  0.00     0.029 A 
ATOM     58  N   UNL A   1      46.612  28.957  27.549  1.00  0.00    -0.354 N 
ATOM     59  N   UNL A   1      45.729  26.187  27.137  1.00  0.00    -0.248 NA
ATOM     60  C   UNL A   1      46.185  23.992  26.476  1.00  0.00     0.031 C 
ATOM     61  C   UNL A   1      48.749  29.446  27.187  1.00  0.00     0.029 A 
ATOM     62  C   UNL A   1      47.826  28.413  27.166  1.00  0.00     0.049 A 
ATOM     63  H   UNL A   1      45.766  28.459  27.617  1.00  0.00     0.167 HD
ATOM     64  C   UNL A   1      47.076  26.077  26.812  1.00  0.00     0.074 A 
ATOM     65  C   UNL A   1      47.308  24.696  26.443  1.00  0.00     0.031 C 
ATOM     66  C   UNL A   1      48.037  27.032  26.817  1.00  0.00     0.031 A 
BRANCH  53  67
ATOM     67  C   UNL A   1      46.028  32.641  28.438  1.00  0.00    -0.014 A 
ATOM     68  C   UNL A   1      46.502  33.124  29.670  1.00  0.00     0.010 A 
ATOM     69  C   UNL A   1      45.908  33.526  27.352  1.00  0.00     0.010 A 
ATOM     70  C   UNL A   1      46.827  34.475  29.820  1.00  0.00     0.020 A 
ATOM     71  C   UNL A   1      46.257  34.872  27.492  1.00  0.00     0.020 A 
ATOM     72  C   UNL A   1      46.703  35.340  28.730  1.00  0.00     0.054 A 
BRANCH  72  73
ATOM     73  S   UNL A   1      47.180  37.078  28.939  1.00  0.00     0.124 S 
ATOM     74  O   UNL A   1      46.141  37.567  29.843  1.00  0.00    -0.237 OA
ATOM     75  O   UNL A   1      48.517  36.975  29.519  1.00  0.00    -0.237 OA
ATOM     76  O   UNL A   1      47.131  37.617  27.583  1.00  0.00    -0.744 OA
ENDBRANCH  72  73
ENDBRANCH  53  67
BRANCH  54  77
ATOM     77  C   UNL A   1      43.428  23.111  26.908  1.00  0.00    -0.014 A 
ATOM     78  C   UNL A   1      42.890  22.300  27.923  1.00  0.00     0.010 A 
ATOM     79  C   UNL A   1      43.619  22.563  25.626  1.00  0.00     0.010 A 
ATOM     80  C   UNL A   1      42.583  20.959  27.673  1.00  0.00     0.020 A 
ATOM     81  C   UNL A   1      43.288  21.231  25.365  1.00  0.00     0.020 A 
ATOM     82  C   UNL A   1      42.789  20.431  26.396  1.00  0.00     0.054 A 
BRANCH  82  83
ATOM     83  S   UNL A   1      42.365  18.695  26.083  1.00  0.00     0.124 S 
ATOM     84  O   UNL A   1      40.964  18.793  25.687  1.00  0.00    -0.237 OA
ATOM     85  O   UNL A   1      43.299  18.324  25.023  1.00  0.00    -0.237 OA
ATOM     86  O   UNL A   1      42.610  18.050  27.371  1.00  0.00    -0.744 OA
ENDBRANCH  82  83
ENDBRANCH  54  77
BRANCH  66  87
ATOM     87  C   UNL A   1      49.433  26.613  26.454  1.00  0.00    -0.014 A 
ATOM     88  C   UNL A   1      50.293  26.044  27.411  1.00  0.00     0.010 A 
ATOM     89  C   UNL A   1      49.867  26.733  25.122  1.00  0.00     0.010 A 
ATOM     90  C   UNL A   1      51.576  25.630  27.045  1.00  0.00     0.020 A 
ATOM     91  C   UNL A   1      51.140  26.297  24.747  1.00  0.00     0.020 A 
ATOM     92  C   UNL A   1      51.992  25.759  25.716  1.00  0.00     0.054 A 
BRANCH  92  93
ATOM     93  S   UNL A   1      53.643  25.170  25.255  1.00  0.00     0.124 S 
ATOM     94  O   UNL A   1      53.782  25.689  23.898  1.00  0.00    -0.237 OA
ATOM     95  O   UNL A   1      54.501  25.796  26.259  1.00  0.00    -0.237 OA
ATOM     96  O   UNL A   1      53.533  23.717  25.359  1.00  0.00    -0.744 OA
ENDBRANCH  92  93
ENDBRANCH  66  87
ENDBRANCH  40  41
ENDBRANCH  32  35
ENDBRANCH   1  31
TORSDOF 16
ENDMDL
MODEL 2
REMARK VINA RESULT:     -13.0      6.327     11.362
REMARK SMILES COc1cc2c(cc1OC)[C@H](C(=O)NCCCNC(=O)c1ccc(-c3c4nc(c(-c5ccc(S(=O)(=O)[O-])cc5)c5ccc([nH]5)c(-c5ccc(S(=O)(=O)[O-])cc5)c5nc(c(-c6ccc(S(=O)(=O)[O-])cc6)c6ccc3[nH]6)C=C5)C=C4)cc1)[C@H](c1cccc(Cl)c1)N(C)C2=O
REMARK SMILES IDX 17 1 16 2 15 3 14 4 12 5 13 6 11 8 3 9 4 10 8 11 5 12 7 13
REMARK SMILES IDX 6 14 91 15 89 16 92 17 81 18 90 19 2 20 1 21 9 22 10 23
REMARK SMILES IDX 82 24 83 25 88 26 84 27 86 28 85 29 87 30 18 31 19 32 20 34
REMARK SMILES IDX 21 35 22 36 80 37 23 38 79 39 24 40 25 41 26 42 73 43 27 44
REMARK SMILES IDX 78 45 72 46 74 47 28 48 77 49 71 50 70 51 29 53 59 54 40 55
REMARK SMILES IDX 58 56 41 57 44 58 57 59 75 60 42 61 43 62 56 64 76 65 45 66
REMARK SMILES IDX 30 67 31 68 39 69 32 70 38 71 33 72 34 73 35 74 36 75 37 76
REMARK SMILES IDX 60 77 61 78 69 79 62 80 68 81 63 82 64 83 65 84 66 85 67 86
REMARK SMILES IDX 46 87 47 88 55 89 48 90 54 91 49 92 50 93 51 94 52 95 53 96
REMARK H PARENT 14 7 18 33 74 52 44 63
REMARK Flexibility Score: inf
ROOT
ATOM      1  C   UNL A   1      40.213  23.533  27.176  1.00  0.00     0.118 C 
ENDROOT
BRANCH   1   2
ATOM      2  C   UNL A   1      39.066  22.715  26.601  1.00  0.00     0.042 C 
BRANCH   2   3
ATOM      3  C   UNL A   1      37.910  23.555  26.091  1.00  0.00     0.117 C 
BRANCH   3   4
ATOM      4  N   UNL A   1      37.656  23.357  24.671  1.00  0.00    -0.355 N 
ATOM      5  C   UNL A   1      36.471  23.401  23.990  1.00  0.00     0.230 C 
ATOM      6  O   UNL A   1      36.506  23.086  22.803  1.00  0.00    -0.274 OA
ATOM      7  H   UNL A   1      38.451  23.164  24.123  1.00  0.00     0.163 HD
BRANCH   5   8
ATOM      8  C   UNL A   1      35.185  23.683  24.746  1.00  0.00     0.136 C 
ATOM      9  C   UNL A   1      32.106  26.242  23.113  1.00  0.00     0.161 A 
ATOM     10  C   UNL A   1      32.030  25.740  24.420  1.00  0.00     0.064 A 
ATOM     11  C   UNL A   1      33.135  25.808  22.265  1.00  0.00     0.161 A 
ATOM     12  C   UNL A   1      33.017  24.871  24.896  1.00  0.00     0.048 A 
ATOM     13  C   UNL A   1      34.103  24.916  22.744  1.00  0.00     0.056 A 
ATOM     14  C   UNL A   1      34.103  24.514  24.081  1.00  0.00    -0.016 A 
ATOM     15  C   UNL A   1      32.869  24.231  26.245  1.00  0.00     0.254 C 
ATOM     16  N   UNL A   1      33.612  23.061  26.469  1.00  0.00    -0.333 N 
ATOM     17  O   UNL A   1      32.094  24.712  27.063  1.00  0.00    -0.269 OA
ATOM     18  C   UNL A   1      34.472  22.474  25.401  1.00  0.00     0.132 C 
ATOM     19  C   UNL A   1      33.468  22.353  27.726  1.00  0.00     0.147 C 
BRANCH   9  20
ATOM     20  O   UNL A   1      31.131  27.062  22.607  1.00  0.00    -0.493 OA
ATOM     21  C   UNL A   1      30.234  27.575  23.590  1.00  0.00     0.278 C 
ENDBRANCH   9  20
BRANCH  11  22
ATOM     22  O   UNL A   1      33.315  26.149  20.950  1.00  0.00    -0.493 OA
ATOM     23  C   UNL A   1      32.543  25.416  20.005  1.00  0.00     0.278 C 
ENDBRANCH  11  22
BRANCH  18  24
ATOM     24  C   UNL A   1      33.685  21.575  24.427  1.00  0.00    -0.023 A 
ATOM     25  C   UNL A   1      32.971  22.143  23.358  1.00  0.00     0.006 A 
ATOM     26  C   UNL A   1      33.598  20.179  24.582  1.00  0.00     0.026 A 
ATOM     27  C   UNL A   1      32.137  21.376  22.540  1.00  0.00     0.002 A 
ATOM     28  C   UNL A   1      32.774  19.410  23.756  1.00  0.00     0.041 A 
ATOM     29  C   UNL A   1      32.027  20.007  22.748  1.00  0.00     0.020 A 
ATOM     30  Cl  UNL A   1      32.672  17.709  23.998  1.00  0.00    -0.084 Cl
ENDBRANCH  18  24
ENDBRANCH   5   8
ENDBRANCH   3   4
ENDBRANCH   2   3
ENDBRANCH   1   2
BRANCH   1  31
ATOM     31  N   UNL A   1      41.015  24.205  26.158  1.00  0.00    -0.352 N 
ATOM     32  C   UNL A   1      41.351  25.534  26.052  1.00  0.00     0.251 C 
ATOM     33  H   UNL A   1      41.366  23.623  25.447  1.00  0.00     0.163 HD
ATOM     34  O   UNL A   1      41.918  25.951  25.047  1.00  0.00    -0.269 OA
BRANCH  32  35
ATOM     35  C   UNL A   1      40.983  26.461  27.143  1.00  0.00     0.039 A 
ATOM     36  C   UNL A   1      40.043  26.057  28.092  1.00  0.00     0.014 A 
ATOM     37  C   UNL A   1      41.619  27.697  27.260  1.00  0.00     0.014 A 
ATOM     38  C   UNL A   1      39.815  26.857  29.214  1.00  0.00     0.010 A 
ATOM     39  C   UNL A   1      41.469  28.438  28.425  1.00  0.00     0.010 A 
ATOM     40  C   UNL A   1      40.566  28.027  29.416  1.00  0.00    -0.014 A 
BRANCH  40  41
ATOM     41  C   UNL A   1      40.429  28.841  30.651  1.00  0.00     0.031 A 
ATOM     42  C   UNL A   1      39.366  29.904  30.731  1.00  0.00     0.074 A 
ATOM     43  C   UNL A   1      41.314  28.689  31.658  1.00  0.00     0.049 A 
ATOM     44  N   UNL A   1      39.159  30.794  31.666  1.00  0.00    -0.248 NA
ATOM     45  C   UNL A   1      38.438  30.008  29.591  1.00  0.00     0.031 C 
ATOM     46  C   UNL A   1      42.429  27.737  31.678  1.00  0.00     0.029 A 
ATOM     47  N   UNL A   1      41.422  29.345  32.859  1.00  0.00    -0.354 N 
ATOM     48  C   UNL A   1      38.108  31.582  31.212  1.00  0.00     0.074 A 
ATOM     49  C   UNL A   1      37.747  31.096  29.900  1.00  0.00     0.031 C 
ATOM     50  C   UNL A   1      43.089  27.854  32.843  1.00  0.00     0.029 A 
ATOM     51  C   UNL A   1      42.472  28.912  33.636  1.00  0.00     0.049 A 
ATOM     52  H   UNL A   1      40.806  30.059  33.140  1.00  0.00     0.167 HD
ATOM     53  C   UNL A   1      37.482  32.605  31.842  1.00  0.00     0.031 A 
ATOM     54  C   UNL A   1      42.895  29.325  34.847  1.00  0.00     0.031 A 
ATOM     55  C   UNL A   1      37.805  33.050  33.168  1.00  0.00     0.049 A 
ATOM     56  C   UNL A   1      42.151  30.431  35.542  1.00  0.00     0.074 A 
ATOM     57  C   UNL A   1      37.173  34.020  33.926  1.00  0.00     0.029 A 
ATOM     58  N   UNL A   1      38.840  32.547  33.941  1.00  0.00    -0.354 N 
ATOM     59  N   UNL A   1      41.114  31.115  35.124  1.00  0.00    -0.248 NA
ATOM     60  C   UNL A   1      42.627  30.814  36.879  1.00  0.00     0.031 C 
ATOM     61  C   UNL A   1      37.848  34.129  35.146  1.00  0.00     0.029 A 
ATOM     62  C   UNL A   1      38.872  33.195  35.163  1.00  0.00     0.049 A 
ATOM     63  H   UNL A   1      39.460  31.834  33.662  1.00  0.00     0.167 HD
ATOM     64  C   UNL A   1      40.796  31.989  36.157  1.00  0.00     0.074 A 
ATOM     65  C   UNL A   1      41.741  31.738  37.225  1.00  0.00     0.031 C 
ATOM     66  C   UNL A   1      39.812  32.918  36.218  1.00  0.00     0.031 A 
BRANCH  53  67
ATOM     67  C   UNL A   1      36.370  33.304  31.107  1.00  0.00    -0.014 A 
ATOM     68  C   UNL A   1      35.068  33.347  31.637  1.00  0.00     0.010 A 
ATOM     69  C   UNL A   1      36.644  33.978  29.904  1.00  0.00     0.010 A 
ATOM     70  C   UNL A   1      34.054  34.030  30.962  1.00  0.00     0.020 A 
ATOM     71  C   UNL A   1      35.638  34.684  29.240  1.00  0.00     0.020 A 
ATOM     72  C   UNL A   1      34.345  34.695  29.768  1.00  0.00     0.054 A 
BRANCH  72  73
ATOM     73  S   UNL A   1      33.020  35.617  28.940  1.00  0.00     0.124 S 
ATOM     74  O   UNL A   1      32.368  34.568  28.159  1.00  0.00    -0.237 OA
ATOM     75  O   UNL A   1      32.243  36.139  30.061  1.00  0.00    -0.237 OA
ATOM     76  O   UNL A   1      33.734  36.623  28.158  1.00  0.00    -0.744 OA
ENDBRANCH  72  73
ENDBRANCH  53  67
BRANCH  54  77
ATOM     77  C   UNL A   1      44.074  28.684  35.490  1.00  0.00    -0.014 A 
ATOM     78  C   UNL A   1      45.370  29.179  35.256  1.00  0.00     0.010 A 
ATOM     79  C   UNL A   1      43.912  27.563  36.323  1.00  0.00     0.010 A 
ATOM     80  C   UNL A   1      46.484  28.544  35.814  1.00  0.00     0.020 A 
ATOM     81  C   UNL A   1      45.021  26.941  36.905  1.00  0.00     0.020 A 
ATOM     82  C   UNL A   1      46.302  27.425  36.631  1.00  0.00     0.054 A 
BRANCH  82  83
ATOM     83  S   UNL A   1      47.758  26.626  37.363  1.00  0.00     0.124 S 
ATOM     84  O   UNL A   1      47.898  25.434  36.533  1.00  0.00    -0.237 OA
ATOM     85  O   UNL A   1      48.796  27.640  37.197  1.00  0.00    -0.237 OA
ATOM     86  O   UNL A   1      47.351  26.384  38.745  1.00  0.00    -0.744 OA
ENDBRANCH  82  83
ENDBRANCH  54  77
BRANCH  66  87
ATOM     87  C   UNL A   1      39.677  33.702  37.493  1.00  0.00    -0.014 A 
ATOM     88  C   UNL A   1      40.371  34.911  37.679  1.00  0.00     0.010 A 
ATOM     89  C   UNL A   1      38.795  33.253  38.491  1.00  0.00     0.010 A 
ATOM     90  C   UNL A   1      40.206  35.642  38.858  1.00  0.00     0.020 A 
ATOM     91  C   UNL A   1      38.608  33.993  39.660  1.00  0.00     0.020 A 
ATOM     92  C   UNL A   1      39.327  35.178  39.842  1.00  0.00     0.054 A 
BRANCH  92  93
ATOM     93  S   UNL A   1      39.092  36.168  41.342  1.00  0.00     0.124 S 
ATOM     94  O   UNL A   1      38.870  37.502  40.794  1.00  0.00    -0.237 OA
ATOM     95  O   UNL A   1      37.926  35.540  41.962  1.00  0.00    -0.237 OA
ATOM     96  O   UNL A   1      40.346  35.993  42.072  1.00  0.00    -0.744 OA
ENDBRANCH  92  93
ENDBRANCH  66  87
ENDBRANCH  40  41
ENDBRANCH  32  35
ENDBRANCH   1  31
TORSDOF 16
ENDMDL
MODEL 3
REMARK VINA RESULT:     -12.7      1.011      7.950
REMARK SMILES COc1cc2c(cc1OC)[C@H](C(=O)NCCCNC(=O)c1ccc(-c3c4nc(c(-c5ccc(S(=O)(=O)[O-])cc5)c5ccc([nH]5)c(-c5ccc(S(=O)(=O)[O-])cc5)c5nc(c(-c6ccc(S(=O)(=O)[O-])cc6)c6ccc3[nH]6)C=C5)C=C4)cc1)[C@H](c1cccc(Cl)c1)N(C)C2=O
REMARK SMILES IDX 17 1 16 2 15 3 14 4 12 5 13 6 11 8 3 9 4 10 8 11 5 12 7 13
REMARK SMILES IDX 6 14 91 15 89 16 92 17 81 18 90 19 2 20 1 21 9 22 10 23
REMARK SMILES IDX 82 24 83 25 88 26 84 27 86 28 85 29 87 30 18 31 19 32 20 34
REMARK SMILES IDX 21 35 22 36 80 37 23 38 79 39 24 40 25 41 26 42 73 43 27 44
REMARK SMILES IDX 78 45 72 46 74 47 28 48 77 49 71 50 70 51 29 53 59 54 40 55
REMARK SMILES IDX 58 56 41 57 44 58 57 59 75 60 42 61 43 62 56 64 76 65 45 66
REMARK SMILES IDX 30 67 31 68 39 69 32 70 38 71 33 72 34 73 35 74 36 75 37 76
REMARK SMILES IDX 60 77 61 78 69 79 62 80 68 81 63 82 64 83 65 84 66 85 67 86
REMARK SMILES IDX 46 87 47 88 55 89 48 90 54 91 49 92 50 93 51 94 52 95 53 96
REMARK H PARENT 14 7 18 33 74 52 44 63
REMARK Flexibility Score: inf
ROOT
ATOM      1  C   UNL A   1      36.029  29.529  29.184  1.00  0.00     0.118 C 
ENDROOT
BRANCH   1   2
ATOM      2  C   UNL A   1      35.345  30.242  28.027  1.00  0.00     0.042 C 
BRANCH   2   3
ATOM      3  C   UNL A   1      34.600  29.310  27.089  1.00  0.00     0.117 C 
BRANCH   3   4
ATOM      4  N   UNL A   1      33.320  28.874  27.631  1.00  0.00    -0.355 N 
ATOM      5  C   UNL A   1      32.449  27.939  27.144  1.00  0.00     0.230 C 
ATOM      6  O   UNL A   1      31.373  27.831  27.730  1.00  0.00    -0.274 OA
ATOM      7  H   UNL A   1      33.044  29.315  28.466  1.00  0.00     0.163 HD
BRANCH   5   8
ATOM      8  C   UNL A   1      32.780  27.208  25.856  1.00  0.00     0.136 C 
ATOM      9  C   UNL A   1      32.034  22.975  25.391  1.00  0.00     0.161 A 
ATOM     10  C   UNL A   1      32.715  23.714  24.414  1.00  0.00     0.064 A 
ATOM     11  C   UNL A   1      31.466  23.638  26.489  1.00  0.00     0.161 A 
ATOM     12  C   UNL A   1      32.890  25.093  24.573  1.00  0.00     0.048 A 
ATOM     13  C   UNL A   1      31.625  25.023  26.623  1.00  0.00     0.056 A 
ATOM     14  C   UNL A   1      32.410  25.743  25.721  1.00  0.00    -0.016 A 
ATOM     15  C   UNL A   1      33.502  25.906  23.470  1.00  0.00     0.254 C 
ATOM     16  N   UNL A   1      33.238  27.284  23.486  1.00  0.00    -0.333 N 
ATOM     17  O   UNL A   1      34.154  25.348  22.595  1.00  0.00    -0.269 OA
ATOM     18  C   UNL A   1      32.362  27.892  24.530  1.00  0.00     0.132 C 
ATOM     19  C   UNL A   1      33.742  28.121  22.416  1.00  0.00     0.147 C 
BRANCH   9  20
ATOM     20  O   UNL A   1      31.812  21.631  25.241  1.00  0.00    -0.493 OA
ATOM     21  C   UNL A   1      33.003  20.853  25.137  1.00  0.00     0.278 C 
ENDBRANCH   9  20
BRANCH  11  22
ATOM     22  O   UNL A   1      30.720  23.077  27.491  1.00  0.00    -0.493 OA
ATOM     23  C   UNL A   1      29.320  22.987  27.249  1.00  0.00     0.278 C 
ENDBRANCH  11  22
BRANCH  18  24
ATOM     24  C   UNL A   1      30.863  27.789  24.187  1.00  0.00    -0.023 A 
ATOM     25  C   UNL A   1      30.123  26.660  24.577  1.00  0.00     0.006 A 
ATOM     26  C   UNL A   1      30.185  28.770  23.439  1.00  0.00     0.026 A 
ATOM     27  C   UNL A   1      28.801  26.468  24.164  1.00  0.00     0.002 A 
ATOM     28  C   UNL A   1      28.859  28.584  23.038  1.00  0.00     0.041 A 
ATOM     29  C   UNL A   1      28.171  27.427  23.381  1.00  0.00     0.020 A 
ATOM     30  Cl  UNL A   1      28.075  29.794  22.098  1.00  0.00    -0.084 Cl
ENDBRANCH  18  24
ENDBRANCH   5   8
ENDBRANCH   3   4
ENDBRANCH   2   3
ENDBRANCH   1   2
BRANCH   1  31
ATOM     31  N   UNL A   1      35.950  30.259  30.445  1.00  0.00    -0.352 N 
ATOM     32  C   UNL A   1      36.966  30.706  31.257  1.00  0.00     0.251 C 
ATOM     33  H   UNL A   1      35.040  30.463  30.758  1.00  0.00     0.163 HD
ATOM     34  O   UNL A   1      36.713  31.182  32.359  1.00  0.00    -0.269 OA
BRANCH  32  35
ATOM     35  C   UNL A   1      38.366  30.566  30.805  1.00  0.00     0.039 A 
ATOM     36  C   UNL A   1      39.273  29.866  31.603  1.00  0.00     0.014 A 
ATOM     37  C   UNL A   1      38.758  31.068  29.563  1.00  0.00     0.014 A 
ATOM     38  C   UNL A   1      40.549  29.587  31.106  1.00  0.00     0.010 A 
ATOM     39  C   UNL A   1      39.986  30.701  29.032  1.00  0.00     0.010 A 
ATOM     40  C   UNL A   1      40.897  29.956  29.796  1.00  0.00    -0.014 A 
BRANCH  40  41
ATOM     41  C   UNL A   1      42.203  29.578  29.198  1.00  0.00     0.031 A 
ATOM     42  C   UNL A   1      42.396  28.193  28.641  1.00  0.00     0.074 A 
ATOM     43  C   UNL A   1      43.237  30.444  29.240  1.00  0.00     0.049 A 
ATOM     44  N   UNL A   1      43.487  27.633  28.186  1.00  0.00    -0.248 NA
ATOM     45  C   UNL A   1      41.219  27.306  28.630  1.00  0.00     0.031 C 
ATOM     46  C   UNL A   1      43.198  31.794  29.809  1.00  0.00     0.029 A 
ATOM     47  N   UNL A   1      44.532  30.310  28.804  1.00  0.00    -0.354 N 
ATOM     48  C   UNL A   1      43.137  26.324  27.873  1.00  0.00     0.074 A 
ATOM     49  C   UNL A   1      41.747  26.158  28.229  1.00  0.00     0.031 C 
ATOM     50  C   UNL A   1      44.402  32.372  29.663  1.00  0.00     0.029 A 
ATOM     51  C   UNL A   1      45.310  31.423  29.027  1.00  0.00     0.049 A 
ATOM     52  H   UNL A   1      44.873  29.495  28.371  1.00  0.00     0.167 HD
ATOM     53  C   UNL A   1      43.899  25.353  27.316  1.00  0.00     0.031 A 
ATOM     54  C   UNL A   1      46.610  31.652  28.756  1.00  0.00     0.031 A 
ATOM     55  C   UNL A   1      45.265  25.537  26.911  1.00  0.00     0.049 A 
ATOM     56  C   UNL A   1      47.420  30.571  28.094  1.00  0.00     0.074 A 
ATOM     57  C   UNL A   1      46.095  24.642  26.260  1.00  0.00     0.029 A 
ATOM     58  N   UNL A   1      45.998  26.697  27.105  1.00  0.00    -0.354 N 
ATOM     59  N   UNL A   1      47.049  29.364  27.741  1.00  0.00    -0.248 NA
ATOM     60  C   UNL A   1      48.821  30.887  27.782  1.00  0.00     0.031 C 
ATOM     61  C   UNL A   1      47.343  25.249  26.090  1.00  0.00     0.029 A 
ATOM     62  C   UNL A   1      47.274  26.537  26.596  1.00  0.00     0.049 A 
ATOM     63  H   UNL A   1      45.660  27.514  27.540  1.00  0.00     0.167 HD
ATOM     64  C   UNL A   1      48.162  28.787  27.141  1.00  0.00     0.074 A 
ATOM     65  C   UNL A   1      49.214  29.781  27.165  1.00  0.00     0.031 C 
ATOM     66  C   UNL A   1      48.302  27.545  26.617  1.00  0.00     0.031 A 
BRANCH  53  67
ATOM     67  C   UNL A   1      43.266  24.006  27.095  1.00  0.00    -0.014 A 
ATOM     68  C   UNL A   1      42.764  23.640  25.834  1.00  0.00     0.010 A 
ATOM     69  C   UNL A   1      43.231  23.072  28.146  1.00  0.00     0.010 A 
ATOM     70  C   UNL A   1      42.211  22.373  25.635  1.00  0.00     0.020 A 
ATOM     71  C   UNL A   1      42.703  21.794  27.943  1.00  0.00     0.020 A 
ATOM     72  C   UNL A   1      42.185  21.457  26.690  1.00  0.00     0.054 A 
BRANCH  72  73
ATOM     73  S   UNL A   1      41.509  19.801  26.389  1.00  0.00     0.124 S 
ATOM     74  O   UNL A   1      41.771  19.135  27.663  1.00  0.00    -0.237 OA
ATOM     75  O   UNL A   1      40.103  20.076  26.102  1.00  0.00    -0.237 OA
ATOM     76  O   UNL A   1      42.289  19.309  25.256  1.00  0.00    -0.744 OA
ENDBRANCH  72  73
ENDBRANCH  53  67
BRANCH  54  77
ATOM     77  C   UNL A   1      47.231  32.961  29.097  1.00  0.00    -0.014 A 
ATOM     78  C   UNL A   1      47.833  33.158  30.353  1.00  0.00     0.010 A 
ATOM     79  C   UNL A   1      47.204  34.025  28.178  1.00  0.00     0.010 A 
ATOM     80  C   UNL A   1      48.366  34.404  30.697  1.00  0.00     0.020 A 
ATOM     81  C   UNL A   1      47.759  35.265  28.508  1.00  0.00     0.020 A 
ATOM     82  C   UNL A   1      48.320  35.452  29.773  1.00  0.00     0.054 A 
BRANCH  82  83
ATOM     83  S   UNL A   1      49.035  37.056  30.229  1.00  0.00     0.124 S 
ATOM     84  O   UNL A   1      48.717  37.136  31.650  1.00  0.00    -0.237 OA
ATOM     85  O   UNL A   1      50.448  36.880  29.904  1.00  0.00    -0.237 OA
ATOM     86  O   UNL A   1      48.321  38.000  29.371  1.00  0.00    -0.744 OA
ENDBRANCH  82  83
ENDBRANCH  54  77
BRANCH  66  87
ATOM     87  C   UNL A   1      49.624  27.204  25.989  1.00  0.00    -0.014 A 
ATOM     88  C   UNL A   1      50.654  26.611  26.741  1.00  0.00     0.010 A 
ATOM     89  C   UNL A   1      49.813  27.424  24.613  1.00  0.00     0.010 A 
ATOM     90  C   UNL A   1      51.863  26.271  26.130  1.00  0.00     0.020 A 
ATOM     91  C   UNL A   1      51.012  27.062  23.994  1.00  0.00     0.020 A 
ATOM     92  C   UNL A   1      52.035  26.499  24.761  1.00  0.00     0.054 A 
BRANCH  92  93
ATOM     93  S   UNL A   1      53.595  26.005  23.981  1.00  0.00     0.124 S 
ATOM     94  O   UNL A   1      53.243  26.019  22.564  1.00  0.00    -0.237 OA
ATOM     95  O   UNL A   1      54.517  27.055  24.410  1.00  0.00    -0.237 OA
ATOM     96  O   UNL A   1      53.861  24.684  24.546  1.00  0.00    -0.744 OA
ENDBRANCH  92  93
ENDBRANCH  66  87
ENDBRANCH  40  41
ENDBRANCH  32  35
ENDBRANCH   1  31
TORSDOF 16
ENDMDL
