MODEL 1
REMARK VINA RESULT:      -9.4      0.000      0.000
REMARK SMILES O=C(NCCCNC(=O)c1ccc(-c2c3nc(c(-c4ccc(S(=O)(=O)[O-])cc4)c4ccc([nH]4)c(-c4ccc(S(=O)(=O)[O-])cc4)c4nc(c(-c5ccc(S(=O)(=O)[O-])cc5)c5ccc2[nH]5)C=C4)C=C3)cc1)c1ccc(/[NH+]=C2\S[C@@H](Cc3ccc(F)cc3)C(=O)N2Cc2ccccc2)cc1
REMARK SMILES IDX 5 1 4 2 3 3 1 4 2 5 70 7 71 8 97 9 72 10 96 11 73 12 74 13
REMARK SMILES IDX 75 14 76 16 88 17 77 18 86 19 87 20 89 21 90 22 91 23 95 24
REMARK SMILES IDX 92 25 94 26 93 27 78 28 79 29 80 30 85 31 81 32 84 33 82 34
REMARK SMILES IDX 83 35 6 36 7 37 8 38 9 40 10 41 11 42 69 43 12 44 68 45
REMARK SMILES IDX 13 46 14 47 15 48 62 49 16 50 67 51 61 52 63 53 17 54 66 55
REMARK SMILES IDX 60 56 59 57 18 59 48 60 29 61 47 62 30 63 33 64 46 65 64 66
REMARK SMILES IDX 31 67 32 68 45 70 65 71 34 72 19 73 20 74 28 75 21 76 27 77
REMARK SMILES IDX 22 78 23 79 24 80 25 81 26 82 49 83 50 84 58 85 51 86 57 87
REMARK SMILES IDX 52 88 53 89 54 90 55 91 56 92 35 93 36 94 44 95 37 96 43 97
REMARK SMILES IDX 38 98 39 99 40 100 41 101 42 102
REMARK H PARENT 3 6 74 15 7 39 63 58 33 69
REMARK Flexibility Score: inf
ROOT
ATOM      1  C   UNL A   1      35.050  32.853  30.283  1.00  0.00     0.042 C 
ENDROOT
BRANCH   1   2
ATOM      2  C   UNL A   1      36.147  33.659  30.962  1.00  0.00     0.118 C 
BRANCH   2   3
ATOM      3  N   UNL A   1      35.624  34.715  31.823  1.00  0.00    -0.352 N 
ATOM      4  O   UNL A   1      35.207  35.828  33.741  1.00  0.00    -0.269 OA
ATOM      5  C   UNL A   1      35.881  34.991  33.144  1.00  0.00     0.251 C 
ATOM      6  H   UNL A   1      34.988  35.327  31.388  1.00  0.00     0.163 HD
BRANCH   5   7
ATOM      7  C   UNL A   1      36.964  34.283  33.855  1.00  0.00     0.040 A 
ATOM      8  C   UNL A   1      36.664  33.240  34.728  1.00  0.00     0.018 A 
ATOM      9  C   UNL A   1      38.298  34.641  33.627  1.00  0.00     0.018 A 
ATOM     10  C   UNL A   1      37.679  32.666  35.482  1.00  0.00     0.052 A 
ATOM     11  C   UNL A   1      39.323  34.016  34.350  1.00  0.00     0.052 A 
ATOM     12  C   UNL A   1      39.011  33.063  35.322  1.00  0.00     0.125 A 
BRANCH  12  13
ATOM     13  N   UNL A   1      39.956  32.396  36.103  1.00  0.00    -0.235 N 
ATOM     14  C   UNL A   1      40.591  31.347  35.699  1.00  0.00     0.320 C 
ATOM     15  H   UNL A   1      40.148  32.741  37.005  1.00  0.00     0.313 HD
ATOM     16  S   UNL A   1      40.283  30.384  34.283  1.00  0.00    -0.022 SA
ATOM     17  N   UNL A   1      41.678  30.868  36.380  1.00  0.00    -0.186 N 
ATOM     18  C   UNL A   1      41.366  29.035  34.864  1.00  0.00     0.178 C 
ATOM     19  C   UNL A   1      42.235  29.688  35.931  1.00  0.00     0.324 C 
ATOM     20  O   UNL A   1      43.250  29.187  36.402  1.00  0.00    -0.245 OA
BRANCH  17  21
ATOM     21  C   UNL A   1      42.274  31.596  37.496  1.00  0.00     0.283 C 
BRANCH  21  22
ATOM     22  C   UNL A   1      43.307  32.619  37.062  1.00  0.00    -0.006 A 
ATOM     23  C   UNL A   1      43.168  33.976  37.383  1.00  0.00     0.008 A 
ATOM     24  C   UNL A   1      44.439  32.219  36.335  1.00  0.00     0.008 A 
ATOM     25  C   UNL A   1      44.142  34.900  36.992  1.00  0.00     0.000 A 
ATOM     26  C   UNL A   1      45.428  33.135  35.975  1.00  0.00     0.000 A 
ATOM     27  C   UNL A   1      45.278  34.479  36.300  1.00  0.00     0.000 A 
ENDBRANCH  21  22
ENDBRANCH  17  21
BRANCH  18  28
ATOM     28  C   UNL A   1      42.130  28.403  33.700  1.00  0.00     0.063 C 
BRANCH  28  29
ATOM     29  C   UNL A   1      42.676  27.019  33.988  1.00  0.00    -0.046 A 
ATOM     30  C   UNL A   1      43.822  26.572  33.312  1.00  0.00     0.007 A 
ATOM     31  C   UNL A   1      42.049  26.159  34.904  1.00  0.00     0.007 A 
ATOM     32  C   UNL A   1      44.352  25.307  33.571  1.00  0.00     0.039 A 
ATOM     33  C   UNL A   1      42.584  24.896  35.165  1.00  0.00     0.039 A 
ATOM     34  C   UNL A   1      43.734  24.484  34.502  1.00  0.00     0.123 A 
ATOM     35  F   UNL A   1      44.251  23.276  34.765  1.00  0.00    -0.207 F 
ENDBRANCH  28  29
ENDBRANCH  18  28
ENDBRANCH  12  13
ENDBRANCH   5   7
ENDBRANCH   2   3
ENDBRANCH   1   2
BRANCH   1  36
ATOM     36  C   UNL A   1      34.989  33.035  28.774  1.00  0.00     0.118 C 
BRANCH  36  37
ATOM     37  N   UNL A   1      34.150  32.040  28.116  1.00  0.00    -0.352 N 
ATOM     38  C   UNL A   1      34.446  30.769  27.682  1.00  0.00     0.251 C 
ATOM     39  H   UNL A   1      33.222  32.325  27.955  1.00  0.00     0.163 HD
ATOM     40  O   UNL A   1      33.633  30.163  26.989  1.00  0.00    -0.269 OA
BRANCH  38  41
ATOM     41  C   UNL A   1      35.744  30.146  28.017  1.00  0.00     0.039 A 
ATOM     42  C   UNL A   1      36.770  30.162  27.067  1.00  0.00     0.014 A 
ATOM     43  C   UNL A   1      35.957  29.549  29.261  1.00  0.00     0.014 A 
ATOM     44  C   UNL A   1      38.036  29.674  27.405  1.00  0.00     0.010 A 
ATOM     45  C   UNL A   1      37.237  29.143  29.625  1.00  0.00     0.010 A 
ATOM     46  C   UNL A   1      38.294  29.215  28.705  1.00  0.00    -0.014 A 
BRANCH  46  47
ATOM     47  C   UNL A   1      39.660  28.830  29.146  1.00  0.00     0.031 A 
ATOM     48  C   UNL A   1      40.537  29.830  29.848  1.00  0.00     0.074 A 
ATOM     49  C   UNL A   1      40.142  27.611  28.831  1.00  0.00     0.049 A 
ATOM     50  N   UNL A   1      41.799  29.733  30.176  1.00  0.00    -0.248 NA
ATOM     51  C   UNL A   1      39.920  31.118  30.209  1.00  0.00     0.031 C 
ATOM     52  C   UNL A   1      39.403  26.556  28.132  1.00  0.00     0.029 A 
ATOM     53  N   UNL A   1      41.381  27.056  29.044  1.00  0.00    -0.354 N 
ATOM     54  C   UNL A   1      42.131  30.945  30.769  1.00  0.00     0.074 A 
ATOM     55  C   UNL A   1      40.951  31.781  30.714  1.00  0.00     0.031 C 
ATOM     56  C   UNL A   1      40.193  25.480  27.993  1.00  0.00     0.029 A 
ATOM     57  C   UNL A   1      41.510  25.782  28.542  1.00  0.00     0.049 A 
ATOM     58  H   UNL A   1      42.108  27.526  29.513  1.00  0.00     0.167 HD
ATOM     59  C   UNL A   1      43.306  31.321  31.328  1.00  0.00     0.031 A 
ATOM     60  C   UNL A   1      42.574  24.956  28.505  1.00  0.00     0.031 A 
ATOM     61  C   UNL A   1      44.476  30.486  31.390  1.00  0.00     0.049 A 
ATOM     62  C   UNL A   1      43.884  25.422  29.081  1.00  0.00     0.074 A 
ATOM     63  C   UNL A   1      45.702  30.767  31.967  1.00  0.00     0.029 A 
ATOM     64  N   UNL A   1      44.565  29.209  30.861  1.00  0.00    -0.354 N 
ATOM     65  N   UNL A   1      44.166  26.558  29.670  1.00  0.00    -0.248 NA
ATOM     66  C   UNL A   1      45.021  24.495  28.981  1.00  0.00     0.031 C 
ATOM     67  C   UNL A   1      46.547  29.675  31.748  1.00  0.00     0.029 A 
ATOM     68  C   UNL A   1      45.832  28.696  31.079  1.00  0.00     0.049 A 
ATOM     69  H   UNL A   1      43.835  28.736  30.399  1.00  0.00     0.167 HD
ATOM     70  C   UNL A   1      45.506  26.474  30.031  1.00  0.00     0.074 A 
ATOM     71  C   UNL A   1      45.974  25.170  29.608  1.00  0.00     0.031 C 
ATOM     72  C   UNL A   1      46.280  27.394  30.656  1.00  0.00     0.031 A 
BRANCH  59  73
ATOM     73  C   UNL A   1      43.383  32.701  31.924  1.00  0.00    -0.014 A 
ATOM     74  C   UNL A   1      44.058  33.737  31.255  1.00  0.00     0.010 A 
ATOM     75  C   UNL A   1      42.729  32.981  33.138  1.00  0.00     0.010 A 
ATOM     76  C   UNL A   1      44.106  35.021  31.803  1.00  0.00     0.020 A 
ATOM     77  C   UNL A   1      42.752  34.271  33.677  1.00  0.00     0.020 A 
ATOM     78  C   UNL A   1      43.453  35.280  33.011  1.00  0.00     0.054 A 
BRANCH  78  79
ATOM     79  S   UNL A   1      43.502  36.964  33.680  1.00  0.00     0.124 S 
ATOM     80  O   UNL A   1      43.285  37.771  32.481  1.00  0.00    -0.237 OA
ATOM     81  O   UNL A   1      42.403  36.961  34.641  1.00  0.00    -0.237 OA
ATOM     82  O   UNL A   1      44.838  37.067  34.264  1.00  0.00    -0.744 OA
ENDBRANCH  78  79
ENDBRANCH  59  73
BRANCH  60  83
ATOM     83  C   UNL A   1      42.458  23.606  27.889  1.00  0.00    -0.014 A 
ATOM     84  C   UNL A   1      42.018  22.513  28.654  1.00  0.00     0.010 A 
ATOM     85  C   UNL A   1      42.802  23.404  26.540  1.00  0.00     0.010 A 
ATOM     86  C   UNL A   1      41.951  21.235  28.091  1.00  0.00     0.020 A 
ATOM     87  C   UNL A   1      42.709  22.133  25.965  1.00  0.00     0.020 A 
ATOM     88  C   UNL A   1      42.299  21.054  26.750  1.00  0.00     0.054 A 
BRANCH  88  89
ATOM     89  S   UNL A   1      42.177  19.393  26.029  1.00  0.00     0.124 S 
ATOM     90  O   UNL A   1      40.742  19.264  25.806  1.00  0.00    -0.237 OA
ATOM     91  O   UNL A   1      42.999  19.508  24.826  1.00  0.00    -0.237 OA
ATOM     92  O   UNL A   1      42.733  18.531  27.070  1.00  0.00    -0.744 OA
ENDBRANCH  88  89
ENDBRANCH  60  83
BRANCH  72  93
ATOM     93  C   UNL A   1      47.708  27.021  30.945  1.00  0.00    -0.014 A 
ATOM     94  C   UNL A   1      48.732  27.320  30.029  1.00  0.00     0.010 A 
ATOM     95  C   UNL A   1      48.037  26.435  32.181  1.00  0.00     0.010 A 
ATOM     96  C   UNL A   1      50.061  27.026  30.341  1.00  0.00     0.020 A 
ATOM     97  C   UNL A   1      49.369  26.164  32.505  1.00  0.00     0.020 A 
ATOM     98  C   UNL A   1      50.372  26.455  31.578  1.00  0.00     0.054 A 
BRANCH  98  99
ATOM     99  S   UNL A   1      52.114  26.153  31.988  1.00  0.00     0.124 S 
ATOM    100  O   UNL A   1      52.218  24.705  31.828  1.00  0.00    -0.237 OA
ATOM    101  O   UNL A   1      52.821  26.949  30.986  1.00  0.00    -0.237 OA
ATOM    102  O   UNL A   1      52.237  26.639  33.360  1.00  0.00    -0.744 OA
ENDBRANCH  98  99
ENDBRANCH  72  93
ENDBRANCH  46  47
ENDBRANCH  38  41
ENDBRANCH  36  37
ENDBRANCH   1  36
TORSDOF 18
ENDMDL
MODEL 2
REMARK VINA RESULT:      -9.2      5.281     12.578
REMARK SMILES O=C(NCCCNC(=O)c1ccc(-c2c3nc(c(-c4ccc(S(=O)(=O)[O-])cc4)c4ccc([nH]4)c(-c4ccc(S(=O)(=O)[O-])cc4)c4nc(c(-c5ccc(S(=O)(=O)[O-])cc5)c5ccc2[nH]5)C=C4)C=C3)cc1)c1ccc(/[NH+]=C2\S[C@@H](Cc3ccc(F)cc3)C(=O)N2Cc2ccccc2)cc1
REMARK SMILES IDX 5 1 4 2 3 3 1 4 2 5 70 7 71 8 97 9 72 10 96 11 73 12 74 13
REMARK SMILES IDX 75 14 76 16 88 17 77 18 86 19 87 20 89 21 90 22 91 23 95 24
REMARK SMILES IDX 92 25 94 26 93 27 78 28 79 29 80 30 85 31 81 32 84 33 82 34
REMARK SMILES IDX 83 35 6 36 7 37 8 38 9 40 10 41 11 42 69 43 12 44 68 45
REMARK SMILES IDX 13 46 14 47 15 48 62 49 16 50 67 51 61 52 63 53 17 54 66 55
REMARK SMILES IDX 60 56 59 57 18 59 48 60 29 61 47 62 30 63 33 64 46 65 64 66
REMARK SMILES IDX 31 67 32 68 45 70 65 71 34 72 19 73 20 74 28 75 21 76 27 77
REMARK SMILES IDX 22 78 23 79 24 80 25 81 26 82 49 83 50 84 58 85 51 86 57 87
REMARK SMILES IDX 52 88 53 89 54 90 55 91 56 92 35 93 36 94 44 95 37 96 43 97
REMARK SMILES IDX 38 98 39 99 40 100 41 101 42 102
REMARK H PARENT 3 6 74 15 7 39 63 58 33 69
REMARK Flexibility Score: inf
ROOT
ATOM      1  C   UNL A   1      43.768  23.494  26.021  1.00  0.00     0.042 C 
ENDROOT
BRANCH   1   2
ATOM      2  C   UNL A   1      42.553  22.716  25.539  1.00  0.00     0.118 C 
BRANCH   2   3
ATOM      3  N   UNL A   1      42.169  21.643  26.451  1.00  0.00    -0.352 N 
ATOM      4  O   UNL A   1      40.872  20.502  27.902  1.00  0.00    -0.269 OA
ATOM      5  C   UNL A   1      40.954  21.356  27.022  1.00  0.00     0.251 C 
ATOM      6  H   UNL A   1      42.897  21.026  26.694  1.00  0.00     0.163 HD
BRANCH   5   7
ATOM      7  C   UNL A   1      39.739  22.072  26.584  1.00  0.00     0.040 A 
ATOM      8  C   UNL A   1      39.488  23.366  27.034  1.00  0.00     0.018 A 
ATOM      9  C   UNL A   1      38.853  21.460  25.689  1.00  0.00     0.018 A 
ATOM     10  C   UNL A   1      38.284  23.980  26.713  1.00  0.00     0.052 A 
ATOM     11  C   UNL A   1      37.667  22.111  25.324  1.00  0.00     0.052 A 
ATOM     12  C   UNL A   1      37.352  23.353  25.879  1.00  0.00     0.125 A 
BRANCH  12  13
ATOM     13  N   UNL A   1      36.191  24.073  25.592  1.00  0.00    -0.235 N 
ATOM     14  C   UNL A   1      35.047  23.512  25.390  1.00  0.00     0.320 C 
ATOM     15  H   UNL A   1      36.249  25.055  25.542  1.00  0.00     0.313 HD
ATOM     16  S   UNL A   1      34.702  21.821  25.171  1.00  0.00    -0.022 SA
ATOM     17  N   UNL A   1      33.892  24.248  25.359  1.00  0.00    -0.186 N 
ATOM     18  C   UNL A   1      33.011  22.160  24.572  1.00  0.00     0.178 C 
ATOM     19  C   UNL A   1      32.726  23.580  25.042  1.00  0.00     0.324 C 
ATOM     20  O   UNL A   1      31.616  24.099  25.048  1.00  0.00    -0.245 OA
BRANCH  17  21
ATOM     21  C   UNL A   1      33.867  25.664  25.708  1.00  0.00     0.283 C 
BRANCH  21  22
ATOM     22  C   UNL A   1      33.774  26.578  24.500  1.00  0.00    -0.006 A 
ATOM     23  C   UNL A   1      33.674  26.062  23.202  1.00  0.00     0.008 A 
ATOM     24  C   UNL A   1      33.775  27.972  24.665  1.00  0.00     0.008 A 
ATOM     25  C   UNL A   1      33.568  26.922  22.103  1.00  0.00     0.000 A 
ATOM     26  C   UNL A   1      33.634  28.830  23.573  1.00  0.00     0.000 A 
ATOM     27  C   UNL A   1      33.535  28.304  22.289  1.00  0.00     0.000 A 
ENDBRANCH  21  22
ENDBRANCH  17  21
BRANCH  18  28
ATOM     28  C   UNL A   1      32.029  21.099  25.071  1.00  0.00     0.063 C 
BRANCH  28  29
ATOM     29  C   UNL A   1      32.394  19.679  24.689  1.00  0.00    -0.046 A 
ATOM     30  C   UNL A   1      32.727  18.755  25.692  1.00  0.00     0.007 A 
ATOM     31  C   UNL A   1      32.426  19.266  23.348  1.00  0.00     0.007 A 
ATOM     32  C   UNL A   1      33.052  17.438  25.366  1.00  0.00     0.039 A 
ATOM     33  C   UNL A   1      32.747  17.946  23.024  1.00  0.00     0.039 A 
ATOM     34  C   UNL A   1      33.050  17.043  24.036  1.00  0.00     0.123 A 
ATOM     35  F   UNL A   1      33.346  15.774  23.722  1.00  0.00    -0.207 F 
ENDBRANCH  28  29
ENDBRANCH  18  28
ENDBRANCH  12  13
ENDBRANCH   5   7
ENDBRANCH   2   3
ENDBRANCH   1   2
BRANCH   1  36
ATOM     36  C   UNL A   1      43.458  24.916  26.467  1.00  0.00     0.118 C 
BRANCH  36  37
ATOM     37  N   UNL A   1      43.388  25.856  25.355  1.00  0.00    -0.352 N 
ATOM     38  C   UNL A   1      42.818  27.105  25.276  1.00  0.00     0.251 C 
ATOM     39  H   UNL A   1      43.818  25.547  24.525  1.00  0.00     0.163 HD
ATOM     40  O   UNL A   1      42.719  27.657  24.183  1.00  0.00    -0.269 OA
BRANCH  38  41
ATOM     41  C   UNL A   1      42.298  27.770  26.490  1.00  0.00     0.039 A 
ATOM     42  C   UNL A   1      41.381  27.089  27.297  1.00  0.00     0.014 A 
ATOM     43  C   UNL A   1      42.710  29.057  26.840  1.00  0.00     0.014 A 
ATOM     44  C   UNL A   1      40.962  27.657  28.504  1.00  0.00     0.010 A 
ATOM     45  C   UNL A   1      42.360  29.584  28.079  1.00  0.00     0.010 A 
ATOM     46  C   UNL A   1      41.494  28.883  28.931  1.00  0.00    -0.014 A 
BRANCH  46  47
ATOM     47  C   UNL A   1      41.189  29.446  30.272  1.00  0.00     0.031 A 
ATOM     48  C   UNL A   1      40.041  30.401  30.447  1.00  0.00     0.074 A 
ATOM     49  C   UNL A   1      42.005  29.170  31.310  1.00  0.00     0.049 A 
ATOM     50  N   UNL A   1      39.708  31.106  31.497  1.00  0.00    -0.248 NA
ATOM     51  C   UNL A   1      39.163  30.607  29.283  1.00  0.00     0.031 C 
ATOM     52  C   UNL A   1      43.166  28.278  31.268  1.00  0.00     0.029 A 
ATOM     53  N   UNL A   1      41.990  29.627  32.606  1.00  0.00    -0.354 N 
ATOM     54  C   UNL A   1      38.595  31.847  31.119  1.00  0.00     0.074 A 
ATOM     55  C   UNL A   1      38.335  31.541  29.729  1.00  0.00     0.031 C 
ATOM     56  C   UNL A   1      43.737  28.238  32.482  1.00  0.00     0.029 A 
ATOM     57  C   UNL A   1      43.019  29.140  33.376  1.00  0.00     0.049 A 
ATOM     58  H   UNL A   1      41.305  30.245  32.951  1.00  0.00     0.167 HD
ATOM     59  C   UNL A   1      37.844  32.690  31.867  1.00  0.00     0.031 A 
ATOM     60  C   UNL A   1      43.364  29.405  34.651  1.00  0.00     0.031 A 
ATOM     61  C   UNL A   1      38.097  32.987  33.252  1.00  0.00     0.049 A 
ATOM     62  C   UNL A   1      42.546  30.390  35.442  1.00  0.00     0.074 A 
ATOM     63  C   UNL A   1      37.371  33.801  34.103  1.00  0.00     0.029 A 
ATOM     64  N   UNL A   1      39.156  32.479  33.988  1.00  0.00    -0.354 N 
ATOM     65  N   UNL A   1      41.475  31.051  35.077  1.00  0.00    -0.248 NA
ATOM     66  C   UNL A   1      42.989  30.669  36.816  1.00  0.00     0.031 C 
ATOM     67  C   UNL A   1      38.016  33.820  35.344  1.00  0.00     0.029 A 
ATOM     68  C   UNL A   1      39.115  32.980  35.278  1.00  0.00     0.049 A 
ATOM     69  H   UNL A   1      39.836  31.855  33.645  1.00  0.00     0.167 HD
ATOM     70  C   UNL A   1      41.102  31.806  36.183  1.00  0.00     0.074 A 
ATOM     71  C   UNL A   1      42.052  31.510  37.234  1.00  0.00     0.031 C 
ATOM     72  C   UNL A   1      40.066  32.670  36.314  1.00  0.00     0.031 A 
BRANCH  59  73
ATOM     73  C   UNL A   1      36.666  33.350  31.202  1.00  0.00    -0.014 A 
ATOM     74  C   UNL A   1      35.367  33.189  31.715  1.00  0.00     0.010 A 
ATOM     75  C   UNL A   1      36.864  34.184  30.086  1.00  0.00     0.010 A 
ATOM     76  C   UNL A   1      34.282  33.823  31.107  1.00  0.00     0.020 A 
ATOM     77  C   UNL A   1      35.783  34.842  29.490  1.00  0.00     0.020 A 
ATOM     78  C   UNL A   1      34.496  34.645  29.997  1.00  0.00     0.054 A 
BRANCH  78  79
ATOM     79  S   UNL A   1      33.072  35.483  29.251  1.00  0.00     0.124 S 
ATOM     80  O   UNL A   1      32.497  34.422  28.427  1.00  0.00    -0.237 OA
ATOM     81  O   UNL A   1      32.281  35.872  30.415  1.00  0.00    -0.237 OA
ATOM     82  O   UNL A   1      33.670  36.591  28.508  1.00  0.00    -0.744 OA
ENDBRANCH  78  79
ENDBRANCH  59  73
BRANCH  60  83
ATOM     83  C   UNL A   1      44.547  28.742  35.265  1.00  0.00    -0.014 A 
ATOM     84  C   UNL A   1      45.821  29.324  35.160  1.00  0.00     0.010 A 
ATOM     85  C   UNL A   1      44.407  27.517  35.944  1.00  0.00     0.010 A 
ATOM     86  C   UNL A   1      46.941  28.682  35.697  1.00  0.00     0.020 A 
ATOM     87  C   UNL A   1      45.520  26.885  36.506  1.00  0.00     0.020 A 
ATOM     88  C   UNL A   1      46.782  27.464  36.365  1.00  0.00     0.054 A 
BRANCH  88  89
ATOM     89  S   UNL A   1      48.243  26.659  37.080  1.00  0.00     0.124 S 
ATOM     90  O   UNL A   1      49.169  27.777  37.215  1.00  0.00    -0.237 OA
ATOM     91  O   UNL A   1      47.722  26.110  38.330  1.00  0.00    -0.237 OA
ATOM     92  O   UNL A   1      48.604  25.661  36.075  1.00  0.00    -0.744 OA
ENDBRANCH  88  89
ENDBRANCH  60  83
BRANCH  72  93
ATOM     93  C   UNL A   1      39.886  33.341  37.648  1.00  0.00    -0.014 A 
ATOM     94  C   UNL A   1      40.504  34.572  37.927  1.00  0.00     0.010 A 
ATOM     95  C   UNL A   1      39.025  32.770  38.604  1.00  0.00     0.010 A 
ATOM     96  C   UNL A   1      40.274  35.215  39.145  1.00  0.00     0.020 A 
ATOM     97  C   UNL A   1      38.774  33.423  39.813  1.00  0.00     0.020 A 
ATOM     98  C   UNL A   1      39.407  34.639  40.079  1.00  0.00     0.054 A 
BRANCH  98  99
ATOM     99  S   UNL A   1      39.067  35.531  41.621  1.00  0.00     0.124 S 
ATOM    100  O   UNL A   1      39.908  36.717  41.478  1.00  0.00    -0.237 OA
ATOM    101  O   UNL A   1      37.627  35.769  41.544  1.00  0.00    -0.237 OA
ATOM    102  O   UNL A   1      39.483  34.595  42.663  1.00  0.00    -0.744 OA
ENDBRANCH  98  99
ENDBRANCH  72  93
ENDBRANCH  46  47
ENDBRANCH  38  41
ENDBRANCH  36  37
ENDBRANCH   1  36
TORSDOF 18
ENDMDL
MODEL 3
REMARK VINA RESULT:      -9.2      0.707      7.782
REMARK SMILES O=C(NCCCNC(=O)c1ccc(-c2c3nc(c(-c4ccc(S(=O)(=O)[O-])cc4)c4ccc([nH]4)c(-c4ccc(S(=O)(=O)[O-])cc4)c4nc(c(-c5ccc(S(=O)(=O)[O-])cc5)c5ccc2[nH]5)C=C4)C=C3)cc1)c1ccc(/[NH+]=C2\S[C@@H](Cc3ccc(F)cc3)C(=O)N2Cc2ccccc2)cc1
REMARK SMILES IDX 5 1 4 2 3 3 1 4 2 5 70 7 71 8 97 9 72 10 96 11 73 12 74 13
REMARK SMILES IDX 75 14 76 16 88 17 77 18 86 19 87 20 89 21 90 22 91 23 95 24
REMARK SMILES IDX 92 25 94 26 93 27 78 28 79 29 80 30 85 31 81 32 84 33 82 34
REMARK SMILES IDX 83 35 6 36 7 37 8 38 9 40 10 41 11 42 69 43 12 44 68 45
REMARK SMILES IDX 13 46 14 47 15 48 62 49 16 50 67 51 61 52 63 53 17 54 66 55
REMARK SMILES IDX 60 56 59 57 18 59 48 60 29 61 47 62 30 63 33 64 46 65 64 66
REMARK SMILES IDX 31 67 32 68 45 70 65 71 34 72 19 73 20 74 28 75 21 76 27 77
REMARK SMILES IDX 22 78 23 79 24 80 25 81 26 82 49 83 50 84 58 85 51 86 57 87
REMARK SMILES IDX 52 88 53 89 54 90 55 91 56 92 35 93 36 94 44 95 37 96 43 97
REMARK SMILES IDX 38 98 39 99 40 100 41 101 42 102
REMARK H PARENT 3 6 74 15 7 39 63 58 33 69
REMARK Flexibility Score: inf
ROOT
ATOM      1  C   UNL A   1      34.784  32.607  30.464  1.00  0.00     0.042 C 
ENDROOT
BRANCH   1   2
ATOM      2  C   UNL A   1      35.965  33.413  30.982  1.00  0.00     0.118 C 
BRANCH   2   3
ATOM      3  N   UNL A   1      35.558  34.621  31.694  1.00  0.00    -0.352 N 
ATOM      4  O   UNL A   1      35.292  36.023  33.442  1.00  0.00    -0.269 OA
ATOM      5  C   UNL A   1      35.875  35.055  32.958  1.00  0.00     0.251 C 
ATOM      6  H   UNL A   1      34.963  35.220  31.188  1.00  0.00     0.163 HD
BRANCH   5   7
ATOM      7  C   UNL A   1      36.915  34.362  33.744  1.00  0.00     0.040 A 
ATOM      8  C   UNL A   1      36.554  33.491  34.770  1.00  0.00     0.018 A 
ATOM      9  C   UNL A   1      38.267  34.555  33.436  1.00  0.00     0.018 A 
ATOM     10  C   UNL A   1      37.540  32.942  35.579  1.00  0.00     0.052 A 
ATOM     11  C   UNL A   1      39.257  33.950  34.222  1.00  0.00     0.052 A 
ATOM     12  C   UNL A   1      38.896  33.184  35.332  1.00  0.00     0.125 A 
BRANCH  12  13
ATOM     13  N   UNL A   1      39.804  32.554  36.185  1.00  0.00    -0.235 N 
ATOM     14  C   UNL A   1      40.463  31.496  35.853  1.00  0.00     0.320 C 
ATOM     15  H   UNL A   1      39.949  32.935  37.081  1.00  0.00     0.313 HD
ATOM     16  S   UNL A   1      40.231  30.477  34.461  1.00  0.00    -0.022 SA
ATOM     17  N   UNL A   1      41.518  31.051  36.605  1.00  0.00    -0.186 N 
ATOM     18  C   UNL A   1      41.292  29.159  35.147  1.00  0.00     0.178 C 
ATOM     19  C   UNL A   1      42.104  29.859  36.229  1.00  0.00     0.324 C 
ATOM     20  O   UNL A   1      43.096  29.383  36.769  1.00  0.00    -0.245 OA
BRANCH  17  21
ATOM     21  C   UNL A   1      42.054  31.825  37.720  1.00  0.00     0.283 C 
BRANCH  21  22
ATOM     22  C   UNL A   1      43.213  32.722  37.326  1.00  0.00    -0.006 A 
ATOM     23  C   UNL A   1      44.262  32.247  36.529  1.00  0.00     0.008 A 
ATOM     24  C   UNL A   1      43.249  34.060  37.748  1.00  0.00     0.008 A 
ATOM     25  C   UNL A   1      45.312  33.096  36.160  1.00  0.00     0.000 A 
ATOM     26  C   UNL A   1      44.277  34.916  37.351  1.00  0.00     0.000 A 
ATOM     27  C   UNL A   1      45.312  34.432  36.559  1.00  0.00     0.000 A 
ENDBRANCH  21  22
ENDBRANCH  17  21
BRANCH  18  28
ATOM     28  C   UNL A   1      42.116  28.489  34.046  1.00  0.00     0.063 C 
BRANCH  28  29
ATOM     29  C   UNL A   1      42.458  27.038  34.317  1.00  0.00    -0.046 A 
ATOM     30  C   UNL A   1      43.562  26.455  33.675  1.00  0.00     0.007 A 
ATOM     31  C   UNL A   1      41.684  26.251  35.185  1.00  0.00     0.007 A 
ATOM     32  C   UNL A   1      43.906  25.125  33.920  1.00  0.00     0.039 A 
ATOM     33  C   UNL A   1      42.033  24.922  35.432  1.00  0.00     0.039 A 
ATOM     34  C   UNL A   1      43.144  24.373  34.803  1.00  0.00     0.123 A 
ATOM     35  F   UNL A   1      43.482  23.100  35.052  1.00  0.00    -0.207 F 
ENDBRANCH  28  29
ENDBRANCH  18  28
ENDBRANCH  12  13
ENDBRANCH   5   7
ENDBRANCH   2   3
ENDBRANCH   1   2
BRANCH   1  36
ATOM     36  C   UNL A   1      34.524  32.775  28.974  1.00  0.00     0.118 C 
BRANCH  36  37
ATOM     37  N   UNL A   1      33.793  31.653  28.397  1.00  0.00    -0.352 N 
ATOM     38  C   UNL A   1      34.234  30.419  27.981  1.00  0.00     0.251 C 
ATOM     39  H   UNL A   1      32.826  31.803  28.286  1.00  0.00     0.163 HD
ATOM     40  O   UNL A   1      33.473  29.684  27.356  1.00  0.00    -0.269 OA
BRANCH  38  41
ATOM     41  C   UNL A   1      35.622  29.988  28.252  1.00  0.00     0.039 A 
ATOM     42  C   UNL A   1      36.584  30.125  27.247  1.00  0.00     0.014 A 
ATOM     43  C   UNL A   1      35.982  29.455  29.491  1.00  0.00     0.014 A 
ATOM     44  C   UNL A   1      37.922  29.825  27.520  1.00  0.00     0.010 A 
ATOM     45  C   UNL A   1      37.323  29.238  29.789  1.00  0.00     0.010 A 
ATOM     46  C   UNL A   1      38.310  29.434  28.811  1.00  0.00    -0.014 A 
BRANCH  46  47
ATOM     47  C   UNL A   1      39.737  29.252  29.180  1.00  0.00     0.031 A 
ATOM     48  C   UNL A   1      40.426  27.942  28.913  1.00  0.00     0.074 A 
ATOM     49  C   UNL A   1      40.384  30.234  29.841  1.00  0.00     0.049 A 
ATOM     50  N   UNL A   1      41.612  27.542  29.291  1.00  0.00    -0.248 NA
ATOM     51  C   UNL A   1      39.674  26.941  28.137  1.00  0.00     0.031 C 
ATOM     52  C   UNL A   1      39.824  31.544  30.183  1.00  0.00     0.029 A 
ATOM     53  N   UNL A   1      41.656  30.277  30.359  1.00  0.00    -0.354 N 
ATOM     54  C   UNL A   1      41.745  26.245  28.812  1.00  0.00     0.074 A 
ATOM     55  C   UNL A   1      40.501  25.906  28.156  1.00  0.00     0.031 C 
ATOM     56  C   UNL A   1      40.750  32.266  30.833  1.00  0.00     0.029 A 
ATOM     57  C   UNL A   1      41.951  31.455  31.004  1.00  0.00     0.049 A 
ATOM     58  H   UNL A   1      42.296  29.533  30.276  1.00  0.00     0.167 HD
ATOM     59  C   UNL A   1      42.814  25.416  28.893  1.00  0.00     0.031 A 
ATOM     60  C   UNL A   1      43.054  31.835  31.678  1.00  0.00     0.031 A 
ATOM     61  C   UNL A   1      44.054  25.757  29.538  1.00  0.00     0.049 A 
ATOM     62  C   UNL A   1      44.205  30.874  31.803  1.00  0.00     0.074 A 
ATOM     63  C   UNL A   1      45.206  24.997  29.640  1.00  0.00     0.029 A 
ATOM     64  N   UNL A   1      44.305  26.956  30.185  1.00  0.00    -0.354 N 
ATOM     65  N   UNL A   1      44.324  29.665  31.310  1.00  0.00    -0.248 NA
ATOM     66  C   UNL A   1      45.368  31.327  32.579  1.00  0.00     0.031 C 
ATOM     67  C   UNL A   1      46.140  25.721  30.389  1.00  0.00     0.029 A 
ATOM     68  C   UNL A   1      45.586  26.949  30.710  1.00  0.00     0.049 A 
ATOM     69  H   UNL A   1      43.667  27.702  30.262  1.00  0.00     0.167 HD
ATOM     70  C   UNL A   1      45.583  29.222  31.698  1.00  0.00     0.074 A 
ATOM     71  C   UNL A   1      46.193  30.297  32.453  1.00  0.00     0.031 C 
ATOM     72  C   UNL A   1      46.180  28.030  31.453  1.00  0.00     0.031 A 
BRANCH  59  73
ATOM     73  C   UNL A   1      42.690  24.057  28.261  1.00  0.00    -0.014 A 
ATOM     74  C   UNL A   1      42.253  22.951  29.012  1.00  0.00     0.010 A 
ATOM     75  C   UNL A   1      42.960  23.890  26.890  1.00  0.00     0.010 A 
ATOM     76  C   UNL A   1      42.118  21.697  28.413  1.00  0.00     0.020 A 
ATOM     77  C   UNL A   1      42.801  22.641  26.280  1.00  0.00     0.020 A 
ATOM     78  C   UNL A   1      42.394  21.549  27.051  1.00  0.00     0.054 A 
BRANCH  78  79
ATOM     79  S   UNL A   1      42.176  19.916  26.294  1.00  0.00     0.124 S 
ATOM     80  O   UNL A   1      40.765  19.945  25.916  1.00  0.00    -0.237 OA
ATOM     81  O   UNL A   1      43.123  19.948  25.182  1.00  0.00    -0.237 OA
ATOM     82  O   UNL A   1      42.513  18.986  27.369  1.00  0.00    -0.744 OA
ENDBRANCH  78  79
ENDBRANCH  59  73
BRANCH  60  83
ATOM     83  C   UNL A   1      43.127  33.184  32.303  1.00  0.00    -0.014 A 
ATOM     84  C   UNL A   1      43.763  34.243  31.634  1.00  0.00     0.010 A 
ATOM     85  C   UNL A   1      42.575  33.412  33.577  1.00  0.00     0.010 A 
ATOM     86  C   UNL A   1      43.872  35.500  32.237  1.00  0.00     0.020 A 
ATOM     87  C   UNL A   1      42.657  34.674  34.172  1.00  0.00     0.020 A 
ATOM     88  C   UNL A   1      43.319  35.706  33.504  1.00  0.00     0.054 A 
BRANCH  88  89
ATOM     89  S   UNL A   1      43.446  37.351  34.259  1.00  0.00     0.124 S 
ATOM     90  O   UNL A   1      44.857  37.409  34.623  1.00  0.00    -0.237 OA
ATOM     91  O   UNL A   1      43.034  38.233  33.169  1.00  0.00    -0.237 OA
ATOM     92  O   UNL A   1      42.509  37.282  35.379  1.00  0.00    -0.744 OA
ENDBRANCH  88  89
ENDBRANCH  60  83
BRANCH  72  93
ATOM     93  C   UNL A   1      47.573  27.829  31.983  1.00  0.00    -0.014 A 
ATOM     94  C   UNL A   1      47.790  27.237  33.239  1.00  0.00     0.010 A 
ATOM     95  C   UNL A   1      48.678  28.164  31.178  1.00  0.00     0.010 A 
ATOM     96  C   UNL A   1      49.091  26.996  33.688  1.00  0.00     0.020 A 
ATOM     97  C   UNL A   1      49.979  27.901  31.615  1.00  0.00     0.020 A 
ATOM     98  C   UNL A   1      50.177  27.326  32.871  1.00  0.00     0.054 A 
BRANCH  98  99
ATOM     99  S   UNL A   1      51.852  26.933  33.447  1.00  0.00     0.124 S 
ATOM    100  O   UNL A   1      51.726  27.106  34.892  1.00  0.00    -0.237 OA
ATOM    101  O   UNL A   1      52.033  25.556  32.992  1.00  0.00    -0.237 OA
ATOM    102  O   UNL A   1      52.691  27.921  32.772  1.00  0.00    -0.744 OA
ENDBRANCH  98  99
ENDBRANCH  72  93
ENDBRANCH  46  47
ENDBRANCH  38  41
ENDBRANCH  36  37
ENDBRANCH   1  36
TORSDOF 18
ENDMDL
