MODEL 1
REMARK VINA RESULT:     -11.6      0.000      0.000
REMARK SMILES COc1ccc(NC(=O)/C(C#N)=C/c2cc(C)n(-c3ccc(C(=O)NCCCNC(=O)c4ccc(-c5c6nc(c(-c7ccc(S(=O)(=O)[O-])cc7)c7ccc([nH]7)c(-c7ccc(S(=O)(=O)[O-])cc7)c7nc(c(-c8ccc(S(=O)(=O)[O-])cc8)c8ccc5[nH]8)C=C7)C=C6)cc4)cc3)c2C)cc1
REMARK SMILES IDX 26 1 25 2 23 3 24 4 22 6 19 7 20 8 93 9 21 10 92 11 18 12
REMARK SMILES IDX 14 13 15 14 94 15 16 16 95 17 17 18 13 19 10 20 8 21 7 22
REMARK SMILES IDX 9 24 6 25 3 26 4 27 97 28 5 29 96 30 2 31 1 32 11 33 12 34
REMARK SMILES IDX 27 35 28 36 29 37 30 38 31 40 32 41 33 42 91 43 34 44 90 45
REMARK SMILES IDX 35 46 36 47 37 48 84 49 38 50 89 51 83 52 85 53 39 54 88 55
REMARK SMILES IDX 82 56 81 57 40 59 70 60 51 61 69 62 52 63 55 64 68 65 86 66
REMARK SMILES IDX 53 67 54 68 67 70 87 71 56 72 41 73 42 74 50 75 43 76 49 77
REMARK SMILES IDX 44 78 45 79 46 80 47 81 48 82 71 83 72 84 80 85 73 86 79 87
REMARK SMILES IDX 74 88 75 89 76 90 77 91 78 92 57 93 58 94 66 95 59 96 65 97
REMARK SMILES IDX 60 98 61 99 62 100 63 101 64 102
REMARK H PARENT 25 5 7 23 29 39 85 58 55 69
REMARK Flexibility Score: inf
ROOT
ATOM      1  C   UNL A   1      41.161  34.036  31.101  1.00  0.00     0.118 C 
ENDROOT
BRANCH   1   2
ATOM      2  N   UNL A   1      40.069  34.409  31.983  1.00  0.00    -0.352 N 
ATOM      3  C   UNL A   1      38.708  34.295  31.983  1.00  0.00     0.251 C 
ATOM      4  O   UNL A   1      38.130  34.817  32.943  1.00  0.00    -0.269 OA
ATOM      5  H   UNL A   1      40.396  34.862  32.794  1.00  0.00     0.163 HD
BRANCH   3   6
ATOM      6  C   UNL A   1      37.872  33.583  30.967  1.00  0.00     0.039 A 
ATOM      7  C   UNL A   1      36.149  32.123  29.271  1.00  0.00     0.046 A 
ATOM      8  C   UNL A   1      35.948  32.088  30.648  1.00  0.00     0.027 A 
ATOM      9  C   UNL A   1      37.184  32.895  28.733  1.00  0.00     0.027 A 
ATOM     10  C   UNL A   1      36.814  32.801  31.482  1.00  0.00     0.016 A 
ATOM     11  C   UNL A   1      38.025  33.639  29.580  1.00  0.00     0.016 A 
BRANCH   7  12
ATOM     12  N   UNL A   1      35.256  31.430  28.412  1.00  0.00    -0.318 N 
ATOM     13  C   UNL A   1      34.407  29.918  26.988  1.00  0.00    -0.003 A 
ATOM     14  C   UNL A   1      33.501  30.999  27.091  1.00  0.00     0.031 A 
ATOM     15  C   UNL A   1      35.455  30.165  27.858  1.00  0.00     0.027 A 
ATOM     16  C   UNL A   1      34.058  31.940  27.932  1.00  0.00     0.020 A 
ATOM     17  C   UNL A   1      36.611  29.297  28.234  1.00  0.00     0.065 C 
ATOM     18  C   UNL A   1      33.576  33.328  28.196  1.00  0.00     0.065 C 
BRANCH  13  19
ATOM     19  C   UNL A   1      34.291  28.787  26.117  1.00  0.00     0.035 C 
ATOM     20  C   UNL A   1      33.314  27.865  26.206  1.00  0.00     0.118 C 
BRANCH  20  21
ATOM     21  C   UNL A   1      33.176  26.683  25.268  1.00  0.00     0.266 C 
ATOM     22  N   UNL A   1      32.139  26.476  24.370  1.00  0.00    -0.321 N 
ATOM     23  H   UNL A   1      32.117  25.539  24.071  1.00  0.00     0.170 HD
ATOM     24  O   UNL A   1      33.981  25.749  25.387  1.00  0.00    -0.268 OA
BRANCH  22  25
ATOM     25  C   UNL A   1      31.097  27.228  23.754  1.00  0.00     0.041 A 
ATOM     26  C   UNL A   1      28.874  28.750  22.854  1.00  0.00     0.119 A 
ATOM     27  C   UNL A   1      30.172  29.164  22.589  1.00  0.00     0.048 A 
ATOM     28  C   UNL A   1      28.673  27.503  23.433  1.00  0.00     0.048 A 
ATOM     29  C   UNL A   1      31.271  28.375  22.985  1.00  0.00     0.030 A 
ATOM     30  C   UNL A   1      29.779  26.748  23.875  1.00  0.00     0.030 A 
BRANCH  26  31
ATOM     31  O   UNL A   1      27.843  29.538  22.425  1.00  0.00    -0.497 OA
ATOM     32  C   UNL A   1      27.647  30.699  23.236  1.00  0.00     0.278 C 
ENDBRANCH  26  31
ENDBRANCH  22  25
ENDBRANCH  20  21
BRANCH  20  33
ATOM     33  C   UNL A   1      32.217  27.972  27.252  1.00  0.00     0.105 C 
ATOM     34  N   UNL A   1      31.307  28.062  28.121  1.00  0.00    -0.192 NA
ENDBRANCH  20  33
ENDBRANCH  13  19
ENDBRANCH   7  12
ENDBRANCH   3   6
ENDBRANCH   1   2
BRANCH   1  35
ATOM     35  C   UNL A   1      42.066  35.227  30.754  1.00  0.00     0.042 C 
BRANCH  35  36
ATOM     36  C   UNL A   1      41.903  35.793  29.325  1.00  0.00     0.118 C 
BRANCH  36  37
ATOM     37  N   UNL A   1      43.144  36.231  28.723  1.00  0.00    -0.352 N 
ATOM     38  C   UNL A   1      44.054  35.504  27.978  1.00  0.00     0.251 C 
ATOM     39  H   UNL A   1      43.373  37.178  28.864  1.00  0.00     0.163 HD
ATOM     40  O   UNL A   1      45.091  36.075  27.649  1.00  0.00    -0.269 OA
BRANCH  38  41
ATOM     41  C   UNL A   1      43.884  34.036  27.697  1.00  0.00     0.039 A 
ATOM     42  C   UNL A   1      44.148  33.162  28.739  1.00  0.00     0.014 A 
ATOM     43  C   UNL A   1      43.717  33.467  26.421  1.00  0.00     0.014 A 
ATOM     44  C   UNL A   1      44.197  31.762  28.511  1.00  0.00     0.010 A 
ATOM     45  C   UNL A   1      43.856  32.038  26.181  1.00  0.00     0.010 A 
ATOM     46  C   UNL A   1      44.126  31.130  27.220  1.00  0.00    -0.014 A 
BRANCH  46  47
ATOM     47  C   UNL A   1      44.833  29.709  27.117  1.00  0.00     0.031 A 
ATOM     48  C   UNL A   1      43.721  28.798  26.718  1.00  0.00     0.074 A 
ATOM     49  C   UNL A   1      46.016  29.030  27.368  1.00  0.00     0.049 A 
ATOM     50  N   UNL A   1      42.659  28.709  27.464  1.00  0.00    -0.248 NA
ATOM     51  C   UNL A   1      43.565  28.289  25.354  1.00  0.00     0.031 C 
ATOM     52  C   UNL A   1      47.243  29.528  28.005  1.00  0.00     0.029 A 
ATOM     53  N   UNL A   1      46.409  27.688  27.090  1.00  0.00    -0.354 N 
ATOM     54  C   UNL A   1      41.777  27.915  26.781  1.00  0.00     0.074 A 
ATOM     55  C   UNL A   1      42.294  27.878  25.419  1.00  0.00     0.031 C 
ATOM     56  C   UNL A   1      48.250  28.606  27.939  1.00  0.00     0.029 A 
ATOM     57  C   UNL A   1      47.792  27.372  27.303  1.00  0.00     0.049 A 
ATOM     58  H   UNL A   1      45.767  27.017  26.769  1.00  0.00     0.167 HD
ATOM     59  C   UNL A   1      41.166  26.918  27.480  1.00  0.00     0.031 A 
ATOM     60  C   UNL A   1      48.499  26.203  27.053  1.00  0.00     0.031 A 
ATOM     61  C   UNL A   1      41.720  25.630  27.150  1.00  0.00     0.049 A 
ATOM     62  C   UNL A   1      47.507  25.116  27.050  1.00  0.00     0.074 A 
ATOM     63  C   UNL A   1      42.030  24.998  25.962  1.00  0.00     0.029 A 
ATOM     64  N   UNL A   1      42.482  25.028  28.131  1.00  0.00    -0.354 N 
ATOM     65  N   UNL A   1      47.012  24.647  28.154  1.00  0.00    -0.248 NA
ATOM     66  C   UNL A   1      47.113  24.413  25.834  1.00  0.00     0.031 C 
ATOM     67  C   UNL A   1      43.297  24.403  26.184  1.00  0.00     0.029 A 
ATOM     68  C   UNL A   1      43.577  24.422  27.544  1.00  0.00     0.049 A 
ATOM     69  H   UNL A   1      42.280  25.031  29.093  1.00  0.00     0.167 HD
ATOM     70  C   UNL A   1      45.915  23.953  27.740  1.00  0.00     0.074 A 
ATOM     71  C   UNL A   1      46.174  23.619  26.354  1.00  0.00     0.031 C 
ATOM     72  C   UNL A   1      44.740  24.190  28.373  1.00  0.00     0.031 A 
BRANCH  59  73
ATOM     73  C   UNL A   1      40.689  27.289  28.862  1.00  0.00    -0.014 A 
ATOM     74  C   UNL A   1      39.366  27.003  29.225  1.00  0.00     0.010 A 
ATOM     75  C   UNL A   1      41.495  28.007  29.775  1.00  0.00     0.010 A 
ATOM     76  C   UNL A   1      38.845  27.482  30.436  1.00  0.00     0.020 A 
ATOM     77  C   UNL A   1      40.974  28.512  30.968  1.00  0.00     0.020 A 
ATOM     78  C   UNL A   1      39.644  28.255  31.287  1.00  0.00     0.054 A 
BRANCH  78  79
ATOM     79  S   UNL A   1      38.887  28.989  32.763  1.00  0.00     0.124 S 
ATOM     80  O   UNL A   1      39.854  28.675  33.812  1.00  0.00    -0.237 OA
ATOM     81  O   UNL A   1      38.803  30.398  32.402  1.00  0.00    -0.237 OA
ATOM     82  O   UNL A   1      37.607  28.286  32.893  1.00  0.00    -0.744 OA
ENDBRANCH  78  79
ENDBRANCH  59  73
BRANCH  60  83
ATOM     83  C   UNL A   1      49.918  25.591  26.956  1.00  0.00    -0.014 A 
ATOM     84  C   UNL A   1      50.526  25.445  25.662  1.00  0.00     0.010 A 
ATOM     85  C   UNL A   1      50.816  25.537  28.033  1.00  0.00     0.010 A 
ATOM     86  C   UNL A   1      51.920  25.421  25.444  1.00  0.00     0.020 A 
ATOM     87  C   UNL A   1      52.229  25.473  27.825  1.00  0.00     0.020 A 
ATOM     88  C   UNL A   1      52.774  25.473  26.533  1.00  0.00     0.054 A 
BRANCH  88  89
ATOM     89  S   UNL A   1      54.567  25.691  26.232  1.00  0.00     0.124 S 
ATOM     90  O   UNL A   1      54.837  27.011  26.794  1.00  0.00    -0.237 OA
ATOM     91  O   UNL A   1      55.152  24.568  26.962  1.00  0.00    -0.237 OA
ATOM     92  O   UNL A   1      54.685  25.599  24.778  1.00  0.00    -0.744 OA
ENDBRANCH  88  89
ENDBRANCH  60  83
BRANCH  72  93
ATOM     93  C   UNL A   1      44.779  24.433  29.878  1.00  0.00    -0.014 A 
ATOM     94  C   UNL A   1      44.449  23.482  30.871  1.00  0.00     0.010 A 
ATOM     95  C   UNL A   1      45.127  25.722  30.318  1.00  0.00     0.010 A 
ATOM     96  C   UNL A   1      44.376  23.827  32.229  1.00  0.00     0.020 A 
ATOM     97  C   UNL A   1      45.105  26.063  31.676  1.00  0.00     0.020 A 
ATOM     98  C   UNL A   1      44.687  25.125  32.620  1.00  0.00     0.054 A 
BRANCH  98  99
ATOM     99  S   UNL A   1      44.514  25.589  34.367  1.00  0.00     0.124 S 
ATOM    100  O   UNL A   1      43.264  26.347  34.359  1.00  0.00    -0.237 OA
ATOM    101  O   UNL A   1      44.453  24.298  35.045  1.00  0.00    -0.237 OA
ATOM    102  O   UNL A   1      45.709  26.385  34.632  1.00  0.00    -0.744 OA
ENDBRANCH  98  99
ENDBRANCH  72  93
ENDBRANCH  46  47
ENDBRANCH  38  41
ENDBRANCH  36  37
ENDBRANCH  35  36
ENDBRANCH   1  35
TORSDOF 19
ENDMDL
MODEL 2
REMARK VINA RESULT:     -11.1      1.264      2.457
REMARK SMILES COc1ccc(NC(=O)/C(C#N)=C/c2cc(C)n(-c3ccc(C(=O)NCCCNC(=O)c4ccc(-c5c6nc(c(-c7ccc(S(=O)(=O)[O-])cc7)c7ccc([nH]7)c(-c7ccc(S(=O)(=O)[O-])cc7)c7nc(c(-c8ccc(S(=O)(=O)[O-])cc8)c8ccc5[nH]8)C=C7)C=C6)cc4)cc3)c2C)cc1
REMARK SMILES IDX 26 1 25 2 23 3 24 4 22 6 19 7 20 8 93 9 21 10 92 11 18 12
REMARK SMILES IDX 14 13 15 14 94 15 16 16 95 17 17 18 13 19 10 20 8 21 7 22
REMARK SMILES IDX 9 24 6 25 3 26 4 27 97 28 5 29 96 30 2 31 1 32 11 33 12 34
REMARK SMILES IDX 27 35 28 36 29 37 30 38 31 40 32 41 33 42 91 43 34 44 90 45
REMARK SMILES IDX 35 46 36 47 37 48 84 49 38 50 89 51 83 52 85 53 39 54 88 55
REMARK SMILES IDX 82 56 81 57 40 59 70 60 51 61 69 62 52 63 55 64 68 65 86 66
REMARK SMILES IDX 53 67 54 68 67 70 87 71 56 72 41 73 42 74 50 75 43 76 49 77
REMARK SMILES IDX 44 78 45 79 46 80 47 81 48 82 71 83 72 84 80 85 73 86 79 87
REMARK SMILES IDX 74 88 75 89 76 90 77 91 78 92 57 93 58 94 66 95 59 96 65 97
REMARK SMILES IDX 60 98 61 99 62 100 63 101 64 102
REMARK H PARENT 25 5 7 23 29 39 85 58 55 69
REMARK Flexibility Score: inf
ROOT
ATOM      1  C   UNL A   1      39.907  34.522  29.728  1.00  0.00     0.118 C 
ENDROOT
BRANCH   1   2
ATOM      2  N   UNL A   1      38.922  34.750  30.771  1.00  0.00    -0.352 N 
ATOM      3  C   UNL A   1      37.650  34.333  31.047  1.00  0.00     0.251 C 
ATOM      4  O   UNL A   1      37.134  34.831  32.052  1.00  0.00    -0.269 OA
ATOM      5  H   UNL A   1      39.260  35.367  31.461  1.00  0.00     0.163 HD
BRANCH   3   6
ATOM      6  C   UNL A   1      36.856  33.326  30.278  1.00  0.00     0.039 A 
ATOM      7  C   UNL A   1      35.459  31.548  28.585  1.00  0.00     0.046 A 
ATOM      8  C   UNL A   1      36.324  32.487  28.030  1.00  0.00     0.027 A 
ATOM      9  C   UNL A   1      35.301  31.474  29.973  1.00  0.00     0.027 A 
ATOM     10  C   UNL A   1      37.001  33.373  28.873  1.00  0.00     0.016 A 
ATOM     11  C   UNL A   1      36.016  32.347  30.813  1.00  0.00     0.016 A 
BRANCH   7  12
ATOM     12  N   UNL A   1      34.792  30.621  27.742  1.00  0.00    -0.318 N 
ATOM     13  C   UNL A   1      33.200  29.587  26.546  1.00  0.00    -0.003 A 
ATOM     14  C   UNL A   1      34.341  28.753  26.595  1.00  0.00     0.031 A 
ATOM     15  C   UNL A   1      33.513  30.765  27.201  1.00  0.00     0.027 A 
ATOM     16  C   UNL A   1      35.292  29.380  27.372  1.00  0.00     0.020 A 
ATOM     17  C   UNL A   1      32.722  32.025  27.335  1.00  0.00     0.065 C 
ATOM     18  C   UNL A   1      36.579  28.815  27.875  1.00  0.00     0.065 C 
BRANCH  13  19
ATOM     19  C   UNL A   1      31.932  29.266  25.962  1.00  0.00     0.035 C 
ATOM     20  C   UNL A   1      31.750  29.006  24.653  1.00  0.00     0.118 C 
BRANCH  20  21
ATOM     21  C   UNL A   1      30.414  28.640  24.039  1.00  0.00     0.266 C 
ATOM     22  N   UNL A   1      29.920  27.354  23.877  1.00  0.00    -0.321 N 
ATOM     23  H   UNL A   1      29.180  27.343  23.228  1.00  0.00     0.170 HD
ATOM     24  O   UNL A   1      29.748  29.544  23.518  1.00  0.00    -0.268 OA
BRANCH  22  25
ATOM     25  C   UNL A   1      30.173  26.044  24.377  1.00  0.00     0.041 A 
ATOM     26  C   UNL A   1      30.987  23.447  25.190  1.00  0.00     0.119 A 
ATOM     27  C   UNL A   1      30.638  24.408  26.129  1.00  0.00     0.048 A 
ATOM     28  C   UNL A   1      30.785  23.721  23.843  1.00  0.00     0.048 A 
ATOM     29  C   UNL A   1      30.178  25.677  25.719  1.00  0.00     0.030 A 
ATOM     30  C   UNL A   1      30.378  25.011  23.442  1.00  0.00     0.030 A 
BRANCH  26  31
ATOM     31  O   UNL A   1      31.400  22.224  25.640  1.00  0.00    -0.497 OA
ATOM     32  C   UNL A   1      32.536  22.299  26.506  1.00  0.00     0.278 C 
ENDBRANCH  26  31
ENDBRANCH  22  25
ENDBRANCH  20  21
BRANCH  20  33
ATOM     33  C   UNL A   1      32.914  29.009  23.676  1.00  0.00     0.105 C 
ATOM     34  N   UNL A   1      33.880  29.009  22.865  1.00  0.00    -0.192 NA
ENDBRANCH  20  33
ENDBRANCH  13  19
ENDBRANCH   7  12
ENDBRANCH   3   6
ENDBRANCH   1   2
BRANCH   1  35
ATOM     35  C   UNL A   1      41.141  35.423  29.881  1.00  0.00     0.042 C 
BRANCH  35  36
ATOM     36  C   UNL A   1      41.579  36.175  28.604  1.00  0.00     0.118 C 
BRANCH  36  37
ATOM     37  N   UNL A   1      42.992  36.487  28.563  1.00  0.00    -0.352 N 
ATOM     38  C   UNL A   1      44.053  35.671  28.216  1.00  0.00     0.251 C 
ATOM     39  H   UNL A   1      43.230  37.407  28.819  1.00  0.00     0.163 HD
ATOM     40  O   UNL A   1      45.183  36.136  28.348  1.00  0.00    -0.269 OA
BRANCH  38  41
ATOM     41  C   UNL A   1      43.876  34.226  27.836  1.00  0.00     0.039 A 
ATOM     42  C   UNL A   1      43.974  33.292  28.854  1.00  0.00     0.014 A 
ATOM     43  C   UNL A   1      43.861  33.729  26.519  1.00  0.00     0.014 A 
ATOM     44  C   UNL A   1      44.009  31.905  28.559  1.00  0.00     0.010 A 
ATOM     45  C   UNL A   1      43.986  32.310  26.222  1.00  0.00     0.010 A 
ATOM     46  C   UNL A   1      44.089  31.341  27.237  1.00  0.00    -0.014 A 
BRANCH  46  47
ATOM     47  C   UNL A   1      44.759  29.901  27.149  1.00  0.00     0.031 A 
ATOM     48  C   UNL A   1      43.620  29.012  26.780  1.00  0.00     0.074 A 
ATOM     49  C   UNL A   1      45.929  29.198  27.397  1.00  0.00     0.049 A 
ATOM     50  N   UNL A   1      42.566  28.962  27.540  1.00  0.00    -0.248 NA
ATOM     51  C   UNL A   1      43.433  28.484  25.427  1.00  0.00     0.031 C 
ATOM     52  C   UNL A   1      47.175  29.675  28.009  1.00  0.00     0.029 A 
ATOM     53  N   UNL A   1      46.285  27.842  27.136  1.00  0.00    -0.354 N 
ATOM     54  C   UNL A   1      41.656  28.178  26.882  1.00  0.00     0.074 A 
ATOM     55  C   UNL A   1      42.154  28.106  25.514  1.00  0.00     0.031 C 
ATOM     56  C   UNL A   1      48.159  28.727  27.946  1.00  0.00     0.029 A 
ATOM     57  C   UNL A   1      47.662  27.495  27.337  1.00  0.00     0.049 A 
ATOM     58  H   UNL A   1      45.622  27.181  26.835  1.00  0.00     0.167 HD
ATOM     59  C   UNL A   1      41.029  27.209  27.605  1.00  0.00     0.031 A 
ATOM     60  C   UNL A   1      48.337  26.305  27.099  1.00  0.00     0.031 A 
ATOM     61  C   UNL A   1      41.547  25.902  27.291  1.00  0.00     0.049 A 
ATOM     62  C   UNL A   1      47.318  25.243  27.126  1.00  0.00     0.074 A 
ATOM     63  C   UNL A   1      41.826  25.242  26.110  1.00  0.00     0.029 A 
ATOM     64  N   UNL A   1      42.307  25.298  28.272  1.00  0.00    -0.354 N 
ATOM     65  N   UNL A   1      46.826  24.804  28.244  1.00  0.00    -0.248 NA
ATOM     66  C   UNL A   1      46.891  24.529  25.928  1.00  0.00     0.031 C 
ATOM     67  C   UNL A   1      43.081  24.620  26.326  1.00  0.00     0.029 A 
ATOM     68  C   UNL A   1      43.379  24.655  27.681  1.00  0.00     0.049 A 
ATOM     69  H   UNL A   1      42.117  25.322  29.237  1.00  0.00     0.167 HD
ATOM     70  C   UNL A   1      45.707  24.132  27.857  1.00  0.00     0.074 A 
ATOM     71  C   UNL A   1      45.940  23.768  26.473  1.00  0.00     0.031 C 
ATOM     72  C   UNL A   1      44.547  24.408  28.500  1.00  0.00     0.031 A 
BRANCH  59  73
ATOM     73  C   UNL A   1      40.580  27.615  28.987  1.00  0.00    -0.014 A 
ATOM     74  C   UNL A   1      39.410  27.053  29.514  1.00  0.00     0.010 A 
ATOM     75  C   UNL A   1      41.239  28.618  29.734  1.00  0.00     0.010 A 
ATOM     76  C   UNL A   1      38.877  27.531  30.720  1.00  0.00     0.020 A 
ATOM     77  C   UNL A   1      40.697  29.118  30.921  1.00  0.00     0.020 A 
ATOM     78  C   UNL A   1      39.509  28.577  31.402  1.00  0.00     0.054 A 
BRANCH  78  79
ATOM     79  S   UNL A   1      38.702  29.273  32.871  1.00  0.00     0.124 S 
ATOM     80  O   UNL A   1      39.698  29.058  33.918  1.00  0.00    -0.237 OA
ATOM     81  O   UNL A   1      38.502  30.664  32.486  1.00  0.00    -0.237 OA
ATOM     82  O   UNL A   1      37.485  28.469  33.021  1.00  0.00    -0.744 OA
ENDBRANCH  78  79
ENDBRANCH  59  73
BRANCH  60  83
ATOM     83  C   UNL A   1      49.738  25.656  26.994  1.00  0.00    -0.014 A 
ATOM     84  C   UNL A   1      50.352  25.528  25.700  1.00  0.00     0.010 A 
ATOM     85  C   UNL A   1      50.627  25.548  28.075  1.00  0.00     0.010 A 
ATOM     86  C   UNL A   1      51.747  25.471  25.491  1.00  0.00     0.020 A 
ATOM     87  C   UNL A   1      52.039  25.449  27.874  1.00  0.00     0.020 A 
ATOM     88  C   UNL A   1      52.593  25.469  26.587  1.00  0.00     0.054 A 
BRANCH  88  89
ATOM     89  S   UNL A   1      54.394  25.645  26.304  1.00  0.00     0.124 S 
ATOM     90  O   UNL A   1      54.972  25.168  27.557  1.00  0.00    -0.237 OA
ATOM     91  O   UNL A   1      54.620  24.787  25.142  1.00  0.00    -0.237 OA
ATOM     92  O   UNL A   1      54.564  27.074  26.047  1.00  0.00    -0.744 OA
ENDBRANCH  88  89
ENDBRANCH  60  83
BRANCH  72  93
ATOM     93  C   UNL A   1      44.611  24.676  30.000  1.00  0.00    -0.014 A 
ATOM     94  C   UNL A   1      45.044  25.882  30.599  1.00  0.00     0.010 A 
ATOM     95  C   UNL A   1      44.255  23.625  30.862  1.00  0.00     0.010 A 
ATOM     96  C   UNL A   1      45.206  25.999  31.987  1.00  0.00     0.020 A 
ATOM     97  C   UNL A   1      44.366  23.750  32.254  1.00  0.00     0.020 A 
ATOM     98  C   UNL A   1      44.882  24.921  32.806  1.00  0.00     0.054 A 
BRANCH  98  99
ATOM     99  S   UNL A   1      45.169  25.050  34.593  1.00  0.00     0.124 S 
ATOM    100  O   UNL A   1      45.738  26.391  34.716  1.00  0.00    -0.237 OA
ATOM    101  O   UNL A   1      43.832  24.889  35.154  1.00  0.00    -0.237 OA
ATOM    102  O   UNL A   1      46.104  23.964  34.871  1.00  0.00    -0.744 OA
ENDBRANCH  98  99
ENDBRANCH  72  93
ENDBRANCH  46  47
ENDBRANCH  38  41
ENDBRANCH  36  37
ENDBRANCH  35  36
ENDBRANCH   1  35
TORSDOF 19
ENDMDL
MODEL 3
REMARK VINA RESULT:     -10.6      5.165     12.551
REMARK SMILES COc1ccc(NC(=O)/C(C#N)=C/c2cc(C)n(-c3ccc(C(=O)NCCCNC(=O)c4ccc(-c5c6nc(c(-c7ccc(S(=O)(=O)[O-])cc7)c7ccc([nH]7)c(-c7ccc(S(=O)(=O)[O-])cc7)c7nc(c(-c8ccc(S(=O)(=O)[O-])cc8)c8ccc5[nH]8)C=C7)C=C6)cc4)cc3)c2C)cc1
REMARK SMILES IDX 26 1 25 2 23 3 24 4 22 6 19 7 20 8 93 9 21 10 92 11 18 12
REMARK SMILES IDX 14 13 15 14 94 15 16 16 95 17 17 18 13 19 10 20 8 21 7 22
REMARK SMILES IDX 9 24 6 25 3 26 4 27 97 28 5 29 96 30 2 31 1 32 11 33 12 34
REMARK SMILES IDX 27 35 28 36 29 37 30 38 31 40 32 41 33 42 91 43 34 44 90 45
REMARK SMILES IDX 35 46 36 47 37 48 84 49 38 50 89 51 83 52 85 53 39 54 88 55
REMARK SMILES IDX 82 56 81 57 40 59 70 60 51 61 69 62 52 63 55 64 68 65 86 66
REMARK SMILES IDX 53 67 54 68 67 70 87 71 56 72 41 73 42 74 50 75 43 76 49 77
REMARK SMILES IDX 44 78 45 79 46 80 47 81 48 82 71 83 72 84 80 85 73 86 79 87
REMARK SMILES IDX 74 88 75 89 76 90 77 91 78 92 57 93 58 94 66 95 59 96 65 97
REMARK SMILES IDX 60 98 61 99 62 100 63 101 64 102
REMARK H PARENT 25 5 7 23 29 39 85 58 55 69
REMARK Flexibility Score: inf
ROOT
ATOM      1  C   UNL A   1      46.974  27.191  36.410  1.00  0.00     0.118 C 
ENDROOT
BRANCH   1   2
ATOM      2  N   UNL A   1      47.151  28.448  35.707  1.00  0.00    -0.352 N 
ATOM      3  C   UNL A   1      47.360  28.845  34.416  1.00  0.00     0.251 C 
ATOM      4  O   UNL A   1      47.515  30.060  34.251  1.00  0.00    -0.269 OA
ATOM      5  H   UNL A   1      47.109  29.217  36.321  1.00  0.00     0.163 HD
BRANCH   3   6
ATOM      6  C   UNL A   1      47.384  27.966  33.205  1.00  0.00     0.039 A 
ATOM      7  C   UNL A   1      47.325  26.535  30.772  1.00  0.00     0.046 A 
ATOM      8  C   UNL A   1      46.981  27.883  30.783  1.00  0.00     0.027 A 
ATOM      9  C   UNL A   1      47.718  25.901  31.955  1.00  0.00     0.027 A 
ATOM     10  C   UNL A   1      46.997  28.582  31.993  1.00  0.00     0.016 A 
ATOM     11  C   UNL A   1      47.768  26.625  33.161  1.00  0.00     0.016 A 
BRANCH   7  12
ATOM     12  N   UNL A   1      47.344  25.823  29.543  1.00  0.00    -0.318 N 
ATOM     13  C   UNL A   1      46.728  24.524  27.820  1.00  0.00    -0.003 A 
ATOM     14  C   UNL A   1      48.107  24.814  27.697  1.00  0.00     0.031 A 
ATOM     15  C   UNL A   1      46.253  25.206  28.927  1.00  0.00     0.027 A 
ATOM     16  C   UNL A   1      48.480  25.573  28.787  1.00  0.00     0.020 A 
ATOM     17  C   UNL A   1      44.857  25.350  29.436  1.00  0.00     0.065 C 
ATOM     18  C   UNL A   1      49.861  25.957  29.202  1.00  0.00     0.065 C 
BRANCH  13  19
ATOM     19  C   UNL A   1      45.960  23.654  26.981  1.00  0.00     0.035 C 
ATOM     20  C   UNL A   1      45.602  23.949  25.717  1.00  0.00     0.118 C 
BRANCH  20  21
ATOM     21  C   UNL A   1      44.812  23.017  24.820  1.00  0.00     0.266 C 
ATOM     22  N   UNL A   1      43.503  22.606  25.027  1.00  0.00    -0.321 N 
ATOM     23  H   UNL A   1      43.296  21.814  24.482  1.00  0.00     0.170 HD
ATOM     24  O   UNL A   1      45.410  22.466  23.886  1.00  0.00    -0.268 OA
BRANCH  22  25
ATOM     25  C   UNL A   1      42.372  23.000  25.798  1.00  0.00     0.041 A 
ATOM     26  C   UNL A   1      40.033  24.002  27.061  1.00  0.00     0.119 A 
ATOM     27  C   UNL A   1      40.222  22.636  26.896  1.00  0.00     0.048 A 
ATOM     28  C   UNL A   1      41.072  24.865  26.739  1.00  0.00     0.048 A 
ATOM     29  C   UNL A   1      41.410  22.141  26.322  1.00  0.00     0.030 A 
ATOM     30  C   UNL A   1      42.234  24.365  26.115  1.00  0.00     0.030 A 
BRANCH  26  31
ATOM     31  O   UNL A   1      38.875  24.428  27.648  1.00  0.00    -0.497 OA
ATOM     32  C   UNL A   1      39.075  25.501  28.572  1.00  0.00     0.278 C 
ENDBRANCH  26  31
ENDBRANCH  22  25
ENDBRANCH  20  21
BRANCH  20  33
ATOM     33  C   UNL A   1      46.018  25.254  25.061  1.00  0.00     0.105 C 
ATOM     34  N   UNL A   1      46.365  26.338  24.517  1.00  0.00    -0.192 NA
ENDBRANCH  20  33
ENDBRANCH  13  19
ENDBRANCH   7  12
ENDBRANCH   3   6
ENDBRANCH   1   2
BRANCH   1  35
ATOM     35  C   UNL A   1      45.531  26.987  36.893  1.00  0.00     0.042 C 
BRANCH  35  36
ATOM     36  C   UNL A   1      45.004  25.536  36.825  1.00  0.00     0.118 C 
BRANCH  36  37
ATOM     37  N   UNL A   1      45.382  24.831  35.619  1.00  0.00    -0.352 N 
ATOM     38  C   UNL A   1      44.802  24.879  34.364  1.00  0.00     0.251 C 
ATOM     39  H   UNL A   1      46.160  24.234  35.703  1.00  0.00     0.163 HD
ATOM     40  O   UNL A   1      45.246  24.113  33.513  1.00  0.00    -0.269 OA
BRANCH  38  41
ATOM     41  C   UNL A   1      43.583  25.709  34.065  1.00  0.00     0.039 A 
ATOM     42  C   UNL A   1      43.756  26.801  33.233  1.00  0.00     0.014 A 
ATOM     43  C   UNL A   1      42.351  25.615  34.740  1.00  0.00     0.014 A 
ATOM     44  C   UNL A   1      42.709  27.741  33.049  1.00  0.00     0.010 A 
ATOM     45  C   UNL A   1      41.316  26.631  34.615  1.00  0.00     0.010 A 
ATOM     46  C   UNL A   1      41.467  27.751  33.778  1.00  0.00    -0.014 A 
BRANCH  46  47
ATOM     47  C   UNL A   1      40.765  29.172  33.911  1.00  0.00     0.031 A 
ATOM     48  C   UNL A   1      39.646  29.098  32.928  1.00  0.00     0.074 A 
ATOM     49  C   UNL A   1      40.886  30.427  34.490  1.00  0.00     0.049 A 
ATOM     50  N   UNL A   1      39.899  28.846  31.677  1.00  0.00    -0.248 NA
ATOM     51  C   UNL A   1      38.251  28.902  33.329  1.00  0.00     0.031 C 
ATOM     52  C   UNL A   1      41.987  30.961  35.302  1.00  0.00     0.029 A 
ATOM     53  N   UNL A   1      40.010  31.552  34.491  1.00  0.00    -0.354 N 
ATOM     54  C   UNL A   1      38.684  28.709  31.060  1.00  0.00     0.074 A 
ATOM     55  C   UNL A   1      37.735  28.531  32.153  1.00  0.00     0.031 C 
ATOM     56  C   UNL A   1      41.676  32.187  35.822  1.00  0.00     0.029 A 
ATOM     57  C   UNL A   1      40.359  32.631  35.369  1.00  0.00     0.049 A 
ATOM     58  H   UNL A   1      39.210  31.585  33.920  1.00  0.00     0.167 HD
ATOM     59  C   UNL A   1      38.503  29.372  29.884  1.00  0.00     0.031 A 
ATOM     60  C   UNL A   1      39.686  33.810  35.661  1.00  0.00     0.031 A 
ATOM     61  C   UNL A   1      37.660  30.526  30.056  1.00  0.00     0.049 A 
ATOM     62  C   UNL A   1      38.806  34.076  34.512  1.00  0.00     0.074 A 
ATOM     63  C   UNL A   1      36.455  30.745  30.695  1.00  0.00     0.029 A 
ATOM     64  N   UNL A   1      38.284  31.754  29.956  1.00  0.00    -0.354 N 
ATOM     65  N   UNL A   1      39.272  34.553  33.399  1.00  0.00    -0.248 NA
ATOM     66  C   UNL A   1      37.355  33.948  34.584  1.00  0.00     0.031 C 
ATOM     67  C   UNL A   1      36.623  31.972  31.384  1.00  0.00     0.029 A 
ATOM     68  C   UNL A   1      37.768  32.603  30.918  1.00  0.00     0.049 A 
ATOM     69  H   UNL A   1      38.984  31.987  29.305  1.00  0.00     0.167 HD
ATOM     70  C   UNL A   1      38.268  34.319  32.509  1.00  0.00     0.074 A 
ATOM     71  C   UNL A   1      37.064  34.212  33.309  1.00  0.00     0.031 C 
ATOM     72  C   UNL A   1      38.588  33.719  31.336  1.00  0.00     0.031 A 
BRANCH  59  73
ATOM     73  C   UNL A   1      39.668  29.328  28.927  1.00  0.00    -0.014 A 
ATOM     74  C   UNL A   1      39.444  28.938  27.599  1.00  0.00     0.010 A 
ATOM     75  C   UNL A   1      40.999  29.567  29.339  1.00  0.00     0.010 A 
ATOM     76  C   UNL A   1      40.524  28.727  26.731  1.00  0.00     0.020 A 
ATOM     77  C   UNL A   1      42.081  29.330  28.488  1.00  0.00     0.020 A 
ATOM     78  C   UNL A   1      41.836  28.900  27.188  1.00  0.00     0.054 A 
BRANCH  78  79
ATOM     79  S   UNL A   1      43.207  28.462  26.084  1.00  0.00     0.124 S 
ATOM     80  O   UNL A   1      44.043  29.659  26.117  1.00  0.00    -0.237 OA
ATOM     81  O   UNL A   1      43.776  27.293  26.743  1.00  0.00    -0.237 OA
ATOM     82  O   UNL A   1      42.559  28.215  24.792  1.00  0.00    -0.744 OA
ENDBRANCH  78  79
ENDBRANCH  59  73
BRANCH  60  83
ATOM     83  C   UNL A   1      39.634  35.018  36.627  1.00  0.00    -0.014 A 
ATOM     84  C   UNL A   1      38.881  34.905  37.846  1.00  0.00     0.010 A 
ATOM     85  C   UNL A   1      40.572  36.063  36.616  1.00  0.00     0.010 A 
ATOM     86  C   UNL A   1      39.153  35.650  39.014  1.00  0.00     0.020 A 
ATOM     87  C   UNL A   1      40.828  36.850  37.781  1.00  0.00     0.020 A 
ATOM     88  C   UNL A   1      40.158  36.601  38.987  1.00  0.00     0.054 A 
BRANCH  88  89
ATOM     89  S   UNL A   1      40.668  37.382  40.563  1.00  0.00     0.124 S 
ATOM     90  O   UNL A   1      41.639  36.434  41.101  1.00  0.00    -0.237 OA
ATOM     91  O   UNL A   1      41.220  38.662  40.122  1.00  0.00    -0.237 OA
ATOM     92  O   UNL A   1      39.419  37.485  41.316  1.00  0.00    -0.744 OA
ENDBRANCH  88  89
ENDBRANCH  60  83
BRANCH  72  93
ATOM     93  C   UNL A   1      39.911  34.100  30.680  1.00  0.00    -0.014 A 
ATOM     94  C   UNL A   1      40.061  34.995  29.594  1.00  0.00     0.010 A 
ATOM     95  C   UNL A   1      41.077  33.480  31.162  1.00  0.00     0.010 A 
ATOM     96  C   UNL A   1      41.296  35.185  28.959  1.00  0.00     0.020 A 
ATOM     97  C   UNL A   1      42.325  33.702  30.565  1.00  0.00     0.020 A 
ATOM     98  C   UNL A   1      42.420  34.519  29.440  1.00  0.00     0.054 A 
BRANCH  98  99
ATOM     99  S   UNL A   1      44.000  34.706  28.566  1.00  0.00     0.124 S 
ATOM    100  O   UNL A   1      44.519  33.339  28.577  1.00  0.00    -0.237 OA
ATOM    101  O   UNL A   1      43.596  35.206  27.256  1.00  0.00    -0.237 OA
ATOM    102  O   UNL A   1      44.745  35.648  29.398  1.00  0.00    -0.744 OA
ENDBRANCH  98  99
ENDBRANCH  72  93
ENDBRANCH  46  47
ENDBRANCH  38  41
ENDBRANCH  36  37
ENDBRANCH  35  36
ENDBRANCH   1  35
TORSDOF 19
ENDMDL
