MODEL 1
REMARK VINA RESULT:     -10.9      0.000      0.000
REMARK SMILES Cc1cc(C(=O)N[C@@H](C)C(=O)NCCCNC(=O)c2ccc(-c3c4nc(c(-c5ccc(S(=O)(=O)[O-])cc5)c5ccc([nH]5)c(-c5ccc(S(=O)(=O)[O-])cc5)c5nc(c(-c6ccc(S(=O)(=O)[O-])cc6)c6ccc3[nH]6)C=C5)C=C4)cc2)cc(C)c1OC(F)F
REMARK SMILES IDX 13 1 12 2 10 3 11 4 8 6 9 7 7 8 5 9 6 10 4 12 1 13 2 14 3 15
REMARK SMILES IDX 82 16 80 17 79 18 81 19 83 20 84 21 85 22 86 23 14 24 15 25
REMARK SMILES IDX 16 26 17 27 18 29 19 30 20 31 78 32 21 33 77 34 22 35 23 36
REMARK SMILES IDX 24 37 71 38 25 39 76 40 70 41 72 42 26 43 75 44 69 45 68 46
REMARK SMILES IDX 27 48 57 49 38 50 56 51 39 52 42 53 55 54 73 55 40 56 41 57
REMARK SMILES IDX 54 59 74 60 43 61 28 62 29 63 37 64 30 65 36 66 31 67 32 68
REMARK SMILES IDX 33 69 34 70 35 71 58 72 59 73 67 74 60 75 66 76 61 77 62 78
REMARK SMILES IDX 63 79 64 80 65 81 44 82 45 83 53 84 46 85 52 86 47 87 48 88
REMARK SMILES IDX 49 89 50 90 51 91
REMARK H PARENT 12 5 7 11 16 28 72 47 42 58
REMARK Flexibility Score: inf
ROOT
ATOM      1  C   UNL A   1      32.634  26.916  25.908  1.00  0.00     0.117 C 
ENDROOT
BRANCH   1   2
ATOM      2  N   UNL A   1      31.680  27.316  24.888  1.00  0.00    -0.354 N 
ATOM      3  C   UNL A   1      31.850  27.557  23.556  1.00  0.00     0.242 C 
ATOM      4  O   UNL A   1      30.842  27.817  22.891  1.00  0.00    -0.273 OA
ATOM      5  H   UNL A   1      30.757  27.432  25.213  1.00  0.00     0.163 HD
BRANCH   3   6
ATOM      6  C   UNL A   1      33.242  27.538  22.896  1.00  0.00     0.168 C 
ATOM      7  C   UNL A   1      33.815  28.921  22.616  1.00  0.00     0.041 C 
BRANCH   6   8
ATOM      8  N   UNL A   1      33.197  26.647  21.736  1.00  0.00    -0.341 N 
ATOM      9  C   UNL A   1      33.181  25.275  21.618  1.00  0.00     0.251 C 
ATOM     10  O   UNL A   1      32.980  24.811  20.496  1.00  0.00    -0.269 OA
ATOM     11  H   UNL A   1      33.175  27.120  20.874  1.00  0.00     0.164 HD
BRANCH   9  12
ATOM     12  C   UNL A   1      33.496  24.340  22.736  1.00  0.00     0.040 A 
ATOM     13  C   UNL A   1      31.319  22.499  25.213  1.00  0.00     0.048 C 
ATOM     14  C   UNL A   1      32.592  22.840  24.490  1.00  0.00    -0.008 A 
ATOM     15  C   UNL A   1      32.431  23.843  23.496  1.00  0.00     0.021 A 
ATOM     16  C   UNL A   1      33.861  22.254  24.637  1.00  0.00     0.131 A 
ATOM     17  C   UNL A   1      34.953  22.812  23.926  1.00  0.00    -0.008 A 
ATOM     18  C   UNL A   1      34.767  23.904  23.062  1.00  0.00     0.021 A 
ATOM     19  C   UNL A   1      36.341  22.219  23.958  1.00  0.00     0.048 C 
BRANCH  16  20
ATOM     20  O   UNL A   1      34.222  21.136  25.324  1.00  0.00    -0.434 OA
BRANCH  20  21
ATOM     21  C   UNL A   1      33.922  19.823  24.907  1.00  0.00     0.542 C 
ATOM     22  F   UNL A   1      33.115  19.827  23.824  1.00  0.00    -0.167 F 
ATOM     23  F   UNL A   1      35.068  19.162  24.622  1.00  0.00    -0.167 F 
ENDBRANCH  20  21
ENDBRANCH  16  20
ENDBRANCH   9  12
ENDBRANCH   6   8
ENDBRANCH   3   6
ENDBRANCH   1   2
BRANCH   1  24
ATOM     24  C   UNL A   1      33.580  28.032  26.322  1.00  0.00     0.042 C 
BRANCH  24  25
ATOM     25  C   UNL A   1      33.273  28.654  27.677  1.00  0.00     0.118 C 
BRANCH  25  26
ATOM     26  N   UNL A   1      33.442  30.103  27.687  1.00  0.00    -0.352 N 
ATOM     27  C   UNL A   1      34.520  30.875  28.053  1.00  0.00     0.251 C 
ATOM     28  H   UNL A   1      32.656  30.610  27.381  1.00  0.00     0.163 HD
ATOM     29  O   UNL A   1      34.381  32.087  28.167  1.00  0.00    -0.269 OA
BRANCH  27  30
ATOM     30  C   UNL A   1      35.830  30.248  28.337  1.00  0.00     0.039 A 
ATOM     31  C   UNL A   1      36.792  30.202  27.325  1.00  0.00     0.014 A 
ATOM     32  C   UNL A   1      36.112  29.706  29.592  1.00  0.00     0.014 A 
ATOM     33  C   UNL A   1      38.069  29.706  27.603  1.00  0.00     0.010 A 
ATOM     34  C   UNL A   1      37.408  29.293  29.893  1.00  0.00     0.010 A 
ATOM     35  C   UNL A   1      38.404  29.301  28.906  1.00  0.00    -0.014 A 
BRANCH  35  36
ATOM     36  C   UNL A   1      39.796  28.928  29.270  1.00  0.00     0.031 A 
ATOM     37  C   UNL A   1      40.714  29.938  29.904  1.00  0.00     0.074 A 
ATOM     38  C   UNL A   1      40.259  27.704  28.941  1.00  0.00     0.049 A 
ATOM     39  N   UNL A   1      41.985  29.826  30.193  1.00  0.00    -0.248 NA
ATOM     40  C   UNL A   1      40.138  31.252  30.236  1.00  0.00     0.031 C 
ATOM     41  C   UNL A   1      39.480  26.650  28.283  1.00  0.00     0.029 A 
ATOM     42  N   UNL A   1      41.502  27.143  29.097  1.00  0.00    -0.354 N 
ATOM     43  C   UNL A   1      42.365  31.055  30.719  1.00  0.00     0.074 A 
ATOM     44  C   UNL A   1      41.200  31.911  30.678  1.00  0.00     0.031 C 
ATOM     45  C   UNL A   1      40.257  25.570  28.107  1.00  0.00     0.029 A 
ATOM     46  C   UNL A   1      41.601  25.867  28.588  1.00  0.00     0.049 A 
ATOM     47  H   UNL A   1      42.253  27.608  29.531  1.00  0.00     0.167 HD
ATOM     48  C   UNL A   1      43.573  31.430  31.204  1.00  0.00     0.031 A 
ATOM     49  C   UNL A   1      42.659  25.037  28.496  1.00  0.00     0.031 A 
ATOM     50  C   UNL A   1      44.725  30.569  31.256  1.00  0.00     0.049 A 
ATOM     51  C   UNL A   1      43.993  25.492  29.025  1.00  0.00     0.074 A 
ATOM     52  C   UNL A   1      45.971  30.838  31.797  1.00  0.00     0.029 A 
ATOM     53  N   UNL A   1      44.779  29.281  30.747  1.00  0.00    -0.354 N 
ATOM     54  N   UNL A   1      44.308  26.628  29.599  1.00  0.00    -0.248 NA
ATOM     55  C   UNL A   1      45.113  24.548  28.899  1.00  0.00     0.031 C 
ATOM     56  C   UNL A   1      46.798  29.737  31.555  1.00  0.00     0.029 A 
ATOM     57  C   UNL A   1      46.048  28.757  30.926  1.00  0.00     0.049 A 
ATOM     58  H   UNL A   1      44.027  28.810  30.321  1.00  0.00     0.167 HD
ATOM     59  C   UNL A   1      45.656  26.526  29.922  1.00  0.00     0.074 A 
ATOM     60  C   UNL A   1      46.089  25.209  29.506  1.00  0.00     0.031 C 
ATOM     61  C   UNL A   1      46.465  27.443  30.507  1.00  0.00     0.031 A 
BRANCH  48  62
ATOM     62  C   UNL A   1      43.725  32.839  31.717  1.00  0.00    -0.014 A 
ATOM     63  C   UNL A   1      44.127  33.884  30.865  1.00  0.00     0.010 A 
ATOM     64  C   UNL A   1      43.368  33.138  33.044  1.00  0.00     0.010 A 
ATOM     65  C   UNL A   1      44.183  35.198  31.336  1.00  0.00     0.020 A 
ATOM     66  C   UNL A   1      43.398  34.455  33.512  1.00  0.00     0.020 A 
ATOM     67  C   UNL A   1      43.812  35.476  32.656  1.00  0.00     0.054 A 
BRANCH  67  68
ATOM     68  S   UNL A   1      43.830  37.201  33.216  1.00  0.00     0.124 S 
ATOM     69  O   UNL A   1      43.796  37.930  31.951  1.00  0.00    -0.237 OA
ATOM     70  O   UNL A   1      42.614  37.287  34.022  1.00  0.00    -0.237 OA
ATOM     71  O   UNL A   1      45.079  37.311  33.965  1.00  0.00    -0.744 OA
ENDBRANCH  67  68
ENDBRANCH  48  62
BRANCH  49  72
ATOM     72  C   UNL A   1      42.513  23.698  27.857  1.00  0.00    -0.014 A 
ATOM     73  C   UNL A   1      42.231  22.559  28.632  1.00  0.00     0.010 A 
ATOM     74  C   UNL A   1      42.683  23.553  26.467  1.00  0.00     0.010 A 
ATOM     75  C   UNL A   1      42.161  21.297  28.036  1.00  0.00     0.020 A 
ATOM     76  C   UNL A   1      42.579  22.296  25.863  1.00  0.00     0.020 A 
ATOM     77  C   UNL A   1      42.338  21.173  26.654  1.00  0.00     0.054 A 
BRANCH  77  78
ATOM     78  S   UNL A   1      42.228  19.527  25.901  1.00  0.00     0.124 S 
ATOM     79  O   UNL A   1      42.540  18.655  27.030  1.00  0.00    -0.237 OA
ATOM     80  O   UNL A   1      40.845  19.486  25.433  1.00  0.00    -0.237 OA
ATOM     81  O   UNL A   1      43.236  19.567  24.843  1.00  0.00    -0.744 OA
ENDBRANCH  77  78
ENDBRANCH  49  72
BRANCH  61  82
ATOM     82  C   UNL A   1      47.896  27.046  30.760  1.00  0.00    -0.014 A 
ATOM     83  C   UNL A   1      48.899  27.286  29.805  1.00  0.00     0.010 A 
ATOM     84  C   UNL A   1      48.249  26.472  31.996  1.00  0.00     0.010 A 
ATOM     85  C   UNL A   1      50.224  26.929  30.068  1.00  0.00     0.020 A 
ATOM     86  C   UNL A   1      49.578  26.144  32.275  1.00  0.00     0.020 A 
ATOM     87  C   UNL A   1      50.556  26.362  31.302  1.00  0.00     0.054 A 
BRANCH  87  88
ATOM     88  S   UNL A   1      52.290  25.951  31.634  1.00  0.00     0.124 S 
ATOM     89  O   UNL A   1      52.916  26.203  30.339  1.00  0.00    -0.237 OA
ATOM     90  O   UNL A   1      52.643  26.890  32.696  1.00  0.00    -0.237 OA
ATOM     91  O   UNL A   1      52.243  24.549  32.041  1.00  0.00    -0.744 OA
ENDBRANCH  87  88
ENDBRANCH  61  82
ENDBRANCH  35  36
ENDBRANCH  27  30
ENDBRANCH  25  26
ENDBRANCH  24  25
ENDBRANCH   1  24
TORSDOF 17
ENDMDL
MODEL 2
REMARK VINA RESULT:     -10.8      1.430      2.156
REMARK SMILES Cc1cc(C(=O)N[C@@H](C)C(=O)NCCCNC(=O)c2ccc(-c3c4nc(c(-c5ccc(S(=O)(=O)[O-])cc5)c5ccc([nH]5)c(-c5ccc(S(=O)(=O)[O-])cc5)c5nc(c(-c6ccc(S(=O)(=O)[O-])cc6)c6ccc3[nH]6)C=C5)C=C4)cc2)cc(C)c1OC(F)F
REMARK SMILES IDX 13 1 12 2 10 3 11 4 8 6 9 7 7 8 5 9 6 10 4 12 1 13 2 14 3 15
REMARK SMILES IDX 82 16 80 17 79 18 81 19 83 20 84 21 85 22 86 23 14 24 15 25
REMARK SMILES IDX 16 26 17 27 18 29 19 30 20 31 78 32 21 33 77 34 22 35 23 36
REMARK SMILES IDX 24 37 71 38 25 39 76 40 70 41 72 42 26 43 75 44 69 45 68 46
REMARK SMILES IDX 27 48 57 49 38 50 56 51 39 52 42 53 55 54 73 55 40 56 41 57
REMARK SMILES IDX 54 59 74 60 43 61 28 62 29 63 37 64 30 65 36 66 31 67 32 68
REMARK SMILES IDX 33 69 34 70 35 71 58 72 59 73 67 74 60 75 66 76 61 77 62 78
REMARK SMILES IDX 63 79 64 80 65 81 44 82 45 83 53 84 46 85 52 86 47 87 48 88
REMARK SMILES IDX 49 89 50 90 51 91
REMARK H PARENT 12 5 7 11 16 28 72 47 42 58
REMARK Flexibility Score: inf
ROOT
ATOM      1  C   UNL A   1      32.771  26.797  26.218  1.00  0.00     0.117 C 
ENDROOT
BRANCH   1   2
ATOM      2  N   UNL A   1      31.595  27.227  25.482  1.00  0.00    -0.354 N 
ATOM      3  C   UNL A   1      30.694  26.512  24.747  1.00  0.00     0.242 C 
ATOM      4  O   UNL A   1      29.729  27.124  24.278  1.00  0.00    -0.273 OA
ATOM      5  H   UNL A   1      31.419  28.195  25.520  1.00  0.00     0.163 HD
BRANCH   3   6
ATOM      6  C   UNL A   1      30.873  25.005  24.481  1.00  0.00     0.168 C 
ATOM      7  C   UNL A   1      30.272  24.532  23.164  1.00  0.00     0.041 C 
BRANCH   6   8
ATOM      8  N   UNL A   1      30.424  24.265  25.660  1.00  0.00    -0.341 N 
ATOM      9  C   UNL A   1      31.061  23.379  26.500  1.00  0.00     0.251 C 
ATOM     10  O   UNL A   1      30.456  23.036  27.516  1.00  0.00    -0.269 OA
ATOM     11  H   UNL A   1      29.484  24.434  25.900  1.00  0.00     0.164 HD
BRANCH   9  12
ATOM     12  C   UNL A   1      32.373  22.740  26.194  1.00  0.00     0.040 A 
ATOM     13  C   UNL A   1      33.295  19.417  24.655  1.00  0.00     0.048 C 
ATOM     14  C   UNL A   1      33.540  20.808  25.170  1.00  0.00    -0.008 A 
ATOM     15  C   UNL A   1      32.364  21.457  25.634  1.00  0.00     0.021 A 
ATOM     16  C   UNL A   1      34.743  21.532  25.184  1.00  0.00     0.131 A 
ATOM     17  C   UNL A   1      34.767  22.797  25.824  1.00  0.00    -0.008 A 
ATOM     18  C   UNL A   1      33.604  23.335  26.400  1.00  0.00     0.021 A 
ATOM     19  C   UNL A   1      35.987  23.687  25.836  1.00  0.00     0.048 C 
BRANCH  16  20
ATOM     20  O   UNL A   1      35.933  21.243  24.589  1.00  0.00    -0.434 OA
BRANCH  20  21
ATOM     21  C   UNL A   1      36.946  20.466  25.188  1.00  0.00     0.542 C 
ATOM     22  F   UNL A   1      36.991  19.226  24.654  1.00  0.00    -0.167 F 
ATOM     23  F   UNL A   1      38.142  21.078  25.031  1.00  0.00    -0.167 F 
ENDBRANCH  20  21
ENDBRANCH  16  20
ENDBRANCH   9  12
ENDBRANCH   6   8
ENDBRANCH   3   6
ENDBRANCH   1   2
BRANCH   1  24
ATOM     24  C   UNL A   1      33.496  27.935  26.919  1.00  0.00     0.042 C 
BRANCH  24  25
ATOM     25  C   UNL A   1      33.825  29.124  26.025  1.00  0.00     0.118 C 
BRANCH  25  26
ATOM     26  N   UNL A   1      33.735  30.401  26.724  1.00  0.00    -0.352 N 
ATOM     27  C   UNL A   1      34.529  30.940  27.710  1.00  0.00     0.251 C 
ATOM     28  H   UNL A   1      32.982  30.970  26.444  1.00  0.00     0.163 HD
ATOM     29  O   UNL A   1      34.159  31.950  28.295  1.00  0.00    -0.269 OA
BRANCH  27  30
ATOM     30  C   UNL A   1      35.805  30.291  28.082  1.00  0.00     0.039 A 
ATOM     31  C   UNL A   1      36.855  30.281  27.160  1.00  0.00     0.014 A 
ATOM     32  C   UNL A   1      35.972  29.693  29.333  1.00  0.00     0.014 A 
ATOM     33  C   UNL A   1      38.100  29.763  27.530  1.00  0.00     0.010 A 
ATOM     34  C   UNL A   1      37.234  29.257  29.730  1.00  0.00     0.010 A 
ATOM     35  C   UNL A   1      38.315  29.300  28.838  1.00  0.00    -0.014 A 
BRANCH  35  36
ATOM     36  C   UNL A   1      39.666  28.901  29.309  1.00  0.00     0.031 A 
ATOM     37  C   UNL A   1      40.532  29.879  30.056  1.00  0.00     0.074 A 
ATOM     38  C   UNL A   1      40.147  27.684  28.979  1.00  0.00     0.049 A 
ATOM     39  N   UNL A   1      41.772  29.744  30.451  1.00  0.00    -0.248 NA
ATOM     40  C   UNL A   1      39.939  31.186  30.382  1.00  0.00     0.031 C 
ATOM     41  C   UNL A   1      39.422  26.661  28.220  1.00  0.00     0.029 A 
ATOM     42  N   UNL A   1      41.369  27.105  29.224  1.00  0.00    -0.354 N 
ATOM     43  C   UNL A   1      42.114  30.950  31.051  1.00  0.00     0.074 A 
ATOM     44  C   UNL A   1      40.963  31.819  30.938  1.00  0.00     0.031 C 
ATOM     45  C   UNL A   1      40.204  25.579  28.074  1.00  0.00     0.029 A 
ATOM     46  C   UNL A   1      41.503  25.846  28.681  1.00  0.00     0.049 A 
ATOM     47  H   UNL A   1      42.081  27.548  29.738  1.00  0.00     0.167 HD
ATOM     48  C   UNL A   1      43.277  31.296  31.652  1.00  0.00     0.031 A 
ATOM     49  C   UNL A   1      42.559  25.009  28.653  1.00  0.00     0.031 A 
ATOM     50  C   UNL A   1      44.414  30.423  31.775  1.00  0.00     0.049 A 
ATOM     51  C   UNL A   1      43.844  25.432  29.312  1.00  0.00     0.074 A 
ATOM     52  C   UNL A   1      45.609  30.660  32.431  1.00  0.00     0.029 A 
ATOM     53  N   UNL A   1      44.503  29.152  31.228  1.00  0.00    -0.354 N 
ATOM     54  N   UNL A   1      44.116  26.545  29.950  1.00  0.00    -0.248 NA
ATOM     55  C   UNL A   1      44.964  24.482  29.252  1.00  0.00     0.031 C 
ATOM     56  C   UNL A   1      46.447  29.560  32.224  1.00  0.00     0.029 A 
ATOM     57  C   UNL A   1      45.748  28.609  31.498  1.00  0.00     0.049 A 
ATOM     58  H   UNL A   1      43.788  28.704  30.721  1.00  0.00     0.167 HD
ATOM     59  C   UNL A   1      45.429  26.418  30.386  1.00  0.00     0.074 A 
ATOM     60  C   UNL A   1      45.888  25.111  29.964  1.00  0.00     0.031 C 
ATOM     61  C   UNL A   1      46.190  27.307  31.072  1.00  0.00     0.031 A 
BRANCH  48  62
ATOM     62  C   UNL A   1      43.394  32.685  32.225  1.00  0.00    -0.014 A 
ATOM     63  C   UNL A   1      43.080  32.945  33.571  1.00  0.00     0.010 A 
ATOM     64  C   UNL A   1      43.917  33.723  31.431  1.00  0.00     0.010 A 
ATOM     65  C   UNL A   1      43.274  34.221  34.108  1.00  0.00     0.020 A 
ATOM     66  C   UNL A   1      44.136  34.993  31.971  1.00  0.00     0.020 A 
ATOM     67  C   UNL A   1      43.807  35.236  33.306  1.00  0.00     0.054 A 
BRANCH  67  68
ATOM     68  S   UNL A   1      44.110  36.861  34.052  1.00  0.00     0.124 S 
ATOM     69  O   UNL A   1      44.291  36.518  35.459  1.00  0.00    -0.237 OA
ATOM     70  O   UNL A   1      45.312  37.312  33.356  1.00  0.00    -0.237 OA
ATOM     71  O   UNL A   1      42.896  37.616  33.746  1.00  0.00    -0.744 OA
ENDBRANCH  67  68
ENDBRANCH  48  62
BRANCH  49  72
ATOM     72  C   UNL A   1      42.459  23.694  27.957  1.00  0.00    -0.014 A 
ATOM     73  C   UNL A   1      42.029  22.548  28.647  1.00  0.00     0.010 A 
ATOM     74  C   UNL A   1      42.823  23.579  26.602  1.00  0.00     0.010 A 
ATOM     75  C   UNL A   1      42.001  21.305  28.007  1.00  0.00     0.020 A 
ATOM     76  C   UNL A   1      42.764  22.344  25.949  1.00  0.00     0.020 A 
ATOM     77  C   UNL A   1      42.372  21.211  26.662  1.00  0.00     0.054 A 
BRANCH  77  78
ATOM     78  S   UNL A   1      42.314  19.591  25.849  1.00  0.00     0.124 S 
ATOM     79  O   UNL A   1      40.925  19.523  25.404  1.00  0.00    -0.237 OA
ATOM     80  O   UNL A   1      43.311  19.733  24.791  1.00  0.00    -0.237 OA
ATOM     81  O   UNL A   1      42.677  18.659  26.915  1.00  0.00    -0.744 OA
ENDBRANCH  77  78
ENDBRANCH  49  72
BRANCH  61  82
ATOM     82  C   UNL A   1      47.591  26.886  31.435  1.00  0.00    -0.014 A 
ATOM     83  C   UNL A   1      47.846  26.107  32.577  1.00  0.00     0.010 A 
ATOM     84  C   UNL A   1      48.661  27.232  30.588  1.00  0.00     0.010 A 
ATOM     85  C   UNL A   1      49.149  25.710  32.885  1.00  0.00     0.020 A 
ATOM     86  C   UNL A   1      49.961  26.809  30.875  1.00  0.00     0.020 A 
ATOM     87  C   UNL A   1      50.199  26.061  32.030  1.00  0.00     0.054 A 
BRANCH  87  88
ATOM     88  S   UNL A   1      51.874  25.494  32.429  1.00  0.00     0.124 S 
ATOM     89  O   UNL A   1      52.524  25.524  31.121  1.00  0.00    -0.237 OA
ATOM     90  O   UNL A   1      52.334  26.500  33.382  1.00  0.00    -0.237 OA
ATOM     91  O   UNL A   1      51.666  24.161  32.989  1.00  0.00    -0.744 OA
ENDBRANCH  87  88
ENDBRANCH  61  82
ENDBRANCH  35  36
ENDBRANCH  27  30
ENDBRANCH  25  26
ENDBRANCH  24  25
ENDBRANCH   1  24
TORSDOF 17
ENDMDL
MODEL 3
REMARK VINA RESULT:     -10.3      2.600      3.639
REMARK SMILES Cc1cc(C(=O)N[C@@H](C)C(=O)NCCCNC(=O)c2ccc(-c3c4nc(c(-c5ccc(S(=O)(=O)[O-])cc5)c5ccc([nH]5)c(-c5ccc(S(=O)(=O)[O-])cc5)c5nc(c(-c6ccc(S(=O)(=O)[O-])cc6)c6ccc3[nH]6)C=C5)C=C4)cc2)cc(C)c1OC(F)F
REMARK SMILES IDX 13 1 12 2 10 3 11 4 8 6 9 7 7 8 5 9 6 10 4 12 1 13 2 14 3 15
REMARK SMILES IDX 82 16 80 17 79 18 81 19 83 20 84 21 85 22 86 23 14 24 15 25
REMARK SMILES IDX 16 26 17 27 18 29 19 30 20 31 78 32 21 33 77 34 22 35 23 36
REMARK SMILES IDX 24 37 71 38 25 39 76 40 70 41 72 42 26 43 75 44 69 45 68 46
REMARK SMILES IDX 27 48 57 49 38 50 56 51 39 52 42 53 55 54 73 55 40 56 41 57
REMARK SMILES IDX 54 59 74 60 43 61 28 62 29 63 37 64 30 65 36 66 31 67 32 68
REMARK SMILES IDX 33 69 34 70 35 71 58 72 59 73 67 74 60 75 66 76 61 77 62 78
REMARK SMILES IDX 63 79 64 80 65 81 44 82 45 83 53 84 46 85 52 86 47 87 48 88
REMARK SMILES IDX 49 89 50 90 51 91
REMARK H PARENT 12 5 7 11 16 28 72 47 42 58
REMARK Flexibility Score: inf
ROOT
ATOM      1  C   UNL A   1      33.514  26.793  24.541  1.00  0.00     0.117 C 
ENDROOT
BRANCH   1   2
ATOM      2  N   UNL A   1      32.361  26.332  23.788  1.00  0.00    -0.354 N 
ATOM      3  C   UNL A   1      32.012  25.080  23.373  1.00  0.00     0.242 C 
ATOM      4  O   UNL A   1      30.923  24.951  22.803  1.00  0.00    -0.273 OA
ATOM      5  H   UNL A   1      31.725  27.041  23.537  1.00  0.00     0.163 HD
BRANCH   3   6
ATOM      6  C   UNL A   1      32.940  23.867  23.574  1.00  0.00     0.168 C 
ATOM      7  C   UNL A   1      32.887  22.850  22.442  1.00  0.00     0.041 C 
BRANCH   6   8
ATOM      8  N   UNL A   1      32.702  23.312  24.907  1.00  0.00    -0.341 N 
ATOM      9  C   UNL A   1      33.549  22.817  25.873  1.00  0.00     0.251 C 
ATOM     10  O   UNL A   1      33.058  22.562  26.973  1.00  0.00    -0.269 OA
ATOM     11  H   UNL A   1      31.752  23.288  25.162  1.00  0.00     0.164 HD
BRANCH   9  12
ATOM     12  C   UNL A   1      34.980  22.475  25.628  1.00  0.00     0.040 A 
ATOM     13  C   UNL A   1      38.200  24.310  26.357  1.00  0.00     0.048 C 
ATOM     14  C   UNL A   1      37.346  23.140  25.954  1.00  0.00    -0.008 A 
ATOM     15  C   UNL A   1      35.951  23.411  26.005  1.00  0.00     0.021 A 
ATOM     16  C   UNL A   1      37.754  21.841  25.608  1.00  0.00     0.131 A 
ATOM     17  C   UNL A   1      36.777  20.921  25.151  1.00  0.00    -0.008 A 
ATOM     18  C   UNL A   1      35.422  21.286  25.079  1.00  0.00     0.021 A 
ATOM     19  C   UNL A   1      37.096  19.483  24.820  1.00  0.00     0.048 C 
BRANCH  16  20
ATOM     20  O   UNL A   1      38.982  21.264  25.716  1.00  0.00    -0.434 OA
BRANCH  20  21
ATOM     21  C   UNL A   1      40.018  21.762  26.533  1.00  0.00     0.542 C 
ATOM     22  F   UNL A   1      40.602  20.771  27.241  1.00  0.00    -0.167 F 
ATOM     23  F   UNL A   1      40.943  22.385  25.766  1.00  0.00    -0.167 F 
ENDBRANCH  20  21
ENDBRANCH  16  20
ENDBRANCH   9  12
ENDBRANCH   6   8
ENDBRANCH   3   6
ENDBRANCH   1   2
BRANCH   1  24
ATOM     24  C   UNL A   1      33.448  28.269  24.904  1.00  0.00     0.042 C 
BRANCH  24  25
ATOM     25  C   UNL A   1      33.906  28.595  26.320  1.00  0.00     0.118 C 
BRANCH  25  26
ATOM     26  N   UNL A   1      33.875  30.023  26.611  1.00  0.00    -0.352 N 
ATOM     27  C   UNL A   1      34.667  30.786  27.438  1.00  0.00     0.251 C 
ATOM     28  H   UNL A   1      33.172  30.524  26.138  1.00  0.00     0.163 HD
ATOM     29  O   UNL A   1      34.344  31.941  27.684  1.00  0.00    -0.269 OA
BRANCH  27  30
ATOM     30  C   UNL A   1      35.884  30.208  28.051  1.00  0.00     0.039 A 
ATOM     31  C   UNL A   1      37.082  30.232  27.331  1.00  0.00     0.014 A 
ATOM     32  C   UNL A   1      35.850  29.645  29.328  1.00  0.00     0.014 A 
ATOM     33  C   UNL A   1      38.262  29.784  27.932  1.00  0.00     0.010 A 
ATOM     34  C   UNL A   1      37.039  29.280  29.956  1.00  0.00     0.010 A 
ATOM     35  C   UNL A   1      38.260  29.358  29.270  1.00  0.00    -0.014 A 
BRANCH  35  36
ATOM     36  C   UNL A   1      39.521  29.037  29.986  1.00  0.00     0.031 A 
ATOM     37  C   UNL A   1      39.970  29.875  31.152  1.00  0.00     0.074 A 
ATOM     38  C   UNL A   1      40.308  28.044  29.522  1.00  0.00     0.049 A 
ATOM     39  N   UNL A   1      41.088  29.810  31.829  1.00  0.00    -0.248 NA
ATOM     40  C   UNL A   1      39.058  30.939  31.603  1.00  0.00     0.031 C 
ATOM     41  C   UNL A   1      40.005  27.187  28.372  1.00  0.00     0.029 A 
ATOM     42  N   UNL A   1      41.535  27.597  29.948  1.00  0.00    -0.354 N 
ATOM     43  C   UNL A   1      41.024  30.832  32.769  1.00  0.00     0.074 A 
ATOM     44  C   UNL A   1      39.773  31.526  32.553  1.00  0.00     0.031 C 
ATOM     45  C   UNL A   1      41.008  26.312  28.195  1.00  0.00     0.029 A 
ATOM     46  C   UNL A   1      42.049  26.576  29.181  1.00  0.00     0.049 A 
ATOM     47  H   UNL A   1      42.004  27.972  30.728  1.00  0.00     0.167 HD
ATOM     48  C   UNL A   1      41.921  31.154  33.731  1.00  0.00     0.031 A 
ATOM     49  C   UNL A   1      43.235  25.938  29.246  1.00  0.00     0.031 A 
ATOM     50  C   UNL A   1      43.157  30.451  33.951  1.00  0.00     0.049 A 
ATOM     51  C   UNL A   1      44.219  26.334  30.314  1.00  0.00     0.074 A 
ATOM     52  C   UNL A   1      44.095  30.658  34.947  1.00  0.00     0.029 A 
ATOM     53  N   UNL A   1      43.632  29.413  33.164  1.00  0.00    -0.354 N 
ATOM     54  N   UNL A   1      44.100  27.247  31.248  1.00  0.00    -0.248 NA
ATOM     55  C   UNL A   1      45.497  25.608  30.340  1.00  0.00     0.031 C 
ATOM     56  C   UNL A   1      45.169  29.791  34.723  1.00  0.00     0.029 A 
ATOM     57  C   UNL A   1      44.868  28.997  33.629  1.00  0.00     0.049 A 
ATOM     58  H   UNL A   1      43.161  29.030  32.389  1.00  0.00     0.167 HD
ATOM     59  C   UNL A   1      45.276  27.188  31.985  1.00  0.00     0.074 A 
ATOM     60  C   UNL A   1      46.082  26.133  31.408  1.00  0.00     0.031 C 
ATOM     61  C   UNL A   1      45.658  27.944  33.044  1.00  0.00     0.031 A 
BRANCH  48  62
ATOM     62  C   UNL A   1      41.611  32.326  34.627  1.00  0.00    -0.014 A 
ATOM     63  C   UNL A   1      40.952  32.147  35.856  1.00  0.00     0.010 A 
ATOM     64  C   UNL A   1      42.073  33.608  34.278  1.00  0.00     0.010 A 
ATOM     65  C   UNL A   1      40.747  33.232  36.712  1.00  0.00     0.020 A 
ATOM     66  C   UNL A   1      41.893  34.691  35.143  1.00  0.00     0.020 A 
ATOM     67  C   UNL A   1      41.225  34.496  36.353  1.00  0.00     0.054 A 
BRANCH  67  68
ATOM     68  S   UNL A   1      41.003  35.869  37.517  1.00  0.00     0.124 S 
ATOM     69  O   UNL A   1      39.922  36.625  36.891  1.00  0.00    -0.237 OA
ATOM     70  O   UNL A   1      40.652  35.182  38.758  1.00  0.00    -0.237 OA
ATOM     71  O   UNL A   1      42.304  36.534  37.524  1.00  0.00    -0.744 OA
ENDBRANCH  67  68
ENDBRANCH  48  62
BRANCH  49  72
ATOM     72  C   UNL A   1      43.574  24.875  28.258  1.00  0.00    -0.014 A 
ATOM     73  C   UNL A   1      44.170  25.202  27.028  1.00  0.00     0.010 A 
ATOM     74  C   UNL A   1      43.273  23.527  28.534  1.00  0.00     0.010 A 
ATOM     75  C   UNL A   1      44.424  24.208  26.077  1.00  0.00     0.020 A 
ATOM     76  C   UNL A   1      43.558  22.527  27.600  1.00  0.00     0.020 A 
ATOM     77  C   UNL A   1      44.114  22.877  26.369  1.00  0.00     0.054 A 
BRANCH  77  78
ATOM     78  S   UNL A   1      44.465  21.603  25.126  1.00  0.00     0.124 S 
ATOM     79  O   UNL A   1      44.272  22.335  23.878  1.00  0.00    -0.237 OA
ATOM     80  O   UNL A   1      45.844  21.232  25.436  1.00  0.00    -0.237 OA
ATOM     81  O   UNL A   1      43.472  20.568  25.406  1.00  0.00    -0.744 OA
ENDBRANCH  77  78
ENDBRANCH  49  72
BRANCH  61  82
ATOM     82  C   UNL A   1      46.996  27.640  33.668  1.00  0.00    -0.014 A 
ATOM     83  C   UNL A   1      48.157  28.328  33.276  1.00  0.00     0.010 A 
ATOM     84  C   UNL A   1      47.080  26.686  34.700  1.00  0.00     0.010 A 
ATOM     85  C   UNL A   1      49.384  28.046  33.881  1.00  0.00     0.020 A 
ATOM     86  C   UNL A   1      48.298  26.425  35.331  1.00  0.00     0.020 A 
ATOM     87  C   UNL A   1      49.446  27.098  34.907  1.00  0.00     0.054 A 
BRANCH  87  88
ATOM     88  S   UNL A   1      51.043  26.784  35.707  1.00  0.00     0.124 S 
ATOM     89  O   UNL A   1      51.596  25.718  34.875  1.00  0.00    -0.237 OA
ATOM     90  O   UNL A   1      51.714  28.077  35.599  1.00  0.00    -0.237 OA
ATOM     91  O   UNL A   1      50.679  26.388  37.065  1.00  0.00    -0.744 OA
ENDBRANCH  87  88
ENDBRANCH  61  82
ENDBRANCH  35  36
ENDBRANCH  27  30
ENDBRANCH  25  26
ENDBRANCH  24  25
ENDBRANCH   1  24
TORSDOF 17
ENDMDL
