MODEL 1
REMARK VINA RESULT:     -11.9      0.000      0.000
REMARK SMILES C[C@H]1CCC[C@](Cc2cn3ccccc3n2)(C(=O)NCCCNC(=O)c2ccc(-c3c4nc(c(-c5ccc(S(=O)(=O)[O-])cc5)c5ccc([nH]5)c(-c5ccc(S(=O)(=O)[O-])cc5)c5nc(c(-c6ccc(S(=O)(=O)[O-])cc6)c6ccc3[nH]6)C=C5)C=C4)cc2)C1
REMARK SMILES IDX 21 1 20 2 19 3 17 4 18 5 6 7 1 8 2 9 3 10 86 11 4 12 5 13
REMARK SMILES IDX 7 14 8 15 9 16 16 17 10 18 15 19 11 20 14 21 12 22 13 23
REMARK SMILES IDX 22 24 23 25 24 26 25 28 26 29 27 30 85 31 28 32 84 33 29 34
REMARK SMILES IDX 30 35 31 36 78 37 32 38 83 39 77 40 79 41 33 42 82 43 76 44
REMARK SMILES IDX 75 45 34 47 64 48 45 49 63 50 46 51 49 52 62 53 80 54 47 55
REMARK SMILES IDX 48 56 61 58 81 59 50 60 35 61 36 62 44 63 37 64 43 65 38 66
REMARK SMILES IDX 39 67 40 68 41 69 42 70 65 71 66 72 74 73 67 74 73 75 68 76
REMARK SMILES IDX 69 77 70 78 71 79 72 80 51 81 52 82 60 83 53 84 59 85 54 86
REMARK SMILES IDX 55 87 56 88 57 89 58 90
REMARK H PARENT 19 6 23 27 79 46 49 57
REMARK Flexibility Score: inf
ROOT
ATOM      1  C   UNL A   1      33.623  28.129  25.826  1.00  0.00     0.042 C 
ENDROOT
BRANCH   1   2
ATOM      2  C   UNL A   1      33.685  26.638  25.563  1.00  0.00     0.117 C 
BRANCH   2   3
ATOM      3  N   UNL A   1      32.629  25.877  26.178  1.00  0.00    -0.356 N 
ATOM      4  C   UNL A   1      32.466  24.541  26.365  1.00  0.00     0.226 C 
ATOM      5  O   UNL A   1      31.569  24.263  27.173  1.00  0.00    -0.274 OA
ATOM      6  H   UNL A   1      31.888  26.425  26.526  1.00  0.00     0.163 HD
BRANCH   4   7
ATOM      7  C   UNL A   1      33.322  23.416  25.676  1.00  0.00     0.055 C 
ATOM      8  C   UNL A   1      37.255  23.539  26.090  1.00  0.00     0.007 C 
ATOM      9  C   UNL A   1      35.899  24.051  25.594  1.00  0.00    -0.013 C 
ATOM     10  C   UNL A   1      35.827  23.951  24.067  1.00  0.00     0.003 C 
ATOM     11  C   UNL A   1      34.740  23.346  26.312  1.00  0.00     0.020 C 
ATOM     12  C   UNL A   1      34.465  24.226  23.441  1.00  0.00     0.001 C 
ATOM     13  C   UNL A   1      33.289  23.546  24.132  1.00  0.00     0.017 C 
BRANCH   7  14
ATOM     14  C   UNL A   1      32.543  22.089  26.071  1.00  0.00     0.074 C 
BRANCH  14  15
ATOM     15  C   UNL A   1      32.891  20.802  25.372  1.00  0.00     0.061 A 
ATOM     16  C   UNL A   1      33.885  19.872  25.606  1.00  0.00     0.116 A 
ATOM     17  N   UNL A   1      32.119  20.398  24.297  1.00  0.00    -0.234 NA
ATOM     18  N   UNL A   1      33.743  18.910  24.639  1.00  0.00    -0.307 N 
ATOM     19  C   UNL A   1      32.647  19.271  23.870  1.00  0.00     0.136 A 
ATOM     20  C   UNL A   1      34.510  17.771  24.406  1.00  0.00     0.093 A 
ATOM     21  C   UNL A   1      32.298  18.408  22.793  1.00  0.00     0.048 A 
ATOM     22  C   UNL A   1      34.183  16.961  23.385  1.00  0.00     0.018 A 
ATOM     23  C   UNL A   1      33.032  17.301  22.560  1.00  0.00     0.005 A 
ENDBRANCH  14  15
ENDBRANCH   7  14
ENDBRANCH   4   7
ENDBRANCH   2   3
ENDBRANCH   1   2
BRANCH   1  24
ATOM     24  C   UNL A   1      33.302  28.460  27.271  1.00  0.00     0.118 C 
BRANCH  24  25
ATOM     25  N   UNL A   1      33.359  29.895  27.544  1.00  0.00    -0.352 N 
ATOM     26  C   UNL A   1      34.349  30.678  28.099  1.00  0.00     0.251 C 
ATOM     27  H   UNL A   1      32.549  30.391  27.286  1.00  0.00     0.163 HD
ATOM     28  O   UNL A   1      34.098  31.835  28.408  1.00  0.00    -0.269 OA
BRANCH  26  29
ATOM     29  C   UNL A   1      35.696  30.117  28.349  1.00  0.00     0.039 A 
ATOM     30  C   UNL A   1      36.641  30.117  27.319  1.00  0.00     0.014 A 
ATOM     31  C   UNL A   1      36.033  29.595  29.597  1.00  0.00     0.014 A 
ATOM     32  C   UNL A   1      37.948  29.692  27.576  1.00  0.00     0.010 A 
ATOM     33  C   UNL A   1      37.357  29.295  29.886  1.00  0.00     0.010 A 
ATOM     34  C   UNL A   1      38.332  29.336  28.879  1.00  0.00    -0.014 A 
BRANCH  34  35
ATOM     35  C   UNL A   1      39.739  29.007  29.226  1.00  0.00     0.031 A 
ATOM     36  C   UNL A   1      40.637  30.070  29.807  1.00  0.00     0.074 A 
ATOM     37  C   UNL A   1      40.235  27.791  28.917  1.00  0.00     0.049 A 
ATOM     38  N   UNL A   1      41.919  30.018  30.057  1.00  0.00    -0.248 NA
ATOM     39  C   UNL A   1      40.023  31.376  30.111  1.00  0.00     0.031 C 
ATOM     40  C   UNL A   1      39.483  26.699  28.292  1.00  0.00     0.029 A 
ATOM     41  N   UNL A   1      41.498  27.274  29.067  1.00  0.00    -0.354 N 
ATOM     42  C   UNL A   1      42.270  31.287  30.504  1.00  0.00     0.074 A 
ATOM     43  C   UNL A   1      41.077  32.101  30.455  1.00  0.00     0.031 C 
ATOM     44  C   UNL A   1      40.291  25.639  28.133  1.00  0.00     0.029 A 
ATOM     45  C   UNL A   1      41.630  25.987  28.594  1.00  0.00     0.049 A 
ATOM     46  H   UNL A   1      42.241  27.775  29.474  1.00  0.00     0.167 HD
ATOM     47  C   UNL A   1      43.475  31.728  30.935  1.00  0.00     0.031 A 
ATOM     48  C   UNL A   1      42.710  25.185  28.520  1.00  0.00     0.031 A 
ATOM     49  C   UNL A   1      44.644  30.898  31.025  1.00  0.00     0.049 A 
ATOM     50  C   UNL A   1      44.032  25.698  29.025  1.00  0.00     0.074 A 
ATOM     51  C   UNL A   1      45.883  31.219  31.553  1.00  0.00     0.029 A 
ATOM     52  N   UNL A   1      44.725  29.590  30.575  1.00  0.00    -0.354 N 
ATOM     53  N   UNL A   1      44.316  26.866  29.550  1.00  0.00    -0.248 NA
ATOM     54  C   UNL A   1      45.180  24.784  28.931  1.00  0.00     0.031 C 
ATOM     55  C   UNL A   1      46.731  30.125  31.363  1.00  0.00     0.029 A 
ATOM     56  C   UNL A   1      46.005  29.103  30.774  1.00  0.00     0.049 A 
ATOM     57  H   UNL A   1      43.982  29.083  30.175  1.00  0.00     0.167 HD
ATOM     58  C   UNL A   1      45.669  26.821  29.865  1.00  0.00     0.074 A 
ATOM     59  C   UNL A   1      46.141  25.502  29.496  1.00  0.00     0.031 C 
ATOM     60  C   UNL A   1      46.453  27.786  30.404  1.00  0.00     0.031 A 
BRANCH  47  61
ATOM     61  C   UNL A   1      43.598  33.172  31.343  1.00  0.00    -0.014 A 
ATOM     62  C   UNL A   1      43.335  33.583  32.662  1.00  0.00     0.010 A 
ATOM     63  C   UNL A   1      44.067  34.117  30.412  1.00  0.00     0.010 A 
ATOM     64  C   UNL A   1      43.516  34.918  33.035  1.00  0.00     0.020 A 
ATOM     65  C   UNL A   1      44.276  35.447  30.789  1.00  0.00     0.020 A 
ATOM     66  C   UNL A   1      43.991  35.840  32.097  1.00  0.00     0.054 A 
BRANCH  66  67
ATOM     67  S   UNL A   1      44.277  37.551  32.630  1.00  0.00     0.124 S 
ATOM     68  O   UNL A   1      43.975  38.300  31.411  1.00  0.00    -0.237 OA
ATOM     69  O   UNL A   1      43.315  37.710  33.718  1.00  0.00    -0.237 OA
ATOM     70  O   UNL A   1      45.680  37.559  33.033  1.00  0.00    -0.744 OA
ENDBRANCH  66  67
ENDBRANCH  47  61
BRANCH  48  71
ATOM     71  C   UNL A   1      42.597  23.822  27.928  1.00  0.00    -0.014 A 
ATOM     72  C   UNL A   1      42.796  23.618  26.552  1.00  0.00     0.010 A 
ATOM     73  C   UNL A   1      42.272  22.719  28.740  1.00  0.00     0.010 A 
ATOM     74  C   UNL A   1      42.638  22.345  25.992  1.00  0.00     0.020 A 
ATOM     75  C   UNL A   1      42.145  21.440  28.191  1.00  0.00     0.020 A 
ATOM     76  C   UNL A   1      42.311  21.265  26.817  1.00  0.00     0.054 A 
BRANCH  76  77
ATOM     77  S   UNL A   1      42.131  19.619  26.074  1.00  0.00     0.124 S 
ATOM     78  O   UNL A   1      42.583  18.748  27.154  1.00  0.00    -0.237 OA
ATOM     79  O   UNL A   1      40.703  19.564  25.770  1.00  0.00    -0.237 OA
ATOM     80  O   UNL A   1      43.006  19.675  24.904  1.00  0.00    -0.744 OA
ENDBRANCH  76  77
ENDBRANCH  48  71
BRANCH  60  81
ATOM     81  C   UNL A   1      47.899  27.452  30.648  1.00  0.00    -0.014 A 
ATOM     82  C   UNL A   1      48.336  27.003  31.905  1.00  0.00     0.010 A 
ATOM     83  C   UNL A   1      48.816  27.511  29.582  1.00  0.00     0.010 A 
ATOM     84  C   UNL A   1      49.669  26.636  32.098  1.00  0.00     0.020 A 
ATOM     85  C   UNL A   1      50.143  27.117  29.763  1.00  0.00     0.020 A 
ATOM     86  C   UNL A   1      50.564  26.690  31.025  1.00  0.00     0.054 A 
BRANCH  86  87
ATOM     87  S   UNL A   1      52.273  26.144  31.286  1.00  0.00     0.124 S 
ATOM     88  O   UNL A   1      52.756  27.114  32.264  1.00  0.00    -0.237 OA
ATOM     89  O   UNL A   1      52.099  24.781  31.784  1.00  0.00    -0.237 OA
ATOM     90  O   UNL A   1      52.876  26.244  29.959  1.00  0.00    -0.744 OA
ENDBRANCH  86  87
ENDBRANCH  60  81
ENDBRANCH  34  35
ENDBRANCH  26  29
ENDBRANCH  24  25
ENDBRANCH   1  24
TORSDOF 15
ENDMDL
MODEL 2
REMARK VINA RESULT:     -11.7      3.152      9.677
REMARK SMILES C[C@H]1CCC[C@](Cc2cn3ccccc3n2)(C(=O)NCCCNC(=O)c2ccc(-c3c4nc(c(-c5ccc(S(=O)(=O)[O-])cc5)c5ccc([nH]5)c(-c5ccc(S(=O)(=O)[O-])cc5)c5nc(c(-c6ccc(S(=O)(=O)[O-])cc6)c6ccc3[nH]6)C=C5)C=C4)cc2)C1
REMARK SMILES IDX 21 1 20 2 19 3 17 4 18 5 6 7 1 8 2 9 3 10 86 11 4 12 5 13
REMARK SMILES IDX 7 14 8 15 9 16 16 17 10 18 15 19 11 20 14 21 12 22 13 23
REMARK SMILES IDX 22 24 23 25 24 26 25 28 26 29 27 30 85 31 28 32 84 33 29 34
REMARK SMILES IDX 30 35 31 36 78 37 32 38 83 39 77 40 79 41 33 42 82 43 76 44
REMARK SMILES IDX 75 45 34 47 64 48 45 49 63 50 46 51 49 52 62 53 80 54 47 55
REMARK SMILES IDX 48 56 61 58 81 59 50 60 35 61 36 62 44 63 37 64 43 65 38 66
REMARK SMILES IDX 39 67 40 68 41 69 42 70 65 71 66 72 74 73 67 74 73 75 68 76
REMARK SMILES IDX 69 77 70 78 71 79 72 80 51 81 52 82 60 83 53 84 59 85 54 86
REMARK SMILES IDX 55 87 56 88 57 89 58 90
REMARK H PARENT 19 6 23 27 79 46 49 57
REMARK Flexibility Score: inf
ROOT
ATOM      1  C   UNL A   1      35.883  24.055  25.728  1.00  0.00     0.042 C 
ENDROOT
BRANCH   1   2
ATOM      2  C   UNL A   1      34.461  23.984  25.209  1.00  0.00     0.117 C 
BRANCH   2   3
ATOM      3  N   UNL A   1      34.319  24.270  23.806  1.00  0.00    -0.356 N 
ATOM      4  C   UNL A   1      33.754  25.316  23.148  1.00  0.00     0.226 C 
ATOM      5  O   UNL A   1      34.057  25.362  21.947  1.00  0.00    -0.274 OA
ATOM      6  H   UNL A   1      34.701  23.581  23.214  1.00  0.00     0.163 HD
BRANCH   4   7
ATOM      7  C   UNL A   1      32.827  26.406  23.799  1.00  0.00     0.055 C 
ATOM      8  C   UNL A   1      34.319  28.635  26.708  1.00  0.00     0.007 C 
ATOM      9  C   UNL A   1      33.838  27.324  26.076  1.00  0.00    -0.013 C 
ATOM     10  C   UNL A   1      32.570  26.836  26.783  1.00  0.00     0.003 C 
ATOM     11  C   UNL A   1      33.681  27.463  24.555  1.00  0.00     0.020 C 
ATOM     12  C   UNL A   1      31.854  25.658  26.133  1.00  0.00     0.001 C 
ATOM     13  C   UNL A   1      31.685  25.759  24.622  1.00  0.00     0.017 C 
BRANCH   7  14
ATOM     14  C   UNL A   1      32.177  27.116  22.535  1.00  0.00     0.074 C 
BRANCH  14  15
ATOM     15  C   UNL A   1      31.174  28.217  22.752  1.00  0.00     0.061 A 
ATOM     16  C   UNL A   1      31.136  29.256  23.662  1.00  0.00     0.116 A 
ATOM     17  N   UNL A   1      30.065  28.280  21.927  1.00  0.00    -0.234 NA
ATOM     18  N   UNL A   1      29.972  29.938  23.415  1.00  0.00    -0.307 N 
ATOM     19  C   UNL A   1      29.358  29.309  22.342  1.00  0.00     0.136 A 
ATOM     20  C   UNL A   1      29.440  31.045  24.070  1.00  0.00     0.093 A 
ATOM     21  C   UNL A   1      28.119  29.851  21.896  1.00  0.00     0.048 A 
ATOM     22  C   UNL A   1      28.267  31.551  23.652  1.00  0.00     0.018 A 
ATOM     23  C   UNL A   1      27.596  30.924  22.522  1.00  0.00     0.005 A 
ENDBRANCH  14  15
ENDBRANCH   7  14
ENDBRANCH   4   7
ENDBRANCH   2   3
ENDBRANCH   1   2
BRANCH   1  24
ATOM     24  C   UNL A   1      36.907  23.604  24.702  1.00  0.00     0.118 C 
BRANCH  24  25
ATOM     25  N   UNL A   1      37.860  22.640  25.249  1.00  0.00    -0.352 N 
ATOM     26  C   UNL A   1      38.964  22.809  26.058  1.00  0.00     0.251 C 
ATOM     27  H   UNL A   1      37.684  21.705  24.996  1.00  0.00     0.163 HD
ATOM     28  O   UNL A   1      39.730  21.872  26.233  1.00  0.00    -0.269 OA
BRANCH  26  29
ATOM     29  C   UNL A   1      39.240  24.122  26.684  1.00  0.00     0.039 A 
ATOM     30  C   UNL A   1      38.761  24.381  27.972  1.00  0.00     0.014 A 
ATOM     31  C   UNL A   1      39.971  25.098  26.009  1.00  0.00     0.014 A 
ATOM     32  C   UNL A   1      39.110  25.573  28.615  1.00  0.00     0.010 A 
ATOM     33  C   UNL A   1      40.421  26.220  26.691  1.00  0.00     0.010 A 
ATOM     34  C   UNL A   1      39.994  26.474  28.002  1.00  0.00    -0.014 A 
BRANCH  34  35
ATOM     35  C   UNL A   1      40.497  27.686  28.699  1.00  0.00     0.031 A 
ATOM     36  C   UNL A   1      41.857  27.668  29.350  1.00  0.00     0.074 A 
ATOM     37  C   UNL A   1      39.689  28.757  28.841  1.00  0.00     0.049 A 
ATOM     38  N   UNL A   1      42.419  28.573  30.109  1.00  0.00    -0.248 NA
ATOM     39  C   UNL A   1      42.679  26.459  29.157  1.00  0.00     0.031 C 
ATOM     40  C   UNL A   1      38.326  28.871  28.313  1.00  0.00     0.029 A 
ATOM     41  N   UNL A   1      39.887  29.950  29.491  1.00  0.00    -0.354 N 
ATOM     42  C   UNL A   1      43.633  28.028  30.513  1.00  0.00     0.074 A 
ATOM     43  C   UNL A   1      43.711  26.699  29.951  1.00  0.00     0.031 C 
ATOM     44  C   UNL A   1      37.822  30.071  28.641  1.00  0.00     0.029 A 
ATOM     45  C   UNL A   1      38.800  30.795  29.445  1.00  0.00     0.049 A 
ATOM     46  H   UNL A   1      40.728  30.181  29.949  1.00  0.00     0.167 HD
ATOM     47  C   UNL A   1      44.602  28.592  31.270  1.00  0.00     0.031 A 
ATOM     48  C   UNL A   1      38.604  32.004  30.005  1.00  0.00     0.031 A 
ATOM     49  C   UNL A   1      44.536  29.932  31.785  1.00  0.00     0.049 A 
ATOM     50  C   UNL A   1      39.708  32.614  30.825  1.00  0.00     0.074 A 
ATOM     51  C   UNL A   1      45.513  30.636  32.467  1.00  0.00     0.029 A 
ATOM     52  N   UNL A   1      43.435  30.768  31.681  1.00  0.00    -0.354 N 
ATOM     53  N   UNL A   1      40.895  32.126  31.100  1.00  0.00    -0.248 NA
ATOM     54  C   UNL A   1      39.451  33.939  31.408  1.00  0.00     0.031 C 
ATOM     55  C   UNL A   1      44.979  31.874  32.832  1.00  0.00     0.029 A 
ATOM     56  C   UNL A   1      43.693  31.966  32.324  1.00  0.00     0.049 A 
ATOM     57  H   UNL A   1      42.597  30.543  31.217  1.00  0.00     0.167 HD
ATOM     58  C   UNL A   1      41.531  33.091  31.873  1.00  0.00     0.074 A 
ATOM     59  C   UNL A   1      40.609  34.201  32.000  1.00  0.00     0.031 C 
ATOM     60  C   UNL A   1      42.764  33.060  32.434  1.00  0.00     0.031 A 
BRANCH  47  61
ATOM     61  C   UNL A   1      45.821  27.770  31.592  1.00  0.00    -0.014 A 
ATOM     62  C   UNL A   1      46.931  27.740  30.729  1.00  0.00     0.010 A 
ATOM     63  C   UNL A   1      45.890  27.084  32.818  1.00  0.00     0.010 A 
ATOM     64  C   UNL A   1      48.078  27.020  31.076  1.00  0.00     0.020 A 
ATOM     65  C   UNL A   1      47.045  26.385  33.182  1.00  0.00     0.020 A 
ATOM     66  C   UNL A   1      48.129  26.351  32.304  1.00  0.00     0.054 A 
BRANCH  66  67
ATOM     67  S   UNL A   1      49.654  25.479  32.754  1.00  0.00     0.124 S 
ATOM     68  O   UNL A   1      49.135  24.304  33.452  1.00  0.00    -0.237 OA
ATOM     69  O   UNL A   1      50.266  25.216  31.454  1.00  0.00    -0.237 OA
ATOM     70  O   UNL A   1      50.367  26.437  33.594  1.00  0.00    -0.744 OA
ENDBRANCH  66  67
ENDBRANCH  47  61
BRANCH  48  71
ATOM     71  C   UNL A   1      37.305  32.714  29.828  1.00  0.00    -0.014 A 
ATOM     72  C   UNL A   1      37.067  33.503  28.689  1.00  0.00     0.010 A 
ATOM     73  C   UNL A   1      36.302  32.617  30.811  1.00  0.00     0.010 A 
ATOM     74  C   UNL A   1      35.867  34.209  28.553  1.00  0.00     0.020 A 
ATOM     75  C   UNL A   1      35.089  33.295  30.663  1.00  0.00     0.020 A 
ATOM     76  C   UNL A   1      34.886  34.101  29.542  1.00  0.00     0.054 A 
BRANCH  76  77
ATOM     77  S   UNL A   1      33.329  35.008  29.335  1.00  0.00     0.124 S 
ATOM     78  O   UNL A   1      33.798  36.322  28.906  1.00  0.00    -0.237 OA
ATOM     79  O   UNL A   1      32.636  34.220  28.318  1.00  0.00    -0.237 OA
ATOM     80  O   UNL A   1      32.726  34.961  30.666  1.00  0.00    -0.744 OA
ENDBRANCH  76  77
ENDBRANCH  48  71
BRANCH  60  81
ATOM     81  C   UNL A   1      43.202  34.265  33.221  1.00  0.00    -0.014 A 
ATOM     82  C   UNL A   1      43.686  35.414  32.574  1.00  0.00     0.010 A 
ATOM     83  C   UNL A   1      43.050  34.274  34.620  1.00  0.00     0.010 A 
ATOM     84  C   UNL A   1      44.028  36.548  33.315  1.00  0.00     0.020 A 
ATOM     85  C   UNL A   1      43.362  35.416  35.361  1.00  0.00     0.020 A 
ATOM     86  C   UNL A   1      43.859  36.543  34.703  1.00  0.00     0.054 A 
BRANCH  86  87
ATOM     87  S   UNL A   1      44.247  38.051  35.632  1.00  0.00     0.124 S 
ATOM     88  O   UNL A   1      43.739  39.094  34.746  1.00  0.00    -0.237 OA
ATOM     89  O   UNL A   1      43.501  37.861  36.874  1.00  0.00    -0.237 OA
ATOM     90  O   UNL A   1      45.701  38.008  35.772  1.00  0.00    -0.744 OA
ENDBRANCH  86  87
ENDBRANCH  60  81
ENDBRANCH  34  35
ENDBRANCH  26  29
ENDBRANCH  24  25
ENDBRANCH   1  24
TORSDOF 15
ENDMDL
MODEL 3
REMARK VINA RESULT:     -11.5      1.496      2.499
REMARK SMILES C[C@H]1CCC[C@](Cc2cn3ccccc3n2)(C(=O)NCCCNC(=O)c2ccc(-c3c4nc(c(-c5ccc(S(=O)(=O)[O-])cc5)c5ccc([nH]5)c(-c5ccc(S(=O)(=O)[O-])cc5)c5nc(c(-c6ccc(S(=O)(=O)[O-])cc6)c6ccc3[nH]6)C=C5)C=C4)cc2)C1
REMARK SMILES IDX 21 1 20 2 19 3 17 4 18 5 6 7 1 8 2 9 3 10 86 11 4 12 5 13
REMARK SMILES IDX 7 14 8 15 9 16 16 17 10 18 15 19 11 20 14 21 12 22 13 23
REMARK SMILES IDX 22 24 23 25 24 26 25 28 26 29 27 30 85 31 28 32 84 33 29 34
REMARK SMILES IDX 30 35 31 36 78 37 32 38 83 39 77 40 79 41 33 42 82 43 76 44
REMARK SMILES IDX 75 45 34 47 64 48 45 49 63 50 46 51 49 52 62 53 80 54 47 55
REMARK SMILES IDX 48 56 61 58 81 59 50 60 35 61 36 62 44 63 37 64 43 65 38 66
REMARK SMILES IDX 39 67 40 68 41 69 42 70 65 71 66 72 74 73 67 74 73 75 68 76
REMARK SMILES IDX 69 77 70 78 71 79 72 80 51 81 52 82 60 83 53 84 59 85 54 86
REMARK SMILES IDX 55 87 56 88 57 89 58 90
REMARK H PARENT 19 6 23 27 79 46 49 57
REMARK Flexibility Score: inf
ROOT
ATOM      1  C   UNL A   1      34.059  28.578  25.861  1.00  0.00     0.042 C 
ENDROOT
BRANCH   1   2
ATOM      2  C   UNL A   1      33.108  28.452  24.688  1.00  0.00     0.117 C 
BRANCH   2   3
ATOM      3  N   UNL A   1      33.658  27.781  23.540  1.00  0.00    -0.356 N 
ATOM      4  C   UNL A   1      33.306  26.631  22.909  1.00  0.00     0.226 C 
ATOM      5  O   UNL A   1      33.830  26.502  21.793  1.00  0.00    -0.274 OA
ATOM      6  H   UNL A   1      34.432  28.239  23.138  1.00  0.00     0.163 HD
BRANCH   4   7
ATOM      7  C   UNL A   1      32.315  25.549  23.475  1.00  0.00     0.055 C 
ATOM      8  C   UNL A   1      28.507  26.540  23.894  1.00  0.00     0.007 C 
ATOM      9  C   UNL A   1      30.003  26.626  24.214  1.00  0.00    -0.013 C 
ATOM     10  C   UNL A   1      30.267  26.106  25.631  1.00  0.00     0.003 C 
ATOM     11  C   UNL A   1      30.845  25.930  23.136  1.00  0.00     0.020 C 
ATOM     12  C   UNL A   1      31.731  25.932  26.018  1.00  0.00     0.001 C 
ATOM     13  C   UNL A   1      32.598  25.249  24.969  1.00  0.00     0.017 C 
BRANCH   7  14
ATOM     14  C   UNL A   1      32.690  24.253  22.636  1.00  0.00     0.074 C 
BRANCH  14  15
ATOM     15  C   UNL A   1      33.668  23.267  23.216  1.00  0.00     0.061 A 
ATOM     16  C   UNL A   1      33.478  22.076  23.890  1.00  0.00     0.116 A 
ATOM     17  N   UNL A   1      35.022  23.516  23.083  1.00  0.00    -0.234 NA
ATOM     18  N   UNL A   1      34.730  21.613  24.207  1.00  0.00    -0.307 N 
ATOM     19  C   UNL A   1      35.639  22.522  23.686  1.00  0.00     0.136 A 
ATOM     20  C   UNL A   1      35.097  20.471  24.913  1.00  0.00     0.093 A 
ATOM     21  C   UNL A   1      37.020  22.245  23.888  1.00  0.00     0.048 A 
ATOM     22  C   UNL A   1      36.402  20.215  25.109  1.00  0.00     0.018 A 
ATOM     23  C   UNL A   1      37.388  21.141  24.569  1.00  0.00     0.005 A 
ENDBRANCH  14  15
ENDBRANCH   7  14
ENDBRANCH   4   7
ENDBRANCH   2   3
ENDBRANCH   1   2
BRANCH   1  24
ATOM     24  C   UNL A   1      33.342  28.818  27.176  1.00  0.00     0.118 C 
BRANCH  24  25
ATOM     25  N   UNL A   1      33.387  30.220  27.592  1.00  0.00    -0.352 N 
ATOM     26  C   UNL A   1      34.360  30.945  28.245  1.00  0.00     0.251 C 
ATOM     27  H   UNL A   1      32.581  30.737  27.364  1.00  0.00     0.163 HD
ATOM     28  O   UNL A   1      34.097  32.065  28.661  1.00  0.00    -0.269 OA
BRANCH  26  29
ATOM     29  C   UNL A   1      35.702  30.364  28.471  1.00  0.00     0.039 A 
ATOM     30  C   UNL A   1      36.641  30.383  27.435  1.00  0.00     0.014 A 
ATOM     31  C   UNL A   1      36.042  29.803  29.701  1.00  0.00     0.014 A 
ATOM     32  C   UNL A   1      37.945  29.938  27.672  1.00  0.00     0.010 A 
ATOM     33  C   UNL A   1      37.365  29.482  29.973  1.00  0.00     0.010 A 
ATOM     34  C   UNL A   1      38.333  29.542  28.962  1.00  0.00    -0.014 A 
BRANCH  34  35
ATOM     35  C   UNL A   1      39.739  29.190  29.291  1.00  0.00     0.031 A 
ATOM     36  C   UNL A   1      40.661  30.237  29.864  1.00  0.00     0.074 A 
ATOM     37  C   UNL A   1      40.212  27.967  28.972  1.00  0.00     0.049 A 
ATOM     38  N   UNL A   1      41.945  30.163  30.098  1.00  0.00    -0.248 NA
ATOM     39  C   UNL A   1      40.072  31.551  30.179  1.00  0.00     0.031 C 
ATOM     40  C   UNL A   1      39.435  26.889  28.352  1.00  0.00     0.029 A 
ATOM     41  N   UNL A   1      41.468  27.429  29.105  1.00  0.00    -0.354 N 
ATOM     42  C   UNL A   1      42.322  31.425  30.545  1.00  0.00     0.074 A 
ATOM     43  C   UNL A   1      41.142  32.258  30.512  1.00  0.00     0.031 C 
ATOM     44  C   UNL A   1      40.224  25.816  28.180  1.00  0.00     0.029 A 
ATOM     45  C   UNL A   1      41.574  26.142  28.627  1.00  0.00     0.049 A 
ATOM     46  H   UNL A   1      42.224  27.918  29.504  1.00  0.00     0.167 HD
ATOM     47  C   UNL A   1      43.539  31.845  30.962  1.00  0.00     0.031 A 
ATOM     48  C   UNL A   1      42.640  25.323  28.537  1.00  0.00     0.031 A 
ATOM     49  C   UNL A   1      44.696  30.997  31.036  1.00  0.00     0.049 A 
ATOM     50  C   UNL A   1      43.976  25.813  29.027  1.00  0.00     0.074 A 
ATOM     51  C   UNL A   1      45.945  31.295  31.550  1.00  0.00     0.029 A 
ATOM     52  N   UNL A   1      44.750  29.688  30.580  1.00  0.00    -0.354 N 
ATOM     53  N   UNL A   1      44.284  26.975  29.552  1.00  0.00    -0.248 NA
ATOM     54  C   UNL A   1      45.108  24.881  28.917  1.00  0.00     0.031 C 
ATOM     55  C   UNL A   1      46.774  30.189  31.345  1.00  0.00     0.029 A 
ATOM     56  C   UNL A   1      46.024  29.180  30.762  1.00  0.00     0.049 A 
ATOM     57  H   UNL A   1      43.994  29.195  30.188  1.00  0.00     0.167 HD
ATOM     58  C   UNL A   1      45.640  26.907  29.851  1.00  0.00     0.074 A 
ATOM     59  C   UNL A   1      46.087  25.582  29.472  1.00  0.00     0.031 C 
ATOM     60  C   UNL A   1      46.447  27.858  30.383  1.00  0.00     0.031 A 
BRANCH  47  61
ATOM     61  C   UNL A   1      43.690  33.285  31.374  1.00  0.00    -0.014 A 
ATOM     62  C   UNL A   1      43.497  33.689  32.707  1.00  0.00     0.010 A 
ATOM     63  C   UNL A   1      44.115  34.235  30.426  1.00  0.00     0.010 A 
ATOM     64  C   UNL A   1      43.704  35.020  33.079  1.00  0.00     0.020 A 
ATOM     65  C   UNL A   1      44.349  35.561  30.800  1.00  0.00     0.020 A 
ATOM     66  C   UNL A   1      44.134  35.947  32.124  1.00  0.00     0.054 A 
BRANCH  66  67
ATOM     67  S   UNL A   1      44.455  37.652  32.653  1.00  0.00     0.124 S 
ATOM     68  O   UNL A   1      43.966  38.419  31.509  1.00  0.00    -0.237 OA
ATOM     69  O   UNL A   1      43.656  37.763  33.870  1.00  0.00    -0.237 OA
ATOM     70  O   UNL A   1      45.902  37.687  32.852  1.00  0.00    -0.744 OA
ENDBRANCH  66  67
ENDBRANCH  47  61
BRANCH  48  71
ATOM     71  C   UNL A   1      42.498  23.964  27.942  1.00  0.00    -0.014 A 
ATOM     72  C   UNL A   1      42.168  22.860  28.747  1.00  0.00     0.010 A 
ATOM     73  C   UNL A   1      42.710  23.764  26.566  1.00  0.00     0.010 A 
ATOM     74  C   UNL A   1      42.086  21.577  28.194  1.00  0.00     0.020 A 
ATOM     75  C   UNL A   1      42.598  22.489  26.003  1.00  0.00     0.020 A 
ATOM     76  C   UNL A   1      42.304  21.401  26.825  1.00  0.00     0.054 A 
BRANCH  76  77
ATOM     77  S   UNL A   1      42.173  19.732  26.125  1.00  0.00     0.124 S 
ATOM     78  O   UNL A   1      43.154  19.778  25.045  1.00  0.00    -0.237 OA
ATOM     79  O   UNL A   1      42.522  18.884  27.262  1.00  0.00    -0.237 OA
ATOM     80  O   UNL A   1      40.777  19.648  25.700  1.00  0.00    -0.744 OA
ENDBRANCH  76  77
ENDBRANCH  48  71
BRANCH  60  81
ATOM     81  C   UNL A   1      47.890  27.500  30.608  1.00  0.00    -0.014 A 
ATOM     82  C   UNL A   1      48.288  26.778  31.746  1.00  0.00     0.010 A 
ATOM     83  C   UNL A   1      48.847  27.821  29.628  1.00  0.00     0.010 A 
ATOM     84  C   UNL A   1      49.621  26.398  31.909  1.00  0.00     0.020 A 
ATOM     85  C   UNL A   1      50.176  27.417  29.773  1.00  0.00     0.020 A 
ATOM     86  C   UNL A   1      50.556  26.715  30.918  1.00  0.00     0.054 A 
BRANCH  86  87
ATOM     87  S   UNL A   1      52.267  26.151  31.123  1.00  0.00     0.124 S 
ATOM     88  O   UNL A   1      52.868  27.261  31.856  1.00  0.00    -0.237 OA
ATOM     89  O   UNL A   1      52.106  24.911  31.880  1.00  0.00    -0.237 OA
ATOM     90  O   UNL A   1      52.743  25.980  29.753  1.00  0.00    -0.744 OA
ENDBRANCH  86  87
ENDBRANCH  60  81
ENDBRANCH  34  35
ENDBRANCH  26  29
ENDBRANCH  24  25
ENDBRANCH   1  24
TORSDOF 15
ENDMDL
