MODEL 1
REMARK VINA RESULT:     -10.2      0.000      0.000
REMARK SMILES O=C(CN(CC(F)(F)F)C(=O)CC[C@H]1CCC[NH2+]C1)NCCCNC(=O)c1ccc(-c2c3nc(c(-c4ccc(S(=O)(=O)[O-])cc4)c4ccc([nH]4)c(-c4ccc(S(=O)(=O)[O-])cc4)c4nc(c(-c5ccc(S(=O)(=O)[O-])cc5)c5ccc2[nH]5)C=C4)C=C3)cc1
REMARK SMILES IDX 21 1 20 2 1 3 2 4 3 6 4 7 5 8 6 9 7 10 8 11 9 12 10 13 11 14
REMARK SMILES IDX 12 15 13 16 14 17 15 18 19 19 16 20 18 21 17 22 22 25 23 26
REMARK SMILES IDX 24 27 25 28 26 30 27 31 28 32 86 33 29 34 85 35 30 36 31 37
REMARK SMILES IDX 32 38 79 39 33 40 84 41 78 42 80 43 34 44 83 45 77 46 76 47
REMARK SMILES IDX 35 49 65 50 46 51 64 52 47 53 50 54 63 55 81 56 48 57 49 58
REMARK SMILES IDX 62 60 82 61 51 62 36 63 37 64 45 65 38 66 44 67 39 68 40 69
REMARK SMILES IDX 41 70 42 71 43 72 66 73 67 74 75 75 68 76 74 77 69 78 70 79
REMARK SMILES IDX 71 80 72 81 73 82 52 83 53 84 61 85 54 86 60 87 55 88 56 89
REMARK SMILES IDX 57 90 58 91 59 92
REMARK H PARENT 20 5 18 23 18 24 24 29 80 48 50 59
REMARK Flexibility Score: inf
ROOT
ATOM      1  C   UNL A   1      33.112  27.527  24.130  1.00  0.00     0.117 C 
ENDROOT
BRANCH   1   2
ATOM      2  N   UNL A   1      32.780  26.144  23.851  1.00  0.00    -0.354 N 
ATOM      3  O   UNL A   1      33.903  26.057  21.857  1.00  0.00    -0.273 OA
ATOM      4  C   UNL A   1      33.330  25.475  22.778  1.00  0.00     0.239 C 
ATOM      5  H   UNL A   1      32.149  25.672  24.441  1.00  0.00     0.163 HD
BRANCH   4   6
ATOM      6  C   UNL A   1      33.078  23.956  22.723  1.00  0.00     0.219 C 
BRANCH   6   7
ATOM      7  N   UNL A   1      33.537  23.147  23.876  1.00  0.00    -0.324 N 
BRANCH   7   8
ATOM      8  C   UNL A   1      35.019  23.086  24.057  1.00  0.00     0.235 C 
BRANCH   8   9
ATOM      9  C   UNL A   1      35.669  23.743  25.284  1.00  0.00     0.406 C 
ATOM     10  F   UNL A   1      35.293  25.021  25.477  1.00  0.00    -0.169 F 
ATOM     11  F   UNL A   1      35.323  23.069  26.409  1.00  0.00    -0.169 F 
ATOM     12  F   UNL A   1      37.017  23.714  25.200  1.00  0.00    -0.169 F 
ENDBRANCH   8   9
ENDBRANCH   7   8
BRANCH   7  13
ATOM     13  C   UNL A   1      32.521  22.710  24.722  1.00  0.00     0.223 C 
ATOM     14  O   UNL A   1      31.890  23.540  25.391  1.00  0.00    -0.275 OA
BRANCH  13  15
ATOM     15  C   UNL A   1      32.082  21.255  24.854  1.00  0.00     0.101 C 
BRANCH  15  16
ATOM     16  C   UNL A   1      32.636  20.302  23.784  1.00  0.00     0.019 C 
BRANCH  16  17
ATOM     17  C   UNL A   1      32.699  18.862  24.293  1.00  0.00     0.045 C 
ATOM     18  C   UNL A   1      33.556  17.910  23.457  1.00  0.00     0.015 C 
ATOM     19  C   UNL A   1      33.094  18.761  25.769  1.00  0.00     0.264 C 
ATOM     20  C   UNL A   1      33.332  16.488  23.983  1.00  0.00     0.062 C 
ATOM     21  N   UNL A   1      32.806  17.408  26.246  1.00  0.00    -0.346 N 
ATOM     22  C   UNL A   1      33.561  16.398  25.495  1.00  0.00     0.260 C 
ATOM     23  H   UNL A   1      33.058  17.343  27.231  1.00  0.00     0.346 HD
ATOM     24  H   UNL A   1      31.811  17.227  26.111  1.00  0.00     0.346 HD
ENDBRANCH  16  17
ENDBRANCH  15  16
ENDBRANCH  13  15
ENDBRANCH   7  13
ENDBRANCH   6   7
ENDBRANCH   4   6
ENDBRANCH   1   2
BRANCH   1  25
ATOM     25  C   UNL A   1      32.757  27.975  25.543  1.00  0.00     0.042 C 
BRANCH  25  26
ATOM     26  C   UNL A   1      33.946  28.437  26.381  1.00  0.00     0.118 C 
BRANCH  26  27
ATOM     27  N   UNL A   1      33.768  29.770  26.942  1.00  0.00    -0.352 N 
ATOM     28  C   UNL A   1      34.558  30.504  27.790  1.00  0.00     0.251 C 
ATOM     29  H   UNL A   1      32.940  30.223  26.664  1.00  0.00     0.163 HD
ATOM     30  O   UNL A   1      34.117  31.569  28.231  1.00  0.00    -0.269 OA
BRANCH  28  31
ATOM     31  C   UNL A   1      35.908  30.047  28.198  1.00  0.00     0.039 A 
ATOM     32  C   UNL A   1      36.956  30.155  27.277  1.00  0.00     0.014 A 
ATOM     33  C   UNL A   1      36.145  29.460  29.443  1.00  0.00     0.014 A 
ATOM     34  C   UNL A   1      38.244  29.727  27.621  1.00  0.00     0.010 A 
ATOM     35  C   UNL A   1      37.442  29.098  29.811  1.00  0.00     0.010 A 
ATOM     36  C   UNL A   1      38.505  29.219  28.902  1.00  0.00    -0.014 A 
BRANCH  36  37
ATOM     37  C   UNL A   1      39.875  28.801  29.304  1.00  0.00     0.031 A 
ATOM     38  C   UNL A   1      40.773  29.752  30.052  1.00  0.00     0.074 A 
ATOM     39  C   UNL A   1      40.338  27.585  28.950  1.00  0.00     0.049 A 
ATOM     40  N   UNL A   1      42.016  29.592  30.429  1.00  0.00    -0.248 NA
ATOM     41  C   UNL A   1      40.205  31.065  30.403  1.00  0.00     0.031 C 
ATOM     42  C   UNL A   1      39.587  26.578  28.199  1.00  0.00     0.029 A 
ATOM     43  N   UNL A   1      41.558  26.993  29.170  1.00  0.00    -0.354 N 
ATOM     44  C   UNL A   1      42.387  30.785  31.040  1.00  0.00     0.074 A 
ATOM     45  C   UNL A   1      41.250  31.675  30.945  1.00  0.00     0.031 C 
ATOM     46  C   UNL A   1      40.354  25.486  28.040  1.00  0.00     0.029 A 
ATOM     47  C   UNL A   1      41.662  25.728  28.641  1.00  0.00     0.049 A 
ATOM     48  H   UNL A   1      42.290  27.432  29.661  1.00  0.00     0.167 HD
ATOM     49  C   UNL A   1      43.557  31.107  31.641  1.00  0.00     0.031 A 
ATOM     50  C   UNL A   1      42.693  24.860  28.633  1.00  0.00     0.031 A 
ATOM     51  C   UNL A   1      44.684  30.218  31.750  1.00  0.00     0.049 A 
ATOM     52  C   UNL A   1      43.984  25.241  29.303  1.00  0.00     0.074 A 
ATOM     53  C   UNL A   1      45.895  30.438  32.386  1.00  0.00     0.029 A 
ATOM     54  N   UNL A   1      44.741  28.941  31.214  1.00  0.00    -0.354 N 
ATOM     55  N   UNL A   1      44.294  26.354  29.923  1.00  0.00    -0.248 NA
ATOM     56  C   UNL A   1      45.061  24.242  29.285  1.00  0.00     0.031 C 
ATOM     57  C   UNL A   1      46.699  29.309  32.196  1.00  0.00     0.029 A 
ATOM     58  C   UNL A   1      45.970  28.367  31.489  1.00  0.00     0.049 A 
ATOM     59  H   UNL A   1      44.013  28.507  30.712  1.00  0.00     0.167 HD
ATOM     60  C   UNL A   1      45.591  26.178  30.393  1.00  0.00     0.074 A 
ATOM     61  C   UNL A   1      46.003  24.847  29.996  1.00  0.00     0.031 C 
ATOM     62  C   UNL A   1      46.369  27.040  31.092  1.00  0.00     0.031 A 
BRANCH  49  63
ATOM     63  C   UNL A   1      43.681  32.492  32.223  1.00  0.00    -0.014 A 
ATOM     64  C   UNL A   1      43.393  32.737  33.579  1.00  0.00     0.010 A 
ATOM     65  C   UNL A   1      44.122  33.555  31.415  1.00  0.00     0.010 A 
ATOM     66  C   UNL A   1      43.498  34.028  34.102  1.00  0.00     0.020 A 
ATOM     67  C   UNL A   1      44.257  34.843  31.943  1.00  0.00     0.020 A 
ATOM     68  C   UNL A   1      43.924  35.075  33.279  1.00  0.00     0.054 A 
BRANCH  68  69
ATOM     69  S   UNL A   1      44.058  36.740  33.986  1.00  0.00     0.124 S 
ATOM     70  O   UNL A   1      45.016  37.373  33.081  1.00  0.00    -0.237 OA
ATOM     71  O   UNL A   1      42.688  37.239  33.895  1.00  0.00    -0.237 OA
ATOM     72  O   UNL A   1      44.545  36.504  35.341  1.00  0.00    -0.744 OA
ENDBRANCH  68  69
ENDBRANCH  49  63
BRANCH  50  73
ATOM     73  C   UNL A   1      42.538  23.531  27.980  1.00  0.00    -0.014 A 
ATOM     74  C   UNL A   1      42.988  23.328  26.663  1.00  0.00     0.010 A 
ATOM     75  C   UNL A   1      41.950  22.459  28.675  1.00  0.00     0.010 A 
ATOM     76  C   UNL A   1      42.835  22.084  26.047  1.00  0.00     0.020 A 
ATOM     77  C   UNL A   1      41.821  21.205  28.072  1.00  0.00     0.020 A 
ATOM     78  C   UNL A   1      42.254  21.029  26.756  1.00  0.00     0.054 A 
BRANCH  78  79
ATOM     79  S   UNL A   1      42.113  19.407  25.954  1.00  0.00     0.124 S 
ATOM     80  O   UNL A   1      42.593  18.509  27.000  1.00  0.00    -0.237 OA
ATOM     81  O   UNL A   1      40.686  19.325  25.654  1.00  0.00    -0.237 OA
ATOM     82  O   UNL A   1      42.981  19.528  24.785  1.00  0.00    -0.744 OA
ENDBRANCH  78  79
ENDBRANCH  50  73
BRANCH  62  83
ATOM     83  C   UNL A   1      47.732  26.561  31.513  1.00  0.00    -0.014 A 
ATOM     84  C   UNL A   1      48.868  26.801  30.719  1.00  0.00     0.010 A 
ATOM     85  C   UNL A   1      47.886  25.908  32.749  1.00  0.00     0.010 A 
ATOM     86  C   UNL A   1      50.129  26.367  31.141  1.00  0.00     0.020 A 
ATOM     87  C   UNL A   1      49.147  25.497  33.187  1.00  0.00     0.020 A 
ATOM     88  C   UNL A   1      50.260  25.716  32.372  1.00  0.00     0.054 A 
BRANCH  88  89
ATOM     89  S   UNL A   1      51.912  25.203  32.919  1.00  0.00     0.124 S 
ATOM     90  O   UNL A   1      51.724  25.063  34.361  1.00  0.00    -0.237 OA
ATOM     91  O   UNL A   1      52.120  23.956  32.188  1.00  0.00    -0.237 OA
ATOM     92  O   UNL A   1      52.772  26.310  32.507  1.00  0.00    -0.744 OA
ENDBRANCH  88  89
ENDBRANCH  62  83
ENDBRANCH  36  37
ENDBRANCH  28  31
ENDBRANCH  26  27
ENDBRANCH  25  26
ENDBRANCH   1  25
TORSDOF 20
ENDMDL
MODEL 2
REMARK VINA RESULT:      -9.8      3.733      5.319
REMARK SMILES O=C(CN(CC(F)(F)F)C(=O)CC[C@H]1CCC[NH2+]C1)NCCCNC(=O)c1ccc(-c2c3nc(c(-c4ccc(S(=O)(=O)[O-])cc4)c4ccc([nH]4)c(-c4ccc(S(=O)(=O)[O-])cc4)c4nc(c(-c5ccc(S(=O)(=O)[O-])cc5)c5ccc2[nH]5)C=C4)C=C3)cc1
REMARK SMILES IDX 21 1 20 2 1 3 2 4 3 6 4 7 5 8 6 9 7 10 8 11 9 12 10 13 11 14
REMARK SMILES IDX 12 15 13 16 14 17 15 18 19 19 16 20 18 21 17 22 22 25 23 26
REMARK SMILES IDX 24 27 25 28 26 30 27 31 28 32 86 33 29 34 85 35 30 36 31 37
REMARK SMILES IDX 32 38 79 39 33 40 84 41 78 42 80 43 34 44 83 45 77 46 76 47
REMARK SMILES IDX 35 49 65 50 46 51 64 52 47 53 50 54 63 55 81 56 48 57 49 58
REMARK SMILES IDX 62 60 82 61 51 62 36 63 37 64 45 65 38 66 44 67 39 68 40 69
REMARK SMILES IDX 41 70 42 71 43 72 66 73 67 74 75 75 68 76 74 77 69 78 70 79
REMARK SMILES IDX 71 80 72 81 73 82 52 83 53 84 61 85 54 86 60 87 55 88 56 89
REMARK SMILES IDX 57 90 58 91 59 92
REMARK H PARENT 20 5 18 23 18 24 24 29 80 48 50 59
REMARK Flexibility Score: inf
ROOT
ATOM      1  C   UNL A   1      33.774  28.840  25.926  1.00  0.00     0.117 C 
ENDROOT
BRANCH   1   2
ATOM      2  N   UNL A   1      33.629  27.445  25.564  1.00  0.00    -0.354 N 
ATOM      3  O   UNL A   1      33.835  27.791  23.310  1.00  0.00    -0.273 OA
ATOM      4  C   UNL A   1      33.811  27.017  24.266  1.00  0.00     0.239 C 
ATOM      5  H   UNL A   1      33.397  26.788  26.260  1.00  0.00     0.163 HD
BRANCH   4   6
ATOM      6  C   UNL A   1      33.856  25.491  24.054  1.00  0.00     0.219 C 
BRANCH   6   7
ATOM      7  N   UNL A   1      32.560  24.777  23.972  1.00  0.00    -0.324 N 
BRANCH   7   8
ATOM      8  C   UNL A   1      32.360  23.710  24.998  1.00  0.00     0.235 C 
BRANCH   8   9
ATOM      9  C   UNL A   1      31.703  24.056  26.344  1.00  0.00     0.406 C 
ATOM     10  F   UNL A   1      30.392  23.756  26.399  1.00  0.00    -0.169 F 
ATOM     11  F   UNL A   1      32.298  23.358  27.343  1.00  0.00    -0.169 F 
ATOM     12  F   UNL A   1      31.842  25.368  26.635  1.00  0.00    -0.169 F 
ENDBRANCH   8   9
ENDBRANCH   7   8
BRANCH   7  13
ATOM     13  C   UNL A   1      31.652  25.320  23.067  1.00  0.00     0.223 C 
ATOM     14  O   UNL A   1      31.968  25.416  21.874  1.00  0.00    -0.275 OA
BRANCH  13  15
ATOM     15  C   UNL A   1      30.244  25.776  23.435  1.00  0.00     0.101 C 
BRANCH  15  16
ATOM     16  C   UNL A   1      30.145  27.187  24.035  1.00  0.00     0.019 C 
BRANCH  16  17
ATOM     17  C   UNL A   1      29.737  28.217  22.982  1.00  0.00     0.045 C 
ATOM     18  C   UNL A   1      28.319  28.772  23.125  1.00  0.00     0.015 C 
ATOM     19  C   UNL A   1      30.737  29.369  22.845  1.00  0.00     0.264 C 
ATOM     20  C   UNL A   1      28.012  29.612  21.880  1.00  0.00     0.062 C 
ATOM     21  N   UNL A   1      30.448  30.106  21.613  1.00  0.00    -0.346 N 
ATOM     22  C   UNL A   1      29.092  30.669  21.627  1.00  0.00     0.260 C 
ATOM     23  H   UNL A   1      31.120  30.865  21.516  1.00  0.00     0.346 HD
ATOM     24  H   UNL A   1      30.515  29.456  20.830  1.00  0.00     0.346 HD
ENDBRANCH  16  17
ENDBRANCH  15  16
ENDBRANCH  13  15
ENDBRANCH   7  13
ENDBRANCH   6   7
ENDBRANCH   4   6
ENDBRANCH   1   2
BRANCH   1  25
ATOM     25  C   UNL A   1      34.150  29.065  27.386  1.00  0.00     0.042 C 
BRANCH  25  26
ATOM     26  C   UNL A   1      35.249  30.101  27.607  1.00  0.00     0.118 C 
BRANCH  26  27
ATOM     27  N   UNL A   1      35.285  30.615  28.970  1.00  0.00    -0.352 N 
ATOM     28  C   UNL A   1      36.287  30.616  29.907  1.00  0.00     0.251 C 
ATOM     29  H   UNL A   1      34.447  31.035  29.271  1.00  0.00     0.163 HD
ATOM     30  O   UNL A   1      36.024  30.998  31.050  1.00  0.00    -0.269 OA
BRANCH  28  31
ATOM     31  C   UNL A   1      37.661  30.161  29.587  1.00  0.00     0.039 A 
ATOM     32  C   UNL A   1      38.033  30.051  28.241  1.00  0.00     0.014 A 
ATOM     33  C   UNL A   1      38.565  29.782  30.582  1.00  0.00     0.014 A 
ATOM     34  C   UNL A   1      39.318  29.617  27.899  1.00  0.00     0.010 A 
ATOM     35  C   UNL A   1      39.869  29.416  30.242  1.00  0.00     0.010 A 
ATOM     36  C   UNL A   1      40.259  29.321  28.897  1.00  0.00    -0.014 A 
BRANCH  36  37
ATOM     37  C   UNL A   1      41.645  28.902  28.554  1.00  0.00     0.031 A 
ATOM     38  C   UNL A   1      42.761  29.914  28.523  1.00  0.00     0.074 A 
ATOM     39  C   UNL A   1      41.895  27.621  28.216  1.00  0.00     0.049 A 
ATOM     40  N   UNL A   1      44.014  29.751  28.185  1.00  0.00    -0.248 NA
ATOM     41  C   UNL A   1      42.416  31.296  28.899  1.00  0.00     0.031 C 
ATOM     42  C   UNL A   1      40.903  26.545  28.175  1.00  0.00     0.029 A 
ATOM     43  N   UNL A   1      43.064  27.008  27.834  1.00  0.00    -0.354 N 
ATOM     44  C   UNL A   1      44.603  31.007  28.287  1.00  0.00     0.074 A 
ATOM     45  C   UNL A   1      43.558  31.930  28.676  1.00  0.00     0.031 C 
ATOM     46  C   UNL A   1      41.509  25.403  27.811  1.00  0.00     0.029 A 
ATOM     47  C   UNL A   1      42.921  25.670  27.556  1.00  0.00     0.049 A 
ATOM     48  H   UNL A   1      43.924  27.482  27.767  1.00  0.00     0.167 HD
ATOM     49  C   UNL A   1      45.896  31.361  28.092  1.00  0.00     0.031 A 
ATOM     50  C   UNL A   1      43.820  24.757  27.135  1.00  0.00     0.031 A 
ATOM     51  C   UNL A   1      46.941  30.442  27.720  1.00  0.00     0.049 A 
ATOM     52  C   UNL A   1      45.250  25.174  26.922  1.00  0.00     0.074 A 
ATOM     53  C   UNL A   1      48.291  30.698  27.550  1.00  0.00     0.029 A 
ATOM     54  N   UNL A   1      46.755  29.093  27.463  1.00  0.00    -0.354 N 
ATOM     55  N   UNL A   1      45.796  26.356  27.077  1.00  0.00    -0.248 NA
ATOM     56  C   UNL A   1      46.188  24.128  26.491  1.00  0.00     0.031 C 
ATOM     57  C   UNL A   1      48.914  29.512  27.147  1.00  0.00     0.029 A 
ATOM     58  C   UNL A   1      47.961  28.506  27.118  1.00  0.00     0.049 A 
ATOM     59  H   UNL A   1      45.892  28.622  27.517  1.00  0.00     0.167 HD
ATOM     60  C   UNL A   1      47.146  26.190  26.790  1.00  0.00     0.074 A 
ATOM     61  C   UNL A   1      47.336  24.792  26.464  1.00  0.00     0.031 C 
ATOM     62  C   UNL A   1      48.140  27.112  26.798  1.00  0.00     0.031 A 
BRANCH  49  63
ATOM     63  C   UNL A   1      46.254  32.813  28.272  1.00  0.00    -0.014 A 
ATOM     64  C   UNL A   1      46.885  33.266  29.446  1.00  0.00     0.010 A 
ATOM     65  C   UNL A   1      45.987  33.733  27.242  1.00  0.00     0.010 A 
ATOM     66  C   UNL A   1      47.197  34.618  29.605  1.00  0.00     0.020 A 
ATOM     67  C   UNL A   1      46.326  35.083  27.386  1.00  0.00     0.020 A 
ATOM     68  C   UNL A   1      46.910  35.519  28.576  1.00  0.00     0.054 A 
BRANCH  68  69
ATOM     69  S   UNL A   1      47.334  37.268  28.806  1.00  0.00     0.124 S 
ATOM     70  O   UNL A   1      48.235  37.509  27.681  1.00  0.00    -0.237 OA
ATOM     71  O   UNL A   1      46.032  37.928  28.718  1.00  0.00    -0.237 OA
ATOM     72  O   UNL A   1      47.959  37.304  30.124  1.00  0.00    -0.744 OA
ENDBRANCH  68  69
ENDBRANCH  49  63
BRANCH  50  73
ATOM     73  C   UNL A   1      43.396  23.349  26.905  1.00  0.00    -0.014 A 
ATOM     74  C   UNL A   1      43.385  22.812  25.605  1.00  0.00     0.010 A 
ATOM     75  C   UNL A   1      43.011  22.535  27.985  1.00  0.00     0.010 A 
ATOM     76  C   UNL A   1      42.979  21.493  25.387  1.00  0.00     0.020 A 
ATOM     77  C   UNL A   1      42.630  21.206  27.774  1.00  0.00     0.020 A 
ATOM     78  C   UNL A   1      42.606  20.698  26.474  1.00  0.00     0.054 A 
BRANCH  78  79
ATOM     79  S   UNL A   1      42.132  18.972  26.174  1.00  0.00     0.124 S 
ATOM     80  O   UNL A   1      43.055  18.585  25.112  1.00  0.00    -0.237 OA
ATOM     81  O   UNL A   1      42.364  18.349  27.474  1.00  0.00    -0.237 OA
ATOM     82  O   UNL A   1      40.727  19.067  25.780  1.00  0.00    -0.744 OA
ENDBRANCH  78  79
ENDBRANCH  50  73
BRANCH  62  83
ATOM     83  C   UNL A   1      49.532  26.637  26.485  1.00  0.00    -0.014 A 
ATOM     84  C   UNL A   1      50.341  26.042  27.470  1.00  0.00     0.010 A 
ATOM     85  C   UNL A   1      50.019  26.738  25.169  1.00  0.00     0.010 A 
ATOM     86  C   UNL A   1      51.623  25.586  27.150  1.00  0.00     0.020 A 
ATOM     87  C   UNL A   1      51.289  26.260  24.839  1.00  0.00     0.020 A 
ATOM     88  C   UNL A   1      52.090  25.699  25.837  1.00  0.00     0.054 A 
BRANCH  88  89
ATOM     89  S   UNL A   1      53.740  25.060  25.436  1.00  0.00     0.124 S 
ATOM     90  O   UNL A   1      54.033  25.742  24.179  1.00  0.00    -0.237 OA
ATOM     91  O   UNL A   1      54.538  25.486  26.583  1.00  0.00    -0.237 OA
ATOM     92  O   UNL A   1      53.535  23.617  25.330  1.00  0.00    -0.744 OA
ENDBRANCH  88  89
ENDBRANCH  62  83
ENDBRANCH  36  37
ENDBRANCH  28  31
ENDBRANCH  26  27
ENDBRANCH  25  26
ENDBRANCH   1  25
TORSDOF 20
ENDMDL
MODEL 3
REMARK VINA RESULT:      -9.8      1.686      2.239
REMARK SMILES O=C(CN(CC(F)(F)F)C(=O)CC[C@H]1CCC[NH2+]C1)NCCCNC(=O)c1ccc(-c2c3nc(c(-c4ccc(S(=O)(=O)[O-])cc4)c4ccc([nH]4)c(-c4ccc(S(=O)(=O)[O-])cc4)c4nc(c(-c5ccc(S(=O)(=O)[O-])cc5)c5ccc2[nH]5)C=C4)C=C3)cc1
REMARK SMILES IDX 21 1 20 2 1 3 2 4 3 6 4 7 5 8 6 9 7 10 8 11 9 12 10 13 11 14
REMARK SMILES IDX 12 15 13 16 14 17 15 18 19 19 16 20 18 21 17 22 22 25 23 26
REMARK SMILES IDX 24 27 25 28 26 30 27 31 28 32 86 33 29 34 85 35 30 36 31 37
REMARK SMILES IDX 32 38 79 39 33 40 84 41 78 42 80 43 34 44 83 45 77 46 76 47
REMARK SMILES IDX 35 49 65 50 46 51 64 52 47 53 50 54 63 55 81 56 48 57 49 58
REMARK SMILES IDX 62 60 82 61 51 62 36 63 37 64 45 65 38 66 44 67 39 68 40 69
REMARK SMILES IDX 41 70 42 71 43 72 66 73 67 74 75 75 68 76 74 77 69 78 70 79
REMARK SMILES IDX 71 80 72 81 73 82 52 83 53 84 61 85 54 86 60 87 55 88 56 89
REMARK SMILES IDX 57 90 58 91 59 92
REMARK H PARENT 20 5 18 23 18 24 24 29 80 48 50 59
REMARK Flexibility Score: inf
ROOT
ATOM      1  C   UNL A   1      31.335  27.411  26.752  1.00  0.00     0.117 C 
ENDROOT
BRANCH   1   2
ATOM      2  N   UNL A   1      31.030  26.067  26.303  1.00  0.00    -0.354 N 
ATOM      3  O   UNL A   1      30.270  26.704  24.239  1.00  0.00    -0.273 OA
ATOM      4  C   UNL A   1      30.640  25.814  25.005  1.00  0.00     0.239 C 
ATOM      5  H   UNL A   1      31.103  25.319  26.939  1.00  0.00     0.163 HD
BRANCH   4   6
ATOM      6  C   UNL A   1      30.567  24.331  24.594  1.00  0.00     0.219 C 
BRANCH   6   7
ATOM      7  N   UNL A   1      31.840  23.573  24.551  1.00  0.00    -0.324 N 
BRANCH   7   8
ATOM      8  C   UNL A   1      32.813  24.029  23.513  1.00  0.00     0.235 C 
BRANCH   8   9
ATOM      9  C   UNL A   1      33.462  23.006  22.569  1.00  0.00     0.406 C 
ATOM     10  F   UNL A   1      32.986  21.755  22.717  1.00  0.00    -0.169 F 
ATOM     11  F   UNL A   1      33.229  23.353  21.279  1.00  0.00    -0.169 F 
ATOM     12  F   UNL A   1      34.802  22.963  22.736  1.00  0.00    -0.169 F 
ENDBRANCH   8   9
ENDBRANCH   7   8
BRANCH   7  13
ATOM     13  C   UNL A   1      32.013  22.666  25.593  1.00  0.00     0.223 C 
ATOM     14  O   UNL A   1      31.477  21.552  25.524  1.00  0.00    -0.275 OA
BRANCH  13  15
ATOM     15  C   UNL A   1      32.872  22.931  26.826  1.00  0.00     0.101 C 
BRANCH  15  16
ATOM     16  C   UNL A   1      33.707  21.736  27.313  1.00  0.00     0.019 C 
BRANCH  16  17
ATOM     17  C   UNL A   1      35.071  21.688  26.627  1.00  0.00     0.045 C 
ATOM     18  C   UNL A   1      35.131  20.848  25.349  1.00  0.00     0.015 C 
ATOM     19  C   UNL A   1      35.668  23.074  26.370  1.00  0.00     0.264 C 
ATOM     20  C   UNL A   1      36.600  20.738  24.925  1.00  0.00     0.062 C 
ATOM     21  N   UNL A   1      37.084  22.927  26.029  1.00  0.00    -0.346 N 
ATOM     22  C   UNL A   1      37.267  22.113  24.822  1.00  0.00     0.260 C 
ATOM     23  H   UNL A   1      37.483  23.850  25.869  1.00  0.00     0.346 HD
ATOM     24  H   UNL A   1      37.551  22.457  26.804  1.00  0.00     0.346 HD
ENDBRANCH  16  17
ENDBRANCH  15  16
ENDBRANCH  13  15
ENDBRANCH   7  13
ENDBRANCH   6   7
ENDBRANCH   4   6
ENDBRANCH   1   2
BRANCH   1  25
ATOM     25  C   UNL A   1      32.630  27.975  26.179  1.00  0.00     0.042 C 
BRANCH  25  26
ATOM     26  C   UNL A   1      33.651  28.411  27.226  1.00  0.00     0.118 C 
BRANCH  26  27
ATOM     27  N   UNL A   1      33.589  29.835  27.529  1.00  0.00    -0.352 N 
ATOM     28  C   UNL A   1      34.505  30.674  28.110  1.00  0.00     0.251 C 
ATOM     29  H   UNL A   1      32.744  30.271  27.272  1.00  0.00     0.163 HD
ATOM     30  O   UNL A   1      34.158  31.827  28.382  1.00  0.00    -0.269 OA
BRANCH  28  31
ATOM     31  C   UNL A   1      35.883  30.232  28.428  1.00  0.00     0.039 A 
ATOM     32  C   UNL A   1      36.850  30.276  27.417  1.00  0.00     0.014 A 
ATOM     33  C   UNL A   1      36.224  29.717  29.682  1.00  0.00     0.014 A 
ATOM     34  C   UNL A   1      38.161  29.860  27.676  1.00  0.00     0.010 A 
ATOM     35  C   UNL A   1      37.546  29.368  29.960  1.00  0.00     0.010 A 
ATOM     36  C   UNL A   1      38.529  29.426  28.959  1.00  0.00    -0.014 A 
BRANCH  36  37
ATOM     37  C   UNL A   1      39.927  29.022  29.267  1.00  0.00     0.031 A 
ATOM     38  C   UNL A   1      40.878  29.998  29.910  1.00  0.00     0.074 A 
ATOM     39  C   UNL A   1      40.364  27.794  28.921  1.00  0.00     0.049 A 
ATOM     40  N   UNL A   1      42.147  29.850  30.194  1.00  0.00    -0.248 NA
ATOM     41  C   UNL A   1      40.336  31.323  30.258  1.00  0.00     0.031 C 
ATOM     42  C   UNL A   1      39.559  26.761  28.266  1.00  0.00     0.029 A 
ATOM     43  N   UNL A   1      41.599  27.209  29.066  1.00  0.00    -0.354 N 
ATOM     44  C   UNL A   1      42.561  31.064  30.733  1.00  0.00     0.074 A 
ATOM     45  C   UNL A   1      41.418  31.951  30.695  1.00  0.00     0.031 C 
ATOM     46  C   UNL A   1      40.313  25.665  28.086  1.00  0.00     0.029 A 
ATOM     47  C   UNL A   1      41.664  25.927  28.575  1.00  0.00     0.049 A 
ATOM     48  H   UNL A   1      42.365  27.665  29.483  1.00  0.00     0.167 HD
ATOM     49  C   UNL A   1      43.774  31.407  31.229  1.00  0.00     0.031 A 
ATOM     50  C   UNL A   1      42.692  25.058  28.517  1.00  0.00     0.031 A 
ATOM     51  C   UNL A   1      44.908  30.521  31.282  1.00  0.00     0.049 A 
ATOM     52  C   UNL A   1      44.031  25.462  29.072  1.00  0.00     0.074 A 
ATOM     53  C   UNL A   1      46.163  30.762  31.814  1.00  0.00     0.029 A 
ATOM     54  N   UNL A   1      44.925  29.226  30.788  1.00  0.00    -0.354 N 
ATOM     55  N   UNL A   1      44.386  26.596  29.626  1.00  0.00    -0.248 NA
ATOM     56  C   UNL A   1      45.106  24.462  29.005  1.00  0.00     0.031 C 
ATOM     57  C   UNL A   1      46.953  29.627  31.602  1.00  0.00     0.029 A 
ATOM     58  C   UNL A   1      46.174  28.661  30.987  1.00  0.00     0.049 A 
ATOM     59  H   UNL A   1      44.162  28.775  30.359  1.00  0.00     0.167 HD
ATOM     60  C   UNL A   1      45.716  26.435  30.000  1.00  0.00     0.074 A 
ATOM     61  C   UNL A   1      46.098  25.092  29.620  1.00  0.00     0.031 C 
ATOM     62  C   UNL A   1      46.544  27.321  30.607  1.00  0.00     0.031 A 
BRANCH  49  63
ATOM     63  C   UNL A   1      43.940  32.810  31.752  1.00  0.00    -0.014 A 
ATOM     64  C   UNL A   1      44.371  33.852  30.910  1.00  0.00     0.010 A 
ATOM     65  C   UNL A   1      43.630  33.100  33.093  1.00  0.00     0.010 A 
ATOM     66  C   UNL A   1      44.534  35.146  31.411  1.00  0.00     0.020 A 
ATOM     67  C   UNL A   1      43.764  34.400  33.591  1.00  0.00     0.020 A 
ATOM     68  C   UNL A   1      44.235  35.411  32.750  1.00  0.00     0.054 A 
BRANCH  68  69
ATOM     69  S   UNL A   1      44.449  37.101  33.374  1.00  0.00     0.124 S 
ATOM     70  O   UNL A   1      43.116  37.400  33.890  1.00  0.00    -0.237 OA
ATOM     71  O   UNL A   1      45.492  36.940  34.385  1.00  0.00    -0.237 OA
ATOM     72  O   UNL A   1      44.843  37.860  32.191  1.00  0.00    -0.744 OA
ENDBRANCH  68  69
ENDBRANCH  49  63
BRANCH  50  73
ATOM     73  C   UNL A   1      42.491  23.707  27.925  1.00  0.00    -0.014 A 
ATOM     74  C   UNL A   1      43.141  23.349  26.731  1.00  0.00     0.010 A 
ATOM     75  C   UNL A   1      41.656  22.769  28.557  1.00  0.00     0.010 A 
ATOM     76  C   UNL A   1      42.946  22.085  26.170  1.00  0.00     0.020 A 
ATOM     77  C   UNL A   1      41.479  21.493  28.014  1.00  0.00     0.020 A 
ATOM     78  C   UNL A   1      42.117  21.163  26.816  1.00  0.00     0.054 A 
BRANCH  78  79
ATOM     79  S   UNL A   1      41.918  19.509  26.098  1.00  0.00     0.124 S 
ATOM     80  O   UNL A   1      42.397  18.651  27.176  1.00  0.00    -0.237 OA
ATOM     81  O   UNL A   1      40.483  19.450  25.831  1.00  0.00    -0.237 OA
ATOM     82  O   UNL A   1      42.764  19.551  24.906  1.00  0.00    -0.744 OA
ENDBRANCH  78  79
ENDBRANCH  50  73
BRANCH  62  83
ATOM     83  C   UNL A   1      47.936  26.856  30.936  1.00  0.00    -0.014 A 
ATOM     84  C   UNL A   1      49.004  27.057  30.045  1.00  0.00     0.010 A 
ATOM     85  C   UNL A   1      48.190  26.257  32.184  1.00  0.00     0.010 A 
ATOM     86  C   UNL A   1      50.295  26.638  30.382  1.00  0.00     0.020 A 
ATOM     87  C   UNL A   1      49.482  25.861  32.536  1.00  0.00     0.020 A 
ATOM     88  C   UNL A   1      50.525  26.042  31.626  1.00  0.00     0.054 A 
BRANCH  88  89
ATOM     89  S   UNL A   1      52.216  25.547  32.060  1.00  0.00     0.124 S 
ATOM     90  O   UNL A   1      52.459  26.327  33.271  1.00  0.00    -0.237 OA
ATOM     91  O   UNL A   1      52.090  24.106  32.256  1.00  0.00    -0.237 OA
ATOM     92  O   UNL A   1      53.002  25.945  30.894  1.00  0.00    -0.744 OA
ENDBRANCH  88  89
ENDBRANCH  62  83
ENDBRANCH  36  37
ENDBRANCH  28  31
ENDBRANCH  26  27
ENDBRANCH  25  26
ENDBRANCH   1  25
TORSDOF 20
ENDMDL
