MODEL 1
REMARK VINA RESULT:     -11.5      0.000      0.000
REMARK SMILES O=C(NCCCNC(=O)c1ccc(-c2c3nc(c(-c4ccc(S(=O)(=O)[O-])cc4)c4ccc([nH]4)c(-c4ccc(S(=O)(=O)[O-])cc4)c4nc(c(-c5ccc(S(=O)(=O)[O-])cc5)c5ccc2[nH]5)C=C4)C=C3)cc1)C1=Cc2c(Cl)ccc(Cl)c2O[C@@H]1C(F)(F)F
REMARK SMILES IDX 6 1 5 2 4 3 3 4 1 5 2 6 70 8 71 9 81 10 72 11 80 12 73 13
REMARK SMILES IDX 79 14 74 15 75 16 77 17 76 18 78 19 82 20 83 21 84 22 85 23
REMARK SMILES IDX 7 24 8 25 9 27 10 28 11 29 69 30 12 31 68 32 13 33 14 34
REMARK SMILES IDX 15 35 62 36 16 37 67 38 61 39 63 40 17 41 66 42 60 43 59 44
REMARK SMILES IDX 18 46 48 47 29 48 47 49 30 50 33 51 46 52 64 53 31 54 32 55
REMARK SMILES IDX 45 57 65 58 34 59 19 60 20 61 28 62 21 63 27 64 22 65 23 66
REMARK SMILES IDX 24 67 25 68 26 69 49 70 50 71 58 72 51 73 57 74 52 75 53 76
REMARK SMILES IDX 54 77 55 78 56 79 35 80 36 81 44 82 37 83 43 84 38 85 39 86
REMARK SMILES IDX 40 87 41 88 42 89
REMARK H PARENT 3 7 7 26 63 45 33 56
REMARK Flexibility Score: inf
ROOT
ATOM      1  C   UNL A   1      33.591  28.590  27.205  1.00  0.00     0.118 C 
ENDROOT
BRANCH   1   2
ATOM      2  C   UNL A   1      33.664  28.398  25.695  1.00  0.00     0.042 C 
BRANCH   2   3
ATOM      3  C   UNL A   1      32.375  27.832  25.113  1.00  0.00     0.118 C 
BRANCH   3   4
ATOM      4  N   UNL A   1      31.772  26.787  25.945  1.00  0.00    -0.352 N 
ATOM      5  O   UNL A   1      31.569  24.733  26.885  1.00  0.00    -0.270 OA
ATOM      6  C   UNL A   1      31.986  25.431  25.972  1.00  0.00     0.251 C 
ATOM      7  H   UNL A   1      31.104  27.111  26.591  1.00  0.00     0.163 HD
BRANCH   6   8
ATOM      8  C   UNL A   1      32.813  24.860  24.894  1.00  0.00     0.067 C 
ATOM      9  C   UNL A   1      34.100  24.616  25.166  1.00  0.00     0.027 C 
ATOM     10  C   UNL A   1      32.098  24.245  23.741  1.00  0.00     0.314 C 
ATOM     11  C   UNL A   1      34.521  23.243  24.819  1.00  0.00     0.037 A 
ATOM     12  O   UNL A   1      32.435  22.851  23.576  1.00  0.00    -0.474 OA
ATOM     13  C   UNL A   1      35.623  22.663  25.477  1.00  0.00     0.052 A 
ATOM     14  C   UNL A   1      33.592  22.394  24.167  1.00  0.00     0.148 A 
ATOM     15  Cl  UNL A   1      36.805  23.607  26.321  1.00  0.00    -0.084 Cl
ATOM     16  C   UNL A   1      35.734  21.274  25.581  1.00  0.00     0.023 A 
ATOM     17  C   UNL A   1      33.725  21.000  24.270  1.00  0.00     0.083 A 
ATOM     18  C   UNL A   1      34.773  20.446  25.001  1.00  0.00     0.026 A 
ATOM     19  Cl  UNL A   1      32.512  19.937  23.649  1.00  0.00    -0.080 Cl
BRANCH  10  20
ATOM     20  C   UNL A   1      32.368  25.029  22.447  1.00  0.00     0.429 C 
ATOM     21  F   UNL A   1      31.259  25.693  22.037  1.00  0.00    -0.167 F 
ATOM     22  F   UNL A   1      33.339  25.959  22.609  1.00  0.00    -0.167 F 
ATOM     23  F   UNL A   1      32.750  24.223  21.429  1.00  0.00    -0.167 F 
ENDBRANCH  10  20
ENDBRANCH   6   8
ENDBRANCH   3   4
ENDBRANCH   2   3
ENDBRANCH   1   2
BRANCH   1  24
ATOM     24  N   UNL A   1      33.582  29.983  27.638  1.00  0.00    -0.352 N 
ATOM     25  C   UNL A   1      34.588  30.737  28.205  1.00  0.00     0.251 C 
ATOM     26  H   UNL A   1      32.729  30.457  27.506  1.00  0.00     0.163 HD
ATOM     27  O   UNL A   1      34.346  31.891  28.559  1.00  0.00    -0.269 OA
BRANCH  25  28
ATOM     28  C   UNL A   1      35.934  30.157  28.438  1.00  0.00     0.039 A 
ATOM     29  C   UNL A   1      36.877  30.185  27.405  1.00  0.00     0.014 A 
ATOM     30  C   UNL A   1      36.283  29.611  29.671  1.00  0.00     0.014 A 
ATOM     31  C   UNL A   1      38.184  29.745  27.643  1.00  0.00     0.010 A 
ATOM     32  C   UNL A   1      37.610  29.306  29.945  1.00  0.00     0.010 A 
ATOM     33  C   UNL A   1      38.574  29.344  28.930  1.00  0.00    -0.014 A 
BRANCH  33  34
ATOM     34  C   UNL A   1      39.967  28.924  29.237  1.00  0.00     0.031 A 
ATOM     35  C   UNL A   1      40.909  29.888  29.916  1.00  0.00     0.074 A 
ATOM     36  C   UNL A   1      40.411  27.715  28.836  1.00  0.00     0.049 A 
ATOM     37  N   UNL A   1      42.180  29.745  30.193  1.00  0.00    -0.248 NA
ATOM     38  C   UNL A   1      40.366  31.206  30.286  1.00  0.00     0.031 C 
ATOM     39  C   UNL A   1      39.625  26.721  28.098  1.00  0.00     0.029 A 
ATOM     40  N   UNL A   1      41.636  27.116  28.988  1.00  0.00    -0.354 N 
ATOM     41  C   UNL A   1      42.590  30.964  30.723  1.00  0.00     0.074 A 
ATOM     42  C   UNL A   1      41.455  31.856  30.665  1.00  0.00     0.031 C 
ATOM     43  C   UNL A   1      40.372  25.622  27.905  1.00  0.00     0.029 A 
ATOM     44  C   UNL A   1      41.699  25.844  28.469  1.00  0.00     0.049 A 
ATOM     45  H   UNL A   1      42.398  27.555  29.429  1.00  0.00     0.167 HD
ATOM     46  C   UNL A   1      43.791  31.306  31.246  1.00  0.00     0.031 A 
ATOM     47  C   UNL A   1      42.710  24.954  28.454  1.00  0.00     0.031 A 
ATOM     48  C   UNL A   1      44.899  30.398  31.355  1.00  0.00     0.049 A 
ATOM     49  C   UNL A   1      44.013  25.325  29.108  1.00  0.00     0.074 A 
ATOM     50  C   UNL A   1      46.131  30.606  31.947  1.00  0.00     0.029 A 
ATOM     51  N   UNL A   1      44.900  29.097  30.872  1.00  0.00    -0.354 N 
ATOM     52  N   UNL A   1      44.356  26.459  29.674  1.00  0.00    -0.248 NA
ATOM     53  C   UNL A   1      45.055  24.291  29.142  1.00  0.00     0.031 C 
ATOM     54  C   UNL A   1      46.893  29.443  31.788  1.00  0.00     0.029 A 
ATOM     55  C   UNL A   1      46.115  28.495  31.143  1.00  0.00     0.049 A 
ATOM     56  H   UNL A   1      44.147  28.668  30.405  1.00  0.00     0.167 HD
ATOM     57  C   UNL A   1      45.647  26.264  30.155  1.00  0.00     0.074 A 
ATOM     58  C   UNL A   1      46.012  24.901  29.829  1.00  0.00     0.031 C 
ATOM     59  C   UNL A   1      46.457  27.135  30.807  1.00  0.00     0.031 A 
BRANCH  46  60
ATOM     60  C   UNL A   1      43.956  32.718  31.749  1.00  0.00    -0.014 A 
ATOM     61  C   UNL A   1      43.735  33.041  33.101  1.00  0.00     0.010 A 
ATOM     62  C   UNL A   1      44.344  33.736  30.860  1.00  0.00     0.010 A 
ATOM     63  C   UNL A   1      43.841  34.363  33.542  1.00  0.00     0.020 A 
ATOM     64  C   UNL A   1      44.485  35.055  31.304  1.00  0.00     0.020 A 
ATOM     65  C   UNL A   1      44.210  35.363  32.637  1.00  0.00     0.054 A 
BRANCH  65  66
ATOM     66  S   UNL A   1      44.349  37.069  33.238  1.00  0.00     0.124 S 
ATOM     67  O   UNL A   1      45.177  36.901  34.430  1.00  0.00    -0.237 OA
ATOM     68  O   UNL A   1      44.992  37.753  32.119  1.00  0.00    -0.237 OA
ATOM     69  O   UNL A   1      42.964  37.460  33.491  1.00  0.00    -0.744 OA
ENDBRANCH  65  66
ENDBRANCH  46  60
BRANCH  47  70
ATOM     70  C   UNL A   1      42.509  23.611  27.844  1.00  0.00    -0.014 A 
ATOM     71  C   UNL A   1      42.910  23.362  26.520  1.00  0.00     0.010 A 
ATOM     72  C   UNL A   1      41.942  22.563  28.592  1.00  0.00     0.010 A 
ATOM     73  C   UNL A   1      42.735  22.097  25.949  1.00  0.00     0.020 A 
ATOM     74  C   UNL A   1      41.789  21.290  28.035  1.00  0.00     0.020 A 
ATOM     75  C   UNL A   1      42.179  21.068  26.712  1.00  0.00     0.054 A 
BRANCH  75  76
ATOM     76  S   UNL A   1      42.020  19.418  25.972  1.00  0.00     0.124 S 
ATOM     77  O   UNL A   1      42.881  19.528  24.798  1.00  0.00    -0.237 OA
ATOM     78  O   UNL A   1      42.510  18.547  27.038  1.00  0.00    -0.237 OA
ATOM     79  O   UNL A   1      40.590  19.305  25.694  1.00  0.00    -0.744 OA
ENDBRANCH  75  76
ENDBRANCH  47  70
BRANCH  59  80
ATOM     80  C   UNL A   1      47.803  26.626  31.242  1.00  0.00    -0.014 A 
ATOM     81  C   UNL A   1      47.986  26.029  32.502  1.00  0.00     0.010 A 
ATOM     82  C   UNL A   1      48.893  26.712  30.355  1.00  0.00     0.010 A 
ATOM     83  C   UNL A   1      49.247  25.566  32.884  1.00  0.00     0.020 A 
ATOM     84  C   UNL A   1      50.147  26.223  30.724  1.00  0.00     0.020 A 
ATOM     85  C   UNL A   1      50.320  25.670  31.994  1.00  0.00     0.054 A 
BRANCH  85  86
ATOM     86  S   UNL A   1      51.942  25.041  32.504  1.00  0.00     0.124 S 
ATOM     87  O   UNL A   1      52.827  25.649  31.514  1.00  0.00    -0.237 OA
ATOM     88  O   UNL A   1      52.074  25.556  33.865  1.00  0.00    -0.237 OA
ATOM     89  O   UNL A   1      51.797  23.591  32.405  1.00  0.00    -0.744 OA
ENDBRANCH  85  86
ENDBRANCH  59  80
ENDBRANCH  33  34
ENDBRANCH  25  28
ENDBRANCH   1  24
TORSDOF 14
ENDMDL
MODEL 2
REMARK VINA RESULT:     -11.3      4.501     10.870
REMARK SMILES O=C(NCCCNC(=O)c1ccc(-c2c3nc(c(-c4ccc(S(=O)(=O)[O-])cc4)c4ccc([nH]4)c(-c4ccc(S(=O)(=O)[O-])cc4)c4nc(c(-c5ccc(S(=O)(=O)[O-])cc5)c5ccc2[nH]5)C=C4)C=C3)cc1)C1=Cc2c(Cl)ccc(Cl)c2O[C@@H]1C(F)(F)F
REMARK SMILES IDX 6 1 5 2 4 3 3 4 1 5 2 6 70 8 71 9 81 10 72 11 80 12 73 13
REMARK SMILES IDX 79 14 74 15 75 16 77 17 76 18 78 19 82 20 83 21 84 22 85 23
REMARK SMILES IDX 7 24 8 25 9 27 10 28 11 29 69 30 12 31 68 32 13 33 14 34
REMARK SMILES IDX 15 35 62 36 16 37 67 38 61 39 63 40 17 41 66 42 60 43 59 44
REMARK SMILES IDX 18 46 48 47 29 48 47 49 30 50 33 51 46 52 64 53 31 54 32 55
REMARK SMILES IDX 45 57 65 58 34 59 19 60 20 61 28 62 21 63 27 64 22 65 23 66
REMARK SMILES IDX 24 67 25 68 26 69 49 70 50 71 58 72 51 73 57 74 52 75 53 76
REMARK SMILES IDX 54 77 55 78 56 79 35 80 36 81 44 82 37 83 43 84 38 85 39 86
REMARK SMILES IDX 40 87 41 88 42 89
REMARK H PARENT 3 7 7 26 63 45 33 56
REMARK Flexibility Score: inf
ROOT
ATOM      1  C   UNL A   1      40.487  21.703  25.852  1.00  0.00     0.118 C 
ENDROOT
BRANCH   1   2
ATOM      2  C   UNL A   1      40.928  21.037  27.150  1.00  0.00     0.042 C 
BRANCH   2   3
ATOM      3  C   UNL A   1      42.444  20.933  27.269  1.00  0.00     0.118 C 
BRANCH   3   4
ATOM      4  N   UNL A   1      43.009  21.822  28.287  1.00  0.00    -0.352 N 
ATOM      5  O   UNL A   1      44.015  23.687  29.096  1.00  0.00    -0.270 OA
ATOM      6  C   UNL A   1      43.823  22.921  28.162  1.00  0.00     0.251 C 
ATOM      7  H   UNL A   1      42.765  21.593  29.213  1.00  0.00     0.163 HD
BRANCH   6   8
ATOM      8  C   UNL A   1      44.391  23.188  26.829  1.00  0.00     0.067 C 
ATOM      9  C   UNL A   1      43.885  24.213  26.135  1.00  0.00     0.027 C 
ATOM     10  C   UNL A   1      45.712  22.572  26.518  1.00  0.00     0.314 C 
ATOM     11  C   UNL A   1      44.915  25.145  25.631  1.00  0.00     0.037 A 
ATOM     12  O   UNL A   1      46.712  23.564  26.204  1.00  0.00    -0.474 OA
ATOM     13  C   UNL A   1      44.572  26.481  25.353  1.00  0.00     0.052 A 
ATOM     14  C   UNL A   1      46.280  24.820  25.834  1.00  0.00     0.148 A 
ATOM     15  Cl  UNL A   1      42.934  26.990  25.109  1.00  0.00    -0.084 Cl
ATOM     16  C   UNL A   1      45.545  27.484  25.389  1.00  0.00     0.023 A 
ATOM     17  C   UNL A   1      47.247  25.837  25.855  1.00  0.00     0.083 A 
ATOM     18  C   UNL A   1      46.874  27.165  25.665  1.00  0.00     0.026 A 
ATOM     19  Cl  UNL A   1      48.888  25.504  26.284  1.00  0.00    -0.080 Cl
BRANCH  10  20
ATOM     20  C   UNL A   1      45.584  21.547  25.380  1.00  0.00     0.429 C 
ATOM     21  F   UNL A   1      44.392  21.668  24.744  1.00  0.00    -0.167 F 
ATOM     22  F   UNL A   1      46.543  21.709  24.438  1.00  0.00    -0.167 F 
ATOM     23  F   UNL A   1      45.670  20.271  25.825  1.00  0.00    -0.167 F 
ENDBRANCH  10  20
ENDBRANCH   6   8
ENDBRANCH   3   4
ENDBRANCH   2   3
ENDBRANCH   1   2
BRANCH   1  24
ATOM     24  N   UNL A   1      39.055  21.971  25.766  1.00  0.00    -0.352 N 
ATOM     25  C   UNL A   1      38.337  23.073  26.179  1.00  0.00     0.251 C 
ATOM     26  H   UNL A   1      38.521  21.255  25.352  1.00  0.00     0.163 HD
ATOM     27  O   UNL A   1      37.112  23.067  26.068  1.00  0.00    -0.269 OA
BRANCH  25  28
ATOM     28  C   UNL A   1      39.020  24.237  26.797  1.00  0.00     0.039 A 
ATOM     29  C   UNL A   1      39.738  25.119  25.983  1.00  0.00     0.014 A 
ATOM     30  C   UNL A   1      38.937  24.481  28.167  1.00  0.00     0.014 A 
ATOM     31  C   UNL A   1      40.291  26.280  26.533  1.00  0.00     0.010 A 
ATOM     32  C   UNL A   1      39.365  25.696  28.683  1.00  0.00     0.010 A 
ATOM     33  C   UNL A   1      40.070  26.603  27.881  1.00  0.00    -0.014 A 
BRANCH  33  34
ATOM     34  C   UNL A   1      40.594  27.855  28.489  1.00  0.00     0.031 A 
ATOM     35  C   UNL A   1      42.047  27.943  28.887  1.00  0.00     0.074 A 
ATOM     36  C   UNL A   1      39.756  28.876  28.758  1.00  0.00     0.049 A 
ATOM     37  N   UNL A   1      42.677  28.909  29.506  1.00  0.00    -0.248 NA
ATOM     38  C   UNL A   1      42.893  26.771  28.602  1.00  0.00     0.031 C 
ATOM     39  C   UNL A   1      38.313  28.886  28.497  1.00  0.00     0.029 A 
ATOM     40  N   UNL A   1      39.996  30.106  29.317  1.00  0.00    -0.354 N 
ATOM     41  C   UNL A   1      43.970  28.441  29.718  1.00  0.00     0.074 A 
ATOM     42  C   UNL A   1      44.016  27.083  29.228  1.00  0.00     0.031 C 
ATOM     43  C   UNL A   1      37.808  30.079  28.852  1.00  0.00     0.029 A 
ATOM     44  C   UNL A   1      38.878  30.904  29.399  1.00  0.00     0.049 A 
ATOM     45  H   UNL A   1      40.884  30.392  29.629  1.00  0.00     0.167 HD
ATOM     46  C   UNL A   1      45.037  29.091  30.241  1.00  0.00     0.031 A 
ATOM     47  C   UNL A   1      38.734  32.163  29.859  1.00  0.00     0.031 A 
ATOM     48  C   UNL A   1      45.000  30.460  30.674  1.00  0.00     0.049 A 
ATOM     49  C   UNL A   1      39.947  32.894  30.365  1.00  0.00     0.074 A 
ATOM     50  C   UNL A   1      46.040  31.247  31.135  1.00  0.00     0.029 A 
ATOM     51  N   UNL A   1      43.863  31.252  30.681  1.00  0.00    -0.354 N 
ATOM     52  N   UNL A   1      41.179  32.459  30.486  1.00  0.00    -0.248 NA
ATOM     53  C   UNL A   1      39.754  34.291  30.774  1.00  0.00     0.031 C 
ATOM     54  C   UNL A   1      45.523  32.506  31.459  1.00  0.00     0.029 A 
ATOM     55  C   UNL A   1      44.171  32.517  31.150  1.00  0.00     0.049 A 
ATOM     56  H   UNL A   1      42.967  30.958  30.397  1.00  0.00     0.167 HD
ATOM     57  C   UNL A   1      41.915  33.539  30.962  1.00  0.00     0.074 A 
ATOM     58  C   UNL A   1      40.993  34.649  31.087  1.00  0.00     0.031 C 
ATOM     59  C   UNL A   1      43.235  33.606  31.267  1.00  0.00     0.031 A 
BRANCH  46  60
ATOM     60  C   UNL A   1      46.330  28.324  30.358  1.00  0.00    -0.014 A 
ATOM     61  C   UNL A   1      46.663  27.630  31.537  1.00  0.00     0.010 A 
ATOM     62  C   UNL A   1      47.224  28.290  29.272  1.00  0.00     0.010 A 
ATOM     63  C   UNL A   1      47.888  26.967  31.649  1.00  0.00     0.020 A 
ATOM     64  C   UNL A   1      48.436  27.598  29.368  1.00  0.00     0.020 A 
ATOM     65  C   UNL A   1      48.769  26.960  30.564  1.00  0.00     0.054 A 
BRANCH  65  66
ATOM     66  S   UNL A   1      50.349  26.085  30.735  1.00  0.00     0.124 S 
ATOM     67  O   UNL A   1      51.208  27.124  31.297  1.00  0.00    -0.237 OA
ATOM     68  O   UNL A   1      50.012  24.990  31.641  1.00  0.00    -0.237 OA
ATOM     69  O   UNL A   1      50.670  25.682  29.367  1.00  0.00    -0.744 OA
ENDBRANCH  65  66
ENDBRANCH  46  60
BRANCH  47  70
ATOM     70  C   UNL A   1      37.400  32.823  29.809  1.00  0.00    -0.014 A 
ATOM     71  C   UNL A   1      36.633  32.967  30.979  1.00  0.00     0.010 A 
ATOM     72  C   UNL A   1      36.901  33.338  28.599  1.00  0.00     0.010 A 
ATOM     73  C   UNL A   1      35.386  33.599  30.938  1.00  0.00     0.020 A 
ATOM     74  C   UNL A   1      35.667  33.994  28.559  1.00  0.00     0.020 A 
ATOM     75  C   UNL A   1      34.912  34.112  29.728  1.00  0.00     0.054 A 
BRANCH  75  76
ATOM     76  S   UNL A   1      33.322  34.985  29.711  1.00  0.00     0.124 S 
ATOM     77  O   UNL A   1      32.908  34.891  31.107  1.00  0.00    -0.237 OA
ATOM     78  O   UNL A   1      33.700  36.320  29.251  1.00  0.00    -0.237 OA
ATOM     79  O   UNL A   1      32.519  34.214  28.764  1.00  0.00    -0.744 OA
ENDBRANCH  75  76
ENDBRANCH  47  70
BRANCH  59  80
ATOM     80  C   UNL A   1      43.765  34.935  31.733  1.00  0.00    -0.014 A 
ATOM     81  C   UNL A   1      44.198  35.909  30.817  1.00  0.00     0.010 A 
ATOM     82  C   UNL A   1      43.790  35.224  33.110  1.00  0.00     0.010 A 
ATOM     83  C   UNL A   1      44.688  37.135  31.273  1.00  0.00     0.020 A 
ATOM     84  C   UNL A   1      44.251  36.459  33.567  1.00  0.00     0.020 A 
ATOM     85  C   UNL A   1      44.716  37.400  32.645  1.00  0.00     0.054 A 
BRANCH  85  86
ATOM     86  S   UNL A   1      45.335  39.006  33.213  1.00  0.00     0.124 S 
ATOM     87  O   UNL A   1      44.941  39.003  34.618  1.00  0.00    -0.237 OA
ATOM     88  O   UNL A   1      46.772  38.905  32.962  1.00  0.00    -0.237 OA
ATOM     89  O   UNL A   1      44.629  39.967  32.369  1.00  0.00    -0.744 OA
ENDBRANCH  85  86
ENDBRANCH  59  80
ENDBRANCH  33  34
ENDBRANCH  25  28
ENDBRANCH   1  24
TORSDOF 14
ENDMDL
MODEL 3
REMARK VINA RESULT:     -11.3      2.949      9.300
REMARK SMILES O=C(NCCCNC(=O)c1ccc(-c2c3nc(c(-c4ccc(S(=O)(=O)[O-])cc4)c4ccc([nH]4)c(-c4ccc(S(=O)(=O)[O-])cc4)c4nc(c(-c5ccc(S(=O)(=O)[O-])cc5)c5ccc2[nH]5)C=C4)C=C3)cc1)C1=Cc2c(Cl)ccc(Cl)c2O[C@@H]1C(F)(F)F
REMARK SMILES IDX 6 1 5 2 4 3 3 4 1 5 2 6 70 8 71 9 81 10 72 11 80 12 73 13
REMARK SMILES IDX 79 14 74 15 75 16 77 17 76 18 78 19 82 20 83 21 84 22 85 23
REMARK SMILES IDX 7 24 8 25 9 27 10 28 11 29 69 30 12 31 68 32 13 33 14 34
REMARK SMILES IDX 15 35 62 36 16 37 67 38 61 39 63 40 17 41 66 42 60 43 59 44
REMARK SMILES IDX 18 46 48 47 29 48 47 49 30 50 33 51 46 52 64 53 31 54 32 55
REMARK SMILES IDX 45 57 65 58 34 59 19 60 20 61 28 62 21 63 27 64 22 65 23 66
REMARK SMILES IDX 24 67 25 68 26 69 49 70 50 71 58 72 51 73 57 74 52 75 53 76
REMARK SMILES IDX 54 77 55 78 56 79 35 80 36 81 44 82 37 83 43 84 38 85 39 86
REMARK SMILES IDX 40 87 41 88 42 89
REMARK H PARENT 3 7 7 26 63 45 33 56
REMARK Flexibility Score: inf
ROOT
ATOM      1  C   UNL A   1      37.030  23.573  25.171  1.00  0.00     0.118 C 
ENDROOT
BRANCH   1   2
ATOM      2  C   UNL A   1      35.800  23.251  26.010  1.00  0.00     0.042 C 
BRANCH   2   3
ATOM      3  C   UNL A   1      34.639  22.730  25.171  1.00  0.00     0.118 C 
BRANCH   3   4
ATOM      4  N   UNL A   1      34.500  23.414  23.883  1.00  0.00    -0.352 N 
ATOM      5  O   UNL A   1      33.977  25.112  22.473  1.00  0.00    -0.270 OA
ATOM      6  C   UNL A   1      33.800  24.546  23.543  1.00  0.00     0.251 C 
ATOM      7  H   UNL A   1      34.989  22.993  23.140  1.00  0.00     0.163 HD
BRANCH   6   8
ATOM      8  C   UNL A   1      32.885  25.099  24.555  1.00  0.00     0.067 C 
ATOM      9  C   UNL A   1      33.320  26.134  25.283  1.00  0.00     0.027 C 
ATOM     10  C   UNL A   1      31.443  24.743  24.435  1.00  0.00     0.314 C 
ATOM     11  C   UNL A   1      32.383  27.276  25.298  1.00  0.00     0.037 A 
ATOM     12  O   UNL A   1      30.608  25.911  24.278  1.00  0.00    -0.474 OA
ATOM     13  C   UNL A   1      32.867  28.573  25.552  1.00  0.00     0.052 A 
ATOM     14  C   UNL A   1      31.128  27.130  24.656  1.00  0.00     0.148 A 
ATOM     15  Cl  UNL A   1      34.396  28.864  26.312  1.00  0.00    -0.084 Cl
ATOM     16  C   UNL A   1      32.176  29.691  25.078  1.00  0.00     0.023 A 
ATOM     17  C   UNL A   1      30.440  28.264  24.197  1.00  0.00     0.083 A 
ATOM     18  C   UNL A   1      30.979  29.535  24.380  1.00  0.00     0.026 A 
ATOM     19  Cl  UNL A   1      29.003  28.117  23.247  1.00  0.00    -0.080 Cl
BRANCH  10  20
ATOM     20  C   UNL A   1      30.984  23.902  25.637  1.00  0.00     0.429 C 
ATOM     21  F   UNL A   1      29.894  24.448  26.229  1.00  0.00    -0.167 F 
ATOM     22  F   UNL A   1      30.638  22.644  25.274  1.00  0.00    -0.167 F 
ATOM     23  F   UNL A   1      31.943  23.797  26.586  1.00  0.00    -0.167 F 
ENDBRANCH  10  20
ENDBRANCH   6   8
ENDBRANCH   3   4
ENDBRANCH   2   3
ENDBRANCH   1   2
BRANCH   1  24
ATOM     24  N   UNL A   1      38.171  22.695  25.407  1.00  0.00    -0.352 N 
ATOM     25  C   UNL A   1      39.335  22.930  26.109  1.00  0.00     0.251 C 
ATOM     26  H   UNL A   1      38.100  21.800  25.004  1.00  0.00     0.163 HD
ATOM     27  O   UNL A   1      40.207  22.063  26.130  1.00  0.00    -0.269 OA
BRANCH  25  28
ATOM     28  C   UNL A   1      39.563  24.229  26.789  1.00  0.00     0.039 A 
ATOM     29  C   UNL A   1      39.074  24.415  28.086  1.00  0.00     0.014 A 
ATOM     30  C   UNL A   1      40.277  25.254  26.171  1.00  0.00     0.014 A 
ATOM     31  C   UNL A   1      39.378  25.590  28.783  1.00  0.00     0.010 A 
ATOM     32  C   UNL A   1      40.692  26.354  26.909  1.00  0.00     0.010 A 
ATOM     33  C   UNL A   1      40.229  26.551  28.217  1.00  0.00    -0.014 A 
BRANCH  33  34
ATOM     34  C   UNL A   1      40.621  27.786  28.946  1.00  0.00     0.031 A 
ATOM     35  C   UNL A   1      41.973  27.866  29.613  1.00  0.00     0.074 A 
ATOM     36  C   UNL A   1      39.741  28.799  29.080  1.00  0.00     0.049 A 
ATOM     37  N   UNL A   1      42.468  28.815  30.365  1.00  0.00    -0.248 NA
ATOM     38  C   UNL A   1      42.865  26.704  29.460  1.00  0.00     0.031 C 
ATOM     39  C   UNL A   1      38.372  28.814  28.553  1.00  0.00     0.029 A 
ATOM     40  N   UNL A   1      39.862  30.013  29.708  1.00  0.00    -0.354 N 
ATOM     41  C   UNL A   1      43.701  28.343  30.804  1.00  0.00     0.074 A 
ATOM     42  C   UNL A   1      43.848  27.000  30.294  1.00  0.00     0.031 C 
ATOM     43  C   UNL A   1      37.801  29.995  28.838  1.00  0.00     0.029 A 
ATOM     44  C   UNL A   1      38.744  30.807  29.599  1.00  0.00     0.049 A 
ATOM     45  H   UNL A   1      40.675  30.291  30.189  1.00  0.00     0.167 HD
ATOM     46  C   UNL A   1      44.646  28.980  31.536  1.00  0.00     0.031 A 
ATOM     47  C   UNL A   1      38.507  32.052  30.057  1.00  0.00     0.031 A 
ATOM     48  C   UNL A   1      44.520  30.337  31.991  1.00  0.00     0.049 A 
ATOM     49  C   UNL A   1      39.598  32.770  30.802  1.00  0.00     0.074 A 
ATOM     50  C   UNL A   1      45.449  31.112  32.660  1.00  0.00     0.029 A 
ATOM     51  N   UNL A   1      43.396  31.127  31.805  1.00  0.00    -0.354 N 
ATOM     52  N   UNL A   1      40.789  32.334  31.142  1.00  0.00    -0.248 NA
ATOM     53  C   UNL A   1      39.323  34.155  31.205  1.00  0.00     0.031 C 
ATOM     54  C   UNL A   1      44.871  32.361  32.915  1.00  0.00     0.029 A 
ATOM     55  C   UNL A   1      43.602  32.378  32.358  1.00  0.00     0.049 A 
ATOM     56  H   UNL A   1      42.572  30.839  31.350  1.00  0.00     0.167 HD
ATOM     57  C   UNL A   1      41.415  33.402  31.776  1.00  0.00     0.074 A 
ATOM     58  C   UNL A   1      40.478  34.506  31.755  1.00  0.00     0.031 C 
ATOM     59  C   UNL A   1      42.653  33.463  32.326  1.00  0.00     0.031 A 
BRANCH  46  60
ATOM     60  C   UNL A   1      45.900  28.212  31.873  1.00  0.00    -0.014 A 
ATOM     61  C   UNL A   1      47.014  28.221  31.014  1.00  0.00     0.010 A 
ATOM     62  C   UNL A   1      45.969  27.477  33.071  1.00  0.00     0.010 A 
ATOM     63  C   UNL A   1      48.150  27.464  31.315  1.00  0.00     0.020 A 
ATOM     64  C   UNL A   1      47.117  26.745  33.392  1.00  0.00     0.020 A 
ATOM     65  C   UNL A   1      48.191  26.726  32.501  1.00  0.00     0.054 A 
BRANCH  65  66
ATOM     66  S   UNL A   1      49.680  25.758  32.871  1.00  0.00     0.124 S 
ATOM     67  O   UNL A   1      50.596  26.791  33.349  1.00  0.00    -0.237 OA
ATOM     68  O   UNL A   1      49.208  24.819  33.885  1.00  0.00    -0.237 OA
ATOM     69  O   UNL A   1      50.031  25.160  31.585  1.00  0.00    -0.744 OA
ENDBRANCH  65  66
ENDBRANCH  46  60
BRANCH  47  70
ATOM     70  C   UNL A   1      37.202  32.710  29.776  1.00  0.00    -0.014 A 
ATOM     71  C   UNL A   1      36.197  32.751  30.759  1.00  0.00     0.010 A 
ATOM     72  C   UNL A   1      36.965  33.328  28.534  1.00  0.00     0.010 A 
ATOM     73  C   UNL A   1      34.976  33.381  30.502  1.00  0.00     0.020 A 
ATOM     74  C   UNL A   1      35.756  33.982  28.282  1.00  0.00     0.020 A 
ATOM     75  C   UNL A   1      34.764  33.997  29.266  1.00  0.00     0.054 A 
BRANCH  75  76
ATOM     76  S   UNL A   1      33.197  34.865  28.978  1.00  0.00     0.124 S 
ATOM     77  O   UNL A   1      32.604  34.872  30.311  1.00  0.00    -0.237 OA
ATOM     78  O   UNL A   1      33.643  36.162  28.476  1.00  0.00    -0.237 OA
ATOM     79  O   UNL A   1      32.518  34.026  27.993  1.00  0.00    -0.744 OA
ENDBRANCH  75  76
ENDBRANCH  47  70
BRANCH  59  80
ATOM     80  C   UNL A   1      43.077  34.778  32.919  1.00  0.00    -0.014 A 
ATOM     81  C   UNL A   1      43.690  35.769  32.132  1.00  0.00     0.010 A 
ATOM     82  C   UNL A   1      42.818  35.039  34.277  1.00  0.00     0.010 A 
ATOM     83  C   UNL A   1      44.077  36.983  32.705  1.00  0.00     0.020 A 
ATOM     84  C   UNL A   1      43.177  36.262  34.846  1.00  0.00     0.020 A 
ATOM     85  C   UNL A   1      43.822  37.219  34.059  1.00  0.00     0.054 A 
BRANCH  85  86
ATOM     86  S   UNL A   1      44.312  38.810  34.776  1.00  0.00     0.124 S 
ATOM     87  O   UNL A   1      43.347  39.724  34.172  1.00  0.00    -0.237 OA
ATOM     88  O   UNL A   1      44.150  38.582  36.210  1.00  0.00    -0.237 OA
ATOM     89  O   UNL A   1      45.694  38.980  34.331  1.00  0.00    -0.744 OA
ENDBRANCH  85  86
ENDBRANCH  59  80
ENDBRANCH  33  34
ENDBRANCH  25  28
ENDBRANCH   1  24
TORSDOF 14
ENDMDL
