MODEL 1
REMARK VINA RESULT:     -13.6      0.000      0.000
REMARK SMILES O=C(Cn1c(-c2nc(-c3ccc(C(F)(F)F)cc3)no2)cc2ccccc21)NCCCNC(=O)c1ccc(-c2c3nc(c(-c4ccc(S(=O)(=O)[O-])cc4)c4ccc([nH]4)c(-c4ccc(S(=O)(=O)[O-])cc4)c4nc(c(-c5ccc(S(=O)(=O)[O-])cc5)c5ccc2[nH]5)C=C4)C=C3)cc1
REMARK SMILES IDX 29 1 28 2 1 3 2 4 3 6 4 7 5 8 27 9 21 10 22 11 26 12 23 13
REMARK SMILES IDX 25 14 24 15 6 16 7 17 20 18 8 19 19 20 9 21 10 22 18 23
REMARK SMILES IDX 11 24 17 25 12 26 13 27 14 28 15 29 16 30 30 31 31 32 32 33
REMARK SMILES IDX 33 34 34 36 35 37 36 38 94 39 37 40 93 41 38 42 39 43 40 44
REMARK SMILES IDX 87 45 41 46 92 47 86 48 88 49 42 50 91 51 85 52 84 53 43 55
REMARK SMILES IDX 73 56 54 57 72 58 55 59 58 60 71 61 89 62 56 63 57 64 70 66
REMARK SMILES IDX 90 67 59 68 44 69 45 70 53 71 46 72 52 73 47 74 48 75 49 76
REMARK SMILES IDX 50 77 51 78 74 79 75 80 83 81 76 82 82 83 77 84 78 85 79 86
REMARK SMILES IDX 80 87 81 88 60 89 61 90 69 91 62 92 68 93 63 94 64 95 65 96
REMARK SMILES IDX 66 97 67 98
REMARK H PARENT 28 5 32 35 88 54 58 65
REMARK Flexibility Score: inf
ROOT
ATOM      1  C   UNL A   1      38.938  22.195  25.980  1.00  0.00     0.117 C 
ENDROOT
BRANCH   1   2
ATOM      2  N   UNL A   1      37.515  22.040  26.255  1.00  0.00    -0.354 N 
ATOM      3  O   UNL A   1      36.903  21.747  24.058  1.00  0.00    -0.273 OA
ATOM      4  C   UNL A   1      36.617  21.710  25.253  1.00  0.00     0.239 C 
ATOM      5  H   UNL A   1      37.184  22.171  27.173  1.00  0.00     0.163 HD
BRANCH   4   6
ATOM      6  C   UNL A   1      35.229  21.308  25.703  1.00  0.00     0.222 C 
BRANCH   6   7
ATOM      7  N   UNL A   1      34.305  20.793  24.683  1.00  0.00    -0.327 N 
ATOM      8  C   UNL A   1      33.497  21.626  23.915  1.00  0.00     0.109 A 
ATOM      9  C   UNL A   1      34.051  19.471  24.344  1.00  0.00     0.049 A 
ATOM     10  C   UNL A   1      32.589  20.828  23.253  1.00  0.00     0.042 A 
ATOM     11  C   UNL A   1      32.936  19.475  23.496  1.00  0.00     0.000 A 
ATOM     12  C   UNL A   1      34.679  18.260  24.691  1.00  0.00     0.027 A 
ATOM     13  C   UNL A   1      32.415  18.249  23.030  1.00  0.00     0.010 A 
ATOM     14  C   UNL A   1      34.130  17.056  24.239  1.00  0.00     0.002 A 
ATOM     15  C   UNL A   1      33.009  17.047  23.421  1.00  0.00     0.001 A 
BRANCH   8  16
ATOM     16  C   UNL A   1      33.653  23.045  23.803  1.00  0.00     0.274 A 
ATOM     17  N   UNL A   1      33.406  23.920  24.759  1.00  0.00    -0.185 NA
ATOM     18  O   UNL A   1      34.008  23.649  22.625  1.00  0.00    -0.332 OA
ATOM     19  C   UNL A   1      33.595  25.128  24.121  1.00  0.00     0.202 A 
ATOM     20  N   UNL A   1      33.951  25.019  22.833  1.00  0.00    -0.057 NA
BRANCH  19  21
ATOM     21  C   UNL A   1      33.469  26.424  24.768  1.00  0.00     0.023 A 
ATOM     22  C   UNL A   1      33.313  26.497  26.160  1.00  0.00     0.013 A 
ATOM     23  C   UNL A   1      33.377  27.596  24.010  1.00  0.00     0.013 A 
ATOM     24  C   UNL A   1      33.016  27.714  26.779  1.00  0.00     0.014 A 
ATOM     25  C   UNL A   1      33.062  28.813  24.628  1.00  0.00     0.014 A 
ATOM     26  C   UNL A   1      32.855  28.881  26.016  1.00  0.00     0.056 A 
BRANCH  26  27
ATOM     27  C   UNL A   1      32.420  30.161  26.690  1.00  0.00     0.416 C 
ATOM     28  F   UNL A   1      31.259  30.008  27.388  1.00  0.00    -0.166 F 
ATOM     29  F   UNL A   1      33.334  30.620  27.588  1.00  0.00    -0.166 F 
ATOM     30  F   UNL A   1      32.198  31.189  25.824  1.00  0.00    -0.166 F 
ENDBRANCH  26  27
ENDBRANCH  19  21
ENDBRANCH   8  16
ENDBRANCH   6   7
ENDBRANCH   4   6
ENDBRANCH   1   2
BRANCH   1  31
ATOM     31  C   UNL A   1      39.757  20.910  26.100  1.00  0.00     0.042 C 
BRANCH  31  32
ATOM     32  C   UNL A   1      41.093  21.052  26.831  1.00  0.00     0.118 C 
BRANCH  32  33
ATOM     33  N   UNL A   1      42.158  21.626  26.031  1.00  0.00    -0.352 N 
ATOM     34  C   UNL A   1      42.759  22.856  25.956  1.00  0.00     0.251 C 
ATOM     35  H   UNL A   1      42.538  20.982  25.390  1.00  0.00     0.163 HD
ATOM     36  O   UNL A   1      43.831  22.880  25.344  1.00  0.00    -0.269 OA
BRANCH  34  37
ATOM     37  C   UNL A   1      42.217  24.137  26.498  1.00  0.00     0.039 A 
ATOM     38  C   UNL A   1      41.441  25.052  25.793  1.00  0.00     0.014 A 
ATOM     39  C   UNL A   1      42.617  24.477  27.809  1.00  0.00     0.014 A 
ATOM     40  C   UNL A   1      41.122  26.290  26.362  1.00  0.00     0.010 A 
ATOM     41  C   UNL A   1      42.301  25.714  28.379  1.00  0.00     0.010 A 
ATOM     42  C   UNL A   1      41.577  26.644  27.642  1.00  0.00    -0.014 A 
BRANCH  42  43
ATOM     43  C   UNL A   1      41.222  27.974  28.151  1.00  0.00     0.031 A 
ATOM     44  C   UNL A   1      42.216  29.057  27.906  1.00  0.00     0.074 A 
ATOM     45  C   UNL A   1      40.080  28.314  28.786  1.00  0.00     0.049 A 
ATOM     46  N   UNL A   1      42.974  29.646  28.773  1.00  0.00    -0.248 NA
ATOM     47  C   UNL A   1      42.436  29.493  26.522  1.00  0.00     0.031 C 
ATOM     48  C   UNL A   1      38.828  27.566  28.922  1.00  0.00     0.029 A 
ATOM     49  N   UNL A   1      39.802  29.493  29.420  1.00  0.00    -0.354 N 
ATOM     50  C   UNL A   1      43.674  30.632  28.082  1.00  0.00     0.074 A 
ATOM     51  C   UNL A   1      43.371  30.431  26.685  1.00  0.00     0.031 C 
ATOM     52  C   UNL A   1      37.868  28.384  29.417  1.00  0.00     0.029 A 
ATOM     53  C   UNL A   1      38.476  29.652  29.788  1.00  0.00     0.049 A 
ATOM     54  H   UNL A   1      40.489  30.174  29.600  1.00  0.00     0.167 HD
ATOM     55  C   UNL A   1      44.357  31.629  28.715  1.00  0.00     0.031 A 
ATOM     56  C   UNL A   1      37.916  30.756  30.341  1.00  0.00     0.031 A 
ATOM     57  C   UNL A   1      44.559  31.345  30.111  1.00  0.00     0.049 A 
ATOM     58  C   UNL A   1      38.997  31.522  31.004  1.00  0.00     0.074 A 
ATOM     59  C   UNL A   1      45.207  30.350  30.815  1.00  0.00     0.029 A 
ATOM     60  N   UNL A   1      43.757  31.986  31.026  1.00  0.00    -0.354 N 
ATOM     61  N   UNL A   1      39.634  31.116  32.066  1.00  0.00    -0.248 NA
ATOM     62  C   UNL A   1      39.627  32.608  30.273  1.00  0.00     0.031 C 
ATOM     63  C   UNL A   1      44.399  30.128  31.967  1.00  0.00     0.029 A 
ATOM     64  C   UNL A   1      43.334  31.031  31.916  1.00  0.00     0.049 A 
ATOM     65  H   UNL A   1      43.531  32.944  31.039  1.00  0.00     0.167 HD
ATOM     66  C   UNL A   1      40.924  31.598  31.913  1.00  0.00     0.074 A 
ATOM     67  C   UNL A   1      40.830  32.594  30.850  1.00  0.00     0.031 C 
ATOM     68  C   UNL A   1      41.998  30.969  32.476  1.00  0.00     0.031 A 
BRANCH  55  69
ATOM     69  C   UNL A   1      44.637  32.990  28.130  1.00  0.00    -0.014 A 
ATOM     70  C   UNL A   1      43.633  33.959  27.930  1.00  0.00     0.010 A 
ATOM     71  C   UNL A   1      45.973  33.419  27.983  1.00  0.00     0.010 A 
ATOM     72  C   UNL A   1      43.937  35.280  27.587  1.00  0.00     0.020 A 
ATOM     73  C   UNL A   1      46.291  34.753  27.684  1.00  0.00     0.020 A 
ATOM     74  C   UNL A   1      45.267  35.674  27.483  1.00  0.00     0.054 A 
BRANCH  74  75
ATOM     75  S   UNL A   1      45.621  37.423  27.174  1.00  0.00     0.124 S 
ATOM     76  O   UNL A   1      44.287  37.958  26.911  1.00  0.00    -0.237 OA
ATOM     77  O   UNL A   1      46.233  37.845  28.431  1.00  0.00    -0.237 OA
ATOM     78  O   UNL A   1      46.520  37.392  26.024  1.00  0.00    -0.744 OA
ENDBRANCH  74  75
ENDBRANCH  55  69
BRANCH  56  79
ATOM     79  C   UNL A   1      36.634  31.400  29.953  1.00  0.00    -0.014 A 
ATOM     80  C   UNL A   1      36.456  31.869  28.636  1.00  0.00     0.010 A 
ATOM     81  C   UNL A   1      35.741  31.856  30.943  1.00  0.00     0.010 A 
ATOM     82  C   UNL A   1      35.488  32.833  28.337  1.00  0.00     0.020 A 
ATOM     83  C   UNL A   1      34.769  32.827  30.649  1.00  0.00     0.020 A 
ATOM     84  C   UNL A   1      34.678  33.338  29.353  1.00  0.00     0.054 A 
BRANCH  84  85
ATOM     85  S   UNL A   1      33.588  34.739  28.973  1.00  0.00     0.124 S 
ATOM     86  O   UNL A   1      33.108  35.118  30.303  1.00  0.00    -0.237 OA
ATOM     87  O   UNL A   1      34.510  35.692  28.351  1.00  0.00    -0.237 OA
ATOM     88  O   UNL A   1      32.587  34.174  28.084  1.00  0.00    -0.744 OA
ENDBRANCH  84  85
ENDBRANCH  56  79
BRANCH  68  89
ATOM     89  C   UNL A   1      41.773  29.907  33.536  1.00  0.00    -0.014 A 
ATOM     90  C   UNL A   1      42.069  30.247  34.870  1.00  0.00     0.010 A 
ATOM     91  C   UNL A   1      41.481  28.561  33.240  1.00  0.00     0.010 A 
ATOM     92  C   UNL A   1      42.118  29.272  35.870  1.00  0.00     0.020 A 
ATOM     93  C   UNL A   1      41.499  27.581  34.246  1.00  0.00     0.020 A 
ATOM     94  C   UNL A   1      41.847  27.941  35.550  1.00  0.00     0.054 A 
BRANCH  94  95
ATOM     95  S   UNL A   1      41.996  26.695  36.859  1.00  0.00     0.124 S 
ATOM     96  O   UNL A   1      43.078  27.239  37.679  1.00  0.00    -0.237 OA
ATOM     97  O   UNL A   1      40.674  26.718  37.480  1.00  0.00    -0.237 OA
ATOM     98  O   UNL A   1      42.320  25.464  36.144  1.00  0.00    -0.744 OA
ENDBRANCH  94  95
ENDBRANCH  68  89
ENDBRANCH  42  43
ENDBRANCH  34  37
ENDBRANCH  32  33
ENDBRANCH  31  32
ENDBRANCH   1  31
TORSDOF 17
ENDMDL
MODEL 2
REMARK VINA RESULT:     -12.8      3.721     10.173
REMARK SMILES O=C(Cn1c(-c2nc(-c3ccc(C(F)(F)F)cc3)no2)cc2ccccc21)NCCCNC(=O)c1ccc(-c2c3nc(c(-c4ccc(S(=O)(=O)[O-])cc4)c4ccc([nH]4)c(-c4ccc(S(=O)(=O)[O-])cc4)c4nc(c(-c5ccc(S(=O)(=O)[O-])cc5)c5ccc2[nH]5)C=C4)C=C3)cc1
REMARK SMILES IDX 29 1 28 2 1 3 2 4 3 6 4 7 5 8 27 9 21 10 22 11 26 12 23 13
REMARK SMILES IDX 25 14 24 15 6 16 7 17 20 18 8 19 19 20 9 21 10 22 18 23
REMARK SMILES IDX 11 24 17 25 12 26 13 27 14 28 15 29 16 30 30 31 31 32 32 33
REMARK SMILES IDX 33 34 34 36 35 37 36 38 94 39 37 40 93 41 38 42 39 43 40 44
REMARK SMILES IDX 87 45 41 46 92 47 86 48 88 49 42 50 91 51 85 52 84 53 43 55
REMARK SMILES IDX 73 56 54 57 72 58 55 59 58 60 71 61 89 62 56 63 57 64 70 66
REMARK SMILES IDX 90 67 59 68 44 69 45 70 53 71 46 72 52 73 47 74 48 75 49 76
REMARK SMILES IDX 50 77 51 78 74 79 75 80 83 81 76 82 82 83 77 84 78 85 79 86
REMARK SMILES IDX 80 87 81 88 60 89 61 90 69 91 62 92 68 93 63 94 64 95 65 96
REMARK SMILES IDX 66 97 67 98
REMARK H PARENT 28 5 32 35 88 54 58 65
REMARK Flexibility Score: inf
ROOT
ATOM      1  C   UNL A   1      33.988  31.427  27.427  1.00  0.00     0.117 C 
ENDROOT
BRANCH   1   2
ATOM      2  N   UNL A   1      32.699  30.887  27.008  1.00  0.00    -0.354 N 
ATOM      3  O   UNL A   1      33.531  29.721  25.210  1.00  0.00    -0.273 OA
ATOM      4  C   UNL A   1      32.602  29.969  25.976  1.00  0.00     0.239 C 
ATOM      5  H   UNL A   1      31.881  31.181  27.470  1.00  0.00     0.163 HD
BRANCH   4   6
ATOM      6  C   UNL A   1      31.264  29.279  25.817  1.00  0.00     0.222 C 
BRANCH   6   7
ATOM      7  N   UNL A   1      30.699  29.193  24.463  1.00  0.00    -0.327 N 
ATOM      8  C   UNL A   1      30.864  28.075  23.652  1.00  0.00     0.109 A 
ATOM      9  C   UNL A   1      29.980  30.157  23.770  1.00  0.00     0.049 A 
ATOM     10  C   UNL A   1      30.440  28.414  22.386  1.00  0.00     0.042 A 
ATOM     11  C   UNL A   1      29.865  29.709  22.448  1.00  0.00     0.000 A 
ATOM     12  C   UNL A   1      29.414  31.387  24.157  1.00  0.00     0.027 A 
ATOM     13  C   UNL A   1      29.218  30.521  21.493  1.00  0.00     0.010 A 
ATOM     14  C   UNL A   1      28.801  32.188  23.188  1.00  0.00     0.002 A 
ATOM     15  C   UNL A   1      28.707  31.765  21.870  1.00  0.00     0.001 A 
BRANCH   8  16
ATOM     16  C   UNL A   1      31.327  26.796  24.102  1.00  0.00     0.274 A 
ATOM     17  N   UNL A   1      32.558  26.339  23.972  1.00  0.00    -0.185 NA
ATOM     18  O   UNL A   1      30.484  25.867  24.654  1.00  0.00    -0.332 OA
ATOM     19  C   UNL A   1      32.455  25.050  24.448  1.00  0.00     0.202 A 
ATOM     20  N   UNL A   1      31.225  24.714  24.863  1.00  0.00    -0.057 NA
BRANCH  19  21
ATOM     21  C   UNL A   1      33.570  24.122  24.544  1.00  0.00     0.023 A 
ATOM     22  C   UNL A   1      33.932  23.592  25.791  1.00  0.00     0.013 A 
ATOM     23  C   UNL A   1      34.368  23.843  23.429  1.00  0.00     0.013 A 
ATOM     24  C   UNL A   1      35.102  22.841  25.932  1.00  0.00     0.014 A 
ATOM     25  C   UNL A   1      35.549  23.104  23.573  1.00  0.00     0.014 A 
ATOM     26  C   UNL A   1      35.941  22.615  24.830  1.00  0.00     0.056 A 
BRANCH  26  27
ATOM     27  C   UNL A   1      37.258  21.902  25.026  1.00  0.00     0.416 C 
ATOM     28  F   UNL A   1      37.166  20.889  25.935  1.00  0.00    -0.166 F 
ATOM     29  F   UNL A   1      37.723  21.331  23.881  1.00  0.00    -0.166 F 
ATOM     30  F   UNL A   1      38.259  22.710  25.474  1.00  0.00    -0.166 F 
ENDBRANCH  26  27
ENDBRANCH  19  21
ENDBRANCH   8  16
ENDBRANCH   6   7
ENDBRANCH   4   6
ENDBRANCH   1   2
BRANCH   1  31
ATOM     31  C   UNL A   1      33.932  32.842  28.000  1.00  0.00     0.042 C 
BRANCH  31  32
ATOM     32  C   UNL A   1      35.069  33.206  28.956  1.00  0.00     0.118 C 
BRANCH  32  33
ATOM     33  N   UNL A   1      34.761  33.009  30.360  1.00  0.00    -0.352 N 
ATOM     34  C   UNL A   1      35.413  32.443  31.424  1.00  0.00     0.251 C 
ATOM     35  H   UNL A   1      33.876  33.362  30.605  1.00  0.00     0.163 HD
ATOM     36  O   UNL A   1      34.948  32.721  32.534  1.00  0.00    -0.269 OA
BRANCH  34  37
ATOM     37  C   UNL A   1      36.577  31.512  31.352  1.00  0.00     0.039 A 
ATOM     38  C   UNL A   1      37.912  31.889  31.239  1.00  0.00     0.014 A 
ATOM     39  C   UNL A   1      36.271  30.133  31.297  1.00  0.00     0.014 A 
ATOM     40  C   UNL A   1      38.901  30.923  31.024  1.00  0.00     0.010 A 
ATOM     41  C   UNL A   1      37.257  29.166  31.081  1.00  0.00     0.010 A 
ATOM     42  C   UNL A   1      38.578  29.561  30.910  1.00  0.00    -0.014 A 
BRANCH  42  43
ATOM     43  C   UNL A   1      39.673  28.618  30.655  1.00  0.00     0.031 A 
ATOM     44  C   UNL A   1      40.558  28.310  31.815  1.00  0.00     0.074 A 
ATOM     45  C   UNL A   1      39.937  27.986  29.492  1.00  0.00     0.049 A 
ATOM     46  N   UNL A   1      41.786  28.677  31.992  1.00  0.00    -0.248 NA
ATOM     47  C   UNL A   1      39.987  27.559  32.938  1.00  0.00     0.031 C 
ATOM     48  C   UNL A   1      39.113  27.863  28.287  1.00  0.00     0.029 A 
ATOM     49  N   UNL A   1      41.045  27.246  29.181  1.00  0.00    -0.354 N 
ATOM     50  C   UNL A   1      42.206  28.089  33.183  1.00  0.00     0.074 A 
ATOM     51  C   UNL A   1      41.031  27.488  33.768  1.00  0.00     0.031 C 
ATOM     52  C   UNL A   1      39.658  26.935  27.463  1.00  0.00     0.029 A 
ATOM     53  C   UNL A   1      40.946  26.529  27.999  1.00  0.00     0.049 A 
ATOM     54  H   UNL A   1      41.846  27.225  29.751  1.00  0.00     0.167 HD
ATOM     55  C   UNL A   1      43.519  28.026  33.548  1.00  0.00     0.031 A 
ATOM     56  C   UNL A   1      41.854  25.650  27.509  1.00  0.00     0.031 A 
ATOM     57  C   UNL A   1      44.341  28.915  32.771  1.00  0.00     0.049 A 
ATOM     58  C   UNL A   1      43.171  25.990  28.097  1.00  0.00     0.074 A 
ATOM     59  C   UNL A   1      44.380  30.281  32.580  1.00  0.00     0.029 A 
ATOM     60  N   UNL A   1      45.105  28.376  31.763  1.00  0.00    -0.354 N 
ATOM     61  N   UNL A   1      43.835  27.076  27.821  1.00  0.00    -0.248 NA
ATOM     62  C   UNL A   1      43.606  25.274  29.284  1.00  0.00     0.031 C 
ATOM     63  C   UNL A   1      44.736  30.452  31.211  1.00  0.00     0.029 A 
ATOM     64  C   UNL A   1      44.934  29.180  30.665  1.00  0.00     0.049 A 
ATOM     65  H   UNL A   1      45.667  27.570  31.819  1.00  0.00     0.167 HD
ATOM     66  C   UNL A   1      44.487  27.404  29.000  1.00  0.00     0.074 A 
ATOM     67  C   UNL A   1      44.393  26.204  29.827  1.00  0.00     0.031 C 
ATOM     68  C   UNL A   1      44.816  28.694  29.304  1.00  0.00     0.031 A 
BRANCH  55  69
ATOM     69  C   UNL A   1      44.114  26.975  34.451  1.00  0.00    -0.014 A 
ATOM     70  C   UNL A   1      44.431  25.675  34.007  1.00  0.00     0.010 A 
ATOM     71  C   UNL A   1      44.595  27.347  35.724  1.00  0.00     0.010 A 
ATOM     72  C   UNL A   1      45.171  24.785  34.791  1.00  0.00     0.020 A 
ATOM     73  C   UNL A   1      45.376  26.478  36.500  1.00  0.00     0.020 A 
ATOM     74  C   UNL A   1      45.655  25.198  36.028  1.00  0.00     0.054 A 
BRANCH  74  75
ATOM     75  S   UNL A   1      46.724  24.066  36.952  1.00  0.00     0.124 S 
ATOM     76  O   UNL A   1      45.858  22.902  37.117  1.00  0.00    -0.237 OA
ATOM     77  O   UNL A   1      47.853  23.889  36.042  1.00  0.00    -0.237 OA
ATOM     78  O   UNL A   1      47.025  24.801  38.178  1.00  0.00    -0.744 OA
ENDBRANCH  74  75
ENDBRANCH  55  69
BRANCH  56  79
ATOM     79  C   UNL A   1      41.582  24.302  26.945  1.00  0.00    -0.014 A 
ATOM     80  C   UNL A   1      40.779  23.392  27.661  1.00  0.00     0.010 A 
ATOM     81  C   UNL A   1      42.374  23.798  25.894  1.00  0.00     0.010 A 
ATOM     82  C   UNL A   1      40.841  22.018  27.406  1.00  0.00     0.020 A 
ATOM     83  C   UNL A   1      42.443  22.420  25.637  1.00  0.00     0.020 A 
ATOM     84  C   UNL A   1      41.705  21.535  26.424  1.00  0.00     0.054 A 
BRANCH  84  85
ATOM     85  S   UNL A   1      41.921  19.739  26.272  1.00  0.00     0.124 S 
ATOM     86  O   UNL A   1      40.603  19.317  25.793  1.00  0.00    -0.237 OA
ATOM     87  O   UNL A   1      43.001  19.637  25.288  1.00  0.00    -0.237 OA
ATOM     88  O   UNL A   1      42.264  19.312  27.618  1.00  0.00    -0.744 OA
ENDBRANCH  84  85
ENDBRANCH  56  79
BRANCH  68  89
ATOM     89  C   UNL A   1      44.756  29.757  28.223  1.00  0.00    -0.014 A 
ATOM     90  C   UNL A   1      45.974  30.173  27.651  1.00  0.00     0.010 A 
ATOM     91  C   UNL A   1      43.590  30.482  27.909  1.00  0.00     0.010 A 
ATOM     92  C   UNL A   1      46.037  31.301  26.829  1.00  0.00     0.020 A 
ATOM     93  C   UNL A   1      43.643  31.599  27.059  1.00  0.00     0.020 A 
ATOM     94  C   UNL A   1      44.873  32.017  26.549  1.00  0.00     0.054 A 
BRANCH  94  95
ATOM     95  S   UNL A   1      45.011  33.519  25.541  1.00  0.00     0.124 S 
ATOM     96  O   UNL A   1      46.442  33.807  25.611  1.00  0.00    -0.237 OA
ATOM     97  O   UNL A   1      44.529  33.076  24.234  1.00  0.00    -0.237 OA
ATOM     98  O   UNL A   1      44.150  34.483  26.220  1.00  0.00    -0.744 OA
ENDBRANCH  94  95
ENDBRANCH  68  89
ENDBRANCH  42  43
ENDBRANCH  34  37
ENDBRANCH  32  33
ENDBRANCH  31  32
ENDBRANCH   1  31
TORSDOF 17
ENDMDL
MODEL 3
REMARK VINA RESULT:     -12.8      4.270      6.478
REMARK SMILES O=C(Cn1c(-c2nc(-c3ccc(C(F)(F)F)cc3)no2)cc2ccccc21)NCCCNC(=O)c1ccc(-c2c3nc(c(-c4ccc(S(=O)(=O)[O-])cc4)c4ccc([nH]4)c(-c4ccc(S(=O)(=O)[O-])cc4)c4nc(c(-c5ccc(S(=O)(=O)[O-])cc5)c5ccc2[nH]5)C=C4)C=C3)cc1
REMARK SMILES IDX 29 1 28 2 1 3 2 4 3 6 4 7 5 8 27 9 21 10 22 11 26 12 23 13
REMARK SMILES IDX 25 14 24 15 6 16 7 17 20 18 8 19 19 20 9 21 10 22 18 23
REMARK SMILES IDX 11 24 17 25 12 26 13 27 14 28 15 29 16 30 30 31 31 32 32 33
REMARK SMILES IDX 33 34 34 36 35 37 36 38 94 39 37 40 93 41 38 42 39 43 40 44
REMARK SMILES IDX 87 45 41 46 92 47 86 48 88 49 42 50 91 51 85 52 84 53 43 55
REMARK SMILES IDX 73 56 54 57 72 58 55 59 58 60 71 61 89 62 56 63 57 64 70 66
REMARK SMILES IDX 90 67 59 68 44 69 45 70 53 71 46 72 52 73 47 74 48 75 49 76
REMARK SMILES IDX 50 77 51 78 74 79 75 80 83 81 76 82 82 83 77 84 78 85 79 86
REMARK SMILES IDX 80 87 81 88 60 89 61 90 69 91 62 92 68 93 63 94 64 95 65 96
REMARK SMILES IDX 66 97 67 98
REMARK H PARENT 28 5 32 35 88 54 58 65
REMARK Flexibility Score: inf
ROOT
ATOM      1  C   UNL A   1      44.155  19.403  25.308  1.00  0.00     0.117 C 
ENDROOT
BRANCH   1   2
ATOM      2  N   UNL A   1      43.173  20.127  26.108  1.00  0.00    -0.354 N 
ATOM      3  O   UNL A   1      41.462  18.633  25.749  1.00  0.00    -0.273 OA
ATOM      4  C   UNL A   1      41.914  19.604  26.353  1.00  0.00     0.239 C 
ATOM      5  H   UNL A   1      43.410  21.006  26.483  1.00  0.00     0.163 HD
BRANCH   4   6
ATOM      6  C   UNL A   1      41.091  20.306  27.411  1.00  0.00     0.222 C 
BRANCH   6   7
ATOM      7  N   UNL A   1      40.398  21.543  27.025  1.00  0.00    -0.327 N 
ATOM      8  C   UNL A   1      40.783  22.795  27.496  1.00  0.00     0.109 A 
ATOM      9  C   UNL A   1      39.285  21.685  26.209  1.00  0.00     0.049 A 
ATOM     10  C   UNL A   1      39.792  23.689  27.154  1.00  0.00     0.042 A 
ATOM     11  C   UNL A   1      38.856  23.013  26.330  1.00  0.00     0.000 A 
ATOM     12  C   UNL A   1      38.595  20.787  25.372  1.00  0.00     0.027 A 
ATOM     13  C   UNL A   1      37.698  23.434  25.643  1.00  0.00     0.010 A 
ATOM     14  C   UNL A   1      37.435  21.219  24.721  1.00  0.00     0.002 A 
ATOM     15  C   UNL A   1      36.987  22.525  24.857  1.00  0.00     0.001 A 
BRANCH   8  16
ATOM     16  C   UNL A   1      42.024  23.079  28.152  1.00  0.00     0.274 A 
ATOM     17  N   UNL A   1      42.152  23.674  29.323  1.00  0.00    -0.185 NA
ATOM     18  O   UNL A   1      43.235  22.824  27.564  1.00  0.00    -0.332 OA
ATOM     19  C   UNL A   1      43.517  23.813  29.445  1.00  0.00     0.202 A 
ATOM     20  N   UNL A   1      44.214  23.324  28.409  1.00  0.00    -0.057 NA
BRANCH  19  21
ATOM     21  C   UNL A   1      44.181  24.395  30.601  1.00  0.00     0.023 A 
ATOM     22  C   UNL A   1      44.852  25.620  30.477  1.00  0.00     0.013 A 
ATOM     23  C   UNL A   1      44.266  23.691  31.807  1.00  0.00     0.013 A 
ATOM     24  C   UNL A   1      45.640  26.108  31.523  1.00  0.00     0.014 A 
ATOM     25  C   UNL A   1      45.069  24.172  32.850  1.00  0.00     0.014 A 
ATOM     26  C   UNL A   1      45.782  25.373  32.710  1.00  0.00     0.056 A 
BRANCH  26  27
ATOM     27  C   UNL A   1      46.730  25.860  33.781  1.00  0.00     0.416 C 
ATOM     28  F   UNL A   1      46.854  27.218  33.783  1.00  0.00    -0.166 F 
ATOM     29  F   UNL A   1      46.323  25.523  35.037  1.00  0.00    -0.166 F 
ATOM     30  F   UNL A   1      47.996  25.373  33.657  1.00  0.00    -0.166 F 
ENDBRANCH  26  27
ENDBRANCH  19  21
ENDBRANCH   8  16
ENDBRANCH   6   7
ENDBRANCH   4   6
ENDBRANCH   1   2
BRANCH   1  31
ATOM     31  C   UNL A   1      45.178  20.288  24.598  1.00  0.00     0.042 C 
BRANCH  31  32
ATOM     32  C   UNL A   1      45.605  21.540  25.366  1.00  0.00     0.118 C 
BRANCH  32  33
ATOM     33  N   UNL A   1      46.256  22.550  24.554  1.00  0.00    -0.352 N 
ATOM     34  C   UNL A   1      46.390  23.912  24.625  1.00  0.00     0.251 C 
ATOM     35  H   UNL A   1      46.705  22.169  23.765  1.00  0.00     0.163 HD
ATOM     36  O   UNL A   1      47.265  24.393  23.898  1.00  0.00    -0.269 OA
BRANCH  34  37
ATOM     37  C   UNL A   1      45.562  24.838  25.453  1.00  0.00     0.039 A 
ATOM     38  C   UNL A   1      44.226  25.156  25.223  1.00  0.00     0.014 A 
ATOM     39  C   UNL A   1      46.234  25.513  26.496  1.00  0.00     0.014 A 
ATOM     40  C   UNL A   1      43.601  26.156  25.976  1.00  0.00     0.010 A 
ATOM     41  C   UNL A   1      45.612  26.513  27.249  1.00  0.00     0.010 A 
ATOM     42  C   UNL A   1      44.297  26.864  26.969  1.00  0.00    -0.014 A 
BRANCH  42  43
ATOM     43  C   UNL A   1      43.573  27.916  27.692  1.00  0.00     0.031 A 
ATOM     44  C   UNL A   1      44.244  29.246  27.760  1.00  0.00     0.074 A 
ATOM     45  C   UNL A   1      42.358  27.807  28.269  1.00  0.00     0.049 A 
ATOM     46  N   UNL A   1      44.778  29.810  28.794  1.00  0.00    -0.248 NA
ATOM     47  C   UNL A   1      44.393  30.009  26.516  1.00  0.00     0.031 C 
ATOM     48  C   UNL A   1      41.352  26.750  28.136  1.00  0.00     0.029 A 
ATOM     49  N   UNL A   1      41.745  28.711  29.092  1.00  0.00    -0.354 N 
ATOM     50  C   UNL A   1      45.211  31.068  28.380  1.00  0.00     0.074 A 
ATOM     51  C   UNL A   1      45.030  31.099  26.948  1.00  0.00     0.031 C 
ATOM     52  C   UNL A   1      40.187  27.169  28.686  1.00  0.00     0.029 A 
ATOM     53  C   UNL A   1      40.412  28.440  29.355  1.00  0.00     0.049 A 
ATOM     54  H   UNL A   1      42.213  29.491  29.467  1.00  0.00     0.167 HD
ATOM     55  C   UNL A   1      45.572  32.047  29.259  1.00  0.00     0.031 A 
ATOM     56  C   UNL A   1      39.551  29.217  30.057  1.00  0.00     0.031 A 
ATOM     57  C   UNL A   1      45.788  31.533  30.584  1.00  0.00     0.049 A 
ATOM     58  C   UNL A   1      40.356  30.076  30.958  1.00  0.00     0.074 A 
ATOM     59  C   UNL A   1      46.653  30.611  31.139  1.00  0.00     0.029 A 
ATOM     60  N   UNL A   1      44.806  31.734  31.526  1.00  0.00    -0.354 N 
ATOM     61  N   UNL A   1      41.037  29.630  31.976  1.00  0.00    -0.248 NA
ATOM     62  C   UNL A   1      40.695  31.418  30.518  1.00  0.00     0.031 C 
ATOM     63  C   UNL A   1      45.891  29.947  32.142  1.00  0.00     0.029 A 
ATOM     64  C   UNL A   1      44.623  30.535  32.167  1.00  0.00     0.049 A 
ATOM     65  H   UNL A   1      44.328  32.575  31.705  1.00  0.00     0.167 HD
ATOM     66  C   UNL A   1      42.152  30.449  32.045  1.00  0.00     0.074 A 
ATOM     67  C   UNL A   1      41.833  31.591  31.193  1.00  0.00     0.031 C 
ATOM     68  C   UNL A   1      43.333  30.012  32.574  1.00  0.00     0.031 A 
BRANCH  55  69
ATOM     69  C   UNL A   1      45.494  33.527  28.980  1.00  0.00    -0.014 A 
ATOM     70  C   UNL A   1      46.602  34.285  28.552  1.00  0.00     0.010 A 
ATOM     71  C   UNL A   1      44.231  34.153  28.914  1.00  0.00     0.010 A 
ATOM     72  C   UNL A   1      46.468  35.600  28.098  1.00  0.00     0.020 A 
ATOM     73  C   UNL A   1      44.079  35.457  28.418  1.00  0.00     0.020 A 
ATOM     74  C   UNL A   1      45.203  36.174  28.016  1.00  0.00     0.054 A 
BRANCH  74  75
ATOM     75  S   UNL A   1      45.057  37.828  27.294  1.00  0.00     0.124 S 
ATOM     76  O   UNL A   1      43.656  37.853  26.882  1.00  0.00    -0.237 OA
ATOM     77  O   UNL A   1      45.397  38.692  28.422  1.00  0.00    -0.237 OA
ATOM     78  O   UNL A   1      46.029  37.815  26.206  1.00  0.00    -0.744 OA
ENDBRANCH  74  75
ENDBRANCH  55  69
BRANCH  56  79
ATOM     79  C   UNL A   1      38.159  29.578  29.682  1.00  0.00    -0.014 A 
ATOM     80  C   UNL A   1      37.840  29.831  28.333  1.00  0.00     0.010 A 
ATOM     81  C   UNL A   1      37.245  30.002  30.667  1.00  0.00     0.010 A 
ATOM     82  C   UNL A   1      36.703  30.568  27.985  1.00  0.00     0.020 A 
ATOM     83  C   UNL A   1      36.105  30.746  30.324  1.00  0.00     0.020 A 
ATOM     84  C   UNL A   1      35.865  31.058  28.985  1.00  0.00     0.054 A 
BRANCH  84  85
ATOM     85  S   UNL A   1      34.528  32.191  28.512  1.00  0.00     0.124 S 
ATOM     86  O   UNL A   1      35.226  33.132  27.633  1.00  0.00    -0.237 OA
ATOM     87  O   UNL A   1      33.584  31.296  27.838  1.00  0.00    -0.237 OA
ATOM     88  O   UNL A   1      34.068  32.739  29.776  1.00  0.00    -0.744 OA
ENDBRANCH  84  85
ENDBRANCH  56  79
BRANCH  68  89
ATOM     89  C   UNL A   1      43.363  28.727  33.379  1.00  0.00    -0.014 A 
ATOM     90  C   UNL A   1      42.661  27.620  32.864  1.00  0.00     0.010 A 
ATOM     91  C   UNL A   1      43.876  28.640  34.688  1.00  0.00     0.010 A 
ATOM     92  C   UNL A   1      42.437  26.481  33.642  1.00  0.00     0.020 A 
ATOM     93  C   UNL A   1      43.680  27.486  35.464  1.00  0.00     0.020 A 
ATOM     94  C   UNL A   1      42.936  26.426  34.944  1.00  0.00     0.054 A 
BRANCH  94  95
ATOM     95  S   UNL A   1      42.558  24.962  35.946  1.00  0.00     0.124 S 
ATOM     96  O   UNL A   1      42.313  23.945  34.925  1.00  0.00    -0.237 OA
ATOM     97  O   UNL A   1      43.781  24.779  36.725  1.00  0.00    -0.237 OA
ATOM     98  O   UNL A   1      41.386  25.356  36.723  1.00  0.00    -0.744 OA
ENDBRANCH  94  95
ENDBRANCH  68  89
ENDBRANCH  42  43
ENDBRANCH  34  37
ENDBRANCH  32  33
ENDBRANCH  31  32
ENDBRANCH   1  31
TORSDOF 17
ENDMDL
