MODEL 1
REMARK VINA RESULT:     -10.3      0.000      0.000
REMARK SMILES CO[C@H]1C[C@@H](C(=O)NCCCNC(=O)c2ccc(-c3c4nc(c(-c5ccc(S(=O)(=O)[O-])cc5)c5ccc([nH]5)c(-c5ccc(S(=O)(=O)[O-])cc5)c5nc(c(-c6ccc(S(=O)(=O)[O-])cc6)c6ccc3[nH]6)C=C5)C=C4)cc2)N(C(=O)CSc2cccs2)C1
REMARK SMILES IDX 9 1 8 2 6 3 7 4 5 6 3 7 4 8 85 9 75 10 2 11 1 12 76 13 77 14
REMARK SMILES IDX 78 15 79 16 80 17 81 18 84 19 82 20 83 21 10 22 11 23 12 24
REMARK SMILES IDX 13 25 14 27 15 28 16 29 74 30 17 31 73 32 18 33 19 34 20 35
REMARK SMILES IDX 67 36 21 37 72 38 66 39 68 40 22 41 71 42 65 43 64 44 23 46
REMARK SMILES IDX 53 47 34 48 52 49 35 50 38 51 51 52 69 53 36 54 37 55 50 57
REMARK SMILES IDX 70 58 39 59 24 60 25 61 33 62 26 63 32 64 27 65 28 66 29 67
REMARK SMILES IDX 30 68 31 69 54 70 55 71 63 72 56 73 62 74 57 75 58 76 59 77
REMARK SMILES IDX 60 78 61 79 40 80 41 81 49 82 42 83 48 84 43 85 44 86 45 87
REMARK SMILES IDX 46 88 47 89
REMARK H PARENT 8 5 12 26 68 45 38 56
REMARK Flexibility Score: inf
ROOT
ATOM      1  C   UNL A   1      33.128  26.034  25.816  1.00  0.00     0.117 C 
ENDROOT
BRANCH   1   2
ATOM      2  N   UNL A   1      32.380  24.993  26.490  1.00  0.00    -0.354 N 
ATOM      3  C   UNL A   1      32.585  23.694  26.790  1.00  0.00     0.242 C 
ATOM      4  O   UNL A   1      31.698  23.219  27.515  1.00  0.00    -0.273 OA
ATOM      5  H   UNL A   1      31.505  25.312  26.808  1.00  0.00     0.163 HD
BRANCH   3   6
ATOM      6  C   UNL A   1      33.715  22.765  26.281  1.00  0.00     0.177 C 
ATOM      7  C   UNL A   1      36.008  22.261  25.808  1.00  0.00     0.139 C 
ATOM      8  C   UNL A   1      35.133  23.269  26.537  1.00  0.00     0.069 C 
ATOM      9  C   UNL A   1      35.200  22.046  24.527  1.00  0.00     0.152 C 
ATOM     10  N   UNL A   1      33.798  22.301  24.877  1.00  0.00    -0.327 N 
BRANCH   7  11
ATOM     11  O   UNL A   1      37.288  22.844  25.595  1.00  0.00    -0.380 OA
ATOM     12  C   UNL A   1      38.354  21.920  25.760  1.00  0.00     0.195 C 
ENDBRANCH   7  11
BRANCH  10  13
ATOM     13  C   UNL A   1      32.844  21.715  24.066  1.00  0.00     0.233 C 
ATOM     14  O   UNL A   1      32.435  22.311  23.060  1.00  0.00    -0.274 OA
BRANCH  13  15
ATOM     15  C   UNL A   1      32.203  20.395  24.436  1.00  0.00     0.175 C 
BRANCH  15  16
ATOM     16  S   UNL A   1      32.481  19.075  23.234  1.00  0.00    -0.105 SA
BRANCH  16  17
ATOM     17  C   UNL A   1      33.043  17.726  24.192  1.00  0.00     0.060 A 
ATOM     18  C   UNL A   1      32.311  16.945  25.058  1.00  0.00     0.027 A 
ATOM     19  S   UNL A   1      34.693  17.275  24.168  1.00  0.00    -0.137 S 
ATOM     20  C   UNL A   1      33.116  15.958  25.703  1.00  0.00     0.013 A 
ATOM     21  C   UNL A   1      34.434  16.032  25.311  1.00  0.00     0.066 A 
ENDBRANCH  16  17
ENDBRANCH  15  16
ENDBRANCH  13  15
ENDBRANCH  10  13
ENDBRANCH   3   6
ENDBRANCH   1   2
BRANCH   1  22
ATOM     22  C   UNL A   1      32.915  27.404  26.446  1.00  0.00     0.042 C 
BRANCH  22  23
ATOM     23  C   UNL A   1      34.067  28.383  26.200  1.00  0.00     0.118 C 
BRANCH  23  24
ATOM     24  N   UNL A   1      33.841  29.683  26.818  1.00  0.00    -0.352 N 
ATOM     25  C   UNL A   1      34.563  30.373  27.757  1.00  0.00     0.251 C 
ATOM     26  H   UNL A   1      33.028  30.145  26.509  1.00  0.00     0.163 HD
ATOM     27  O   UNL A   1      34.048  31.347  28.301  1.00  0.00    -0.269 OA
BRANCH  25  28
ATOM     28  C   UNL A   1      35.940  29.972  28.116  1.00  0.00     0.039 A 
ATOM     29  C   UNL A   1      36.946  30.101  27.154  1.00  0.00     0.014 A 
ATOM     30  C   UNL A   1      36.234  29.400  29.358  1.00  0.00     0.014 A 
ATOM     31  C   UNL A   1      38.250  29.703  27.454  1.00  0.00     0.010 A 
ATOM     32  C   UNL A   1      37.548  29.067  29.680  1.00  0.00     0.010 A 
ATOM     33  C   UNL A   1      38.569  29.205  28.729  1.00  0.00    -0.014 A 
BRANCH  33  34
ATOM     34  C   UNL A   1      39.965  28.835  29.070  1.00  0.00     0.031 A 
ATOM     35  C   UNL A   1      40.867  29.810  29.776  1.00  0.00     0.074 A 
ATOM     36  C   UNL A   1      40.429  27.622  28.711  1.00  0.00     0.049 A 
ATOM     37  N   UNL A   1      42.109  29.654  30.160  1.00  0.00    -0.248 NA
ATOM     38  C   UNL A   1      40.314  31.142  30.069  1.00  0.00     0.031 C 
ATOM     39  C   UNL A   1      39.669  26.609  27.973  1.00  0.00     0.029 A 
ATOM     40  N   UNL A   1      41.649  27.032  28.918  1.00  0.00    -0.354 N 
ATOM     41  C   UNL A   1      42.488  30.866  30.726  1.00  0.00     0.074 A 
ATOM     42  C   UNL A   1      41.361  31.763  30.594  1.00  0.00     0.031 C 
ATOM     43  C   UNL A   1      40.426  25.511  27.824  1.00  0.00     0.029 A 
ATOM     44  C   UNL A   1      41.732  25.750  28.428  1.00  0.00     0.049 A 
ATOM     45  H   UNL A   1      42.395  27.484  29.376  1.00  0.00     0.167 HD
ATOM     46  C   UNL A   1      43.661  31.197  31.321  1.00  0.00     0.031 A 
ATOM     47  C   UNL A   1      42.743  24.862  28.471  1.00  0.00     0.031 A 
ATOM     48  C   UNL A   1      44.776  30.297  31.463  1.00  0.00     0.049 A 
ATOM     49  C   UNL A   1      44.020  25.242  29.165  1.00  0.00     0.074 A 
ATOM     50  C   UNL A   1      45.989  30.520  32.091  1.00  0.00     0.029 A 
ATOM     51  N   UNL A   1      44.813  29.000  30.974  1.00  0.00    -0.354 N 
ATOM     52  N   UNL A   1      44.336  26.374  29.748  1.00  0.00    -0.248 NA
ATOM     53  C   UNL A   1      45.068  24.214  29.226  1.00  0.00     0.031 C 
ATOM     54  C   UNL A   1      46.773  29.368  31.951  1.00  0.00     0.029 A 
ATOM     55  C   UNL A   1      46.029  28.413  31.276  1.00  0.00     0.049 A 
ATOM     56  H   UNL A   1      44.081  28.561  30.483  1.00  0.00     0.167 HD
ATOM     57  C   UNL A   1      45.614  26.187  30.263  1.00  0.00     0.074 A 
ATOM     58  C   UNL A   1      45.999  24.827  29.943  1.00  0.00     0.031 C 
ATOM     59  C   UNL A   1      46.400  27.063  30.938  1.00  0.00     0.031 A 
BRANCH  46  60
ATOM     60  C   UNL A   1      43.792  32.593  31.869  1.00  0.00    -0.014 A 
ATOM     61  C   UNL A   1      44.462  33.595  31.144  1.00  0.00     0.010 A 
ATOM     62  C   UNL A   1      43.204  32.922  33.104  1.00  0.00     0.010 A 
ATOM     63  C   UNL A   1      44.578  34.888  31.661  1.00  0.00     0.020 A 
ATOM     64  C   UNL A   1      43.295  34.222  33.613  1.00  0.00     0.020 A 
ATOM     65  C   UNL A   1      43.997  35.193  32.895  1.00  0.00     0.054 A 
BRANCH  65  66
ATOM     66  S   UNL A   1      44.140  36.886  33.532  1.00  0.00     0.124 S 
ATOM     67  O   UNL A   1      45.572  36.984  33.803  1.00  0.00    -0.237 OA
ATOM     68  O   UNL A   1      43.656  37.692  32.414  1.00  0.00    -0.237 OA
ATOM     69  O   UNL A   1      43.281  36.885  34.714  1.00  0.00    -0.744 OA
ENDBRANCH  65  66
ENDBRANCH  46  60
BRANCH  47  70
ATOM     70  C   UNL A   1      42.574  23.513  27.866  1.00  0.00    -0.014 A 
ATOM     71  C   UNL A   1      43.187  23.203  26.640  1.00  0.00     0.010 A 
ATOM     72  C   UNL A   1      41.806  22.531  28.517  1.00  0.00     0.010 A 
ATOM     73  C   UNL A   1      43.018  21.941  26.063  1.00  0.00     0.020 A 
ATOM     74  C   UNL A   1      41.656  21.260  27.956  1.00  0.00     0.020 A 
ATOM     75  C   UNL A   1      42.252  20.977  26.725  1.00  0.00     0.054 A 
BRANCH  75  76
ATOM     76  S   UNL A   1      42.083  19.329  25.985  1.00  0.00     0.124 S 
ATOM     77  O   UNL A   1      40.644  19.243  25.763  1.00  0.00    -0.237 OA
ATOM     78  O   UNL A   1      42.905  19.434  24.782  1.00  0.00    -0.237 OA
ATOM     79  O   UNL A   1      42.614  18.439  27.015  1.00  0.00    -0.744 OA
ENDBRANCH  75  76
ENDBRANCH  47  70
BRANCH  59  80
ATOM     80  C   UNL A   1      47.743  26.558  31.392  1.00  0.00    -0.014 A 
ATOM     81  C   UNL A   1      48.871  26.644  30.557  1.00  0.00     0.010 A 
ATOM     82  C   UNL A   1      47.875  25.992  32.672  1.00  0.00     0.010 A 
ATOM     83  C   UNL A   1      50.096  26.118  30.972  1.00  0.00     0.020 A 
ATOM     84  C   UNL A   1      49.106  25.490  33.101  1.00  0.00     0.020 A 
ATOM     85  C   UNL A   1      50.203  25.534  32.238  1.00  0.00     0.054 A 
BRANCH  85  86
ATOM     86  S   UNL A   1      51.802  24.855  32.759  1.00  0.00     0.124 S 
ATOM     87  O   UNL A   1      51.675  23.453  32.368  1.00  0.00    -0.237 OA
ATOM     88  O   UNL A   1      52.758  25.640  31.981  1.00  0.00    -0.237 OA
ATOM     89  O   UNL A   1      51.829  25.101  34.199  1.00  0.00    -0.744 OA
ENDBRANCH  85  86
ENDBRANCH  59  80
ENDBRANCH  33  34
ENDBRANCH  25  28
ENDBRANCH  23  24
ENDBRANCH  22  23
ENDBRANCH   1  22
TORSDOF 18
ENDMDL
MODEL 2
REMARK VINA RESULT:     -10.1      3.327      9.270
REMARK SMILES CO[C@H]1C[C@@H](C(=O)NCCCNC(=O)c2ccc(-c3c4nc(c(-c5ccc(S(=O)(=O)[O-])cc5)c5ccc([nH]5)c(-c5ccc(S(=O)(=O)[O-])cc5)c5nc(c(-c6ccc(S(=O)(=O)[O-])cc6)c6ccc3[nH]6)C=C5)C=C4)cc2)N(C(=O)CSc2cccs2)C1
REMARK SMILES IDX 9 1 8 2 6 3 7 4 5 6 3 7 4 8 85 9 75 10 2 11 1 12 76 13 77 14
REMARK SMILES IDX 78 15 79 16 80 17 81 18 84 19 82 20 83 21 10 22 11 23 12 24
REMARK SMILES IDX 13 25 14 27 15 28 16 29 74 30 17 31 73 32 18 33 19 34 20 35
REMARK SMILES IDX 67 36 21 37 72 38 66 39 68 40 22 41 71 42 65 43 64 44 23 46
REMARK SMILES IDX 53 47 34 48 52 49 35 50 38 51 51 52 69 53 36 54 37 55 50 57
REMARK SMILES IDX 70 58 39 59 24 60 25 61 33 62 26 63 32 64 27 65 28 66 29 67
REMARK SMILES IDX 30 68 31 69 54 70 55 71 63 72 56 73 62 74 57 75 58 76 59 77
REMARK SMILES IDX 60 78 61 79 40 80 41 81 49 82 42 83 48 84 43 85 44 86 45 87
REMARK SMILES IDX 46 88 47 89
REMARK H PARENT 8 5 12 26 68 45 38 56
REMARK Flexibility Score: inf
ROOT
ATOM      1  C   UNL A   1      34.665  24.859  24.663  1.00  0.00     0.117 C 
ENDROOT
BRANCH   1   2
ATOM      2  N   UNL A   1      34.234  25.113  23.304  1.00  0.00    -0.354 N 
ATOM      3  C   UNL A   1      33.514  26.066  22.678  1.00  0.00     0.242 C 
ATOM      4  O   UNL A   1      33.510  25.939  21.445  1.00  0.00    -0.273 OA
ATOM      5  H   UNL A   1      34.544  24.415  22.681  1.00  0.00     0.163 HD
BRANCH   3   6
ATOM      6  C   UNL A   1      32.670  27.196  23.319  1.00  0.00     0.177 C 
ATOM      7  C   UNL A   1      32.420  29.195  24.614  1.00  0.00     0.139 C 
ATOM      8  C   UNL A   1      33.476  28.335  23.938  1.00  0.00     0.069 C 
ATOM      9  C   UNL A   1      31.510  28.122  25.215  1.00  0.00     0.152 C 
ATOM     10  N   UNL A   1      31.645  26.940  24.356  1.00  0.00    -0.327 N 
BRANCH   7  11
ATOM     11  O   UNL A   1      33.058  30.021  25.580  1.00  0.00    -0.380 OA
ATOM     12  C   UNL A   1      32.156  30.558  26.537  1.00  0.00     0.195 C 
ENDBRANCH   7  11
BRANCH  10  13
ATOM     13  C   UNL A   1      30.598  26.038  24.381  1.00  0.00     0.233 C 
ATOM     14  O   UNL A   1      29.602  26.224  23.668  1.00  0.00    -0.274 OA
BRANCH  13  15
ATOM     15  C   UNL A   1      30.590  24.870  25.345  1.00  0.00     0.175 C 
BRANCH  15  16
ATOM     16  S   UNL A   1      31.165  23.315  24.626  1.00  0.00    -0.105 SA
BRANCH  16  17
ATOM     17  C   UNL A   1      32.171  22.610  25.868  1.00  0.00     0.060 A 
ATOM     18  C   UNL A   1      32.437  23.111  27.123  1.00  0.00     0.027 A 
ATOM     19  S   UNL A   1      33.018  21.153  25.573  1.00  0.00    -0.137 S 
ATOM     20  C   UNL A   1      33.341  22.282  27.852  1.00  0.00     0.013 A 
ATOM     21  C   UNL A   1      33.738  21.185  27.121  1.00  0.00     0.066 A 
ENDBRANCH  16  17
ENDBRANCH  15  16
ENDBRANCH  13  15
ENDBRANCH  10  13
ENDBRANCH   3   6
ENDBRANCH   1   2
BRANCH   1  22
ATOM     22  C   UNL A   1      35.699  23.744  24.747  1.00  0.00     0.042 C 
BRANCH  22  23
ATOM     23  C   UNL A   1      36.375  23.631  26.117  1.00  0.00     0.118 C 
BRANCH  23  24
ATOM     24  N   UNL A   1      37.405  22.600  26.150  1.00  0.00    -0.352 N 
ATOM     25  C   UNL A   1      38.765  22.687  26.298  1.00  0.00     0.251 C 
ATOM     26  H   UNL A   1      37.064  21.681  26.049  1.00  0.00     0.163 HD
ATOM     27  O   UNL A   1      39.452  21.699  26.056  1.00  0.00    -0.269 OA
BRANCH  25  28
ATOM     28  C   UNL A   1      39.410  23.941  26.745  1.00  0.00     0.039 A 
ATOM     29  C   UNL A   1      39.517  24.185  28.117  1.00  0.00     0.014 A 
ATOM     30  C   UNL A   1      39.840  24.907  25.830  1.00  0.00     0.014 A 
ATOM     31  C   UNL A   1      40.095  25.373  28.570  1.00  0.00     0.010 A 
ATOM     32  C   UNL A   1      40.478  26.061  26.281  1.00  0.00     0.010 A 
ATOM     33  C   UNL A   1      40.604  26.311  27.656  1.00  0.00    -0.014 A 
BRANCH  33  34
ATOM     34  C   UNL A   1      41.271  27.548  28.133  1.00  0.00     0.031 A 
ATOM     35  C   UNL A   1      42.766  27.697  28.043  1.00  0.00     0.074 A 
ATOM     36  C   UNL A   1      40.525  28.527  28.681  1.00  0.00     0.049 A 
ATOM     37  N   UNL A   1      43.515  28.709  28.402  1.00  0.00    -0.248 NA
ATOM     38  C   UNL A   1      43.522  26.556  27.503  1.00  0.00     0.031 C 
ATOM     39  C   UNL A   1      39.073  28.477  28.875  1.00  0.00     0.029 A 
ATOM     40  N   UNL A   1      40.881  29.757  29.172  1.00  0.00    -0.354 N 
ATOM     41  C   UNL A   1      44.826  28.324  28.143  1.00  0.00     0.074 A 
ATOM     42  C   UNL A   1      44.775  26.968  27.641  1.00  0.00     0.031 C 
ATOM     43  C   UNL A   1      38.659  29.637  29.407  1.00  0.00     0.029 A 
ATOM     44  C   UNL A   1      39.815  30.501  29.620  1.00  0.00     0.049 A 
ATOM     45  H   UNL A   1      41.812  30.076  29.201  1.00  0.00     0.167 HD
ATOM     46  C   UNL A   1      45.968  29.040  28.290  1.00  0.00     0.031 A 
ATOM     47  C   UNL A   1      39.772  31.745  30.133  1.00  0.00     0.031 A 
ATOM     48  C   UNL A   1      46.014  30.394  28.777  1.00  0.00     0.049 A 
ATOM     49  C   UNL A   1      41.048  32.530  30.254  1.00  0.00     0.074 A 
ATOM     50  C   UNL A   1      47.114  31.222  28.918  1.00  0.00     0.029 A 
ATOM     51  N   UNL A   1      44.911  31.121  29.199  1.00  0.00    -0.354 N 
ATOM     52  N   UNL A   1      42.271  32.167  29.947  1.00  0.00    -0.248 NA
ATOM     53  C   UNL A   1      40.932  33.900  30.772  1.00  0.00     0.031 C 
ATOM     54  C   UNL A   1      46.680  32.439  29.458  1.00  0.00     0.029 A 
ATOM     55  C   UNL A   1      45.304  32.384  29.609  1.00  0.00     0.049 A 
ATOM     56  H   UNL A   1      43.985  30.788  29.205  1.00  0.00     0.167 HD
ATOM     57  C   UNL A   1      43.069  33.273  30.216  1.00  0.00     0.074 A 
ATOM     58  C   UNL A   1      42.186  34.322  30.686  1.00  0.00     0.031 C 
ATOM     59  C   UNL A   1      44.413  33.409  30.086  1.00  0.00     0.031 A 
BRANCH  46  60
ATOM     60  C   UNL A   1      47.262  28.369  27.913  1.00  0.00    -0.014 A 
ATOM     61  C   UNL A   1      47.807  28.521  26.625  1.00  0.00     0.010 A 
ATOM     62  C   UNL A   1      47.964  27.609  28.866  1.00  0.00     0.010 A 
ATOM     63  C   UNL A   1      49.009  27.894  26.285  1.00  0.00     0.020 A 
ATOM     64  C   UNL A   1      49.180  27.001  28.537  1.00  0.00     0.020 A 
ATOM     65  C   UNL A   1      49.686  27.134  27.242  1.00  0.00     0.054 A 
BRANCH  65  66
ATOM     66  S   UNL A   1      51.257  26.350  26.782  1.00  0.00     0.124 S 
ATOM     67  O   UNL A   1      51.034  24.967  27.192  1.00  0.00    -0.237 OA
ATOM     68  O   UNL A   1      51.318  26.575  25.339  1.00  0.00    -0.237 OA
ATOM     69  O   UNL A   1      52.251  27.080  27.565  1.00  0.00    -0.744 OA
ENDBRANCH  65  66
ENDBRANCH  46  60
BRANCH  47  70
ATOM     70  C   UNL A   1      38.469  32.337  30.537  1.00  0.00    -0.014 A 
ATOM     71  C   UNL A   1      38.028  32.240  31.869  1.00  0.00     0.010 A 
ATOM     72  C   UNL A   1      37.668  33.008  29.597  1.00  0.00     0.010 A 
ATOM     73  C   UNL A   1      36.797  32.784  32.248  1.00  0.00     0.020 A 
ATOM     74  C   UNL A   1      36.449  33.576  29.978  1.00  0.00     0.020 A 
ATOM     75  C   UNL A   1      36.014  33.448  31.299  1.00  0.00     0.054 A 
BRANCH  75  76
ATOM     76  S   UNL A   1      34.443  34.189  31.821  1.00  0.00     0.124 S 
ATOM     77  O   UNL A   1      33.878  33.141  32.663  1.00  0.00    -0.237 OA
ATOM     78  O   UNL A   1      34.876  35.398  32.517  1.00  0.00    -0.237 OA
ATOM     79  O   UNL A   1      33.744  34.426  30.559  1.00  0.00    -0.744 OA
ENDBRANCH  75  76
ENDBRANCH  47  70
BRANCH  59  80
ATOM     80  C   UNL A   1      44.995  34.751  30.440  1.00  0.00    -0.014 A 
ATOM     81  C   UNL A   1      45.075  35.781  29.486  1.00  0.00     0.010 A 
ATOM     82  C   UNL A   1      45.465  34.983  31.744  1.00  0.00     0.010 A 
ATOM     83  C   UNL A   1      45.671  37.001  29.815  1.00  0.00     0.020 A 
ATOM     84  C   UNL A   1      46.035  36.211  32.084  1.00  0.00     0.020 A 
ATOM     85  C   UNL A   1      46.157  37.204  31.110  1.00  0.00     0.054 A 
BRANCH  85  86
ATOM     86  S   UNL A   1      46.929  38.794  31.519  1.00  0.00     0.124 S 
ATOM     87  O   UNL A   1      45.816  39.524  32.119  1.00  0.00    -0.237 OA
ATOM     88  O   UNL A   1      47.997  38.409  32.438  1.00  0.00    -0.237 OA
ATOM     89  O   UNL A   1      47.382  39.300  30.225  1.00  0.00    -0.744 OA
ENDBRANCH  85  86
ENDBRANCH  59  80
ENDBRANCH  33  34
ENDBRANCH  25  28
ENDBRANCH  23  24
ENDBRANCH  22  23
ENDBRANCH   1  22
TORSDOF 18
ENDMDL
MODEL 3
REMARK VINA RESULT:      -9.9      3.659      5.487
REMARK SMILES CO[C@H]1C[C@@H](C(=O)NCCCNC(=O)c2ccc(-c3c4nc(c(-c5ccc(S(=O)(=O)[O-])cc5)c5ccc([nH]5)c(-c5ccc(S(=O)(=O)[O-])cc5)c5nc(c(-c6ccc(S(=O)(=O)[O-])cc6)c6ccc3[nH]6)C=C5)C=C4)cc2)N(C(=O)CSc2cccs2)C1
REMARK SMILES IDX 9 1 8 2 6 3 7 4 5 6 3 7 4 8 85 9 75 10 2 11 1 12 76 13 77 14
REMARK SMILES IDX 78 15 79 16 80 17 81 18 84 19 82 20 83 21 10 22 11 23 12 24
REMARK SMILES IDX 13 25 14 27 15 28 16 29 74 30 17 31 73 32 18 33 19 34 20 35
REMARK SMILES IDX 67 36 21 37 72 38 66 39 68 40 22 41 71 42 65 43 64 44 23 46
REMARK SMILES IDX 53 47 34 48 52 49 35 50 38 51 51 52 69 53 36 54 37 55 50 57
REMARK SMILES IDX 70 58 39 59 24 60 25 61 33 62 26 63 32 64 27 65 28 66 29 67
REMARK SMILES IDX 30 68 31 69 54 70 55 71 63 72 56 73 62 74 57 75 58 76 59 77
REMARK SMILES IDX 60 78 61 79 40 80 41 81 49 82 42 83 48 84 43 85 44 86 45 87
REMARK SMILES IDX 46 88 47 89
REMARK H PARENT 8 5 12 26 68 45 38 56
REMARK Flexibility Score: inf
ROOT
ATOM      1  C   UNL A   1      32.469  26.842  26.787  1.00  0.00     0.117 C 
ENDROOT
BRANCH   1   2
ATOM      2  N   UNL A   1      31.104  26.357  26.831  1.00  0.00    -0.354 N 
ATOM      3  C   UNL A   1      30.324  25.588  26.045  1.00  0.00     0.242 C 
ATOM      4  O   UNL A   1      29.229  25.322  26.561  1.00  0.00    -0.273 OA
ATOM      5  H   UNL A   1      30.627  26.666  27.635  1.00  0.00     0.163 HD
BRANCH   3   6
ATOM      6  C   UNL A   1      30.614  25.097  24.604  1.00  0.00     0.177 C 
ATOM      7  C   UNL A   1      31.530  23.546  23.025  1.00  0.00     0.139 C 
ATOM      8  C   UNL A   1      31.208  23.695  24.504  1.00  0.00     0.069 C 
ATOM      9  C   UNL A   1      32.088  24.934  22.707  1.00  0.00     0.152 C 
ATOM     10  N   UNL A   1      31.454  25.859  23.652  1.00  0.00    -0.327 N 
BRANCH   7  11
ATOM     11  O   UNL A   1      32.472  22.492  22.871  1.00  0.00    -0.380 OA
ATOM     12  C   UNL A   1      33.810  22.955  22.755  1.00  0.00     0.195 C 
ENDBRANCH   7  11
BRANCH  10  13
ATOM     13  C   UNL A   1      31.402  27.188  23.272  1.00  0.00     0.233 C 
ATOM     14  O   UNL A   1      32.226  27.633  22.461  1.00  0.00    -0.274 OA
BRANCH  13  15
ATOM     15  C   UNL A   1      30.420  28.149  23.907  1.00  0.00     0.175 C 
BRANCH  15  16
ATOM     16  S   UNL A   1      28.888  28.365  22.973  1.00  0.00    -0.105 SA
BRANCH  16  17
ATOM     17  C   UNL A   1      28.767  30.091  22.733  1.00  0.00     0.060 A 
ATOM     18  C   UNL A   1      29.046  31.090  23.639  1.00  0.00     0.027 A 
ATOM     19  S   UNL A   1      28.188  30.720  21.250  1.00  0.00    -0.137 S 
ATOM     20  C   UNL A   1      28.789  32.388  23.104  1.00  0.00     0.013 A 
ATOM     21  C   UNL A   1      28.314  32.328  21.812  1.00  0.00     0.066 A 
ENDBRANCH  16  17
ENDBRANCH  15  16
ENDBRANCH  13  15
ENDBRANCH  10  13
ENDBRANCH   3   6
ENDBRANCH   1   2
BRANCH   1  22
ATOM     22  C   UNL A   1      32.592  28.277  27.281  1.00  0.00     0.042 C 
BRANCH  22  23
ATOM     23  C   UNL A   1      33.749  29.052  26.644  1.00  0.00     0.118 C 
BRANCH  23  24
ATOM     24  N   UNL A   1      33.618  30.494  26.812  1.00  0.00    -0.352 N 
ATOM     25  C   UNL A   1      34.290  31.372  27.621  1.00  0.00     0.251 C 
ATOM     26  H   UNL A   1      32.928  30.908  26.246  1.00  0.00     0.163 HD
ATOM     27  O   UNL A   1      33.843  32.507  27.764  1.00  0.00    -0.269 OA
BRANCH  25  28
ATOM     28  C   UNL A   1      35.536  30.980  28.315  1.00  0.00     0.039 A 
ATOM     29  C   UNL A   1      35.471  29.982  29.292  1.00  0.00     0.014 A 
ATOM     30  C   UNL A   1      36.747  31.634  28.068  1.00  0.00     0.014 A 
ATOM     31  C   UNL A   1      36.625  29.610  29.984  1.00  0.00     0.010 A 
ATOM     32  C   UNL A   1      37.911  31.216  28.710  1.00  0.00     0.010 A 
ATOM     33  C   UNL A   1      37.861  30.206  29.682  1.00  0.00    -0.014 A 
BRANCH  33  34
ATOM     34  C   UNL A   1      39.100  29.772  30.376  1.00  0.00     0.031 A 
ATOM     35  C   UNL A   1      39.535  30.435  31.655  1.00  0.00     0.074 A 
ATOM     36  C   UNL A   1      39.852  28.798  29.828  1.00  0.00     0.049 A 
ATOM     37  N   UNL A   1      40.581  30.180  32.399  1.00  0.00    -0.248 NA
ATOM     38  C   UNL A   1      38.703  31.542  32.152  1.00  0.00     0.031 C 
ATOM     39  C   UNL A   1      39.566  28.117  28.562  1.00  0.00     0.029 A 
ATOM     40  N   UNL A   1      41.010  28.207  30.265  1.00  0.00    -0.354 N 
ATOM     41  C   UNL A   1      40.540  31.099  33.442  1.00  0.00     0.074 A 
ATOM     42  C   UNL A   1      39.392  31.948  33.210  1.00  0.00     0.031 C 
ATOM     43  C   UNL A   1      40.499  27.178  28.346  1.00  0.00     0.029 A 
ATOM     44  C   UNL A   1      41.465  27.208  29.439  1.00  0.00     0.049 A 
ATOM     45  H   UNL A   1      41.471  28.474  31.094  1.00  0.00     0.167 HD
ATOM     46  C   UNL A   1      41.370  31.213  34.508  1.00  0.00     0.031 A 
ATOM     47  C   UNL A   1      42.534  26.397  29.554  1.00  0.00     0.031 A 
ATOM     48  C   UNL A   1      42.503  30.357  34.744  1.00  0.00     0.049 A 
ATOM     49  C   UNL A   1      43.419  26.522  30.761  1.00  0.00     0.074 A 
ATOM     50  C   UNL A   1      43.377  30.360  35.818  1.00  0.00     0.029 A 
ATOM     51  N   UNL A   1      42.918  29.342  33.895  1.00  0.00    -0.354 N 
ATOM     52  N   UNL A   1      43.327  27.359  31.768  1.00  0.00    -0.248 NA
ATOM     53  C   UNL A   1      44.539  25.577  30.859  1.00  0.00     0.031 C 
ATOM     54  C   UNL A   1      44.341  29.368  35.600  1.00  0.00     0.029 A 
ATOM     55  C   UNL A   1      44.040  28.718  34.414  1.00  0.00     0.049 A 
ATOM     56  H   UNL A   1      42.479  29.101  33.048  1.00  0.00     0.167 HD
ATOM     57  C   UNL A   1      44.367  27.028  32.628  1.00  0.00     0.074 A 
ATOM     58  C   UNL A   1      45.057  25.900  32.036  1.00  0.00     0.031 C 
ATOM     59  C   UNL A   1      44.720  27.606  33.804  1.00  0.00     0.031 A 
BRANCH  46  60
ATOM     60  C   UNL A   1      41.074  32.303  35.504  1.00  0.00    -0.014 A 
ATOM     61  C   UNL A   1      41.600  33.597  35.338  1.00  0.00     0.010 A 
ATOM     62  C   UNL A   1      40.228  32.046  36.598  1.00  0.00     0.010 A 
ATOM     63  C   UNL A   1      41.320  34.602  36.268  1.00  0.00     0.020 A 
ATOM     64  C   UNL A   1      39.924  33.056  37.517  1.00  0.00     0.020 A 
ATOM     65  C   UNL A   1      40.486  34.324  37.354  1.00  0.00     0.054 A 
BRANCH  65  66
ATOM     66  S   UNL A   1      40.118  35.653  38.534  1.00  0.00     0.124 S 
ATOM     67  O   UNL A   1      38.904  35.158  39.175  1.00  0.00    -0.237 OA
ATOM     68  O   UNL A   1      41.311  35.673  39.378  1.00  0.00    -0.237 OA
ATOM     69  O   UNL A   1      39.940  36.829  37.686  1.00  0.00    -0.744 OA
ENDBRANCH  65  66
ENDBRANCH  46  60
BRANCH  47  70
ATOM     70  C   UNL A   1      42.805  25.372  28.510  1.00  0.00    -0.014 A 
ATOM     71  C   UNL A   1      42.314  24.063  28.657  1.00  0.00     0.010 A 
ATOM     72  C   UNL A   1      43.546  25.701  27.362  1.00  0.00     0.010 A 
ATOM     73  C   UNL A   1      42.579  23.094  27.685  1.00  0.00     0.020 A 
ATOM     74  C   UNL A   1      43.790  24.743  26.375  1.00  0.00     0.020 A 
ATOM     75  C   UNL A   1      43.317  23.441  26.549  1.00  0.00     0.054 A 
BRANCH  75  76
ATOM     76  S   UNL A   1      43.610  22.183  25.274  1.00  0.00     0.124 S 
ATOM     77  O   UNL A   1      43.491  22.962  24.047  1.00  0.00    -0.237 OA
ATOM     78  O   UNL A   1      44.953  21.708  25.597  1.00  0.00    -0.237 OA
ATOM     79  O   UNL A   1      42.544  21.211  25.507  1.00  0.00    -0.744 OA
ENDBRANCH  75  76
ENDBRANCH  47  70
BRANCH  59  80
ATOM     80  C   UNL A   1      45.894  27.004  34.528  1.00  0.00    -0.014 A 
ATOM     81  C   UNL A   1      47.201  27.474  34.308  1.00  0.00     0.010 A 
ATOM     82  C   UNL A   1      45.684  25.957  35.441  1.00  0.00     0.010 A 
ATOM     83  C   UNL A   1      48.285  26.866  34.946  1.00  0.00     0.020 A 
ATOM     84  C   UNL A   1      46.763  25.365  36.102  1.00  0.00     0.020 A 
ATOM     85  C   UNL A   1      48.059  25.807  35.831  1.00  0.00     0.054 A 
BRANCH  85  86
ATOM     86  S   UNL A   1      49.479  25.028  36.648  1.00  0.00     0.124 S 
ATOM     87  O   UNL A   1      49.560  25.783  37.896  1.00  0.00    -0.237 OA
ATOM     88  O   UNL A   1      49.053  23.637  36.782  1.00  0.00    -0.237 OA
ATOM     89  O   UNL A   1      50.579  25.248  35.712  1.00  0.00    -0.744 OA
ENDBRANCH  85  86
ENDBRANCH  59  80
ENDBRANCH  33  34
ENDBRANCH  25  28
ENDBRANCH  23  24
ENDBRANCH  22  23
ENDBRANCH   1  22
TORSDOF 18
ENDMDL
