MODEL 1
REMARK VINA RESULT:     -11.7      0.000      0.000
REMARK SMILES COc1ccc([C@@H](CC(=O)NCCCNC(=O)c2ccc(-c3c4nc(c(-c5ccc(S(=O)(=O)[O-])cc5)c5ccc([nH]5)c(-c5ccc(S(=O)(=O)[O-])cc5)c5nc(c(-c6ccc(S(=O)(=O)[O-])cc6)c6ccc3[nH]6)C=C5)C=C4)cc2)C2CCCCC2)cc1Cl
REMARK SMILES IDX 13 1 12 2 11 3 9 4 10 5 8 7 7 8 6 9 3 10 4 11 85 12 5 13
REMARK SMILES IDX 84 14 86 15 2 16 1 17 78 18 79 19 83 20 80 21 82 22 81 23
REMARK SMILES IDX 14 24 15 25 16 26 17 28 18 29 19 30 77 31 20 32 76 33 21 34
REMARK SMILES IDX 22 35 23 36 70 37 24 38 75 39 69 40 71 41 25 42 74 43 68 44
REMARK SMILES IDX 67 45 26 47 56 48 37 49 55 50 38 51 41 52 54 53 72 54 39 55
REMARK SMILES IDX 40 56 53 58 73 59 42 60 27 61 28 62 36 63 29 64 35 65 30 66
REMARK SMILES IDX 31 67 32 68 33 69 34 70 57 71 58 72 66 73 59 74 65 75 60 76
REMARK SMILES IDX 61 77 62 78 63 79 64 80 43 81 44 82 52 83 45 84 51 85 46 86
REMARK SMILES IDX 47 87 48 88 49 89 50 90
REMARK H PARENT 11 6 15 27 71 46 41 57
REMARK Flexibility Score: inf
ROOT
ATOM      1  C   UNL A   1      39.005  21.847  26.036  1.00  0.00     0.042 C 
ENDROOT
BRANCH   1   2
ATOM      2  C   UNL A   1      37.579  21.550  25.591  1.00  0.00     0.117 C 
BRANCH   2   3
ATOM      3  N   UNL A   1      37.351  21.962  24.216  1.00  0.00    -0.356 N 
ATOM      4  C   UNL A   1      36.532  22.917  23.700  1.00  0.00     0.220 C 
ATOM      5  O   UNL A   1      36.616  23.133  22.486  1.00  0.00    -0.275 OA
ATOM      6  H   UNL A   1      37.876  21.466  23.547  1.00  0.00     0.163 HD
BRANCH   4   7
ATOM      7  C   UNL A   1      35.603  23.759  24.560  1.00  0.00     0.108 C 
BRANCH   7   8
ATOM      8  C   UNL A   1      34.211  24.238  24.041  1.00  0.00     0.032 C 
BRANCH   8   9
ATOM      9  C   UNL A   1      33.843  25.635  24.560  1.00  0.00    -0.042 A 
ATOM     10  C   UNL A   1      33.353  28.308  25.416  1.00  0.00     0.137 A 
ATOM     11  C   UNL A   1      33.358  27.255  26.329  1.00  0.00     0.048 A 
ATOM     12  C   UNL A   1      33.529  28.013  24.060  1.00  0.00     0.083 A 
ATOM     13  C   UNL A   1      33.580  25.938  25.900  1.00  0.00     0.008 A 
ATOM     14  C   UNL A   1      33.756  26.695  23.639  1.00  0.00     0.028 A 
ATOM     15  Cl  UNL A   1      33.503  29.253  22.856  1.00  0.00    -0.080 Cl
BRANCH  10  16
ATOM     16  O   UNL A   1      33.340  29.622  25.790  1.00  0.00    -0.495 OA
ATOM     17  C   UNL A   1      32.251  30.065  26.594  1.00  0.00     0.278 C 
ENDBRANCH  10  16
ENDBRANCH   8   9
BRANCH   8  18
ATOM     18  C   UNL A   1      33.088  23.136  23.945  1.00  0.00    -0.003 C 
ATOM     19  C   UNL A   1      32.899  22.495  22.555  1.00  0.00     0.004 C 
ATOM     20  C   UNL A   1      33.227  22.103  25.097  1.00  0.00     0.004 C 
ATOM     21  C   UNL A   1      32.013  21.254  22.541  1.00  0.00     0.000 C 
ATOM     22  C   UNL A   1      32.331  20.876  24.972  1.00  0.00     0.000 C 
ATOM     23  C   UNL A   1      32.441  20.248  23.592  1.00  0.00     0.000 C 
ENDBRANCH   8  18
ENDBRANCH   7   8
ENDBRANCH   4   7
ENDBRANCH   2   3
ENDBRANCH   1   2
BRANCH   1  24
ATOM     24  C   UNL A   1      39.271  23.251  26.557  1.00  0.00     0.118 C 
BRANCH  24  25
ATOM     25  N   UNL A   1      40.595  23.722  26.197  1.00  0.00    -0.352 N 
ATOM     26  C   UNL A   1      41.300  24.867  26.473  1.00  0.00     0.251 C 
ATOM     27  H   UNL A   1      41.093  23.086  25.634  1.00  0.00     0.163 HD
ATOM     28  O   UNL A   1      42.318  25.055  25.802  1.00  0.00    -0.269 OA
BRANCH  26  29
ATOM     29  C   UNL A   1      40.937  25.877  27.516  1.00  0.00     0.039 A 
ATOM     30  C   UNL A   1      41.800  26.975  27.666  1.00  0.00     0.014 A 
ATOM     31  C   UNL A   1      39.898  25.737  28.438  1.00  0.00     0.014 A 
ATOM     32  C   UNL A   1      41.638  27.892  28.716  1.00  0.00     0.010 A 
ATOM     33  C   UNL A   1      39.680  26.705  29.435  1.00  0.00     0.010 A 
ATOM     34  C   UNL A   1      40.568  27.775  29.614  1.00  0.00    -0.014 A 
BRANCH  34  35
ATOM     35  C   UNL A   1      40.417  28.730  30.755  1.00  0.00     0.031 A 
ATOM     36  C   UNL A   1      41.295  28.624  31.983  1.00  0.00     0.074 A 
ATOM     37  C   UNL A   1      39.487  29.707  30.701  1.00  0.00     0.049 A 
ATOM     38  N   UNL A   1      41.310  29.375  33.058  1.00  0.00    -0.248 NA
ATOM     39  C   UNL A   1      42.272  27.523  32.016  1.00  0.00     0.031 C 
ATOM     40  C   UNL A   1      38.551  29.923  29.596  1.00  0.00     0.029 A 
ATOM     41  N   UNL A   1      39.181  30.709  31.591  1.00  0.00    -0.354 N 
ATOM     42  C   UNL A   1      42.278  28.830  33.897  1.00  0.00     0.074 A 
ATOM     43  C   UNL A   1      42.795  27.655  33.227  1.00  0.00     0.031 C 
ATOM     44  C   UNL A   1      37.804  31.007  29.856  1.00  0.00     0.029 A 
ATOM     45  C   UNL A   1      38.174  31.544  31.163  1.00  0.00     0.049 A 
ATOM     46  H   UNL A   1      39.640  30.819  32.456  1.00  0.00     0.167 HD
ATOM     47  C   UNL A   1      42.717  29.269  35.103  1.00  0.00     0.031 A 
ATOM     48  C   UNL A   1      37.608  32.619  31.747  1.00  0.00     0.031 A 
ATOM     49  C   UNL A   1      42.222  30.446  35.770  1.00  0.00     0.049 A 
ATOM     50  C   UNL A   1      38.105  33.085  33.088  1.00  0.00     0.074 A 
ATOM     51  C   UNL A   1      42.644  30.998  36.969  1.00  0.00     0.029 A 
ATOM     52  N   UNL A   1      41.197  31.254  35.303  1.00  0.00    -0.354 N 
ATOM     53  N   UNL A   1      39.061  32.583  33.834  1.00  0.00    -0.248 NA
ATOM     54  C   UNL A   1      37.454  34.273  33.660  1.00  0.00     0.031 C 
ATOM     55  C   UNL A   1      41.838  32.106  37.253  1.00  0.00     0.029 A 
ATOM     56  C   UNL A   1      40.956  32.283  36.200  1.00  0.00     0.049 A 
ATOM     57  H   UNL A   1      40.711  31.117  34.457  1.00  0.00     0.167 HD
ATOM     58  C   UNL A   1      39.143  33.411  34.950  1.00  0.00     0.074 A 
ATOM     59  C   UNL A   1      38.154  34.455  34.772  1.00  0.00     0.031 C 
ATOM     60  C   UNL A   1      39.965  33.314  36.024  1.00  0.00     0.031 A 
BRANCH  47  61
ATOM     61  C   UNL A   1      43.792  28.466  35.795  1.00  0.00    -0.014 A 
ATOM     62  C   UNL A   1      43.469  27.442  36.703  1.00  0.00     0.010 A 
ATOM     63  C   UNL A   1      45.146  28.703  35.491  1.00  0.00     0.010 A 
ATOM     64  C   UNL A   1      44.477  26.704  37.330  1.00  0.00     0.020 A 
ATOM     65  C   UNL A   1      46.157  27.946  36.093  1.00  0.00     0.020 A 
ATOM     66  C   UNL A   1      45.816  26.963  37.023  1.00  0.00     0.054 A 
BRANCH  66  67
ATOM     67  S   UNL A   1      47.102  25.978  37.839  1.00  0.00     0.124 S 
ATOM     68  O   UNL A   1      46.381  24.747  38.157  1.00  0.00    -0.237 OA
ATOM     69  O   UNL A   1      48.122  25.858  36.801  1.00  0.00    -0.237 OA
ATOM     70  O   UNL A   1      47.483  26.790  38.993  1.00  0.00    -0.744 OA
ENDBRANCH  66  67
ENDBRANCH  47  61
BRANCH  48  71
ATOM     71  C   UNL A   1      36.506  33.343  31.054  1.00  0.00    -0.014 A 
ATOM     72  C   UNL A   1      36.728  33.976  29.817  1.00  0.00     0.010 A 
ATOM     73  C   UNL A   1      35.221  33.393  31.625  1.00  0.00     0.010 A 
ATOM     74  C   UNL A   1      35.692  34.659  29.174  1.00  0.00     0.020 A 
ATOM     75  C   UNL A   1      34.175  34.048  30.971  1.00  0.00     0.020 A 
ATOM     76  C   UNL A   1      34.420  34.687  29.754  1.00  0.00     0.054 A 
BRANCH  76  77
ATOM     77  S   UNL A   1      33.076  35.529  28.874  1.00  0.00     0.124 S 
ATOM     78  O   UNL A   1      32.290  36.079  29.973  1.00  0.00    -0.237 OA
ATOM     79  O   UNL A   1      33.795  36.504  28.058  1.00  0.00    -0.237 OA
ATOM     80  O   UNL A   1      32.434  34.452  28.122  1.00  0.00    -0.744 OA
ENDBRANCH  76  77
ENDBRANCH  48  71
BRANCH  60  81
ATOM     81  C   UNL A   1      39.856  34.383  37.080  1.00  0.00    -0.014 A 
ATOM     82  C   UNL A   1      39.042  34.212  38.214  1.00  0.00     0.010 A 
ATOM     83  C   UNL A   1      40.608  35.566  36.952  1.00  0.00     0.010 A 
ATOM     84  C   UNL A   1      38.947  35.221  39.177  1.00  0.00     0.020 A 
ATOM     85  C   UNL A   1      40.540  36.565  37.927  1.00  0.00     0.020 A 
ATOM     86  C   UNL A   1      39.694  36.393  39.025  1.00  0.00     0.054 A 
BRANCH  86  87
ATOM     87  S   UNL A   1      39.572  37.679  40.299  1.00  0.00     0.124 S 
ATOM     88  O   UNL A   1      38.610  38.605  39.705  1.00  0.00    -0.237 OA
ATOM     89  O   UNL A   1      39.092  36.934  41.461  1.00  0.00    -0.237 OA
ATOM     90  O   UNL A   1      40.938  38.187  40.413  1.00  0.00    -0.744 OA
ENDBRANCH  86  87
ENDBRANCH  60  81
ENDBRANCH  34  35
ENDBRANCH  26  29
ENDBRANCH  24  25
ENDBRANCH   1  24
TORSDOF 17
ENDMDL
MODEL 2
REMARK VINA RESULT:     -11.5      1.547      2.288
REMARK SMILES COc1ccc([C@@H](CC(=O)NCCCNC(=O)c2ccc(-c3c4nc(c(-c5ccc(S(=O)(=O)[O-])cc5)c5ccc([nH]5)c(-c5ccc(S(=O)(=O)[O-])cc5)c5nc(c(-c6ccc(S(=O)(=O)[O-])cc6)c6ccc3[nH]6)C=C5)C=C4)cc2)C2CCCCC2)cc1Cl
REMARK SMILES IDX 13 1 12 2 11 3 9 4 10 5 8 7 7 8 6 9 3 10 4 11 85 12 5 13
REMARK SMILES IDX 84 14 86 15 2 16 1 17 78 18 79 19 83 20 80 21 82 22 81 23
REMARK SMILES IDX 14 24 15 25 16 26 17 28 18 29 19 30 77 31 20 32 76 33 21 34
REMARK SMILES IDX 22 35 23 36 70 37 24 38 75 39 69 40 71 41 25 42 74 43 68 44
REMARK SMILES IDX 67 45 26 47 56 48 37 49 55 50 38 51 41 52 54 53 72 54 39 55
REMARK SMILES IDX 40 56 53 58 73 59 42 60 27 61 28 62 36 63 29 64 35 65 30 66
REMARK SMILES IDX 31 67 32 68 33 69 34 70 57 71 58 72 66 73 59 74 65 75 60 76
REMARK SMILES IDX 61 77 62 78 63 79 64 80 43 81 44 82 52 83 45 84 51 85 46 86
REMARK SMILES IDX 47 87 48 88 49 89 50 90
REMARK H PARENT 11 6 15 27 71 46 41 57
REMARK Flexibility Score: inf
ROOT
ATOM      1  C   UNL A   1      39.940  21.561  26.356  1.00  0.00     0.042 C 
ENDROOT
BRANCH   1   2
ATOM      2  C   UNL A   1      38.594  21.376  25.667  1.00  0.00     0.117 C 
BRANCH   2   3
ATOM      3  N   UNL A   1      37.826  22.610  25.653  1.00  0.00    -0.356 N 
ATOM      4  C   UNL A   1      36.485  22.821  25.747  1.00  0.00     0.220 C 
ATOM      5  O   UNL A   1      36.105  23.994  25.818  1.00  0.00    -0.275 OA
ATOM      6  H   UNL A   1      38.365  23.428  25.560  1.00  0.00     0.163 HD
BRANCH   4   7
ATOM      7  C   UNL A   1      35.478  21.687  25.847  1.00  0.00     0.108 C 
BRANCH   7   8
ATOM      8  C   UNL A   1      34.598  21.259  24.630  1.00  0.00     0.032 C 
BRANCH   8   9
ATOM      9  C   UNL A   1      33.726  22.409  24.107  1.00  0.00    -0.042 A 
ATOM     10  C   UNL A   1      31.920  24.418  23.202  1.00  0.00     0.137 A 
ATOM     11  C   UNL A   1      32.920  23.927  22.364  1.00  0.00     0.048 A 
ATOM     12  C   UNL A   1      31.866  23.949  24.519  1.00  0.00     0.083 A 
ATOM     13  C   UNL A   1      33.819  22.951  22.821  1.00  0.00     0.008 A 
ATOM     14  C   UNL A   1      32.764  22.971  24.966  1.00  0.00     0.028 A 
ATOM     15  Cl  UNL A   1      30.681  24.530  25.635  1.00  0.00    -0.080 Cl
BRANCH  10  16
ATOM     16  O   UNL A   1      30.901  25.214  22.762  1.00  0.00    -0.495 OA
ATOM     17  C   UNL A   1      31.132  26.619  22.728  1.00  0.00     0.278 C 
ENDBRANCH  10  16
ENDBRANCH   8   9
BRANCH   8  18
ATOM     18  C   UNL A   1      33.994  19.803  24.686  1.00  0.00    -0.003 C 
ATOM     19  C   UNL A   1      32.818  19.531  23.727  1.00  0.00     0.004 C 
ATOM     20  C   UNL A   1      35.120  18.735  24.617  1.00  0.00     0.004 C 
ATOM     21  C   UNL A   1      32.431  18.061  23.596  1.00  0.00     0.000 C 
ATOM     22  C   UNL A   1      34.635  17.301  24.442  1.00  0.00     0.000 C 
ATOM     23  C   UNL A   1      33.636  17.189  23.302  1.00  0.00     0.000 C 
ENDBRANCH   8  18
ENDBRANCH   7   8
ENDBRANCH   4   7
ENDBRANCH   2   3
ENDBRANCH   1   2
BRANCH   1  24
ATOM     24  C   UNL A   1      40.204  22.930  26.963  1.00  0.00     0.118 C 
BRANCH  24  25
ATOM     25  N   UNL A   1      40.962  23.784  26.068  1.00  0.00    -0.352 N 
ATOM     26  C   UNL A   1      41.375  25.092  26.131  1.00  0.00     0.251 C 
ATOM     27  H   UNL A   1      41.239  23.329  25.240  1.00  0.00     0.163 HD
ATOM     28  O   UNL A   1      41.797  25.580  25.080  1.00  0.00    -0.269 OA
BRANCH  26  29
ATOM     29  C   UNL A   1      41.361  25.946  27.359  1.00  0.00     0.039 A 
ATOM     30  C   UNL A   1      40.241  25.834  28.199  1.00  0.00     0.014 A 
ATOM     31  C   UNL A   1      42.298  26.938  27.655  1.00  0.00     0.014 A 
ATOM     32  C   UNL A   1      40.056  26.701  29.287  1.00  0.00     0.010 A 
ATOM     33  C   UNL A   1      42.160  27.747  28.797  1.00  0.00     0.010 A 
ATOM     34  C   UNL A   1      41.019  27.668  29.608  1.00  0.00    -0.014 A 
BRANCH  34  35
ATOM     35  C   UNL A   1      40.804  28.617  30.745  1.00  0.00     0.031 A 
ATOM     36  C   UNL A   1      41.655  28.542  31.994  1.00  0.00     0.074 A 
ATOM     37  C   UNL A   1      39.841  29.558  30.668  1.00  0.00     0.049 A 
ATOM     38  N   UNL A   1      41.615  29.292  33.070  1.00  0.00    -0.248 NA
ATOM     39  C   UNL A   1      42.670  27.478  32.052  1.00  0.00     0.031 C 
ATOM     40  C   UNL A   1      38.924  29.740  29.539  1.00  0.00     0.029 A 
ATOM     41  N   UNL A   1      39.476  30.547  31.550  1.00  0.00    -0.354 N 
ATOM     42  C   UNL A   1      42.582  28.782  33.932  1.00  0.00     0.074 A 
ATOM     43  C   UNL A   1      43.159  27.628  33.275  1.00  0.00     0.031 C 
ATOM     44  C   UNL A   1      38.131  30.796  29.781  1.00  0.00     0.029 A 
ATOM     45  C   UNL A   1      38.449  31.344  31.097  1.00  0.00     0.049 A 
ATOM     46  H   UNL A   1      39.908  30.673  32.426  1.00  0.00     0.167 HD
ATOM     47  C   UNL A   1      42.974  29.236  35.149  1.00  0.00     0.031 A 
ATOM     48  C   UNL A   1      37.829  32.397  31.666  1.00  0.00     0.031 A 
ATOM     49  C   UNL A   1      42.419  30.393  35.803  1.00  0.00     0.049 A 
ATOM     50  C   UNL A   1      38.275  32.880  33.020  1.00  0.00     0.074 A 
ATOM     51  C   UNL A   1      42.791  30.959  37.013  1.00  0.00     0.029 A 
ATOM     52  N   UNL A   1      41.376  31.163  35.310  1.00  0.00    -0.354 N 
ATOM     53  N   UNL A   1      39.230  32.414  33.789  1.00  0.00    -0.248 NA
ATOM     54  C   UNL A   1      37.566  34.043  33.575  1.00  0.00     0.031 C 
ATOM     55  C   UNL A   1      41.937  32.036  37.276  1.00  0.00     0.029 A 
ATOM     56  C   UNL A   1      41.076  32.181  36.202  1.00  0.00     0.049 A 
ATOM     57  H   UNL A   1      40.918  31.010  34.453  1.00  0.00     0.167 HD
ATOM     58  C   UNL A   1      39.253  33.243  34.907  1.00  0.00     0.074 A 
ATOM     59  C   UNL A   1      38.231  34.249  34.704  1.00  0.00     0.031 C 
ATOM     60  C   UNL A   1      40.052  33.176  36.001  1.00  0.00     0.031 A 
BRANCH  47  61
ATOM     61  C   UNL A   1      44.060  28.473  35.867  1.00  0.00    -0.014 A 
ATOM     62  C   UNL A   1      45.420  28.760  35.651  1.00  0.00     0.010 A 
ATOM     63  C   UNL A   1      43.715  27.487  36.811  1.00  0.00     0.010 A 
ATOM     64  C   UNL A   1      46.413  28.048  36.329  1.00  0.00     0.020 A 
ATOM     65  C   UNL A   1      44.705  26.794  37.515  1.00  0.00     0.020 A 
ATOM     66  C   UNL A   1      46.049  27.066  37.255  1.00  0.00     0.054 A 
BRANCH  66  67
ATOM     67  S   UNL A   1      47.360  26.169  38.133  1.00  0.00     0.124 S 
ATOM     68  O   UNL A   1      46.628  25.031  38.683  1.00  0.00    -0.237 OA
ATOM     69  O   UNL A   1      48.303  25.852  37.064  1.00  0.00    -0.237 OA
ATOM     70  O   UNL A   1      47.841  27.133  39.119  1.00  0.00    -0.744 OA
ENDBRANCH  66  67
ENDBRANCH  47  61
BRANCH  48  71
ATOM     71  C   UNL A   1      36.718  33.080  30.946  1.00  0.00    -0.014 A 
ATOM     72  C   UNL A   1      35.392  32.969  31.401  1.00  0.00     0.010 A 
ATOM     73  C   UNL A   1      36.985  33.856  29.804  1.00  0.00     0.010 A 
ATOM     74  C   UNL A   1      34.352  33.607  30.717  1.00  0.00     0.020 A 
ATOM     75  C   UNL A   1      35.954  34.521  29.135  1.00  0.00     0.020 A 
ATOM     76  C   UNL A   1      34.641  34.383  29.590  1.00  0.00     0.054 A 
BRANCH  76  77
ATOM     77  S   UNL A   1      33.285  35.250  28.753  1.00  0.00     0.124 S 
ATOM     78  O   UNL A   1      32.522  35.779  29.879  1.00  0.00    -0.237 OA
ATOM     79  O   UNL A   1      33.993  36.238  27.945  1.00  0.00    -0.237 OA
ATOM     80  O   UNL A   1      32.625  34.190  27.991  1.00  0.00    -0.744 OA
ENDBRANCH  76  77
ENDBRANCH  48  71
BRANCH  60  81
ATOM     81  C   UNL A   1      39.877  34.239  37.054  1.00  0.00    -0.014 A 
ATOM     82  C   UNL A   1      40.517  35.487  36.949  1.00  0.00     0.010 A 
ATOM     83  C   UNL A   1      39.030  33.997  38.152  1.00  0.00     0.010 A 
ATOM     84  C   UNL A   1      40.349  36.455  37.944  1.00  0.00     0.020 A 
ATOM     85  C   UNL A   1      38.834  34.972  39.133  1.00  0.00     0.020 A 
ATOM     86  C   UNL A   1      39.511  36.189  39.032  1.00  0.00     0.054 A 
BRANCH  86  87
ATOM     87  S   UNL A   1      39.291  37.469  40.298  1.00  0.00     0.124 S 
ATOM     88  O   UNL A   1      40.618  38.077  40.351  1.00  0.00    -0.237 OA
ATOM     89  O   UNL A   1      38.238  38.307  39.728  1.00  0.00    -0.237 OA
ATOM     90  O   UNL A   1      38.902  36.716  41.489  1.00  0.00    -0.744 OA
ENDBRANCH  86  87
ENDBRANCH  60  81
ENDBRANCH  34  35
ENDBRANCH  26  29
ENDBRANCH  24  25
ENDBRANCH   1  24
TORSDOF 17
ENDMDL
MODEL 3
REMARK VINA RESULT:     -11.4      3.131      9.498
REMARK SMILES COc1ccc([C@@H](CC(=O)NCCCNC(=O)c2ccc(-c3c4nc(c(-c5ccc(S(=O)(=O)[O-])cc5)c5ccc([nH]5)c(-c5ccc(S(=O)(=O)[O-])cc5)c5nc(c(-c6ccc(S(=O)(=O)[O-])cc6)c6ccc3[nH]6)C=C5)C=C4)cc2)C2CCCCC2)cc1Cl
REMARK SMILES IDX 13 1 12 2 11 3 9 4 10 5 8 7 7 8 6 9 3 10 4 11 85 12 5 13
REMARK SMILES IDX 84 14 86 15 2 16 1 17 78 18 79 19 83 20 80 21 82 22 81 23
REMARK SMILES IDX 14 24 15 25 16 26 17 28 18 29 19 30 77 31 20 32 76 33 21 34
REMARK SMILES IDX 22 35 23 36 70 37 24 38 75 39 69 40 71 41 25 42 74 43 68 44
REMARK SMILES IDX 67 45 26 47 56 48 37 49 55 50 38 51 41 52 54 53 72 54 39 55
REMARK SMILES IDX 40 56 53 58 73 59 42 60 27 61 28 62 36 63 29 64 35 65 30 66
REMARK SMILES IDX 31 67 32 68 33 69 34 70 57 71 58 72 66 73 59 74 65 75 60 76
REMARK SMILES IDX 61 77 62 78 63 79 64 80 43 81 44 82 52 83 45 84 51 85 46 86
REMARK SMILES IDX 47 87 48 88 49 89 50 90
REMARK H PARENT 11 6 15 27 71 46 41 57
REMARK Flexibility Score: inf
ROOT
ATOM      1  C   UNL A   1      32.196  28.226  26.901  1.00  0.00     0.042 C 
ENDROOT
BRANCH   1   2
ATOM      2  C   UNL A   1      31.282  27.456  25.957  1.00  0.00     0.117 C 
BRANCH   2   3
ATOM      3  N   UNL A   1      30.929  26.154  26.498  1.00  0.00    -0.356 N 
ATOM      4  C   UNL A   1      31.674  25.027  26.656  1.00  0.00     0.220 C 
ATOM      5  O   UNL A   1      31.145  24.082  27.251  1.00  0.00    -0.275 OA
ATOM      6  H   UNL A   1      29.995  26.074  26.800  1.00  0.00     0.163 HD
BRANCH   4   7
ATOM      7  C   UNL A   1      33.123  24.929  26.208  1.00  0.00     0.108 C 
BRANCH   7   8
ATOM      8  C   UNL A   1      33.531  24.182  24.899  1.00  0.00     0.032 C 
BRANCH   8   9
ATOM      9  C   UNL A   1      34.768  23.296  25.093  1.00  0.00    -0.042 A 
ATOM     10  C   UNL A   1      37.190  21.815  25.338  1.00  0.00     0.137 A 
ATOM     11  C   UNL A   1      36.037  21.218  24.834  1.00  0.00     0.048 A 
ATOM     12  C   UNL A   1      37.114  23.139  25.783  1.00  0.00     0.083 A 
ATOM     13  C   UNL A   1      34.841  21.946  24.733  1.00  0.00     0.008 A 
ATOM     14  C   UNL A   1      35.918  23.862  25.675  1.00  0.00     0.028 A 
ATOM     15  Cl  UNL A   1      38.488  23.946  26.454  1.00  0.00    -0.080 Cl
BRANCH  10  16
ATOM     16  O   UNL A   1      38.423  21.228  25.279  1.00  0.00    -0.495 OA
ATOM     17  C   UNL A   1      38.470  19.820  25.075  1.00  0.00     0.278 C 
ENDBRANCH  10  16
ENDBRANCH   8   9
BRANCH   8  18
ATOM     18  C   UNL A   1      33.372  24.994  23.557  1.00  0.00    -0.003 C 
ATOM     19  C   UNL A   1      31.994  24.888  22.871  1.00  0.00     0.004 C 
ATOM     20  C   UNL A   1      33.873  26.454  23.732  1.00  0.00     0.004 C 
ATOM     21  C   UNL A   1      31.768  25.884  21.739  1.00  0.00     0.000 C 
ATOM     22  C   UNL A   1      33.562  27.385  22.566  1.00  0.00     0.000 C 
ATOM     23  C   UNL A   1      32.098  27.301  22.166  1.00  0.00     0.000 C 
ENDBRANCH   8  18
ENDBRANCH   7   8
ENDBRANCH   4   7
ENDBRANCH   2   3
ENDBRANCH   1   2
BRANCH   1  24
ATOM     24  C   UNL A   1      33.282  29.069  26.250  1.00  0.00     0.118 C 
BRANCH  24  25
ATOM     25  N   UNL A   1      33.296  30.427  26.761  1.00  0.00    -0.352 N 
ATOM     26  C   UNL A   1      34.111  31.101  27.636  1.00  0.00     0.251 C 
ATOM     27  H   UNL A   1      32.565  30.982  26.404  1.00  0.00     0.163 HD
ATOM     28  O   UNL A   1      33.693  32.188  28.041  1.00  0.00    -0.269 OA
BRANCH  26  29
ATOM     29  C   UNL A   1      35.447  30.628  28.114  1.00  0.00     0.039 A 
ATOM     30  C   UNL A   1      35.455  29.729  29.193  1.00  0.00     0.014 A 
ATOM     31  C   UNL A   1      36.676  31.117  27.668  1.00  0.00     0.014 A 
ATOM     32  C   UNL A   1      36.653  29.349  29.817  1.00  0.00     0.010 A 
ATOM     33  C   UNL A   1      37.883  30.666  28.233  1.00  0.00     0.010 A 
ATOM     34  C   UNL A   1      37.889  29.807  29.341  1.00  0.00    -0.014 A 
BRANCH  34  35
ATOM     35  C   UNL A   1      39.163  29.431  30.029  1.00  0.00     0.031 A 
ATOM     36  C   UNL A   1      39.601  30.134  31.296  1.00  0.00     0.074 A 
ATOM     37  C   UNL A   1      39.942  28.453  29.523  1.00  0.00     0.049 A 
ATOM     38  N   UNL A   1      40.668  29.927  32.031  1.00  0.00    -0.248 NA
ATOM     39  C   UNL A   1      38.740  31.219  31.794  1.00  0.00     0.031 C 
ATOM     40  C   UNL A   1      39.666  27.701  28.297  1.00  0.00     0.029 A 
ATOM     41  N   UNL A   1      41.121  27.914  29.980  1.00  0.00    -0.354 N 
ATOM     42  C   UNL A   1      40.614  30.862  33.061  1.00  0.00     0.074 A 
ATOM     43  C   UNL A   1      39.435  31.669  32.830  1.00  0.00     0.031 C 
ATOM     44  C   UNL A   1      40.624  26.777  28.120  1.00  0.00     0.029 A 
ATOM     45  C   UNL A   1      41.608  26.894  29.194  1.00  0.00     0.049 A 
ATOM     46  H   UNL A   1      41.577  28.229  30.795  1.00  0.00     0.167 HD
ATOM     47  C   UNL A   1      41.451  31.028  34.116  1.00  0.00     0.031 A 
ATOM     48  C   UNL A   1      42.715  26.135  29.315  1.00  0.00     0.031 A 
ATOM     49  C   UNL A   1      42.617  30.219  34.365  1.00  0.00     0.049 A 
ATOM     50  C   UNL A   1      43.633  26.340  30.489  1.00  0.00     0.074 A 
ATOM     51  C   UNL A   1      43.494  30.280  35.437  1.00  0.00     0.029 A 
ATOM     52  N   UNL A   1      43.074  29.204  33.538  1.00  0.00    -0.354 N 
ATOM     53  N   UNL A   1      43.528  27.194  31.479  1.00  0.00    -0.248 NA
ATOM     54  C   UNL A   1      44.813  25.466  30.568  1.00  0.00     0.031 C 
ATOM     55  C   UNL A   1      44.509  29.340  35.229  1.00  0.00     0.029 A 
ATOM     56  C   UNL A   1      44.231  28.650  34.061  1.00  0.00     0.049 A 
ATOM     57  H   UNL A   1      42.639  28.919  32.702  1.00  0.00     0.167 HD
ATOM     58  C   UNL A   1      44.615  26.942  32.312  1.00  0.00     0.074 A 
ATOM     59  C   UNL A   1      45.352  25.845  31.719  1.00  0.00     0.031 C 
ATOM     60  C   UNL A   1      44.967  27.564  33.464  1.00  0.00     0.031 A 
BRANCH  47  61
ATOM     61  C   UNL A   1      41.142  32.140  35.090  1.00  0.00    -0.014 A 
ATOM     62  C   UNL A   1      41.620  33.446  34.882  1.00  0.00     0.010 A 
ATOM     63  C   UNL A   1      40.318  31.885  36.202  1.00  0.00     0.010 A 
ATOM     64  C   UNL A   1      41.319  34.465  35.791  1.00  0.00     0.020 A 
ATOM     65  C   UNL A   1      39.989  32.908  37.097  1.00  0.00     0.020 A 
ATOM     66  C   UNL A   1      40.507  34.189  36.895  1.00  0.00     0.054 A 
BRANCH  66  67
ATOM     67  S   UNL A   1      40.119  35.535  38.048  1.00  0.00     0.124 S 
ATOM     68  O   UNL A   1      38.957  35.000  38.754  1.00  0.00    -0.237 OA
ATOM     69  O   UNL A   1      41.341  35.640  38.840  1.00  0.00    -0.237 OA
ATOM     70  O   UNL A   1      39.845  36.674  37.175  1.00  0.00    -0.744 OA
ENDBRANCH  66  67
ENDBRANCH  47  61
BRANCH  48  71
ATOM     71  C   UNL A   1      43.011  25.091  28.294  1.00  0.00    -0.014 A 
ATOM     72  C   UNL A   1      43.807  25.389  27.173  1.00  0.00     0.010 A 
ATOM     73  C   UNL A   1      42.506  23.788  28.445  1.00  0.00     0.010 A 
ATOM     74  C   UNL A   1      44.078  24.408  26.214  1.00  0.00     0.020 A 
ATOM     75  C   UNL A   1      42.799  22.796  27.506  1.00  0.00     0.020 A 
ATOM     76  C   UNL A   1      43.575  23.115  26.390  1.00  0.00     0.054 A 
BRANCH  76  77
ATOM     77  S   UNL A   1      43.986  21.843  25.164  1.00  0.00     0.124 S 
ATOM     78  O   UNL A   1      45.348  21.485  25.543  1.00  0.00    -0.237 OA
ATOM     79  O   UNL A   1      42.969  20.825  25.413  1.00  0.00    -0.237 OA
ATOM     80  O   UNL A   1      43.854  22.545  23.888  1.00  0.00    -0.744 OA
ENDBRANCH  76  77
ENDBRANCH  48  71
BRANCH  60  81
ATOM     81  C   UNL A   1      46.190  27.054  34.182  1.00  0.00    -0.014 A 
ATOM     82  C   UNL A   1      46.121  25.953  35.055  1.00  0.00     0.010 A 
ATOM     83  C   UNL A   1      47.436  27.667  33.955  1.00  0.00     0.010 A 
ATOM     84  C   UNL A   1      47.266  25.503  35.719  1.00  0.00     0.020 A 
ATOM     85  C   UNL A   1      48.588  27.202  34.593  1.00  0.00     0.020 A 
ATOM     86  C   UNL A   1      48.492  26.133  35.486  1.00  0.00     0.054 A 
BRANCH  86  87
ATOM     87  S   UNL A   1      49.968  25.517  36.343  1.00  0.00     0.124 S 
ATOM     88  O   UNL A   1      49.601  25.693  37.745  1.00  0.00    -0.237 OA
ATOM     89  O   UNL A   1      50.050  24.133  35.883  1.00  0.00    -0.237 OA
ATOM     90  O   UNL A   1      51.037  26.391  35.863  1.00  0.00    -0.744 OA
ENDBRANCH  86  87
ENDBRANCH  60  81
ENDBRANCH  34  35
ENDBRANCH  26  29
ENDBRANCH  24  25
ENDBRANCH   1  24
TORSDOF 17
ENDMDL
