MODEL 1
REMARK VINA RESULT:     -13.4      0.000      0.000
REMARK SMILES Cc1c(/C=C/C(=O)NCCCNC(=O)c2ccc(-c3c4nc(c(-c5ccc(S(=O)(=O)[O-])cc5)c5ccc([nH]5)c(-c5ccc(S(=O)(=O)[O-])cc5)c5nc(c(-c6ccc(S(=O)(=O)[O-])cc6)c6ccc3[nH]6)C=C5)C=C4)cc2)cccc1C(=O)N1C[C@@H](C)[C@@H](C)C1
REMARK SMILES IDX 10 1 9 2 8 3 6 4 7 5 5 7 4 8 3 9 1 10 2 11 78 12 75 13 77 14
REMARK SMILES IDX 76 15 79 16 80 17 81 18 82 19 87 20 83 21 85 22 84 23 86 24
REMARK SMILES IDX 11 25 12 26 13 27 14 29 15 30 16 31 74 32 17 33 73 34 18 35
REMARK SMILES IDX 19 36 20 37 67 38 21 39 72 40 66 41 68 42 22 43 71 44 65 45
REMARK SMILES IDX 64 46 23 48 53 49 34 50 52 51 35 52 38 53 51 54 69 55 36 56
REMARK SMILES IDX 37 57 50 59 70 60 39 61 24 62 25 63 33 64 26 65 32 66 27 67
REMARK SMILES IDX 28 68 29 69 30 70 31 71 54 72 55 73 63 74 56 75 62 76 57 77
REMARK SMILES IDX 58 78 59 79 60 80 61 81 40 82 41 83 49 84 42 85 48 86 43 87
REMARK SMILES IDX 44 88 45 89 46 90 47 91
REMARK H PARENT 8 6 12 28 68 47 38 58
REMARK Flexibility Score: inf
ROOT
ATOM      1  C   UNL A   1      33.297  29.446  25.995  1.00  0.00     0.042 C 
ENDROOT
BRANCH   1   2
ATOM      2  C   UNL A   1      33.447  28.657  24.699  1.00  0.00     0.118 C 
BRANCH   2   3
ATOM      3  N   UNL A   1      32.170  28.184  24.179  1.00  0.00    -0.352 N 
ATOM      4  C   UNL A   1      31.547  26.991  24.418  1.00  0.00     0.244 C 
ATOM      5  O   UNL A   1      30.412  26.755  24.022  1.00  0.00    -0.270 OA
ATOM      6  H   UNL A   1      31.695  28.803  23.578  1.00  0.00     0.163 HD
BRANCH   4   7
ATOM      7  C   UNL A   1      32.274  25.993  25.230  1.00  0.00     0.072 C 
ATOM      8  C   UNL A   1      32.102  24.688  24.974  1.00  0.00     0.014 C 
BRANCH   8   9
ATOM      9  C   UNL A   1      32.850  23.614  25.650  1.00  0.00    -0.022 A 
ATOM     10  C   UNL A   1      33.943  22.958  23.456  1.00  0.00     0.046 C 
ATOM     11  C   UNL A   1      33.740  22.768  24.937  1.00  0.00    -0.031 A 
ATOM     12  C   UNL A   1      34.427  21.751  25.642  1.00  0.00     0.043 A 
ATOM     13  C   UNL A   1      32.611  23.384  27.013  1.00  0.00     0.008 A 
ATOM     14  C   UNL A   1      34.172  21.548  27.009  1.00  0.00     0.014 A 
ATOM     15  C   UNL A   1      33.267  22.358  27.689  1.00  0.00     0.001 A 
BRANCH  12  16
ATOM     16  C   UNL A   1      35.188  20.677  24.951  1.00  0.00     0.254 C 
ATOM     17  O   UNL A   1      36.355  20.933  24.646  1.00  0.00    -0.269 OA
BRANCH  16  18
ATOM     18  N   UNL A   1      34.638  19.425  24.747  1.00  0.00    -0.338 N 
ATOM     19  C   UNL A   1      35.469  18.256  24.943  1.00  0.00     0.123 C 
ATOM     20  C   UNL A   1      33.305  19.066  24.278  1.00  0.00     0.123 C 
ATOM     21  C   UNL A   1      34.702  17.094  24.327  1.00  0.00     0.010 C 
ATOM     22  C   UNL A   1      33.224  17.534  24.417  1.00  0.00     0.010 C 
ATOM     23  C   UNL A   1      35.067  15.769  24.983  1.00  0.00     0.010 C 
ATOM     24  C   UNL A   1      32.502  17.116  25.697  1.00  0.00     0.010 C 
ENDBRANCH  16  18
ENDBRANCH  12  16
ENDBRANCH   8   9
ENDBRANCH   4   7
ENDBRANCH   2   3
ENDBRANCH   1   2
BRANCH   1  25
ATOM     25  C   UNL A   1      34.512  29.349  26.904  1.00  0.00     0.118 C 
BRANCH  25  26
ATOM     26  N   UNL A   1      35.037  30.652  27.308  1.00  0.00    -0.352 N 
ATOM     27  C   UNL A   1      36.248  30.943  27.920  1.00  0.00     0.251 C 
ATOM     28  H   UNL A   1      34.455  31.424  27.122  1.00  0.00     0.163 HD
ATOM     29  O   UNL A   1      36.518  32.069  28.262  1.00  0.00    -0.269 OA
BRANCH  27  30
ATOM     30  C   UNL A   1      37.206  29.825  28.100  1.00  0.00     0.039 A 
ATOM     31  C   UNL A   1      37.127  29.040  29.255  1.00  0.00     0.014 A 
ATOM     32  C   UNL A   1      38.283  29.705  27.230  1.00  0.00     0.014 A 
ATOM     33  C   UNL A   1      38.223  28.260  29.631  1.00  0.00     0.010 A 
ATOM     34  C   UNL A   1      39.404  29.030  27.661  1.00  0.00     0.010 A 
ATOM     35  C   UNL A   1      39.392  28.326  28.876  1.00  0.00    -0.014 A 
BRANCH  35  36
ATOM     36  C   UNL A   1      40.682  27.749  29.249  1.00  0.00     0.031 A 
ATOM     37  C   UNL A   1      41.040  26.380  28.796  1.00  0.00     0.074 A 
ATOM     38  C   UNL A   1      41.646  28.527  29.792  1.00  0.00     0.049 A 
ATOM     39  N   UNL A   1      42.083  25.730  29.194  1.00  0.00    -0.248 NA
ATOM     40  C   UNL A   1      40.202  25.602  27.888  1.00  0.00     0.031 C 
ATOM     41  C   UNL A   1      43.088  28.293  29.718  1.00  0.00     0.029 A 
ATOM     42  N   UNL A   1      41.525  29.569  30.710  1.00  0.00    -0.354 N 
ATOM     43  C   UNL A   1      42.227  24.632  28.377  1.00  0.00     0.074 A 
ATOM     44  C   UNL A   1      40.979  24.540  27.658  1.00  0.00     0.031 C 
ATOM     45  C   UNL A   1      43.681  28.932  30.736  1.00  0.00     0.029 A 
ATOM     46  C   UNL A   1      42.623  29.449  31.585  1.00  0.00     0.049 A 
ATOM     47  H   UNL A   1      40.816  30.250  30.741  1.00  0.00     0.167 HD
ATOM     48  C   UNL A   1      43.433  23.999  28.309  1.00  0.00     0.031 A 
ATOM     49  C   UNL A   1      42.530  29.258  32.935  1.00  0.00     0.031 A 
ATOM     50  C   UNL A   1      44.389  24.521  29.288  1.00  0.00     0.049 A 
ATOM     51  C   UNL A   1      43.281  28.043  33.451  1.00  0.00     0.074 A 
ATOM     52  C   UNL A   1      45.549  25.276  29.222  1.00  0.00     0.029 A 
ATOM     53  N   UNL A   1      44.067  24.438  30.630  1.00  0.00    -0.354 N 
ATOM     54  N   UNL A   1      43.961  27.222  32.702  1.00  0.00    -0.248 NA
ATOM     55  C   UNL A   1      43.214  27.589  34.844  1.00  0.00     0.031 C 
ATOM     56  C   UNL A   1      45.941  25.607  30.553  1.00  0.00     0.029 A 
ATOM     57  C   UNL A   1      45.020  25.048  31.418  1.00  0.00     0.049 A 
ATOM     58  H   UNL A   1      43.258  23.998  30.980  1.00  0.00     0.167 HD
ATOM     59  C   UNL A   1      44.299  26.113  33.432  1.00  0.00     0.074 A 
ATOM     60  C   UNL A   1      43.846  26.403  34.778  1.00  0.00     0.031 C 
ATOM     61  C   UNL A   1      44.849  25.005  32.859  1.00  0.00     0.031 A 
BRANCH  48  62
ATOM     62  C   UNL A   1      43.839  23.016  27.228  1.00  0.00    -0.014 A 
ATOM     63  C   UNL A   1      42.937  22.002  26.839  1.00  0.00     0.010 A 
ATOM     64  C   UNL A   1      45.094  22.992  26.592  1.00  0.00     0.010 A 
ATOM     65  C   UNL A   1      43.298  20.978  25.949  1.00  0.00     0.020 A 
ATOM     66  C   UNL A   1      45.477  21.967  25.715  1.00  0.00     0.020 A 
ATOM     67  C   UNL A   1      44.581  20.952  25.413  1.00  0.00     0.054 A 
BRANCH  67  68
ATOM     68  S   UNL A   1      45.068  19.584  24.333  1.00  0.00     0.124 S 
ATOM     69  O   UNL A   1      44.485  19.975  23.052  1.00  0.00    -0.237 OA
ATOM     70  O   UNL A   1      46.525  19.628  24.404  1.00  0.00    -0.237 OA
ATOM     71  O   UNL A   1      44.451  18.413  24.957  1.00  0.00    -0.744 OA
ENDBRANCH  67  68
ENDBRANCH  48  62
BRANCH  49  72
ATOM     72  C   UNL A   1      41.261  29.764  33.524  1.00  0.00    -0.014 A 
ATOM     73  C   UNL A   1      41.204  31.131  33.862  1.00  0.00     0.010 A 
ATOM     74  C   UNL A   1      40.067  29.055  33.303  1.00  0.00     0.010 A 
ATOM     75  C   UNL A   1      39.995  31.822  33.778  1.00  0.00     0.020 A 
ATOM     76  C   UNL A   1      38.852  29.745  33.229  1.00  0.00     0.020 A 
ATOM     77  C   UNL A   1      38.843  31.134  33.391  1.00  0.00     0.054 A 
BRANCH  77  78
ATOM     78  S   UNL A   1      37.413  32.115  32.849  1.00  0.00     0.124 S 
ATOM     79  O   UNL A   1      38.037  33.344  32.372  1.00  0.00    -0.237 OA
ATOM     80  O   UNL A   1      36.839  31.253  31.818  1.00  0.00    -0.237 OA
ATOM     81  O   UNL A   1      36.611  32.242  34.063  1.00  0.00    -0.744 OA
ENDBRANCH  77  78
ENDBRANCH  49  72
BRANCH  61  82
ATOM     82  C   UNL A   1      45.197  23.741  33.598  1.00  0.00    -0.014 A 
ATOM     83  C   UNL A   1      44.248  22.761  33.926  1.00  0.00     0.010 A 
ATOM     84  C   UNL A   1      46.509  23.565  34.102  1.00  0.00     0.010 A 
ATOM     85  C   UNL A   1      44.606  21.635  34.683  1.00  0.00     0.020 A 
ATOM     86  C   UNL A   1      46.871  22.457  34.869  1.00  0.00     0.020 A 
ATOM     87  C   UNL A   1      45.916  21.487  35.146  1.00  0.00     0.054 A 
BRANCH  87  88
ATOM     88  S   UNL A   1      46.346  20.049  36.159  1.00  0.00     0.124 S 
ATOM     89  O   UNL A   1      45.723  18.948  35.427  1.00  0.00    -0.237 OA
ATOM     90  O   UNL A   1      47.806  20.079  36.121  1.00  0.00    -0.237 OA
ATOM     91  O   UNL A   1      45.750  20.344  37.459  1.00  0.00    -0.744 OA
ENDBRANCH  87  88
ENDBRANCH  61  82
ENDBRANCH  35  36
ENDBRANCH  27  30
ENDBRANCH  25  26
ENDBRANCH   1  25
TORSDOF 16
ENDMDL
MODEL 2
REMARK VINA RESULT:     -13.4      4.443     11.514
REMARK SMILES Cc1c(/C=C/C(=O)NCCCNC(=O)c2ccc(-c3c4nc(c(-c5ccc(S(=O)(=O)[O-])cc5)c5ccc([nH]5)c(-c5ccc(S(=O)(=O)[O-])cc5)c5nc(c(-c6ccc(S(=O)(=O)[O-])cc6)c6ccc3[nH]6)C=C5)C=C4)cc2)cccc1C(=O)N1C[C@@H](C)[C@@H](C)C1
REMARK SMILES IDX 10 1 9 2 8 3 6 4 7 5 5 7 4 8 3 9 1 10 2 11 78 12 75 13 77 14
REMARK SMILES IDX 76 15 79 16 80 17 81 18 82 19 87 20 83 21 85 22 84 23 86 24
REMARK SMILES IDX 11 25 12 26 13 27 14 29 15 30 16 31 74 32 17 33 73 34 18 35
REMARK SMILES IDX 19 36 20 37 67 38 21 39 72 40 66 41 68 42 22 43 71 44 65 45
REMARK SMILES IDX 64 46 23 48 53 49 34 50 52 51 35 52 38 53 51 54 69 55 36 56
REMARK SMILES IDX 37 57 50 59 70 60 39 61 24 62 25 63 33 64 26 65 32 66 27 67
REMARK SMILES IDX 28 68 29 69 30 70 31 71 54 72 55 73 63 74 56 75 62 76 57 77
REMARK SMILES IDX 58 78 59 79 60 80 61 81 40 82 41 83 49 84 42 85 48 86 43 87
REMARK SMILES IDX 44 88 45 89 46 90 47 91
REMARK H PARENT 8 6 12 28 68 47 38 58
REMARK Flexibility Score: inf
ROOT
ATOM      1  C   UNL A   1      36.904  22.058  25.008  1.00  0.00     0.042 C 
ENDROOT
BRANCH   1   2
ATOM      2  C   UNL A   1      35.678  21.539  25.752  1.00  0.00     0.118 C 
BRANCH   2   3
ATOM      3  N   UNL A   1      34.654  21.021  24.853  1.00  0.00    -0.352 N 
ATOM      4  C   UNL A   1      33.535  21.654  24.389  1.00  0.00     0.244 C 
ATOM      5  O   UNL A   1      32.809  21.157  23.535  1.00  0.00    -0.270 OA
ATOM      6  H   UNL A   1      34.785  20.096  24.540  1.00  0.00     0.163 HD
BRANCH   4   7
ATOM      7  C   UNL A   1      33.247  23.004  24.916  1.00  0.00     0.072 C 
ATOM      8  C   UNL A   1      33.256  24.051  24.078  1.00  0.00     0.014 C 
BRANCH   8   9
ATOM      9  C   UNL A   1      32.885  25.420  24.474  1.00  0.00    -0.022 A 
ATOM     10  C   UNL A   1      32.032  25.895  22.133  1.00  0.00     0.046 C 
ATOM     11  C   UNL A   1      32.297  26.326  23.552  1.00  0.00    -0.031 A 
ATOM     12  C   UNL A   1      31.967  27.630  23.992  1.00  0.00     0.043 A 
ATOM     13  C   UNL A   1      33.197  25.852  25.772  1.00  0.00     0.008 A 
ATOM     14  C   UNL A   1      32.285  28.033  25.299  1.00  0.00     0.014 A 
ATOM     15  C   UNL A   1      32.899  27.149  26.183  1.00  0.00     0.001 A 
BRANCH  12  16
ATOM     16  C   UNL A   1      31.573  28.712  23.051  1.00  0.00     0.254 C 
ATOM     17  O   UNL A   1      32.478  29.237  22.399  1.00  0.00    -0.269 OA
BRANCH  16  18
ATOM     18  N   UNL A   1      30.245  29.046  22.858  1.00  0.00    -0.338 N 
ATOM     19  C   UNL A   1      29.220  28.166  23.380  1.00  0.00     0.123 C 
ATOM     20  C   UNL A   1      29.670  30.163  22.119  1.00  0.00     0.123 C 
ATOM     21  C   UNL A   1      27.919  28.612  22.726  1.00  0.00     0.010 C 
ATOM     22  C   UNL A   1      28.157  30.103  22.403  1.00  0.00     0.010 C 
ATOM     23  C   UNL A   1      26.713  28.280  23.594  1.00  0.00     0.010 C 
ATOM     24  C   UNL A   1      27.745  31.078  23.505  1.00  0.00     0.010 C 
ENDBRANCH  16  18
ENDBRANCH  12  16
ENDBRANCH   8   9
ENDBRANCH   4   7
ENDBRANCH   2   3
ENDBRANCH   1   2
BRANCH   1  25
ATOM     25  C   UNL A   1      37.676  23.115  25.781  1.00  0.00     0.118 C 
BRANCH  25  26
ATOM     26  N   UNL A   1      38.819  22.575  26.516  1.00  0.00    -0.352 N 
ATOM     27  C   UNL A   1      39.768  23.260  27.260  1.00  0.00     0.251 C 
ATOM     28  H   UNL A   1      38.929  21.597  26.476  1.00  0.00     0.163 HD
ATOM     29  O   UNL A   1      40.705  22.683  27.757  1.00  0.00    -0.269 OA
BRANCH  27  30
ATOM     30  C   UNL A   1      39.564  24.717  27.450  1.00  0.00     0.039 A 
ATOM     31  C   UNL A   1      40.166  25.610  26.559  1.00  0.00     0.014 A 
ATOM     32  C   UNL A   1      38.956  25.173  28.614  1.00  0.00     0.014 A 
ATOM     33  C   UNL A   1      40.317  26.950  26.927  1.00  0.00     0.010 A 
ATOM     34  C   UNL A   1      39.209  26.463  29.025  1.00  0.00     0.010 A 
ATOM     35  C   UNL A   1      39.913  27.353  28.197  1.00  0.00    -0.014 A 
BRANCH  35  36
ATOM     36  C   UNL A   1      40.194  28.649  28.810  1.00  0.00     0.031 A 
ATOM     37  C   UNL A   1      39.195  29.745  28.715  1.00  0.00     0.074 A 
ATOM     38  C   UNL A   1      41.234  28.790  29.663  1.00  0.00     0.049 A 
ATOM     39  N   UNL A   1      39.410  30.962  29.091  1.00  0.00    -0.248 NA
ATOM     40  C   UNL A   1      37.873  29.563  28.124  1.00  0.00     0.031 C 
ATOM     41  C   UNL A   1      41.342  29.776  30.739  1.00  0.00     0.029 A 
ATOM     42  N   UNL A   1      42.507  28.224  29.603  1.00  0.00    -0.354 N 
ATOM     43  C   UNL A   1      38.199  31.616  29.102  1.00  0.00     0.074 A 
ATOM     44  C   UNL A   1      37.300  30.739  28.392  1.00  0.00     0.031 C 
ATOM     45  C   UNL A   1      42.638  29.956  31.029  1.00  0.00     0.029 A 
ATOM     46  C   UNL A   1      43.401  29.223  30.036  1.00  0.00     0.049 A 
ATOM     47  H   UNL A   1      42.734  27.311  29.316  1.00  0.00     0.167 HD
ATOM     48  C   UNL A   1      38.065  32.768  29.819  1.00  0.00     0.031 A 
ATOM     49  C   UNL A   1      44.421  29.738  29.285  1.00  0.00     0.031 A 
ATOM     50  C   UNL A   1      39.341  33.234  30.365  1.00  0.00     0.049 A 
ATOM     51  C   UNL A   1      44.393  31.249  29.140  1.00  0.00     0.074 A 
ATOM     52  C   UNL A   1      39.898  33.313  31.631  1.00  0.00     0.029 A 
ATOM     53  N   UNL A   1      40.363  33.533  29.483  1.00  0.00    -0.354 N 
ATOM     54  N   UNL A   1      43.485  32.025  29.661  1.00  0.00    -0.248 NA
ATOM     55  C   UNL A   1      45.322  31.990  28.280  1.00  0.00     0.031 C 
ATOM     56  C   UNL A   1      41.261  33.709  31.495  1.00  0.00     0.029 A 
ATOM     57  C   UNL A   1      41.523  33.871  30.147  1.00  0.00     0.049 A 
ATOM     58  H   UNL A   1      40.274  33.507  28.503  1.00  0.00     0.167 HD
ATOM     59  C   UNL A   1      43.609  33.286  29.139  1.00  0.00     0.074 A 
ATOM     60  C   UNL A   1      44.795  33.228  28.309  1.00  0.00     0.031 C 
ATOM     61  C   UNL A   1      42.678  34.257  29.358  1.00  0.00     0.031 A 
BRANCH  48  62
ATOM     62  C   UNL A   1      36.742  33.403  30.202  1.00  0.00    -0.014 A 
ATOM     63  C   UNL A   1      35.891  33.897  29.189  1.00  0.00     0.010 A 
ATOM     64  C   UNL A   1      36.294  33.597  31.522  1.00  0.00     0.010 A 
ATOM     65  C   UNL A   1      34.722  34.619  29.478  1.00  0.00     0.020 A 
ATOM     66  C   UNL A   1      35.139  34.331  31.829  1.00  0.00     0.020 A 
ATOM     67  C   UNL A   1      34.368  34.856  30.801  1.00  0.00     0.054 A 
BRANCH  67  68
ATOM     68  S   UNL A   1      32.908  35.859  31.167  1.00  0.00     0.124 S 
ATOM     69  O   UNL A   1      32.290  36.004  29.851  1.00  0.00    -0.237 OA
ATOM     70  O   UNL A   1      32.180  35.025  32.118  1.00  0.00    -0.237 OA
ATOM     71  O   UNL A   1      33.464  37.092  31.724  1.00  0.00    -0.744 OA
ENDBRANCH  67  68
ENDBRANCH  48  62
BRANCH  49  72
ATOM     72  C   UNL A   1      44.918  28.809  28.235  1.00  0.00    -0.014 A 
ATOM     73  C   UNL A   1      45.799  27.786  28.639  1.00  0.00     0.010 A 
ATOM     74  C   UNL A   1      44.188  28.663  27.042  1.00  0.00     0.010 A 
ATOM     75  C   UNL A   1      45.795  26.558  27.976  1.00  0.00     0.020 A 
ATOM     76  C   UNL A   1      44.191  27.435  26.371  1.00  0.00     0.020 A 
ATOM     77  C   UNL A   1      44.936  26.373  26.892  1.00  0.00     0.054 A 
BRANCH  77  78
ATOM     78  S   UNL A   1      44.613  24.668  26.349  1.00  0.00     0.124 S 
ATOM     79  O   UNL A   1      44.323  24.840  24.930  1.00  0.00    -0.237 OA
ATOM     80  O   UNL A   1      45.883  24.016  26.662  1.00  0.00    -0.237 OA
ATOM     81  O   UNL A   1      43.486  24.256  27.182  1.00  0.00    -0.744 OA
ENDBRANCH  77  78
ENDBRANCH  49  72
BRANCH  61  82
ATOM     82  C   UNL A   1      42.733  35.644  28.774  1.00  0.00    -0.014 A 
ATOM     83  C   UNL A   1      43.112  36.771  29.519  1.00  0.00     0.010 A 
ATOM     84  C   UNL A   1      42.269  35.865  27.455  1.00  0.00     0.010 A 
ATOM     85  C   UNL A   1      43.075  38.055  28.952  1.00  0.00     0.020 A 
ATOM     86  C   UNL A   1      42.212  37.139  26.889  1.00  0.00     0.020 A 
ATOM     87  C   UNL A   1      42.629  38.230  27.639  1.00  0.00     0.054 A 
BRANCH  87  88
ATOM     88  S   UNL A   1      42.546  39.900  26.943  1.00  0.00     0.124 S 
ATOM     89  O   UNL A   1      42.573  40.743  28.137  1.00  0.00    -0.237 OA
ATOM     90  O   UNL A   1      43.750  39.943  26.118  1.00  0.00    -0.237 OA
ATOM     91  O   UNL A   1      41.285  39.912  26.206  1.00  0.00    -0.744 OA
ENDBRANCH  87  88
ENDBRANCH  61  82
ENDBRANCH  35  36
ENDBRANCH  27  30
ENDBRANCH  25  26
ENDBRANCH   1  25
TORSDOF 16
ENDMDL
MODEL 3
REMARK VINA RESULT:     -13.4      4.448     11.473
REMARK SMILES Cc1c(/C=C/C(=O)NCCCNC(=O)c2ccc(-c3c4nc(c(-c5ccc(S(=O)(=O)[O-])cc5)c5ccc([nH]5)c(-c5ccc(S(=O)(=O)[O-])cc5)c5nc(c(-c6ccc(S(=O)(=O)[O-])cc6)c6ccc3[nH]6)C=C5)C=C4)cc2)cccc1C(=O)N1C[C@@H](C)[C@@H](C)C1
REMARK SMILES IDX 10 1 9 2 8 3 6 4 7 5 5 7 4 8 3 9 1 10 2 11 78 12 75 13 77 14
REMARK SMILES IDX 76 15 79 16 80 17 81 18 82 19 87 20 83 21 85 22 84 23 86 24
REMARK SMILES IDX 11 25 12 26 13 27 14 29 15 30 16 31 74 32 17 33 73 34 18 35
REMARK SMILES IDX 19 36 20 37 67 38 21 39 72 40 66 41 68 42 22 43 71 44 65 45
REMARK SMILES IDX 64 46 23 48 53 49 34 50 52 51 35 52 38 53 51 54 69 55 36 56
REMARK SMILES IDX 37 57 50 59 70 60 39 61 24 62 25 63 33 64 26 65 32 66 27 67
REMARK SMILES IDX 28 68 29 69 30 70 31 71 54 72 55 73 63 74 56 75 62 76 57 77
REMARK SMILES IDX 58 78 59 79 60 80 61 81 40 82 41 83 49 84 42 85 48 86 43 87
REMARK SMILES IDX 44 88 45 89 46 90 47 91
REMARK H PARENT 8 6 12 28 68 47 38 58
REMARK Flexibility Score: inf
ROOT
ATOM      1  C   UNL A   1      37.040  22.194  25.318  1.00  0.00     0.042 C 
ENDROOT
BRANCH   1   2
ATOM      2  C   UNL A   1      35.795  21.846  26.128  1.00  0.00     0.118 C 
BRANCH   2   3
ATOM      3  N   UNL A   1      35.210  20.570  25.738  1.00  0.00    -0.352 N 
ATOM      4  C   UNL A   1      34.273  20.327  24.773  1.00  0.00     0.244 C 
ATOM      5  O   UNL A   1      33.947  19.191  24.449  1.00  0.00    -0.270 OA
ATOM      6  H   UNL A   1      35.530  19.781  26.233  1.00  0.00     0.163 HD
BRANCH   4   7
ATOM      7  C   UNL A   1      33.690  21.494  24.079  1.00  0.00     0.072 C 
ATOM      8  C   UNL A   1      32.875  22.318  24.754  1.00  0.00     0.014 C 
BRANCH   8   9
ATOM      9  C   UNL A   1      32.322  23.563  24.193  1.00  0.00    -0.022 A 
ATOM     10  C   UNL A   1      34.514  24.764  24.626  1.00  0.00     0.046 C 
ATOM     11  C   UNL A   1      33.093  24.754  24.125  1.00  0.00    -0.031 A 
ATOM     12  C   UNL A   1      32.503  25.918  23.580  1.00  0.00     0.043 A 
ATOM     13  C   UNL A   1      30.977  23.580  23.793  1.00  0.00     0.008 A 
ATOM     14  C   UNL A   1      31.156  25.904  23.181  1.00  0.00     0.014 A 
ATOM     15  C   UNL A   1      30.397  24.742  23.291  1.00  0.00     0.001 A 
BRANCH  12  16
ATOM     16  C   UNL A   1      33.141  27.258  23.682  1.00  0.00     0.254 C 
ATOM     17  O   UNL A   1      33.739  27.664  22.683  1.00  0.00    -0.269 OA
BRANCH  16  18
ATOM     18  N   UNL A   1      32.990  28.040  24.811  1.00  0.00    -0.338 N 
ATOM     19  C   UNL A   1      32.335  29.326  24.689  1.00  0.00     0.123 C 
ATOM     20  C   UNL A   1      33.464  27.805  26.170  1.00  0.00     0.123 C 
ATOM     21  C   UNL A   1      32.625  30.064  25.988  1.00  0.00     0.010 C 
ATOM     22  C   UNL A   1      32.847  28.934  27.017  1.00  0.00     0.010 C 
ATOM     23  C   UNL A   1      31.539  31.083  26.309  1.00  0.00     0.010 C 
ATOM     24  C   UNL A   1      31.589  28.473  27.752  1.00  0.00     0.010 C 
ENDBRANCH  16  18
ENDBRANCH  12  16
ENDBRANCH   8   9
ENDBRANCH   4   7
ENDBRANCH   2   3
ENDBRANCH   1   2
BRANCH   1  25
ATOM     25  C   UNL A   1      37.878  23.297  25.944  1.00  0.00     0.118 C 
BRANCH  25  26
ATOM     26  N   UNL A   1      39.044  22.796  26.669  1.00  0.00    -0.352 N 
ATOM     27  C   UNL A   1      39.971  23.511  27.414  1.00  0.00     0.251 C 
ATOM     28  H   UNL A   1      39.191  21.824  26.623  1.00  0.00     0.163 HD
ATOM     29  O   UNL A   1      40.932  22.967  27.902  1.00  0.00    -0.269 OA
BRANCH  27  30
ATOM     30  C   UNL A   1      39.713  24.958  27.613  1.00  0.00     0.039 A 
ATOM     31  C   UNL A   1      40.240  25.876  26.700  1.00  0.00     0.014 A 
ATOM     32  C   UNL A   1      39.135  25.389  28.801  1.00  0.00     0.014 A 
ATOM     33  C   UNL A   1      40.350  27.221  27.063  1.00  0.00     0.010 A 
ATOM     34  C   UNL A   1      39.349  26.689  29.204  1.00  0.00     0.010 A 
ATOM     35  C   UNL A   1      39.981  27.607  28.349  1.00  0.00    -0.014 A 
BRANCH  35  36
ATOM     36  C   UNL A   1      40.232  28.915  28.952  1.00  0.00     0.031 A 
ATOM     37  C   UNL A   1      39.199  29.980  28.865  1.00  0.00     0.074 A 
ATOM     38  C   UNL A   1      41.279  29.091  29.789  1.00  0.00     0.049 A 
ATOM     39  N   UNL A   1      39.383  31.205  29.232  1.00  0.00    -0.248 NA
ATOM     40  C   UNL A   1      37.875  29.755  28.293  1.00  0.00     0.031 C 
ATOM     41  C   UNL A   1      41.372  30.085  30.859  1.00  0.00     0.029 A 
ATOM     42  N   UNL A   1      42.567  28.562  29.715  1.00  0.00    -0.354 N 
ATOM     43  C   UNL A   1      38.153  31.823  29.256  1.00  0.00     0.074 A 
ATOM     44  C   UNL A   1      37.271  30.915  28.563  1.00  0.00     0.031 C 
ATOM     45  C   UNL A   1      42.666  30.306  31.130  1.00  0.00     0.029 A 
ATOM     46  C   UNL A   1      43.436  29.590  30.130  1.00  0.00     0.049 A 
ATOM     47  H   UNL A   1      42.817  27.655  29.428  1.00  0.00     0.167 HD
ATOM     48  C   UNL A   1      37.994  32.974  29.970  1.00  0.00     0.031 A 
ATOM     49  C   UNL A   1      44.430  30.131  29.363  1.00  0.00     0.031 A 
ATOM     50  C   UNL A   1      39.264  33.480  30.496  1.00  0.00     0.049 A 
ATOM     51  C   UNL A   1      44.356  31.640  29.210  1.00  0.00     0.074 A 
ATOM     52  C   UNL A   1      39.835  33.583  31.754  1.00  0.00     0.029 A 
ATOM     53  N   UNL A   1      40.264  33.805  29.598  1.00  0.00    -0.354 N 
ATOM     54  N   UNL A   1      43.432  32.391  29.740  1.00  0.00    -0.248 NA
ATOM     55  C   UNL A   1      45.249  32.404  28.335  1.00  0.00     0.031 C 
ATOM     56  C   UNL A   1      41.184  34.018  31.596  1.00  0.00     0.029 A 
ATOM     57  C   UNL A   1      41.423  34.181  30.245  1.00  0.00     0.049 A 
ATOM     58  H   UNL A   1      40.163  33.771  28.619  1.00  0.00     0.167 HD
ATOM     59  C   UNL A   1      43.511  33.652  29.210  1.00  0.00     0.074 A 
ATOM     60  C   UNL A   1      44.687  33.625  28.364  1.00  0.00     0.031 C 
ATOM     61  C   UNL A   1      42.555  34.597  29.438  1.00  0.00     0.031 A 
BRANCH  48  62
ATOM     62  C   UNL A   1      36.659  33.571  30.368  1.00  0.00    -0.014 A 
ATOM     63  C   UNL A   1      35.755  33.980  29.363  1.00  0.00     0.010 A 
ATOM     64  C   UNL A   1      36.246  33.810  31.692  1.00  0.00     0.010 A 
ATOM     65  C   UNL A   1      34.566  34.666  29.658  1.00  0.00     0.020 A 
ATOM     66  C   UNL A   1      35.071  34.509  32.004  1.00  0.00     0.020 A 
ATOM     67  C   UNL A   1      34.245  34.953  30.980  1.00  0.00     0.054 A 
BRANCH  67  68
ATOM     68  S   UNL A   1      32.756  35.911  31.349  1.00  0.00     0.124 S 
ATOM     69  O   UNL A   1      32.166  36.093  30.025  1.00  0.00    -0.237 OA
ATOM     70  O   UNL A   1      32.025  35.026  32.250  1.00  0.00    -0.237 OA
ATOM     71  O   UNL A   1      33.273  37.133  31.965  1.00  0.00    -0.744 OA
ENDBRANCH  67  68
ENDBRANCH  48  62
BRANCH  49  72
ATOM     72  C   UNL A   1      44.940  29.212  28.310  1.00  0.00    -0.014 A 
ATOM     73  C   UNL A   1      45.932  28.283  28.686  1.00  0.00     0.010 A 
ATOM     74  C   UNL A   1      44.152  28.961  27.173  1.00  0.00     0.010 A 
ATOM     75  C   UNL A   1      45.994  27.037  28.062  1.00  0.00     0.020 A 
ATOM     76  C   UNL A   1      44.221  27.715  26.540  1.00  0.00     0.020 A 
ATOM     77  C   UNL A   1      45.088  26.740  27.042  1.00  0.00     0.054 A 
BRANCH  77  78
ATOM     78  S   UNL A   1      44.884  24.996  26.573  1.00  0.00     0.124 S 
ATOM     79  O   UNL A   1      43.476  24.755  26.866  1.00  0.00    -0.237 OA
ATOM     80  O   UNL A   1      45.241  25.030  25.156  1.00  0.00    -0.237 OA
ATOM     81  O   UNL A   1      45.839  24.301  27.432  1.00  0.00    -0.744 OA
ENDBRANCH  77  78
ENDBRANCH  49  72
BRANCH  61  82
ATOM     82  C   UNL A   1      42.560  35.981  28.846  1.00  0.00    -0.014 A 
ATOM     83  C   UNL A   1      41.975  36.284  27.607  1.00  0.00     0.010 A 
ATOM     84  C   UNL A   1      43.285  37.013  29.490  1.00  0.00     0.010 A 
ATOM     85  C   UNL A   1      42.071  37.574  27.061  1.00  0.00     0.020 A 
ATOM     86  C   UNL A   1      43.400  38.294  28.947  1.00  0.00     0.020 A 
ATOM     87  C   UNL A   1      42.779  38.572  27.737  1.00  0.00     0.054 A 
BRANCH  87  88
ATOM     88  S   UNL A   1      42.929  40.215  26.992  1.00  0.00     0.124 S 
ATOM     89  O   UNL A   1      43.298  41.049  28.135  1.00  0.00    -0.237 OA
ATOM     90  O   UNL A   1      43.985  40.004  26.005  1.00  0.00    -0.237 OA
ATOM     91  O   UNL A   1      41.603  40.475  26.439  1.00  0.00    -0.744 OA
ENDBRANCH  87  88
ENDBRANCH  61  82
ENDBRANCH  35  36
ENDBRANCH  27  30
ENDBRANCH  25  26
ENDBRANCH   1  25
TORSDOF 16
ENDMDL
