MODEL 1
REMARK VINA RESULT:     -11.0      0.000      0.000
REMARK SMILES O=C(NCCCNC(=O)[C@@H](NC(=O)c1cscn1)c1ccccc1C(F)(F)F)c1ccc(-c2c3nc(c(-c4ccc(S(=O)(=O)[O-])cc4)c4ccc([nH]4)c(-c4ccc(S(=O)(=O)[O-])cc4)c4nc(c(-c5ccc(S(=O)(=O)[O-])cc5)c5ccc2[nH]5)C=C4)C=C3)cc1
REMARK SMILES IDX 4 1 3 2 1 3 2 4 29 6 30 7 88 8 31 9 87 10 32 11 33 12 34 13
REMARK SMILES IDX 81 14 35 15 86 16 80 17 82 18 36 19 85 20 79 21 78 22 37 24
REMARK SMILES IDX 67 25 48 26 66 27 49 28 52 29 65 30 83 31 50 32 51 33 64 35
REMARK SMILES IDX 84 36 53 37 38 38 39 39 47 40 40 41 46 42 41 43 42 44 43 45
REMARK SMILES IDX 44 46 45 47 68 48 69 49 77 50 70 51 76 52 71 53 72 54 73 55
REMARK SMILES IDX 74 56 75 57 54 58 55 59 63 60 56 61 62 62 57 63 58 64 59 65
REMARK SMILES IDX 60 66 61 67 5 68 6 69 7 70 8 71 9 73 10 74 11 75 12 76 13 78
REMARK SMILES IDX 14 79 15 80 18 81 16 82 17 83 19 84 20 85 24 86 21 87 23 88
REMARK SMILES IDX 22 89 25 90 26 91 27 92 28 93
REMARK H PARENT 3 5 82 23 52 34 7 72 11 77
REMARK Flexibility Score: inf
ROOT
ATOM      1  C   UNL A   1      33.983  28.289  26.562  1.00  0.00     0.118 C 
ENDROOT
BRANCH   1   2
ATOM      2  N   UNL A   1      33.737  29.644  27.046  1.00  0.00    -0.352 N 
ATOM      3  O   UNL A   1      34.010  31.532  28.243  1.00  0.00    -0.269 OA
ATOM      4  C   UNL A   1      34.498  30.483  27.830  1.00  0.00     0.251 C 
ATOM      5  H   UNL A   1      32.875  30.025  26.763  1.00  0.00     0.163 HD
BRANCH   4   6
ATOM      6  C   UNL A   1      35.879  30.111  28.206  1.00  0.00     0.039 A 
ATOM      7  C   UNL A   1      36.923  30.290  27.308  1.00  0.00     0.014 A 
ATOM      8  C   UNL A   1      36.148  29.594  29.479  1.00  0.00     0.014 A 
ATOM      9  C   UNL A   1      38.163  29.735  27.568  1.00  0.00     0.010 A 
ATOM     10  C   UNL A   1      37.449  29.189  29.808  1.00  0.00     0.010 A 
ATOM     11  C   UNL A   1      38.461  29.222  28.838  1.00  0.00    -0.014 A 
BRANCH  11  12
ATOM     12  C   UNL A   1      39.871  28.844  29.117  1.00  0.00     0.031 A 
ATOM     13  C   UNL A   1      40.447  27.535  28.653  1.00  0.00     0.074 A 
ATOM     14  C   UNL A   1      40.654  29.757  29.732  1.00  0.00     0.049 A 
ATOM     15  N   UNL A   1      41.676  27.101  28.769  1.00  0.00    -0.248 NA
ATOM     16  C   UNL A   1      39.539  26.586  27.988  1.00  0.00     0.031 C 
ATOM     17  C   UNL A   1      40.192  31.057  30.239  1.00  0.00     0.029 A 
ATOM     18  N   UNL A   1      42.000  29.770  29.990  1.00  0.00    -0.354 N 
ATOM     19  C   UNL A   1      41.683  25.819  28.232  1.00  0.00     0.074 A 
ATOM     20  C   UNL A   1      40.334  25.541  27.786  1.00  0.00     0.031 C 
ATOM     21  C   UNL A   1      41.245  31.772  30.653  1.00  0.00     0.029 A 
ATOM     22  C   UNL A   1      42.441  30.950  30.545  1.00  0.00     0.049 A 
ATOM     23  H   UNL A   1      42.593  29.009  29.798  1.00  0.00     0.167 HD
ATOM     24  C   UNL A   1      42.721  24.956  28.130  1.00  0.00     0.031 A 
ATOM     25  C   UNL A   1      43.665  31.326  30.955  1.00  0.00     0.031 A 
ATOM     26  C   UNL A   1      44.064  25.259  28.552  1.00  0.00     0.049 A 
ATOM     27  C   UNL A   1      44.790  30.345  30.826  1.00  0.00     0.074 A 
ATOM     28  C   UNL A   1      45.196  24.467  28.449  1.00  0.00     0.029 A 
ATOM     29  N   UNL A   1      44.459  26.441  29.160  1.00  0.00    -0.354 N 
ATOM     30  N   UNL A   1      44.776  29.148  30.292  1.00  0.00    -0.248 NA
ATOM     31  C   UNL A   1      46.089  30.754  31.374  1.00  0.00     0.031 C 
ATOM     32  C   UNL A   1      46.263  25.150  29.041  1.00  0.00     0.029 A 
ATOM     33  C   UNL A   1      45.808  26.387  29.467  1.00  0.00     0.049 A 
ATOM     34  H   UNL A   1      43.868  27.206  29.344  1.00  0.00     0.167 HD
ATOM     35  C   UNL A   1      46.061  28.652  30.453  1.00  0.00     0.074 A 
ATOM     36  C   UNL A   1      46.836  29.696  31.093  1.00  0.00     0.031 C 
ATOM     37  C   UNL A   1      46.551  27.434  30.120  1.00  0.00     0.031 A 
BRANCH  24  38
ATOM     38  C   UNL A   1      42.458  23.581  27.573  1.00  0.00    -0.014 A 
ATOM     39  C   UNL A   1      42.674  23.285  26.216  1.00  0.00     0.010 A 
ATOM     40  C   UNL A   1      42.087  22.544  28.449  1.00  0.00     0.010 A 
ATOM     41  C   UNL A   1      42.518  21.976  25.746  1.00  0.00     0.020 A 
ATOM     42  C   UNL A   1      41.950  21.232  27.987  1.00  0.00     0.020 A 
ATOM     43  C   UNL A   1      42.162  20.957  26.635  1.00  0.00     0.054 A 
BRANCH  43  44
ATOM     44  S   UNL A   1      42.037  19.257  26.012  1.00  0.00     0.124 S 
ATOM     45  O   UNL A   1      42.888  19.308  24.826  1.00  0.00    -0.237 OA
ATOM     46  O   UNL A   1      42.558  18.468  27.125  1.00  0.00    -0.237 OA
ATOM     47  O   UNL A   1      40.610  19.087  25.746  1.00  0.00    -0.744 OA
ENDBRANCH  43  44
ENDBRANCH  24  38
BRANCH  25  48
ATOM     48  C   UNL A   1      43.859  32.654  31.595  1.00  0.00    -0.014 A 
ATOM     49  C   UNL A   1      43.706  32.823  32.982  1.00  0.00     0.010 A 
ATOM     50  C   UNL A   1      44.216  33.765  30.806  1.00  0.00     0.010 A 
ATOM     51  C   UNL A   1      43.891  34.082  33.564  1.00  0.00     0.020 A 
ATOM     52  C   UNL A   1      44.434  35.014  31.387  1.00  0.00     0.020 A 
ATOM     53  C   UNL A   1      44.252  35.169  32.762  1.00  0.00     0.054 A 
BRANCH  53  54
ATOM     54  S   UNL A   1      44.527  36.787  33.535  1.00  0.00     0.124 S 
ATOM     55  O   UNL A   1      43.772  37.673  32.654  1.00  0.00    -0.237 OA
ATOM     56  O   UNL A   1      43.973  36.601  34.873  1.00  0.00    -0.237 OA
ATOM     57  O   UNL A   1      45.980  36.943  33.487  1.00  0.00    -0.744 OA
ENDBRANCH  53  54
ENDBRANCH  25  48
BRANCH  37  58
ATOM     58  C   UNL A   1      47.993  27.175  30.450  1.00  0.00    -0.014 A 
ATOM     59  C   UNL A   1      49.009  27.524  29.543  1.00  0.00     0.010 A 
ATOM     60  C   UNL A   1      48.335  26.601  31.687  1.00  0.00     0.010 A 
ATOM     61  C   UNL A   1      50.346  27.272  29.856  1.00  0.00     0.020 A 
ATOM     62  C   UNL A   1      49.673  26.370  32.011  1.00  0.00     0.020 A 
ATOM     63  C   UNL A   1      50.669  26.693  31.087  1.00  0.00     0.054 A 
BRANCH  63  64
ATOM     64  S   UNL A   1      52.414  26.403  31.484  1.00  0.00     0.124 S 
ATOM     65  O   UNL A   1      52.353  25.139  32.213  1.00  0.00    -0.237 OA
ATOM     66  O   UNL A   1      53.039  26.340  30.165  1.00  0.00    -0.237 OA
ATOM     67  O   UNL A   1      52.783  27.567  32.286  1.00  0.00    -0.744 OA
ENDBRANCH  63  64
ENDBRANCH  37  58
ENDBRANCH  11  12
ENDBRANCH   4   6
ENDBRANCH   1   2
BRANCH   1  68
ATOM     68  C   UNL A   1      32.734  27.421  26.511  1.00  0.00     0.042 C 
BRANCH  68  69
ATOM     69  C   UNL A   1      33.041  25.935  26.527  1.00  0.00     0.117 C 
BRANCH  69  70
ATOM     70  N   UNL A   1      31.865  25.101  26.702  1.00  0.00    -0.354 N 
ATOM     71  C   UNL A   1      31.254  24.255  25.825  1.00  0.00     0.247 C 
ATOM     72  H   UNL A   1      31.444  25.154  27.590  1.00  0.00     0.163 HD
ATOM     73  O   UNL A   1      30.601  23.328  26.320  1.00  0.00    -0.272 OA
BRANCH  71  74
ATOM     74  C   UNL A   1      31.375  24.398  24.290  1.00  0.00     0.203 C 
BRANCH  74  75
ATOM     75  N   UNL A   1      31.268  23.149  23.533  1.00  0.00    -0.335 N 
ATOM     76  C   UNL A   1      32.135  22.186  23.106  1.00  0.00     0.271 C 
ATOM     77  H   UNL A   1      30.340  22.955  23.267  1.00  0.00     0.165 HD
ATOM     78  O   UNL A   1      31.787  21.505  22.141  1.00  0.00    -0.267 OA
BRANCH  76  79
ATOM     79  C   UNL A   1      33.415  21.979  23.758  1.00  0.00     0.139 A 
ATOM     80  C   UNL A   1      33.597  21.079  24.795  1.00  0.00     0.100 A 
ATOM     81  N   UNL A   1      34.522  22.772  23.482  1.00  0.00    -0.240 NA
ATOM     82  S   UNL A   1      35.210  21.152  25.366  1.00  0.00    -0.130 S 
ATOM     83  C   UNL A   1      35.522  22.421  24.260  1.00  0.00     0.176 A 
ENDBRANCH  76  79
ENDBRANCH  74  75
BRANCH  74  84
ATOM     84  C   UNL A   1      30.888  25.711  23.676  1.00  0.00    -0.004 A 
ATOM     85  C   UNL A   1      29.559  26.079  24.011  1.00  0.00     0.007 A 
ATOM     86  C   UNL A   1      31.614  26.582  22.822  1.00  0.00     0.061 A 
ATOM     87  C   UNL A   1      28.965  27.247  23.532  1.00  0.00     0.000 A 
ATOM     88  C   UNL A   1      30.985  27.761  22.349  1.00  0.00     0.013 A 
ATOM     89  C   UNL A   1      29.679  28.089  22.698  1.00  0.00     0.001 A 
BRANCH  86  90
ATOM     90  C   UNL A   1      33.056  26.398  22.406  1.00  0.00     0.416 C 
ATOM     91  F   UNL A   1      33.922  26.274  23.445  1.00  0.00    -0.166 F 
ATOM     92  F   UNL A   1      33.268  25.286  21.642  1.00  0.00    -0.166 F 
ATOM     93  F   UNL A   1      33.503  27.434  21.648  1.00  0.00    -0.166 F 
ENDBRANCH  86  90
ENDBRANCH  74  84
ENDBRANCH  71  74
ENDBRANCH  69  70
ENDBRANCH  68  69
ENDBRANCH   1  68
TORSDOF 17
ENDMDL
MODEL 2
REMARK VINA RESULT:     -10.9      1.790      3.033
REMARK SMILES O=C(NCCCNC(=O)[C@@H](NC(=O)c1cscn1)c1ccccc1C(F)(F)F)c1ccc(-c2c3nc(c(-c4ccc(S(=O)(=O)[O-])cc4)c4ccc([nH]4)c(-c4ccc(S(=O)(=O)[O-])cc4)c4nc(c(-c5ccc(S(=O)(=O)[O-])cc5)c5ccc2[nH]5)C=C4)C=C3)cc1
REMARK SMILES IDX 4 1 3 2 1 3 2 4 29 6 30 7 88 8 31 9 87 10 32 11 33 12 34 13
REMARK SMILES IDX 81 14 35 15 86 16 80 17 82 18 36 19 85 20 79 21 78 22 37 24
REMARK SMILES IDX 67 25 48 26 66 27 49 28 52 29 65 30 83 31 50 32 51 33 64 35
REMARK SMILES IDX 84 36 53 37 38 38 39 39 47 40 40 41 46 42 41 43 42 44 43 45
REMARK SMILES IDX 44 46 45 47 68 48 69 49 77 50 70 51 76 52 71 53 72 54 73 55
REMARK SMILES IDX 74 56 75 57 54 58 55 59 63 60 56 61 62 62 57 63 58 64 59 65
REMARK SMILES IDX 60 66 61 67 5 68 6 69 7 70 8 71 9 73 10 74 11 75 12 76 13 78
REMARK SMILES IDX 14 79 15 80 18 81 16 82 17 83 19 84 20 85 24 86 21 87 23 88
REMARK SMILES IDX 22 89 25 90 26 91 27 92 28 93
REMARK H PARENT 3 5 82 23 52 34 7 72 11 77
REMARK Flexibility Score: inf
ROOT
ATOM      1  C   UNL A   1      33.604  28.335  27.141  1.00  0.00     0.118 C 
ENDROOT
BRANCH   1   2
ATOM      2  N   UNL A   1      33.442  29.764  27.395  1.00  0.00    -0.352 N 
ATOM      3  O   UNL A   1      33.872  31.816  28.220  1.00  0.00    -0.269 OA
ATOM      4  C   UNL A   1      34.289  30.689  27.965  1.00  0.00     0.251 C 
ATOM      5  H   UNL A   1      32.575  30.131  27.110  1.00  0.00     0.163 HD
BRANCH   4   6
ATOM      6  C   UNL A   1      35.682  30.322  28.304  1.00  0.00     0.039 A 
ATOM      7  C   UNL A   1      36.713  30.587  27.414  1.00  0.00     0.014 A 
ATOM      8  C   UNL A   1      35.973  29.722  29.534  1.00  0.00     0.014 A 
ATOM      9  C   UNL A   1      37.967  30.043  27.624  1.00  0.00     0.010 A 
ATOM     10  C   UNL A   1      37.285  29.324  29.825  1.00  0.00     0.010 A 
ATOM     11  C   UNL A   1      38.288  29.448  28.853  1.00  0.00    -0.014 A 
BRANCH  11  12
ATOM     12  C   UNL A   1      39.708  29.084  29.094  1.00  0.00     0.031 A 
ATOM     13  C   UNL A   1      40.276  27.767  28.641  1.00  0.00     0.074 A 
ATOM     14  C   UNL A   1      40.506  30.014  29.662  1.00  0.00     0.049 A 
ATOM     15  N   UNL A   1      41.510  27.342  28.727  1.00  0.00    -0.248 NA
ATOM     16  C   UNL A   1      39.352  26.799  28.027  1.00  0.00     0.031 C 
ATOM     17  C   UNL A   1      40.054  31.323  30.155  1.00  0.00     0.029 A 
ATOM     18  N   UNL A   1      41.859  30.038  29.876  1.00  0.00    -0.354 N 
ATOM     19  C   UNL A   1      41.506  26.047  28.219  1.00  0.00     0.074 A 
ATOM     20  C   UNL A   1      40.146  25.753  27.823  1.00  0.00     0.031 C 
ATOM     21  C   UNL A   1      41.115  32.052  30.518  1.00  0.00     0.029 A 
ATOM     22  C   UNL A   1      42.311  31.233  30.389  1.00  0.00     0.049 A 
ATOM     23  H   UNL A   1      42.450  29.276  29.682  1.00  0.00     0.167 HD
ATOM     24  C   UNL A   1      42.545  25.187  28.103  1.00  0.00     0.031 A 
ATOM     25  C   UNL A   1      43.546  31.624  30.751  1.00  0.00     0.031 A 
ATOM     26  C   UNL A   1      43.900  25.506  28.474  1.00  0.00     0.049 A 
ATOM     27  C   UNL A   1      44.672  30.646  30.608  1.00  0.00     0.074 A 
ATOM     28  C   UNL A   1      45.032  24.717  28.351  1.00  0.00     0.029 A 
ATOM     29  N   UNL A   1      44.307  26.704  29.042  1.00  0.00    -0.354 N 
ATOM     30  N   UNL A   1      44.647  29.437  30.101  1.00  0.00    -0.248 NA
ATOM     31  C   UNL A   1      45.985  31.073  31.104  1.00  0.00     0.031 C 
ATOM     32  C   UNL A   1      46.113  25.418  28.893  1.00  0.00     0.029 A 
ATOM     33  C   UNL A   1      45.666  26.663  29.306  1.00  0.00     0.049 A 
ATOM     34  H   UNL A   1      43.719  27.470  29.228  1.00  0.00     0.167 HD
ATOM     35  C   UNL A   1      45.939  28.950  30.232  1.00  0.00     0.074 A 
ATOM     36  C   UNL A   1      46.729  30.012  30.823  1.00  0.00     0.031 C 
ATOM     37  C   UNL A   1      46.425  27.727  29.910  1.00  0.00     0.031 A 
BRANCH  24  38
ATOM     38  C   UNL A   1      42.272  23.799  27.585  1.00  0.00    -0.014 A 
ATOM     39  C   UNL A   1      42.342  23.499  26.214  1.00  0.00     0.010 A 
ATOM     40  C   UNL A   1      42.043  22.756  28.504  1.00  0.00     0.010 A 
ATOM     41  C   UNL A   1      42.182  22.182  25.771  1.00  0.00     0.020 A 
ATOM     42  C   UNL A   1      41.903  21.437  28.066  1.00  0.00     0.020 A 
ATOM     43  C   UNL A   1      41.968  21.157  26.699  1.00  0.00     0.054 A 
BRANCH  43  44
ATOM     44  S   UNL A   1      41.836  19.449  26.102  1.00  0.00     0.124 S 
ATOM     45  O   UNL A   1      42.305  18.689  27.259  1.00  0.00    -0.237 OA
ATOM     46  O   UNL A   1      40.412  19.322  25.805  1.00  0.00    -0.237 OA
ATOM     47  O   UNL A   1      42.718  19.417  24.938  1.00  0.00    -0.744 OA
ENDBRANCH  43  44
ENDBRANCH  24  38
BRANCH  25  48
ATOM     48  C   UNL A   1      43.754  32.967  31.355  1.00  0.00    -0.014 A 
ATOM     49  C   UNL A   1      43.682  33.160  32.745  1.00  0.00     0.010 A 
ATOM     50  C   UNL A   1      44.041  34.069  30.526  1.00  0.00     0.010 A 
ATOM     51  C   UNL A   1      43.878  34.433  33.292  1.00  0.00     0.020 A 
ATOM     52  C   UNL A   1      44.271  35.332  31.070  1.00  0.00     0.020 A 
ATOM     53  C   UNL A   1      44.170  35.510  32.450  1.00  0.00     0.054 A 
BRANCH  53  54
ATOM     54  S   UNL A   1      44.460  37.148  33.176  1.00  0.00     0.124 S 
ATOM     55  O   UNL A   1      43.115  37.540  33.580  1.00  0.00    -0.237 OA
ATOM     56  O   UNL A   1      45.390  36.855  34.264  1.00  0.00    -0.237 OA
ATOM     57  O   UNL A   1      45.031  37.912  32.068  1.00  0.00    -0.744 OA
ENDBRANCH  53  54
ENDBRANCH  25  48
BRANCH  37  58
ATOM     58  C   UNL A   1      47.878  27.483  30.199  1.00  0.00    -0.014 A 
ATOM     59  C   UNL A   1      48.280  26.928  31.426  1.00  0.00     0.010 A 
ATOM     60  C   UNL A   1      48.846  27.788  29.226  1.00  0.00     0.010 A 
ATOM     61  C   UNL A   1      49.634  26.711  31.689  1.00  0.00     0.020 A 
ATOM     62  C   UNL A   1      50.198  27.550  29.478  1.00  0.00     0.020 A 
ATOM     63  C   UNL A   1      50.584  27.028  30.714  1.00  0.00     0.054 A 
BRANCH  63  64
ATOM     64  S   UNL A   1      52.335  26.709  31.066  1.00  0.00     0.124 S 
ATOM     65  O   UNL A   1      52.279  25.406  31.722  1.00  0.00    -0.237 OA
ATOM     66  O   UNL A   1      52.938  26.719  29.736  1.00  0.00    -0.237 OA
ATOM     67  O   UNL A   1      52.721  27.825  31.927  1.00  0.00    -0.744 OA
ENDBRANCH  63  64
ENDBRANCH  37  58
ENDBRANCH  11  12
ENDBRANCH   4   6
ENDBRANCH   1   2
BRANCH   1  68
ATOM     68  C   UNL A   1      32.286  27.590  26.978  1.00  0.00     0.042 C 
BRANCH  68  69
ATOM     69  C   UNL A   1      32.402  26.365  26.090  1.00  0.00     0.117 C 
BRANCH  69  70
ATOM     70  N   UNL A   1      33.718  25.751  26.117  1.00  0.00    -0.354 N 
ATOM     71  C   UNL A   1      34.321  24.935  25.208  1.00  0.00     0.247 C 
ATOM     72  H   UNL A   1      34.257  25.957  26.914  1.00  0.00     0.163 HD
ATOM     73  O   UNL A   1      35.558  24.936  25.206  1.00  0.00    -0.272 OA
BRANCH  71  74
ATOM     74  C   UNL A   1      33.534  24.064  24.201  1.00  0.00     0.203 C 
BRANCH  74  75
ATOM     75  N   UNL A   1      33.699  24.431  22.793  1.00  0.00    -0.335 N 
ATOM     76  C   UNL A   1      33.242  25.428  21.981  1.00  0.00     0.271 C 
ATOM     77  H   UNL A   1      34.284  23.802  22.312  1.00  0.00     0.165 HD
ATOM     78  O   UNL A   1      33.222  25.202  20.770  1.00  0.00    -0.267 OA
BRANCH  76  79
ATOM     79  C   UNL A   1      32.795  26.697  22.523  1.00  0.00     0.139 A 
ATOM     80  C   UNL A   1      31.465  27.080  22.551  1.00  0.00     0.100 A 
ATOM     81  N   UNL A   1      33.686  27.684  22.929  1.00  0.00    -0.240 NA
ATOM     82  S   UNL A   1      31.316  28.661  23.191  1.00  0.00    -0.130 S 
ATOM     83  C   UNL A   1      33.022  28.752  23.306  1.00  0.00     0.176 A 
ENDBRANCH  76  79
ENDBRANCH  74  75
BRANCH  74  84
ATOM     84  C   UNL A   1      33.285  22.607  24.591  1.00  0.00    -0.004 A 
ATOM     85  C   UNL A   1      34.304  21.696  24.209  1.00  0.00     0.007 A 
ATOM     86  C   UNL A   1      32.161  22.081  25.280  1.00  0.00     0.061 A 
ATOM     87  C   UNL A   1      34.229  20.332  24.488  1.00  0.00     0.000 A 
ATOM     88  C   UNL A   1      32.111  20.690  25.550  1.00  0.00     0.013 A 
ATOM     89  C   UNL A   1      33.129  19.828  25.160  1.00  0.00     0.001 A 
BRANCH  86  90
ATOM     90  C   UNL A   1      31.009  22.895  25.825  1.00  0.00     0.416 C 
ATOM     91  F   UNL A   1      31.319  23.628  26.925  1.00  0.00    -0.166 F 
ATOM     92  F   UNL A   1      30.510  23.802  24.933  1.00  0.00    -0.166 F 
ATOM     93  F   UNL A   1      29.949  22.115  26.162  1.00  0.00    -0.166 F 
ENDBRANCH  86  90
ENDBRANCH  74  84
ENDBRANCH  71  74
ENDBRANCH  69  70
ENDBRANCH  68  69
ENDBRANCH   1  68
TORSDOF 17
ENDMDL
MODEL 3
REMARK VINA RESULT:     -10.7      0.610      8.140
REMARK SMILES O=C(NCCCNC(=O)[C@@H](NC(=O)c1cscn1)c1ccccc1C(F)(F)F)c1ccc(-c2c3nc(c(-c4ccc(S(=O)(=O)[O-])cc4)c4ccc([nH]4)c(-c4ccc(S(=O)(=O)[O-])cc4)c4nc(c(-c5ccc(S(=O)(=O)[O-])cc5)c5ccc2[nH]5)C=C4)C=C3)cc1
REMARK SMILES IDX 4 1 3 2 1 3 2 4 29 6 30 7 88 8 31 9 87 10 32 11 33 12 34 13
REMARK SMILES IDX 81 14 35 15 86 16 80 17 82 18 36 19 85 20 79 21 78 22 37 24
REMARK SMILES IDX 67 25 48 26 66 27 49 28 52 29 65 30 83 31 50 32 51 33 64 35
REMARK SMILES IDX 84 36 53 37 38 38 39 39 47 40 40 41 46 42 41 43 42 44 43 45
REMARK SMILES IDX 44 46 45 47 68 48 69 49 77 50 70 51 76 52 71 53 72 54 73 55
REMARK SMILES IDX 74 56 75 57 54 58 55 59 63 60 56 61 62 62 57 63 58 64 59 65
REMARK SMILES IDX 60 66 61 67 5 68 6 69 7 70 8 71 9 73 10 74 11 75 12 76 13 78
REMARK SMILES IDX 14 79 15 80 18 81 16 82 17 83 19 84 20 85 24 86 21 87 23 88
REMARK SMILES IDX 22 89 25 90 26 91 27 92 28 93
REMARK H PARENT 3 5 82 23 52 34 7 72 11 77
REMARK Flexibility Score: inf
ROOT
ATOM      1  C   UNL A   1      33.844  27.801  26.661  1.00  0.00     0.118 C 
ENDROOT
BRANCH   1   2
ATOM      2  N   UNL A   1      33.505  29.174  27.023  1.00  0.00    -0.352 N 
ATOM      3  O   UNL A   1      33.661  31.184  28.028  1.00  0.00    -0.269 OA
ATOM      4  C   UNL A   1      34.218  30.139  27.700  1.00  0.00     0.251 C 
ATOM      5  H   UNL A   1      32.610  29.461  26.732  1.00  0.00     0.163 HD
BRANCH   4   6
ATOM      6  C   UNL A   1      35.632  29.909  28.067  1.00  0.00     0.039 A 
ATOM      7  C   UNL A   1      36.643  30.155  27.148  1.00  0.00     0.014 A 
ATOM      8  C   UNL A   1      35.964  29.460  29.350  1.00  0.00     0.014 A 
ATOM      9  C   UNL A   1      37.933  29.726  27.405  1.00  0.00     0.010 A 
ATOM     10  C   UNL A   1      37.301  29.188  29.671  1.00  0.00     0.010 A 
ATOM     11  C   UNL A   1      38.293  29.283  28.686  1.00  0.00    -0.014 A 
BRANCH  11  12
ATOM     12  C   UNL A   1      39.736  29.047  28.955  1.00  0.00     0.031 A 
ATOM     13  C   UNL A   1      40.590  30.072  29.649  1.00  0.00     0.074 A 
ATOM     14  C   UNL A   1      40.244  27.839  28.630  1.00  0.00     0.049 A 
ATOM     15  N   UNL A   1      41.845  29.977  30.006  1.00  0.00    -0.248 NA
ATOM     16  C   UNL A   1      39.973  31.368  29.977  1.00  0.00     0.031 C 
ATOM     17  C   UNL A   1      39.505  26.774  27.937  1.00  0.00     0.029 A 
ATOM     18  N   UNL A   1      41.468  27.274  28.878  1.00  0.00    -0.354 N 
ATOM     19  C   UNL A   1      42.181  31.207  30.560  1.00  0.00     0.074 A 
ATOM     20  C   UNL A   1      40.997  32.036  30.497  1.00  0.00     0.031 C 
ATOM     21  C   UNL A   1      40.252  25.663  27.905  1.00  0.00     0.029 A 
ATOM     22  C   UNL A   1      41.557  25.961  28.474  1.00  0.00     0.049 A 
ATOM     23  H   UNL A   1      42.210  27.761  29.303  1.00  0.00     0.167 HD
ATOM     24  C   UNL A   1      43.373  31.602  31.068  1.00  0.00     0.031 A 
ATOM     25  C   UNL A   1      42.585  25.095  28.521  1.00  0.00     0.031 A 
ATOM     26  C   UNL A   1      44.534  30.754  31.150  1.00  0.00     0.049 A 
ATOM     27  C   UNL A   1      43.888  25.567  29.091  1.00  0.00     0.074 A 
ATOM     28  C   UNL A   1      45.775  31.048  31.691  1.00  0.00     0.029 A 
ATOM     29  N   UNL A   1      44.602  29.452  30.680  1.00  0.00    -0.354 N 
ATOM     30  N   UNL A   1      44.173  26.727  29.632  1.00  0.00    -0.248 NA
ATOM     31  C   UNL A   1      45.013  24.626  29.035  1.00  0.00     0.031 C 
ATOM     32  C   UNL A   1      46.608  29.942  31.499  1.00  0.00     0.029 A 
ATOM     33  C   UNL A   1      45.873  28.941  30.886  1.00  0.00     0.049 A 
ATOM     34  H   UNL A   1      43.858  28.962  30.262  1.00  0.00     0.167 HD
ATOM     35  C   UNL A   1      45.517  26.662  29.968  1.00  0.00     0.074 A 
ATOM     36  C   UNL A   1      45.974  25.333  29.611  1.00  0.00     0.031 C 
ATOM     37  C   UNL A   1      46.306  27.621  30.506  1.00  0.00     0.031 A 
BRANCH  24  38
ATOM     38  C   UNL A   1      43.511  33.023  31.547  1.00  0.00    -0.014 A 
ATOM     39  C   UNL A   1      43.289  33.371  32.891  1.00  0.00     0.010 A 
ATOM     40  C   UNL A   1      43.973  34.008  30.653  1.00  0.00     0.010 A 
ATOM     41  C   UNL A   1      43.522  34.679  33.330  1.00  0.00     0.020 A 
ATOM     42  C   UNL A   1      44.225  35.311  31.091  1.00  0.00     0.020 A 
ATOM     43  C   UNL A   1      43.992  35.640  32.429  1.00  0.00     0.054 A 
BRANCH  43  44
ATOM     44  S   UNL A   1      44.354  37.309  33.041  1.00  0.00     0.124 S 
ATOM     45  O   UNL A   1      43.240  37.541  33.958  1.00  0.00    -0.237 OA
ATOM     46  O   UNL A   1      45.661  37.144  33.671  1.00  0.00    -0.237 OA
ATOM     47  O   UNL A   1      44.347  38.132  31.834  1.00  0.00    -0.744 OA
ENDBRANCH  43  44
ENDBRANCH  24  38
BRANCH  25  48
ATOM     48  C   UNL A   1      42.436  23.733  27.942  1.00  0.00    -0.014 A 
ATOM     49  C   UNL A   1      41.953  22.663  28.714  1.00  0.00     0.010 A 
ATOM     50  C   UNL A   1      42.769  23.507  26.593  1.00  0.00     0.010 A 
ATOM     51  C   UNL A   1      41.822  21.389  28.150  1.00  0.00     0.020 A 
ATOM     52  C   UNL A   1      42.609  22.247  26.018  1.00  0.00     0.020 A 
ATOM     53  C   UNL A   1      42.152  21.189  26.806  1.00  0.00     0.054 A 
BRANCH  53  54
ATOM     54  S   UNL A   1      41.942  19.542  26.077  1.00  0.00     0.124 S 
ATOM     55  O   UNL A   1      42.759  19.640  24.872  1.00  0.00    -0.237 OA
ATOM     56  O   UNL A   1      42.456  18.661  27.122  1.00  0.00    -0.237 OA
ATOM     57  O   UNL A   1      40.500  19.453  25.852  1.00  0.00    -0.744 OA
ENDBRANCH  53  54
ENDBRANCH  25  48
BRANCH  37  58
ATOM     58  C   UNL A   1      47.746  27.259  30.733  1.00  0.00    -0.014 A 
ATOM     59  C   UNL A   1      48.718  27.544  29.759  1.00  0.00     0.010 A 
ATOM     60  C   UNL A   1      48.133  26.650  31.941  1.00  0.00     0.010 A 
ATOM     61  C   UNL A   1      50.053  27.197  29.976  1.00  0.00     0.020 A 
ATOM     62  C   UNL A   1      49.470  26.324  32.169  1.00  0.00     0.020 A 
ATOM     63  C   UNL A   1      50.419  26.585  31.179  1.00  0.00     0.054 A 
BRANCH  63  64
ATOM     64  S   UNL A   1      52.163  26.170  31.450  1.00  0.00     0.124 S 
ATOM     65  O   UNL A   1      52.589  27.231  32.359  1.00  0.00    -0.237 OA
ATOM     66  O   UNL A   1      52.090  24.833  32.033  1.00  0.00    -0.237 OA
ATOM     67  O   UNL A   1      52.744  26.228  30.110  1.00  0.00    -0.744 OA
ENDBRANCH  63  64
ENDBRANCH  37  58
ENDBRANCH  11  12
ENDBRANCH   4   6
ENDBRANCH   1   2
BRANCH   1  68
ATOM     68  C   UNL A   1      32.632  26.933  26.352  1.00  0.00     0.042 C 
BRANCH  68  69
ATOM     69  C   UNL A   1      32.925  25.447  26.443  1.00  0.00     0.117 C 
BRANCH  69  70
ATOM     70  N   UNL A   1      31.731  24.620  26.464  1.00  0.00    -0.354 N 
ATOM     71  C   UNL A   1      31.153  23.893  25.468  1.00  0.00     0.247 C 
ATOM     72  H   UNL A   1      31.268  24.578  27.332  1.00  0.00     0.163 HD
ATOM     73  O   UNL A   1      30.465  22.927  25.821  1.00  0.00    -0.272 OA
BRANCH  71  74
ATOM     74  C   UNL A   1      31.350  24.211  23.967  1.00  0.00     0.203 C 
BRANCH  74  75
ATOM     75  N   UNL A   1      31.286  23.056  23.068  1.00  0.00    -0.335 N 
ATOM     76  C   UNL A   1      32.055  21.953  22.835  1.00  0.00     0.271 C 
ATOM     77  H   UNL A   1      30.491  23.082  22.487  1.00  0.00     0.165 HD
ATOM     78  O   UNL A   1      31.947  21.416  21.732  1.00  0.00    -0.267 OA
BRANCH  76  79
ATOM     79  C   UNL A   1      32.963  21.440  23.843  1.00  0.00     0.139 A 
ATOM     80  C   UNL A   1      34.201  22.004  24.102  1.00  0.00     0.100 A 
ATOM     81  N   UNL A   1      32.716  20.257  24.529  1.00  0.00    -0.240 NA
ATOM     82  S   UNL A   1      35.027  21.099  25.299  1.00  0.00    -0.130 S 
ATOM     83  C   UNL A   1      33.726  19.987  25.325  1.00  0.00     0.176 A 
ENDBRANCH  76  79
ENDBRANCH  74  75
BRANCH  74  84
ATOM     84  C   UNL A   1      30.889  25.586  23.484  1.00  0.00    -0.004 A 
ATOM     85  C   UNL A   1      29.588  25.969  23.902  1.00  0.00     0.007 A 
ATOM     86  C   UNL A   1      31.613  26.500  22.675  1.00  0.00     0.061 A 
ATOM     87  C   UNL A   1      29.019  27.192  23.545  1.00  0.00     0.000 A 
ATOM     88  C   UNL A   1      31.010  27.735  22.327  1.00  0.00     0.013 A 
ATOM     89  C   UNL A   1      29.732  28.077  22.755  1.00  0.00     0.001 A 
BRANCH  86  90
ATOM     90  C   UNL A   1      33.031  26.303  22.186  1.00  0.00     0.416 C 
ATOM     91  F   UNL A   1      33.170  25.304  21.277  1.00  0.00    -0.166 F 
ATOM     92  F   UNL A   1      33.557  27.405  21.575  1.00  0.00    -0.166 F 
ATOM     93  F   UNL A   1      33.886  26.025  23.205  1.00  0.00    -0.166 F 
ENDBRANCH  86  90
ENDBRANCH  74  84
ENDBRANCH  71  74
ENDBRANCH  69  70
ENDBRANCH  68  69
ENDBRANCH   1  68
TORSDOF 17
ENDMDL
