MODEL 1
REMARK VINA RESULT:     -11.0      0.000      0.000
REMARK SMILES O=C(NCCCNC(=O)c1cnc(-c2ccccc2Cl)nc1)c1ccc(-c2c3nc(c(-c4ccc(S(=O)(=O)[O-])cc4)c4ccc([nH]4)c(-c4ccc(S(=O)(=O)[O-])cc4)c4nc(c(-c5ccc(S(=O)(=O)[O-])cc5)c5ccc2[nH]5)C=C4)C=C3)cc1
REMARK SMILES IDX 4 1 3 2 1 3 2 4 23 6 24 7 82 8 25 9 81 10 26 11 27 12 28 13
REMARK SMILES IDX 75 14 29 15 80 16 74 17 76 18 30 19 79 20 73 21 72 22 31 24
REMARK SMILES IDX 61 25 42 26 60 27 43 28 46 29 59 30 77 31 44 32 45 33 58 35
REMARK SMILES IDX 78 36 47 37 32 38 33 39 41 40 34 41 40 42 35 43 36 44 37 45
REMARK SMILES IDX 38 46 39 47 62 48 63 49 71 50 64 51 70 52 65 53 66 54 67 55
REMARK SMILES IDX 68 56 69 57 48 58 49 59 57 60 50 61 56 62 51 63 52 64 53 65
REMARK SMILES IDX 54 66 55 67 5 68 6 69 7 70 8 71 9 73 10 74 11 75 22 76 12 77
REMARK SMILES IDX 21 78 13 79 14 80 15 81 19 82 16 83 18 84 20 85 17 86
REMARK H PARENT 3 5 76 23 46 34 7 72
REMARK Flexibility Score: inf
ROOT
ATOM      1  C   UNL A   1      34.515  32.659  28.361  1.00  0.00     0.118 C 
ENDROOT
BRANCH   1   2
ATOM      2  N   UNL A   1      33.882  31.385  28.044  1.00  0.00    -0.352 N 
ATOM      3  O   UNL A   1      33.714  29.238  27.412  1.00  0.00    -0.269 OA
ATOM      4  C   UNL A   1      34.423  30.135  27.863  1.00  0.00     0.251 C 
ATOM      5  H   UNL A   1      32.904  31.427  27.945  1.00  0.00     0.163 HD
BRANCH   4   6
ATOM      6  C   UNL A   1      35.843  29.866  28.183  1.00  0.00     0.039 A 
ATOM      7  C   UNL A   1      36.850  30.084  27.242  1.00  0.00     0.014 A 
ATOM      8  C   UNL A   1      36.178  29.421  29.467  1.00  0.00     0.014 A 
ATOM      9  C   UNL A   1      38.158  29.705  27.524  1.00  0.00     0.010 A 
ATOM     10  C   UNL A   1      37.509  29.129  29.780  1.00  0.00     0.010 A 
ATOM     11  C   UNL A   1      38.506  29.227  28.798  1.00  0.00    -0.014 A 
BRANCH  11  12
ATOM     12  C   UNL A   1      39.921  28.876  29.082  1.00  0.00     0.031 A 
ATOM     13  C   UNL A   1      40.817  29.815  29.844  1.00  0.00     0.074 A 
ATOM     14  C   UNL A   1      40.388  27.676  28.684  1.00  0.00     0.049 A 
ATOM     15  N   UNL A   1      42.058  29.639  30.227  1.00  0.00    -0.248 NA
ATOM     16  C   UNL A   1      40.257  31.123  30.217  1.00  0.00     0.031 C 
ATOM     17  C   UNL A   1      39.620  26.678  27.935  1.00  0.00     0.029 A 
ATOM     18  N   UNL A   1      41.607  27.078  28.877  1.00  0.00    -0.354 N 
ATOM     19  C   UNL A   1      42.434  30.818  30.860  1.00  0.00     0.074 A 
ATOM     20  C   UNL A   1      41.297  31.712  30.790  1.00  0.00     0.031 C 
ATOM     21  C   UNL A   1      40.361  25.570  27.789  1.00  0.00     0.029 A 
ATOM     22  C   UNL A   1      41.676  25.799  28.378  1.00  0.00     0.049 A 
ATOM     23  H   UNL A   1      42.361  27.522  29.329  1.00  0.00     0.167 HD
ATOM     24  C   UNL A   1      43.615  31.129  31.448  1.00  0.00     0.031 A 
ATOM     25  C   UNL A   1      42.681  24.904  28.391  1.00  0.00     0.031 A 
ATOM     26  C   UNL A   1      44.743  30.237  31.521  1.00  0.00     0.049 A 
ATOM     27  C   UNL A   1      43.982  25.274  29.039  1.00  0.00     0.074 A 
ATOM     28  C   UNL A   1      45.971  30.448  32.124  1.00  0.00     0.029 A 
ATOM     29  N   UNL A   1      44.784  28.965  30.969  1.00  0.00    -0.354 N 
ATOM     30  N   UNL A   1      44.307  26.384  29.656  1.00  0.00    -0.248 NA
ATOM     31  C   UNL A   1      45.052  24.268  28.994  1.00  0.00     0.031 C 
ATOM     32  C   UNL A   1      46.769  29.319  31.900  1.00  0.00     0.029 A 
ATOM     33  C   UNL A   1      46.021  28.386  31.201  1.00  0.00     0.049 A 
ATOM     34  H   UNL A   1      44.042  28.535  30.485  1.00  0.00     0.167 HD
ATOM     35  C   UNL A   1      45.614  26.205  30.091  1.00  0.00     0.074 A 
ATOM     36  C   UNL A   1      46.014  24.874  29.677  1.00  0.00     0.031 C 
ATOM     37  C   UNL A   1      46.409  27.064  30.775  1.00  0.00     0.031 A 
BRANCH  24  38
ATOM     38  C   UNL A   1      43.756  32.513  32.025  1.00  0.00    -0.014 A 
ATOM     39  C   UNL A   1      44.235  33.585  31.251  1.00  0.00     0.010 A 
ATOM     40  C   UNL A   1      43.391  32.748  33.363  1.00  0.00     0.010 A 
ATOM     41  C   UNL A   1      44.400  34.852  31.819  1.00  0.00     0.020 A 
ATOM     42  C   UNL A   1      43.531  34.018  33.929  1.00  0.00     0.020 A 
ATOM     43  C   UNL A   1      44.057  35.057  33.159  1.00  0.00     0.054 A 
BRANCH  43  44
ATOM     44  S   UNL A   1      44.293  36.704  33.881  1.00  0.00     0.124 S 
ATOM     45  O   UNL A   1      44.917  36.384  35.163  1.00  0.00    -0.237 OA
ATOM     46  O   UNL A   1      45.162  37.363  32.909  1.00  0.00    -0.237 OA
ATOM     47  O   UNL A   1      42.938  37.244  33.965  1.00  0.00    -0.744 OA
ENDBRANCH  43  44
ENDBRANCH  24  38
BRANCH  25  48
ATOM     48  C   UNL A   1      42.475  23.565  27.779  1.00  0.00    -0.014 A 
ATOM     49  C   UNL A   1      42.990  23.279  26.502  1.00  0.00     0.010 A 
ATOM     50  C   UNL A   1      41.813  22.550  28.495  1.00  0.00     0.010 A 
ATOM     51  C   UNL A   1      42.846  22.002  25.953  1.00  0.00     0.020 A 
ATOM     52  C   UNL A   1      41.690  21.266  27.959  1.00  0.00     0.020 A 
ATOM     53  C   UNL A   1      42.203  21.002  26.688  1.00  0.00     0.054 A 
BRANCH  53  54
ATOM     54  S   UNL A   1      42.104  19.330  25.992  1.00  0.00     0.124 S 
ATOM     55  O   UNL A   1      42.640  18.517  27.080  1.00  0.00    -0.237 OA
ATOM     56  O   UNL A   1      40.673  19.177  25.733  1.00  0.00    -0.237 OA
ATOM     57  O   UNL A   1      42.939  19.408  24.796  1.00  0.00    -0.744 OA
ENDBRANCH  53  54
ENDBRANCH  25  48
BRANCH  37  58
ATOM     58  C   UNL A   1      47.784  26.579  31.144  1.00  0.00    -0.014 A 
ATOM     59  C   UNL A   1      48.900  26.873  30.342  1.00  0.00     0.010 A 
ATOM     60  C   UNL A   1      47.963  25.844  32.329  1.00  0.00     0.010 A 
ATOM     61  C   UNL A   1      50.169  26.411  30.702  1.00  0.00     0.020 A 
ATOM     62  C   UNL A   1      49.233  25.400  32.705  1.00  0.00     0.020 A 
ATOM     63  C   UNL A   1      50.326  25.674  31.880  1.00  0.00     0.054 A 
BRANCH  63  64
ATOM     64  S   UNL A   1      51.986  25.109  32.346  1.00  0.00     0.124 S 
ATOM     65  O   UNL A   1      51.811  23.660  32.393  1.00  0.00    -0.237 OA
ATOM     66  O   UNL A   1      52.816  25.606  31.252  1.00  0.00    -0.237 OA
ATOM     67  O   UNL A   1      52.219  25.751  33.638  1.00  0.00    -0.744 OA
ENDBRANCH  63  64
ENDBRANCH  37  58
ENDBRANCH  11  12
ENDBRANCH   4   6
ENDBRANCH   1   2
BRANCH   1  68
ATOM     68  C   UNL A   1      33.504  33.778  28.590  1.00  0.00     0.042 C 
BRANCH  68  69
ATOM     69  C   UNL A   1      34.101  35.032  29.215  1.00  0.00     0.118 C 
BRANCH  69  70
ATOM     70  N   UNL A   1      33.098  35.849  29.892  1.00  0.00    -0.352 N 
ATOM     71  C   UNL A   1      32.790  35.923  31.227  1.00  0.00     0.254 C 
ATOM     72  H   UNL A   1      32.564  36.432  29.304  1.00  0.00     0.163 HD
ATOM     73  O   UNL A   1      31.788  36.517  31.611  1.00  0.00    -0.269 OA
BRANCH  71  74
ATOM     74  C   UNL A   1      33.658  35.278  32.206  1.00  0.00     0.076 A 
ATOM     75  C   UNL A   1      34.731  35.920  32.778  1.00  0.00     0.129 A 
ATOM     76  C   UNL A   1      33.442  33.986  32.616  1.00  0.00     0.129 A 
ATOM     77  N   UNL A   1      35.612  35.307  33.593  1.00  0.00    -0.236 NA
ATOM     78  N   UNL A   1      34.286  33.327  33.441  1.00  0.00    -0.236 NA
ATOM     79  C   UNL A   1      35.381  34.001  33.849  1.00  0.00     0.160 A 
BRANCH  79  80
ATOM     80  C   UNL A   1      36.422  33.285  34.594  1.00  0.00     0.038 A 
ATOM     81  C   UNL A   1      36.796  33.752  35.873  1.00  0.00     0.013 A 
ATOM     82  C   UNL A   1      37.129  32.181  34.078  1.00  0.00     0.052 A 
ATOM     83  C   UNL A   1      37.817  33.146  36.609  1.00  0.00     0.001 A 
ATOM     84  C   UNL A   1      38.151  31.572  34.821  1.00  0.00     0.021 A 
ATOM     85  Cl  UNL A   1      36.864  31.546  32.487  1.00  0.00    -0.084 Cl
ATOM     86  C   UNL A   1      38.494  32.053  36.082  1.00  0.00     0.002 A 
ENDBRANCH  79  80
ENDBRANCH  71  74
ENDBRANCH  69  70
ENDBRANCH  68  69
ENDBRANCH   1  68
TORSDOF 14
ENDMDL
MODEL 2
REMARK VINA RESULT:     -10.9      3.227      6.051
REMARK SMILES O=C(NCCCNC(=O)c1cnc(-c2ccccc2Cl)nc1)c1ccc(-c2c3nc(c(-c4ccc(S(=O)(=O)[O-])cc4)c4ccc([nH]4)c(-c4ccc(S(=O)(=O)[O-])cc4)c4nc(c(-c5ccc(S(=O)(=O)[O-])cc5)c5ccc2[nH]5)C=C4)C=C3)cc1
REMARK SMILES IDX 4 1 3 2 1 3 2 4 23 6 24 7 82 8 25 9 81 10 26 11 27 12 28 13
REMARK SMILES IDX 75 14 29 15 80 16 74 17 76 18 30 19 79 20 73 21 72 22 31 24
REMARK SMILES IDX 61 25 42 26 60 27 43 28 46 29 59 30 77 31 44 32 45 33 58 35
REMARK SMILES IDX 78 36 47 37 32 38 33 39 41 40 34 41 40 42 35 43 36 44 37 45
REMARK SMILES IDX 38 46 39 47 62 48 63 49 71 50 64 51 70 52 65 53 66 54 67 55
REMARK SMILES IDX 68 56 69 57 48 58 49 59 57 60 50 61 56 62 51 63 52 64 53 65
REMARK SMILES IDX 54 66 55 67 5 68 6 69 7 70 8 71 9 73 10 74 11 75 22 76 12 77
REMARK SMILES IDX 21 78 13 79 14 80 15 81 19 82 16 83 18 84 20 85 17 86
REMARK H PARENT 3 5 76 23 46 34 7 72
REMARK Flexibility Score: inf
ROOT
ATOM      1  C   UNL A   1      33.587  28.315  27.145  1.00  0.00     0.118 C 
ENDROOT
BRANCH   1   2
ATOM      2  N   UNL A   1      33.520  29.736  27.463  1.00  0.00    -0.352 N 
ATOM      3  O   UNL A   1      34.087  31.694  28.403  1.00  0.00    -0.269 OA
ATOM      4  C   UNL A   1      34.437  30.565  28.064  1.00  0.00     0.251 C 
ATOM      5  H   UNL A   1      32.679  30.175  27.202  1.00  0.00     0.163 HD
BRANCH   4   6
ATOM      6  C   UNL A   1      35.821  30.110  28.322  1.00  0.00     0.039 A 
ATOM      7  C   UNL A   1      36.192  29.593  29.563  1.00  0.00     0.014 A 
ATOM      8  C   UNL A   1      36.760  30.169  27.285  1.00  0.00     0.014 A 
ATOM      9  C   UNL A   1      37.526  29.291  29.819  1.00  0.00     0.010 A 
ATOM     10  C   UNL A   1      38.082  29.775  27.517  1.00  0.00     0.010 A 
ATOM     11  C   UNL A   1      38.486  29.373  28.799  1.00  0.00    -0.014 A 
BRANCH  11  12
ATOM     12  C   UNL A   1      39.894  28.998  29.092  1.00  0.00     0.031 A 
ATOM     13  C   UNL A   1      40.802  29.924  29.855  1.00  0.00     0.074 A 
ATOM     14  C   UNL A   1      40.343  27.788  28.701  1.00  0.00     0.049 A 
ATOM     15  N   UNL A   1      42.038  29.729  30.246  1.00  0.00    -0.248 NA
ATOM     16  C   UNL A   1      40.262  31.243  30.221  1.00  0.00     0.031 C 
ATOM     17  C   UNL A   1      39.561  26.802  27.951  1.00  0.00     0.029 A 
ATOM     18  N   UNL A   1      41.550  27.170  28.903  1.00  0.00    -0.354 N 
ATOM     19  C   UNL A   1      42.431  30.904  30.876  1.00  0.00     0.074 A 
ATOM     20  C   UNL A   1      41.309  31.816  30.798  1.00  0.00     0.031 C 
ATOM     21  C   UNL A   1      40.284  25.680  27.813  1.00  0.00     0.029 A 
ATOM     22  C   UNL A   1      41.599  25.889  28.409  1.00  0.00     0.049 A 
ATOM     23  H   UNL A   1      42.309  27.603  29.357  1.00  0.00     0.167 HD
ATOM     24  C   UNL A   1      43.613  31.195  31.470  1.00  0.00     0.031 A 
ATOM     25  C   UNL A   1      42.589  24.977  28.430  1.00  0.00     0.031 A 
ATOM     26  C   UNL A   1      44.725  30.285  31.552  1.00  0.00     0.049 A 
ATOM     27  C   UNL A   1      43.893  25.326  29.084  1.00  0.00     0.074 A 
ATOM     28  C   UNL A   1      45.953  30.476  32.162  1.00  0.00     0.029 A 
ATOM     29  N   UNL A   1      44.747  29.010  31.005  1.00  0.00    -0.354 N 
ATOM     30  N   UNL A   1      44.233  26.433  29.699  1.00  0.00    -0.248 NA
ATOM     31  C   UNL A   1      44.946  24.303  29.048  1.00  0.00     0.031 C 
ATOM     32  C   UNL A   1      46.733  29.334  31.946  1.00  0.00     0.029 A 
ATOM     33  C   UNL A   1      45.973  28.411  31.246  1.00  0.00     0.049 A 
ATOM     34  H   UNL A   1      44.001  28.592  30.518  1.00  0.00     0.167 HD
ATOM     35  C   UNL A   1      45.535  26.233  30.142  1.00  0.00     0.074 A 
ATOM     36  C   UNL A   1      45.914  24.894  29.735  1.00  0.00     0.031 C 
ATOM     37  C   UNL A   1      46.341  27.081  30.827  1.00  0.00     0.031 A 
BRANCH  24  38
ATOM     38  C   UNL A   1      43.776  32.580  32.043  1.00  0.00    -0.014 A 
ATOM     39  C   UNL A   1      44.255  33.645  31.261  1.00  0.00     0.010 A 
ATOM     40  C   UNL A   1      43.430  32.820  33.385  1.00  0.00     0.010 A 
ATOM     41  C   UNL A   1      44.439  34.911  31.825  1.00  0.00     0.020 A 
ATOM     42  C   UNL A   1      43.589  34.090  33.947  1.00  0.00     0.020 A 
ATOM     43  C   UNL A   1      44.115  35.122  33.169  1.00  0.00     0.054 A 
BRANCH  43  44
ATOM     44  S   UNL A   1      44.376  36.768  33.885  1.00  0.00     0.124 S 
ATOM     45  O   UNL A   1      45.835  36.848  33.930  1.00  0.00    -0.237 OA
ATOM     46  O   UNL A   1      43.731  37.650  32.915  1.00  0.00    -0.237 OA
ATOM     47  O   UNL A   1      43.716  36.689  35.185  1.00  0.00    -0.744 OA
ENDBRANCH  43  44
ENDBRANCH  24  38
BRANCH  25  48
ATOM     48  C   UNL A   1      42.363  23.639  27.821  1.00  0.00    -0.014 A 
ATOM     49  C   UNL A   1      42.791  23.373  26.510  1.00  0.00     0.010 A 
ATOM     50  C   UNL A   1      41.771  22.607  28.573  1.00  0.00     0.010 A 
ATOM     51  C   UNL A   1      42.631  22.097  25.960  1.00  0.00     0.020 A 
ATOM     52  C   UNL A   1      41.632  21.326  28.035  1.00  0.00     0.020 A 
ATOM     53  C   UNL A   1      42.058  21.081  26.729  1.00  0.00     0.054 A 
BRANCH  53  54
ATOM     54  S   UNL A   1      41.939  19.412  26.027  1.00  0.00     0.124 S 
ATOM     55  O   UNL A   1      42.757  19.531  24.823  1.00  0.00    -0.237 OA
ATOM     56  O   UNL A   1      42.495  18.579  27.091  1.00  0.00    -0.237 OA
ATOM     57  O   UNL A   1      40.507  19.240  25.798  1.00  0.00    -0.744 OA
ENDBRANCH  53  54
ENDBRANCH  25  48
BRANCH  37  58
ATOM     58  C   UNL A   1      47.705  26.574  31.205  1.00  0.00    -0.014 A 
ATOM     59  C   UNL A   1      48.806  26.737  30.348  1.00  0.00     0.010 A 
ATOM     60  C   UNL A   1      47.890  25.952  32.453  1.00  0.00     0.010 A 
ATOM     61  C   UNL A   1      50.066  26.256  30.718  1.00  0.00     0.020 A 
ATOM     62  C   UNL A   1      49.152  25.491  32.836  1.00  0.00     0.020 A 
ATOM     63  C   UNL A   1      50.229  25.632  31.958  1.00  0.00     0.054 A 
BRANCH  63  64
ATOM     64  S   UNL A   1      51.877  25.043  32.433  1.00  0.00     0.124 S 
ATOM     65  O   UNL A   1      52.015  25.582  33.783  1.00  0.00    -0.237 OA
ATOM     66  O   UNL A   1      51.739  23.591  32.347  1.00  0.00    -0.237 OA
ATOM     67  O   UNL A   1      52.759  25.639  31.431  1.00  0.00    -0.744 OA
ENDBRANCH  63  64
ENDBRANCH  37  58
ENDBRANCH  11  12
ENDBRANCH   4   6
ENDBRANCH   1   2
BRANCH   1  68
ATOM     68  C   UNL A   1      32.213  27.700  26.908  1.00  0.00     0.042 C 
BRANCH  68  69
ATOM     69  C   UNL A   1      31.656  27.951  25.512  1.00  0.00     0.118 C 
BRANCH  69  70
ATOM     70  N   UNL A   1      30.801  26.861  25.049  1.00  0.00    -0.352 N 
ATOM     71  C   UNL A   1      31.133  25.570  24.725  1.00  0.00     0.254 C 
ATOM     72  H   UNL A   1      29.846  27.086  24.959  1.00  0.00     0.163 HD
ATOM     73  O   UNL A   1      30.327  24.832  24.168  1.00  0.00    -0.269 OA
BRANCH  71  74
ATOM     74  C   UNL A   1      32.467  25.067  25.033  1.00  0.00     0.076 A 
ATOM     75  C   UNL A   1      33.551  25.304  24.221  1.00  0.00     0.129 A 
ATOM     76  C   UNL A   1      32.713  24.330  26.165  1.00  0.00     0.129 A 
ATOM     77  N   UNL A   1      34.763  24.752  24.426  1.00  0.00    -0.236 NA
ATOM     78  N   UNL A   1      33.912  23.764  26.425  1.00  0.00    -0.236 NA
ATOM     79  C   UNL A   1      34.880  23.947  25.505  1.00  0.00     0.160 A 
BRANCH  79  80
ATOM     80  C   UNL A   1      36.141  23.211  25.640  1.00  0.00     0.038 A 
ATOM     81  C   UNL A   1      37.299  23.903  26.058  1.00  0.00     0.013 A 
ATOM     82  C   UNL A   1      36.287  21.848  25.312  1.00  0.00     0.052 A 
ATOM     83  C   UNL A   1      38.541  23.270  26.154  1.00  0.00     0.001 A 
ATOM     84  C   UNL A   1      37.533  21.215  25.413  1.00  0.00     0.021 A 
ATOM     85  Cl  UNL A   1      34.991  20.881  24.689  1.00  0.00    -0.084 Cl
ATOM     86  C   UNL A   1      38.657  21.923  25.833  1.00  0.00     0.002 A 
ENDBRANCH  79  80
ENDBRANCH  71  74
ENDBRANCH  69  70
ENDBRANCH  68  69
ENDBRANCH   1  68
TORSDOF 14
ENDMDL
MODEL 3
REMARK VINA RESULT:     -10.8      4.258     11.088
REMARK SMILES O=C(NCCCNC(=O)c1cnc(-c2ccccc2Cl)nc1)c1ccc(-c2c3nc(c(-c4ccc(S(=O)(=O)[O-])cc4)c4ccc([nH]4)c(-c4ccc(S(=O)(=O)[O-])cc4)c4nc(c(-c5ccc(S(=O)(=O)[O-])cc5)c5ccc2[nH]5)C=C4)C=C3)cc1
REMARK SMILES IDX 4 1 3 2 1 3 2 4 23 6 24 7 82 8 25 9 81 10 26 11 27 12 28 13
REMARK SMILES IDX 75 14 29 15 80 16 74 17 76 18 30 19 79 20 73 21 72 22 31 24
REMARK SMILES IDX 61 25 42 26 60 27 43 28 46 29 59 30 77 31 44 32 45 33 58 35
REMARK SMILES IDX 78 36 47 37 32 38 33 39 41 40 34 41 40 42 35 43 36 44 37 45
REMARK SMILES IDX 38 46 39 47 62 48 63 49 71 50 64 51 70 52 65 53 66 54 67 55
REMARK SMILES IDX 68 56 69 57 48 58 49 59 57 60 50 61 56 62 51 63 52 64 53 65
REMARK SMILES IDX 54 66 55 67 5 68 6 69 7 70 8 71 9 73 10 74 11 75 22 76 12 77
REMARK SMILES IDX 21 78 13 79 14 80 15 81 19 82 16 83 18 84 20 85 17 86
REMARK H PARENT 3 5 76 23 46 34 7 72
REMARK Flexibility Score: inf
ROOT
ATOM      1  C   UNL A   1      36.504  23.613  25.725  1.00  0.00     0.118 C 
ENDROOT
BRANCH   1   2
ATOM      2  N   UNL A   1      37.640  22.711  25.869  1.00  0.00    -0.352 N 
ATOM      3  O   UNL A   1      39.769  22.067  26.171  1.00  0.00    -0.269 OA
ATOM      4  C   UNL A   1      38.918  22.943  26.316  1.00  0.00     0.251 C 
ATOM      5  H   UNL A   1      37.460  21.781  25.603  1.00  0.00     0.163 HD
BRANCH   4   6
ATOM      6  C   UNL A   1      39.283  24.231  26.947  1.00  0.00     0.039 A 
ATOM      7  C   UNL A   1      39.965  25.217  26.234  1.00  0.00     0.014 A 
ATOM      8  C   UNL A   1      38.899  24.473  28.271  1.00  0.00     0.014 A 
ATOM      9  C   UNL A   1      40.407  26.365  26.884  1.00  0.00     0.010 A 
ATOM     10  C   UNL A   1      39.263  25.669  28.896  1.00  0.00     0.010 A 
ATOM     11  C   UNL A   1      40.057  26.608  28.221  1.00  0.00    -0.014 A 
BRANCH  11  12
ATOM     12  C   UNL A   1      40.504  27.867  28.873  1.00  0.00     0.031 A 
ATOM     13  C   UNL A   1      41.929  28.045  29.324  1.00  0.00     0.074 A 
ATOM     14  C   UNL A   1      39.621  28.875  29.021  1.00  0.00     0.049 A 
ATOM     15  N   UNL A   1      42.498  29.098  29.856  1.00  0.00    -0.248 NA
ATOM     16  C   UNL A   1      42.831  26.894  29.166  1.00  0.00     0.031 C 
ATOM     17  C   UNL A   1      38.211  28.824  28.629  1.00  0.00     0.029 A 
ATOM     18  N   UNL A   1      39.783  30.145  29.512  1.00  0.00    -0.354 N 
ATOM     19  C   UNL A   1      43.812  28.730  30.121  1.00  0.00     0.074 A 
ATOM     20  C   UNL A   1      43.951  27.348  29.711  1.00  0.00     0.031 C 
ATOM     21  C   UNL A   1      37.653  30.027  28.834  1.00  0.00     0.029 A 
ATOM     22  C   UNL A   1      38.648  30.915  29.427  1.00  0.00     0.049 A 
ATOM     23  H   UNL A   1      40.631  30.474  29.889  1.00  0.00     0.167 HD
ATOM     24  C   UNL A   1      44.813  29.474  30.653  1.00  0.00     0.031 A 
ATOM     25  C   UNL A   1      38.424  32.193  29.784  1.00  0.00     0.031 A 
ATOM     26  C   UNL A   1      44.674  30.849  31.055  1.00  0.00     0.049 A 
ATOM     27  C   UNL A   1      39.544  32.993  30.379  1.00  0.00     0.074 A 
ATOM     28  C   UNL A   1      45.638  31.697  31.574  1.00  0.00     0.029 A 
ATOM     29  N   UNL A   1      43.497  31.579  30.987  1.00  0.00    -0.354 N 
ATOM     30  N   UNL A   1      40.787  32.634  30.595  1.00  0.00    -0.248 NA
ATOM     31  C   UNL A   1      39.233  34.372  30.778  1.00  0.00     0.031 C 
ATOM     32  C   UNL A   1      45.033  32.927  31.860  1.00  0.00     0.029 A 
ATOM     33  C   UNL A   1      43.704  32.861  31.473  1.00  0.00     0.049 A 
ATOM     34  H   UNL A   1      42.640  31.238  30.644  1.00  0.00     0.167 HD
ATOM     35  C   UNL A   1      41.412  33.749  31.138  1.00  0.00     0.074 A 
ATOM     36  C   UNL A   1      40.414  34.798  31.204  1.00  0.00     0.031 C 
ATOM     37  C   UNL A   1      42.699  33.892  31.541  1.00  0.00     0.031 A 
BRANCH  24  38
ATOM     38  C   UNL A   1      46.140  28.793  30.868  1.00  0.00    -0.014 A 
ATOM     39  C   UNL A   1      47.141  28.811  29.882  1.00  0.00     0.010 A 
ATOM     40  C   UNL A   1      46.392  28.135  32.086  1.00  0.00     0.010 A 
ATOM     41  C   UNL A   1      48.349  28.136  30.085  1.00  0.00     0.020 A 
ATOM     42  C   UNL A   1      47.608  27.479  32.304  1.00  0.00     0.020 A 
ATOM     43  C   UNL A   1      48.569  27.464  31.292  1.00  0.00     0.054 A 
BRANCH  43  44
ATOM     44  S   UNL A   1      50.136  26.581  31.530  1.00  0.00     0.124 S 
ATOM     45  O   UNL A   1      49.680  25.205  31.714  1.00  0.00    -0.237 OA
ATOM     46  O   UNL A   1      50.848  26.842  30.281  1.00  0.00    -0.237 OA
ATOM     47  O   UNL A   1      50.713  27.211  32.714  1.00  0.00    -0.744 OA
ENDBRANCH  43  44
ENDBRANCH  24  38
BRANCH  25  48
ATOM     48  C   UNL A   1      37.080  32.789  29.564  1.00  0.00    -0.014 A 
ATOM     49  C   UNL A   1      36.174  32.915  30.631  1.00  0.00     0.010 A 
ATOM     50  C   UNL A   1      36.722  33.286  28.296  1.00  0.00     0.010 A 
ATOM     51  C   UNL A   1      34.934  33.529  30.435  1.00  0.00     0.020 A 
ATOM     52  C   UNL A   1      35.493  33.923  28.104  1.00  0.00     0.020 A 
ATOM     53  C   UNL A   1      34.604  34.034  29.174  1.00  0.00     0.054 A 
BRANCH  53  54
ATOM     54  S   UNL A   1      33.026  34.903  28.964  1.00  0.00     0.124 S 
ATOM     55  O   UNL A   1      32.348  34.066  27.979  1.00  0.00    -0.237 OA
ATOM     56  O   UNL A   1      32.465  34.875  30.314  1.00  0.00    -0.237 OA
ATOM     57  O   UNL A   1      33.426  36.227  28.494  1.00  0.00    -0.744 OA
ENDBRANCH  53  54
ENDBRANCH  25  48
BRANCH  37  58
ATOM     58  C   UNL A   1      43.107  35.241  32.064  1.00  0.00    -0.014 A 
ATOM     59  C   UNL A   1      42.941  35.579  33.418  1.00  0.00     0.010 A 
ATOM     60  C   UNL A   1      43.695  36.173  31.190  1.00  0.00     0.010 A 
ATOM     61  C   UNL A   1      43.326  36.840  33.883  1.00  0.00     0.020 A 
ATOM     62  C   UNL A   1      44.102  37.426  31.655  1.00  0.00     0.020 A 
ATOM     63  C   UNL A   1      43.899  37.757  32.997  1.00  0.00     0.054 A 
BRANCH  63  64
ATOM     64  S   UNL A   1      44.420  39.377  33.627  1.00  0.00     0.124 S 
ATOM     65  O   UNL A   1      43.143  40.067  33.778  1.00  0.00    -0.237 OA
ATOM     66  O   UNL A   1      45.102  39.036  34.872  1.00  0.00    -0.237 OA
ATOM     67  O   UNL A   1      45.287  39.895  32.570  1.00  0.00    -0.744 OA
ENDBRANCH  63  64
ENDBRANCH  37  58
ENDBRANCH  11  12
ENDBRANCH   4   6
ENDBRANCH   1   2
BRANCH   1  68
ATOM     68  C   UNL A   1      35.257  23.109  26.444  1.00  0.00     0.042 C 
BRANCH  68  69
ATOM     69  C   UNL A   1      33.953  23.458  25.739  1.00  0.00     0.118 C 
BRANCH  69  70
ATOM     70  N   UNL A   1      32.779  23.057  26.509  1.00  0.00    -0.352 N 
ATOM     71  C   UNL A   1      31.559  23.674  26.625  1.00  0.00     0.254 C 
ATOM     72  H   UNL A   1      32.877  22.220  27.019  1.00  0.00     0.163 HD
ATOM     73  O   UNL A   1      30.744  23.309  27.465  1.00  0.00    -0.269 OA
BRANCH  71  74
ATOM     74  C   UNL A   1      31.228  24.790  25.745  1.00  0.00     0.076 A 
ATOM     75  C   UNL A   1      31.360  26.102  26.134  1.00  0.00     0.129 A 
ATOM     76  C   UNL A   1      30.768  24.585  24.467  1.00  0.00     0.129 A 
ATOM     77  N   UNL A   1      30.949  27.142  25.383  1.00  0.00    -0.236 NA
ATOM     78  N   UNL A   1      30.355  25.592  23.666  1.00  0.00    -0.236 NA
ATOM     79  C   UNL A   1      30.404  26.836  24.185  1.00  0.00     0.160 A 
BRANCH  79  80
ATOM     80  C   UNL A   1      29.803  27.945  23.436  1.00  0.00     0.038 A 
ATOM     81  C   UNL A   1      28.396  28.038  23.357  1.00  0.00     0.013 A 
ATOM     82  C   UNL A   1      30.553  28.903  22.727  1.00  0.00     0.052 A 
ATOM     83  C   UNL A   1      27.764  29.040  22.616  1.00  0.00     0.001 A 
ATOM     84  C   UNL A   1      29.917  29.909  21.987  1.00  0.00     0.021 A 
ATOM     85  Cl  UNL A   1      32.284  28.872  22.637  1.00  0.00    -0.084 Cl
ATOM     86  C   UNL A   1      28.527  29.978  21.931  1.00  0.00     0.002 A 
ENDBRANCH  79  80
ENDBRANCH  71  74
ENDBRANCH  69  70
ENDBRANCH  68  69
ENDBRANCH   1  68
TORSDOF 14
ENDMDL
