MODEL 1
REMARK VINA RESULT:     -10.5      0.000      0.000
REMARK SMILES CC(C)[C@H]([NH2+]Cc1ccc(O)cn1)C(=O)NCCCNC(=O)c1ccc(-c2c3nc(c(-c4ccc(S(=O)(=O)[O-])cc4)c4ccc([nH]4)c(-c4ccc(S(=O)(=O)[O-])cc4)c4nc(c(-c5ccc(S(=O)(=O)[O-])cc5)c5ccc2[nH]5)C=C4)C=C3)cc1
REMARK SMILES IDX 17 1 16 2 14 3 15 4 4 6 2 7 1 8 3 9 5 10 6 13 7 14 8 15
REMARK SMILES IDX 13 16 9 17 12 18 10 19 11 20 18 22 19 23 20 24 21 25 22 27
REMARK SMILES IDX 23 28 24 29 82 30 25 31 81 32 26 33 27 34 28 35 75 36 29 37
REMARK SMILES IDX 80 38 74 39 76 40 30 41 79 42 73 43 72 44 31 46 61 47 42 48
REMARK SMILES IDX 60 49 43 50 46 51 59 52 77 53 44 54 45 55 58 57 78 58 47 59
REMARK SMILES IDX 32 60 33 61 41 62 34 63 40 64 35 65 36 66 37 67 38 68 39 69
REMARK SMILES IDX 62 70 63 71 71 72 64 73 70 74 65 75 66 76 67 77 68 78 69 79
REMARK SMILES IDX 48 80 49 81 57 82 50 83 56 84 51 85 52 86 53 87 54 88 55 89
REMARK H PARENT 16 5 5 11 5 12 11 21 20 26 76 45 46 56
REMARK Flexibility Score: inf
ROOT
ATOM      1  C   UNL A   1      36.702  20.676  25.009  1.00  0.00     0.118 C 
ENDROOT
BRANCH   1   2
ATOM      2  N   UNL A   1      35.880  21.264  26.052  1.00  0.00    -0.351 N 
ATOM      3  C   UNL A   1      34.560  21.624  26.081  1.00  0.00     0.278 C 
ATOM      4  O   UNL A   1      34.087  21.915  27.185  1.00  0.00    -0.268 OA
ATOM      5  H   UNL A   1      36.360  21.435  26.894  1.00  0.00     0.163 HD
BRANCH   3   6
ATOM      6  C   UNL A   1      33.669  21.637  24.807  1.00  0.00     0.275 C 
BRANCH   6   7
ATOM      7  C   UNL A   1      33.303  23.078  24.328  1.00  0.00     0.051 C 
ATOM      8  C   UNL A   1      33.663  23.453  22.891  1.00  0.00     0.014 C 
ATOM      9  C   UNL A   1      31.801  23.334  24.528  1.00  0.00     0.014 C 
ENDBRANCH   6   7
BRANCH   6  10
ATOM     10  N   UNL A   1      32.608  20.635  24.967  1.00  0.00    -0.331 N 
ATOM     11  H   UNL A   1      31.730  21.136  25.107  1.00  0.00     0.347 HD
ATOM     12  H   UNL A   1      32.907  20.058  25.754  1.00  0.00     0.347 HD
BRANCH  10  13
ATOM     13  C   UNL A   1      32.405  19.696  23.871  1.00  0.00     0.318 C 
BRANCH  13  14
ATOM     14  C   UNL A   1      32.797  18.286  24.289  1.00  0.00     0.095 A 
ATOM     15  C   UNL A   1      33.685  17.553  23.492  1.00  0.00     0.033 A 
ATOM     16  N   UNL A   1      32.213  17.762  25.395  1.00  0.00    -0.251 NA
ATOM     17  C   UNL A   1      33.974  16.232  23.830  1.00  0.00     0.050 A 
ATOM     18  C   UNL A   1      32.512  16.476  25.696  1.00  0.00     0.157 A 
ATOM     19  C   UNL A   1      33.372  15.684  24.951  1.00  0.00     0.133 A 
BRANCH  19  20
ATOM     20  O   UNL A   1      33.598  14.399  25.335  1.00  0.00    -0.506 OA
ATOM     21  H   UNL A   1      34.172  14.220  26.054  1.00  0.00     0.293 HD
ENDBRANCH  19  20
ENDBRANCH  13  14
ENDBRANCH  10  13
ENDBRANCH   6  10
ENDBRANCH   3   6
ENDBRANCH   1   2
BRANCH   1  22
ATOM     22  C   UNL A   1      38.049  21.360  24.848  1.00  0.00     0.042 C 
BRANCH  22  23
ATOM     23  C   UNL A   1      38.908  21.293  26.101  1.00  0.00     0.118 C 
BRANCH  23  24
ATOM     24  N   UNL A   1      39.816  20.150  26.098  1.00  0.00    -0.352 N 
ATOM     25  C   UNL A   1      41.190  20.095  26.137  1.00  0.00     0.251 C 
ATOM     26  H   UNL A   1      39.371  19.272  26.061  1.00  0.00     0.163 HD
ATOM     27  O   UNL A   1      41.759  19.035  25.908  1.00  0.00    -0.269 OA
BRANCH  25  28
ATOM     28  C   UNL A   1      41.973  21.314  26.431  1.00  0.00     0.039 A 
ATOM     29  C   UNL A   1      42.324  22.170  25.384  1.00  0.00     0.014 A 
ATOM     30  C   UNL A   1      42.366  21.609  27.737  1.00  0.00     0.014 A 
ATOM     31  C   UNL A   1      42.993  23.365  25.664  1.00  0.00     0.010 A 
ATOM     32  C   UNL A   1      42.935  22.843  28.025  1.00  0.00     0.010 A 
ATOM     33  C   UNL A   1      43.262  23.733  26.992  1.00  0.00    -0.014 A 
BRANCH  33  34
ATOM     34  C   UNL A   1      43.899  25.028  27.337  1.00  0.00     0.031 A 
ATOM     35  C   UNL A   1      43.055  26.155  27.875  1.00  0.00     0.074 A 
ATOM     36  C   UNL A   1      45.210  25.221  27.091  1.00  0.00     0.049 A 
ATOM     37  N   UNL A   1      43.390  27.396  28.113  1.00  0.00    -0.248 NA
ATOM     38  C   UNL A   1      41.639  25.853  28.150  1.00  0.00     0.031 C 
ATOM     39  C   UNL A   1      46.129  24.222  26.537  1.00  0.00     0.029 A 
ATOM     40  N   UNL A   1      45.998  26.331  27.266  1.00  0.00    -0.354 N 
ATOM     41  C   UNL A   1      42.227  28.026  28.540  1.00  0.00     0.074 A 
ATOM     42  C   UNL A   1      41.165  27.047  28.473  1.00  0.00     0.031 C 
ATOM     43  C   UNL A   1      47.359  24.755  26.450  1.00  0.00     0.029 A 
ATOM     44  C   UNL A   1      47.308  26.144  26.894  1.00  0.00     0.049 A 
ATOM     45  H   UNL A   1      45.656  27.182  27.625  1.00  0.00     0.167 HD
ATOM     46  C   UNL A   1      42.059  29.297  28.976  1.00  0.00     0.031 A 
ATOM     47  C   UNL A   1      48.350  26.997  26.902  1.00  0.00     0.031 A 
ATOM     48  C   UNL A   1      43.120  30.262  29.067  1.00  0.00     0.049 A 
ATOM     49  C   UNL A   1      48.137  28.407  27.384  1.00  0.00     0.074 A 
ATOM     50  C   UNL A   1      43.063  31.564  29.531  1.00  0.00     0.029 A 
ATOM     51  N   UNL A   1      44.436  30.024  28.699  1.00  0.00    -0.354 N 
ATOM     52  N   UNL A   1      47.035  28.971  27.815  1.00  0.00    -0.248 NA
ATOM     53  C   UNL A   1      49.311  29.291  27.386  1.00  0.00     0.031 C 
ATOM     54  C   UNL A   1      44.339  32.124  29.413  1.00  0.00     0.029 A 
ATOM     55  C   UNL A   1      45.200  31.155  28.921  1.00  0.00     0.049 A 
ATOM     56  H   UNL A   1      44.776  29.174  28.334  1.00  0.00     0.167 HD
ATOM     57  C   UNL A   1      47.391  30.266  28.174  1.00  0.00     0.074 A 
ATOM     58  C   UNL A   1      48.811  30.398  27.917  1.00  0.00     0.031 C 
ATOM     59  C   UNL A   1      46.614  31.259  28.671  1.00  0.00     0.031 A 
BRANCH  46  60
ATOM     60  C   UNL A   1      40.674  29.706  29.403  1.00  0.00    -0.014 A 
ATOM     61  C   UNL A   1      39.609  29.709  28.482  1.00  0.00     0.010 A 
ATOM     62  C   UNL A   1      40.423  30.061  30.740  1.00  0.00     0.010 A 
ATOM     63  C   UNL A   1      38.330  30.102  28.880  1.00  0.00     0.020 A 
ATOM     64  C   UNL A   1      39.137  30.428  31.150  1.00  0.00     0.020 A 
ATOM     65  C   UNL A   1      38.103  30.462  30.211  1.00  0.00     0.054 A 
BRANCH  65  66
ATOM     66  S   UNL A   1      36.426  30.947  30.705  1.00  0.00     0.124 S 
ATOM     67  O   UNL A   1      36.011  29.807  31.518  1.00  0.00    -0.237 OA
ATOM     68  O   UNL A   1      36.656  32.190  31.439  1.00  0.00    -0.237 OA
ATOM     69  O   UNL A   1      35.720  31.099  29.436  1.00  0.00    -0.744 OA
ENDBRANCH  65  66
ENDBRANCH  46  60
BRANCH  47  70
ATOM     70  C   UNL A   1      49.696  26.542  26.458  1.00  0.00    -0.014 A 
ATOM     71  C   UNL A   1      50.099  26.720  25.123  1.00  0.00     0.010 A 
ATOM     72  C   UNL A   1      50.577  25.921  27.363  1.00  0.00     0.010 A 
ATOM     73  C   UNL A   1      51.346  26.259  24.692  1.00  0.00     0.020 A 
ATOM     74  C   UNL A   1      51.836  25.484  26.941  1.00  0.00     0.020 A 
ATOM     75  C   UNL A   1      52.206  25.641  25.604  1.00  0.00     0.054 A 
BRANCH  75  76
ATOM     76  S   UNL A   1      53.836  25.082  25.035  1.00  0.00     0.124 S 
ATOM     77  O   UNL A   1      54.005  25.845  23.803  1.00  0.00    -0.237 OA
ATOM     78  O   UNL A   1      54.707  25.466  26.144  1.00  0.00    -0.237 OA
ATOM     79  O   UNL A   1      53.659  23.641  24.865  1.00  0.00    -0.744 OA
ENDBRANCH  75  76
ENDBRANCH  47  70
BRANCH  59  80
ATOM     80  C   UNL A   1      47.289  32.557  29.021  1.00  0.00    -0.014 A 
ATOM     81  C   UNL A   1      47.351  33.617  28.102  1.00  0.00     0.010 A 
ATOM     82  C   UNL A   1      47.815  32.734  30.315  1.00  0.00     0.010 A 
ATOM     83  C   UNL A   1      47.955  34.826  28.461  1.00  0.00     0.020 A 
ATOM     84  C   UNL A   1      48.396  33.949  30.684  1.00  0.00     0.020 A 
ATOM     85  C   UNL A   1      48.473  34.983  29.750  1.00  0.00     0.054 A 
BRANCH  85  86
ATOM     86  S   UNL A   1      49.206  36.577  30.209  1.00  0.00     0.124 S 
ATOM     87  O   UNL A   1      48.192  37.521  29.748  1.00  0.00    -0.237 OA
ATOM     88  O   UNL A   1      49.344  36.461  31.659  1.00  0.00    -0.237 OA
ATOM     89  O   UNL A   1      50.466  36.606  29.470  1.00  0.00    -0.744 OA
ENDBRANCH  85  86
ENDBRANCH  59  80
ENDBRANCH  33  34
ENDBRANCH  25  28
ENDBRANCH  23  24
ENDBRANCH  22  23
ENDBRANCH   1  22
TORSDOF 18
ENDMDL
MODEL 2
REMARK VINA RESULT:     -10.4      2.229      8.895
REMARK SMILES CC(C)[C@H]([NH2+]Cc1ccc(O)cn1)C(=O)NCCCNC(=O)c1ccc(-c2c3nc(c(-c4ccc(S(=O)(=O)[O-])cc4)c4ccc([nH]4)c(-c4ccc(S(=O)(=O)[O-])cc4)c4nc(c(-c5ccc(S(=O)(=O)[O-])cc5)c5ccc2[nH]5)C=C4)C=C3)cc1
REMARK SMILES IDX 17 1 16 2 14 3 15 4 4 6 2 7 1 8 3 9 5 10 6 13 7 14 8 15
REMARK SMILES IDX 13 16 9 17 12 18 10 19 11 20 18 22 19 23 20 24 21 25 22 27
REMARK SMILES IDX 23 28 24 29 82 30 25 31 81 32 26 33 27 34 28 35 75 36 29 37
REMARK SMILES IDX 80 38 74 39 76 40 30 41 79 42 73 43 72 44 31 46 61 47 42 48
REMARK SMILES IDX 60 49 43 50 46 51 59 52 77 53 44 54 45 55 58 57 78 58 47 59
REMARK SMILES IDX 32 60 33 61 41 62 34 63 40 64 35 65 36 66 37 67 38 68 39 69
REMARK SMILES IDX 62 70 63 71 71 72 64 73 70 74 65 75 66 76 67 77 68 78 69 79
REMARK SMILES IDX 48 80 49 81 57 82 50 83 56 84 51 85 52 86 53 87 54 88 55 89
REMARK H PARENT 16 5 5 11 5 12 11 21 20 26 76 45 46 56
REMARK Flexibility Score: inf
ROOT
ATOM      1  C   UNL A   1      35.496  21.414  25.954  1.00  0.00     0.118 C 
ENDROOT
BRANCH   1   2
ATOM      2  N   UNL A   1      34.705  21.872  27.083  1.00  0.00    -0.351 N 
ATOM      3  C   UNL A   1      33.369  22.134  27.215  1.00  0.00     0.278 C 
ATOM      4  O   UNL A   1      32.949  22.318  28.363  1.00  0.00    -0.268 OA
ATOM      5  H   UNL A   1      35.226  22.023  27.904  1.00  0.00     0.163 HD
BRANCH   3   6
ATOM      6  C   UNL A   1      32.398  22.164  26.002  1.00  0.00     0.275 C 
BRANCH   6   7
ATOM      7  C   UNL A   1      31.356  23.325  26.078  1.00  0.00     0.051 C 
ATOM      8  C   UNL A   1      30.964  24.006  24.767  1.00  0.00     0.014 C 
ATOM      9  C   UNL A   1      30.071  22.835  26.764  1.00  0.00     0.014 C 
ENDBRANCH   6   7
BRANCH   6  10
ATOM     10  N   UNL A   1      31.940  20.795  25.732  1.00  0.00    -0.331 N 
ATOM     11  H   UNL A   1      30.920  20.811  25.714  1.00  0.00     0.347 HD
ATOM     12  H   UNL A   1      32.351  20.230  26.475  1.00  0.00     0.347 HD
BRANCH  10  13
ATOM     13  C   UNL A   1      32.390  20.171  24.495  1.00  0.00     0.318 C 
BRANCH  13  14
ATOM     14  C   UNL A   1      32.959  18.786  24.765  1.00  0.00     0.095 A 
ATOM     15  C   UNL A   1      34.209  18.438  24.239  1.00  0.00     0.033 A 
ATOM     16  N   UNL A   1      32.193  17.905  25.456  1.00  0.00    -0.251 NA
ATOM     17  C   UNL A   1      34.688  17.142  24.414  1.00  0.00     0.050 A 
ATOM     18  C   UNL A   1      32.684  16.652  25.608  1.00  0.00     0.157 A 
ATOM     19  C   UNL A   1      33.906  16.232  25.108  1.00  0.00     0.133 A 
BRANCH  19  20
ATOM     20  O   UNL A   1      34.303  14.946  25.308  1.00  0.00    -0.506 OA
ATOM     21  H   UNL A   1      34.266  14.574  26.167  1.00  0.00     0.293 HD
ENDBRANCH  19  20
ENDBRANCH  13  14
ENDBRANCH  10  13
ENDBRANCH   6  10
ENDBRANCH   3   6
ENDBRANCH   1   2
BRANCH   1  22
ATOM     22  C   UNL A   1      36.089  22.547  25.136  1.00  0.00     0.042 C 
BRANCH  22  23
ATOM     23  C   UNL A   1      37.328  23.161  25.770  1.00  0.00     0.118 C 
BRANCH  23  24
ATOM     24  N   UNL A   1      38.378  22.176  26.015  1.00  0.00    -0.352 N 
ATOM     25  C   UNL A   1      39.678  22.336  26.434  1.00  0.00     0.251 C 
ATOM     26  H   UNL A   1      38.111  21.242  25.854  1.00  0.00     0.163 HD
ATOM     27  O   UNL A   1      40.455  21.392  26.369  1.00  0.00    -0.269 OA
BRANCH  25  28
ATOM     28  C   UNL A   1      40.139  23.648  26.938  1.00  0.00     0.039 A 
ATOM     29  C   UNL A   1      40.824  23.711  28.154  1.00  0.00     0.014 A 
ATOM     30  C   UNL A   1      39.889  24.815  26.215  1.00  0.00     0.014 A 
ATOM     31  C   UNL A   1      41.334  24.934  28.597  1.00  0.00     0.010 A 
ATOM     32  C   UNL A   1      40.485  26.009  26.602  1.00  0.00     0.010 A 
ATOM     33  C   UNL A   1      41.209  26.085  27.801  1.00  0.00    -0.014 A 
BRANCH  33  34
ATOM     34  C   UNL A   1      41.804  27.385  28.198  1.00  0.00     0.031 A 
ATOM     35  C   UNL A   1      43.299  27.570  28.142  1.00  0.00     0.074 A 
ATOM     36  C   UNL A   1      41.017  28.365  28.684  1.00  0.00     0.049 A 
ATOM     37  N   UNL A   1      44.022  28.573  28.565  1.00  0.00    -0.248 NA
ATOM     38  C   UNL A   1      44.084  26.464  27.565  1.00  0.00     0.031 C 
ATOM     39  C   UNL A   1      39.559  28.299  28.824  1.00  0.00     0.029 A 
ATOM     40  N   UNL A   1      41.335  29.612  29.162  1.00  0.00    -0.354 N 
ATOM     41  C   UNL A   1      45.344  28.212  28.328  1.00  0.00     0.074 A 
ATOM     42  C   UNL A   1      45.326  26.874  27.779  1.00  0.00     0.031 C 
ATOM     43  C   UNL A   1      39.110  29.463  29.320  1.00  0.00     0.029 A 
ATOM     44  C   UNL A   1      40.247  30.340  29.580  1.00  0.00     0.049 A 
ATOM     45  H   UNL A   1      42.259  29.953  29.202  1.00  0.00     0.167 HD
ATOM     46  C   UNL A   1      46.471  28.936  28.522  1.00  0.00     0.031 A 
ATOM     47  C   UNL A   1      40.172  31.572  30.117  1.00  0.00     0.031 A 
ATOM     48  C   UNL A   1      46.486  30.275  29.044  1.00  0.00     0.049 A 
ATOM     49  C   UNL A   1      41.439  32.355  30.331  1.00  0.00     0.074 A 
ATOM     50  C   UNL A   1      47.571  31.110  29.244  1.00  0.00     0.029 A 
ATOM     51  N   UNL A   1      45.358  30.981  29.434  1.00  0.00    -0.354 N 
ATOM     52  N   UNL A   1      42.676  32.006  30.068  1.00  0.00    -0.248 NA
ATOM     53  C   UNL A   1      41.299  33.699  30.907  1.00  0.00     0.031 C 
ATOM     54  C   UNL A   1      47.102  32.310  29.787  1.00  0.00     0.029 A 
ATOM     55  C   UNL A   1      45.721  32.240  29.878  1.00  0.00     0.049 A 
ATOM     56  H   UNL A   1      44.436  30.638  29.400  1.00  0.00     0.167 HD
ATOM     57  C   UNL A   1      43.458  33.102  30.414  1.00  0.00     0.074 A 
ATOM     58  C   UNL A   1      42.554  34.127  30.896  1.00  0.00     0.031 C 
ATOM     59  C   UNL A   1      44.803  33.250  30.340  1.00  0.00     0.031 A 
BRANCH  46  60
ATOM     60  C   UNL A   1      47.781  28.292  28.152  1.00  0.00    -0.014 A 
ATOM     61  C   UNL A   1      48.513  27.553  29.100  1.00  0.00     0.010 A 
ATOM     62  C   UNL A   1      48.272  28.397  26.838  1.00  0.00     0.010 A 
ATOM     63  C   UNL A   1      49.733  26.969  28.754  1.00  0.00     0.020 A 
ATOM     64  C   UNL A   1      49.480  27.789  26.480  1.00  0.00     0.020 A 
ATOM     65  C   UNL A   1      50.210  27.094  27.447  1.00  0.00     0.054 A 
BRANCH  65  66
ATOM     66  S   UNL A   1      51.788  26.307  27.020  1.00  0.00     0.124 S 
ATOM     67  O   UNL A   1      52.185  27.056  25.831  1.00  0.00    -0.237 OA
ATOM     68  O   UNL A   1      52.598  26.547  28.212  1.00  0.00    -0.237 OA
ATOM     69  O   UNL A   1      51.428  24.911  26.786  1.00  0.00    -0.744 OA
ENDBRANCH  65  66
ENDBRANCH  46  60
BRANCH  47  70
ATOM     70  C   UNL A   1      38.851  32.156  30.476  1.00  0.00    -0.014 A 
ATOM     71  C   UNL A   1      38.337  32.001  31.776  1.00  0.00     0.010 A 
ATOM     72  C   UNL A   1      38.095  32.860  29.521  1.00  0.00     0.010 A 
ATOM     73  C   UNL A   1      37.079  32.513  32.107  1.00  0.00     0.020 A 
ATOM     74  C   UNL A   1      36.849  33.397  29.856  1.00  0.00     0.020 A 
ATOM     75  C   UNL A   1      36.342  33.206  31.143  1.00  0.00     0.054 A 
BRANCH  75  76
ATOM     76  S   UNL A   1      34.727  33.895  31.601  1.00  0.00     0.124 S 
ATOM     77  O   UNL A   1      33.990  32.701  32.002  1.00  0.00    -0.237 OA
ATOM     78  O   UNL A   1      35.071  34.820  32.679  1.00  0.00    -0.237 OA
ATOM     79  O   UNL A   1      34.270  34.534  30.368  1.00  0.00    -0.744 OA
ENDBRANCH  75  76
ENDBRANCH  47  70
BRANCH  59  80
ATOM     80  C   UNL A   1      45.376  34.581  30.739  1.00  0.00    -0.014 A 
ATOM     81  C   UNL A   1      45.508  35.626  29.809  1.00  0.00     0.010 A 
ATOM     82  C   UNL A   1      45.733  34.805  32.082  1.00  0.00     0.010 A 
ATOM     83  C   UNL A   1      46.013  36.866  30.210  1.00  0.00     0.020 A 
ATOM     84  C   UNL A   1      46.214  36.051  32.490  1.00  0.00     0.020 A 
ATOM     85  C   UNL A   1      46.362  37.070  31.548  1.00  0.00     0.054 A 
BRANCH  85  86
ATOM     86  S   UNL A   1      46.968  38.703  32.055  1.00  0.00     0.124 S 
ATOM     87  O   UNL A   1      46.357  38.857  33.372  1.00  0.00    -0.237 OA
ATOM     88  O   UNL A   1      48.418  38.523  32.051  1.00  0.00    -0.237 OA
ATOM     89  O   UNL A   1      46.455  39.599  31.022  1.00  0.00    -0.744 OA
ENDBRANCH  85  86
ENDBRANCH  59  80
ENDBRANCH  33  34
ENDBRANCH  25  28
ENDBRANCH  23  24
ENDBRANCH  22  23
ENDBRANCH   1  22
TORSDOF 18
ENDMDL
MODEL 3
REMARK VINA RESULT:     -10.4      6.095      9.372
REMARK SMILES CC(C)[C@H]([NH2+]Cc1ccc(O)cn1)C(=O)NCCCNC(=O)c1ccc(-c2c3nc(c(-c4ccc(S(=O)(=O)[O-])cc4)c4ccc([nH]4)c(-c4ccc(S(=O)(=O)[O-])cc4)c4nc(c(-c5ccc(S(=O)(=O)[O-])cc5)c5ccc2[nH]5)C=C4)C=C3)cc1
REMARK SMILES IDX 17 1 16 2 14 3 15 4 4 6 2 7 1 8 3 9 5 10 6 13 7 14 8 15
REMARK SMILES IDX 13 16 9 17 12 18 10 19 11 20 18 22 19 23 20 24 21 25 22 27
REMARK SMILES IDX 23 28 24 29 82 30 25 31 81 32 26 33 27 34 28 35 75 36 29 37
REMARK SMILES IDX 80 38 74 39 76 40 30 41 79 42 73 43 72 44 31 46 61 47 42 48
REMARK SMILES IDX 60 49 43 50 46 51 59 52 77 53 44 54 45 55 58 57 78 58 47 59
REMARK SMILES IDX 32 60 33 61 41 62 34 63 40 64 35 65 36 66 37 67 38 68 39 69
REMARK SMILES IDX 62 70 63 71 71 72 64 73 70 74 65 75 66 76 67 77 68 78 69 79
REMARK SMILES IDX 48 80 49 81 57 82 50 83 56 84 51 85 52 86 53 87 54 88 55 89
REMARK H PARENT 16 5 5 11 5 12 11 21 20 26 76 45 46 56
REMARK Flexibility Score: inf
ROOT
ATOM      1  C   UNL A   1      33.364  26.957  25.677  1.00  0.00     0.118 C 
ENDROOT
BRANCH   1   2
ATOM      2  N   UNL A   1      33.803  27.368  24.355  1.00  0.00    -0.351 N 
ATOM      3  C   UNL A   1      33.138  27.476  23.165  1.00  0.00     0.278 C 
ATOM      4  O   UNL A   1      33.731  28.052  22.246  1.00  0.00    -0.268 OA
ATOM      5  H   UNL A   1      34.754  27.616  24.307  1.00  0.00     0.163 HD
BRANCH   3   6
ATOM      6  C   UNL A   1      31.691  26.943  22.963  1.00  0.00     0.275 C 
BRANCH   6   7
ATOM      7  C   UNL A   1      31.646  25.493  22.384  1.00  0.00     0.051 C 
ATOM      8  C   UNL A   1      32.971  24.741  22.265  1.00  0.00     0.014 C 
ATOM      9  C   UNL A   1      30.677  24.628  23.205  1.00  0.00     0.014 C 
ENDBRANCH   6   7
BRANCH   6  10
ATOM     10  N   UNL A   1      30.884  27.999  22.339  1.00  0.00    -0.331 N 
ATOM     11  H   UNL A   1      30.686  27.707  21.382  1.00  0.00     0.347 HD
ATOM     12  H   UNL A   1      31.447  28.845  22.427  1.00  0.00     0.347 HD
BRANCH  10  13
ATOM     13  C   UNL A   1      29.612  28.328  22.968  1.00  0.00     0.318 C 
BRANCH  13  14
ATOM     14  C   UNL A   1      29.166  29.730  22.581  1.00  0.00     0.095 A 
ATOM     15  C   UNL A   1      28.935  30.682  23.581  1.00  0.00     0.033 A 
ATOM     16  N   UNL A   1      28.940  29.988  21.269  1.00  0.00    -0.251 NA
ATOM     17  C   UNL A   1      28.443  31.937  23.230  1.00  0.00     0.050 A 
ATOM     18  C   UNL A   1      28.460  31.216  20.958  1.00  0.00     0.157 A 
ATOM     19  C   UNL A   1      28.197  32.205  21.893  1.00  0.00     0.133 A 
BRANCH  19  20
ATOM     20  O   UNL A   1      27.706  33.403  21.477  1.00  0.00    -0.506 OA
ATOM     21  H   UNL A   1      28.063  34.200  21.819  1.00  0.00     0.293 HD
ENDBRANCH  19  20
ENDBRANCH  13  14
ENDBRANCH  10  13
ENDBRANCH   6  10
ENDBRANCH   3   6
ENDBRANCH   1   2
BRANCH   1  22
ATOM     22  C   UNL A   1      33.412  28.076  26.702  1.00  0.00     0.042 C 
BRANCH  22  23
ATOM     23  C   UNL A   1      34.482  29.116  26.404  1.00  0.00     0.118 C 
BRANCH  23  24
ATOM     24  N   UNL A   1      34.074  30.465  26.785  1.00  0.00    -0.352 N 
ATOM     25  C   UNL A   1      34.517  31.284  27.797  1.00  0.00     0.251 C 
ATOM     26  H   UNL A   1      33.364  30.853  26.225  1.00  0.00     0.163 HD
ATOM     27  O   UNL A   1      33.889  32.297  28.074  1.00  0.00    -0.269 OA
BRANCH  25  28
ATOM     28  C   UNL A   1      35.734  30.930  28.559  1.00  0.00     0.039 A 
ATOM     29  C   UNL A   1      35.675  29.897  29.498  1.00  0.00     0.014 A 
ATOM     30  C   UNL A   1      36.929  31.619  28.351  1.00  0.00     0.014 A 
ATOM     31  C   UNL A   1      36.839  29.501  30.163  1.00  0.00     0.010 A 
ATOM     32  C   UNL A   1      38.103  31.157  28.933  1.00  0.00     0.010 A 
ATOM     33  C   UNL A   1      38.072  30.098  29.851  1.00  0.00    -0.014 A 
BRANCH  33  34
ATOM     34  C   UNL A   1      39.343  29.653  30.476  1.00  0.00     0.031 A 
ATOM     35  C   UNL A   1      39.877  30.384  31.682  1.00  0.00     0.074 A 
ATOM     36  C   UNL A   1      40.055  28.655  29.918  1.00  0.00     0.049 A 
ATOM     37  N   UNL A   1      41.024  30.240  32.292  1.00  0.00    -0.248 NA
ATOM     38  C   UNL A   1      39.021  31.439  32.253  1.00  0.00     0.031 C 
ATOM     39  C   UNL A   1      39.666  27.892  28.728  1.00  0.00     0.029 A 
ATOM     40  N   UNL A   1      41.266  28.115  30.272  1.00  0.00    -0.354 N 
ATOM     41  C   UNL A   1      41.038  31.197  33.300  1.00  0.00     0.074 A 
ATOM     42  C   UNL A   1      39.811  31.955  33.182  1.00  0.00     0.031 C 
ATOM     43  C   UNL A   1      40.602  26.963  28.474  1.00  0.00     0.029 A 
ATOM     44  C   UNL A   1      41.680  27.096  29.448  1.00  0.00     0.049 A 
ATOM     45  H   UNL A   1      41.789  28.429  31.045  1.00  0.00     0.167 HD
ATOM     46  C   UNL A   1      41.971  31.411  34.257  1.00  0.00     0.031 A 
ATOM     47  C   UNL A   1      42.804  26.355  29.470  1.00  0.00     0.031 A 
ATOM     48  C   UNL A   1      43.177  30.640  34.390  1.00  0.00     0.049 A 
ATOM     49  C   UNL A   1      43.832  26.616  30.539  1.00  0.00     0.074 A 
ATOM     50  C   UNL A   1      44.170  30.751  35.347  1.00  0.00     0.029 A 
ATOM     51  N   UNL A   1      43.546  29.603  33.546  1.00  0.00    -0.354 N 
ATOM     52  N   UNL A   1      43.808  27.505  31.503  1.00  0.00    -0.248 NA
ATOM     53  C   UNL A   1      45.032  25.769  30.525  1.00  0.00     0.031 C 
ATOM     54  C   UNL A   1      45.157  29.801  35.062  1.00  0.00     0.029 A 
ATOM     55  C   UNL A   1      44.754  29.068  33.957  1.00  0.00     0.049 A 
ATOM     56  H   UNL A   1      43.025  29.293  32.770  1.00  0.00     0.167 HD
ATOM     57  C   UNL A   1      44.974  27.300  32.232  1.00  0.00     0.074 A 
ATOM     58  C   UNL A   1      45.674  26.198  31.603  1.00  0.00     0.031 C 
ATOM     59  C   UNL A   1      45.426  27.963  33.324  1.00  0.00     0.031 A 
BRANCH  46  60
ATOM     60  C   UNL A   1      41.711  32.517  35.245  1.00  0.00    -0.014 A 
ATOM     61  C   UNL A   1      42.106  33.838  34.966  1.00  0.00     0.010 A 
ATOM     62  C   UNL A   1      41.037  32.244  36.449  1.00  0.00     0.010 A 
ATOM     63  C   UNL A   1      41.874  34.858  35.891  1.00  0.00     0.020 A 
ATOM     64  C   UNL A   1      40.777  33.268  37.366  1.00  0.00     0.020 A 
ATOM     65  C   UNL A   1      41.213  34.565  37.087  1.00  0.00     0.054 A 
BRANCH  65  66
ATOM     66  S   UNL A   1      40.906  35.913  38.261  1.00  0.00     0.124 S 
ATOM     67  O   UNL A   1      40.334  35.197  39.397  1.00  0.00    -0.237 OA
ATOM     68  O   UNL A   1      42.243  36.463  38.475  1.00  0.00    -0.237 OA
ATOM     69  O   UNL A   1      39.982  36.791  37.548  1.00  0.00    -0.744 OA
ENDBRANCH  65  66
ENDBRANCH  46  60
BRANCH  47  70
ATOM     70  C   UNL A   1      43.016  25.281  28.462  1.00  0.00    -0.014 A 
ATOM     71  C   UNL A   1      43.635  25.574  27.234  1.00  0.00     0.010 A 
ATOM     72  C   UNL A   1      42.591  23.964  28.717  1.00  0.00     0.010 A 
ATOM     73  C   UNL A   1      43.800  24.578  26.268  1.00  0.00     0.020 A 
ATOM     74  C   UNL A   1      42.780  22.959  27.764  1.00  0.00     0.020 A 
ATOM     75  C   UNL A   1      43.369  23.277  26.538  1.00  0.00     0.054 A 
BRANCH  75  76
ATOM     76  S   UNL A   1      43.624  21.988  25.287  1.00  0.00     0.124 S 
ATOM     77  O   UNL A   1      43.463  22.736  24.044  1.00  0.00    -0.237 OA
ATOM     78  O   UNL A   1      44.980  21.527  25.579  1.00  0.00    -0.237 OA
ATOM     79  O   UNL A   1      42.571  21.018  25.580  1.00  0.00    -0.744 OA
ENDBRANCH  75  76
ENDBRANCH  47  70
BRANCH  59  80
ATOM     80  C   UNL A   1      46.710  27.483  33.943  1.00  0.00    -0.014 A 
ATOM     81  C   UNL A   1      46.716  26.475  34.921  1.00  0.00     0.010 A 
ATOM     82  C   UNL A   1      47.934  28.011  33.489  1.00  0.00     0.010 A 
ATOM     83  C   UNL A   1      47.925  26.023  35.458  1.00  0.00     0.020 A 
ATOM     84  C   UNL A   1      49.143  27.543  34.005  1.00  0.00     0.020 A 
ATOM     85  C   UNL A   1      49.130  26.560  34.996  1.00  0.00     0.054 A 
BRANCH  85  86
ATOM     86  S   UNL A   1      50.688  25.921  35.671  1.00  0.00     0.124 S 
ATOM     87  O   UNL A   1      50.558  26.241  37.089  1.00  0.00    -0.237 OA
ATOM     88  O   UNL A   1      50.622  24.499  35.338  1.00  0.00    -0.237 OA
ATOM     89  O   UNL A   1      51.712  26.675  34.952  1.00  0.00    -0.744 OA
ENDBRANCH  85  86
ENDBRANCH  59  80
ENDBRANCH  33  34
ENDBRANCH  25  28
ENDBRANCH  23  24
ENDBRANCH  22  23
ENDBRANCH   1  22
TORSDOF 18
ENDMDL
