MODEL 1
REMARK VINA RESULT:     -13.5      0.000      0.000
REMARK SMILES NS(=O)(=O)c1ccc(-n2nc(C(F)F)cc2-c2ccc(C(=O)NCCCNC(=O)c3ccc(-c4c5nc(c(-c6ccc(S(=O)(=O)[O-])cc6)c6ccc([nH]6)c(-c6ccc(S(=O)(=O)[O-])cc6)c6nc(c(-c7ccc(S(=O)(=O)[O-])cc7)c7ccc4[nH]7)C=C6)C=C5)cc3)cc2)cc1
REMARK SMILES IDX 24 1 23 2 21 3 22 4 20 6 17 7 18 8 91 9 19 10 90 11 16 12
REMARK SMILES IDX 9 13 10 14 11 15 15 16 8 17 5 18 6 19 93 20 7 21 92 22 2 23
REMARK SMILES IDX 3 24 4 25 1 26 12 29 13 30 14 31 25 32 26 33 27 34 28 35
REMARK SMILES IDX 29 37 30 38 31 39 89 40 32 41 88 42 33 43 34 44 35 45 82 46
REMARK SMILES IDX 36 47 87 48 81 49 83 50 37 51 86 52 80 53 79 54 38 56 68 57
REMARK SMILES IDX 49 58 67 59 50 60 53 61 66 62 84 63 51 64 52 65 65 67 85 68
REMARK SMILES IDX 54 69 39 70 40 71 48 72 41 73 47 74 42 75 43 76 44 77 45 78
REMARK SMILES IDX 46 79 69 80 70 81 78 82 71 83 77 84 72 85 73 86 74 87 75 88
REMARK SMILES IDX 76 89 55 90 56 91 64 92 57 93 63 94 58 95 59 96 60 97 61 98
REMARK SMILES IDX 62 99
REMARK H PARENT 23 5 1 27 1 28 27 36 83 55 53 66
REMARK Flexibility Score: inf
ROOT
ATOM      1  C   UNL A   1      34.766  22.240  24.983  1.00  0.00     0.118 C 
ENDROOT
BRANCH   1   2
ATOM      2  N   UNL A   1      33.621  22.409  24.102  1.00  0.00    -0.352 N 
ATOM      3  C   UNL A   1      32.883  23.524  23.785  1.00  0.00     0.251 C 
ATOM      4  O   UNL A   1      32.031  23.437  22.904  1.00  0.00    -0.269 OA
ATOM      5  H   UNL A   1      33.323  21.583  23.657  1.00  0.00     0.163 HD
BRANCH   3   6
ATOM      6  C   UNL A   1      33.127  24.843  24.430  1.00  0.00     0.039 A 
ATOM      7  C   UNL A   1      33.437  27.337  25.669  1.00  0.00     0.000 A 
ATOM      8  C   UNL A   1      32.726  26.316  26.312  1.00  0.00     0.011 A 
ATOM      9  C   UNL A   1      34.018  27.100  24.429  1.00  0.00     0.011 A 
ATOM     10  C   UNL A   1      32.569  25.073  25.693  1.00  0.00     0.014 A 
ATOM     11  C   UNL A   1      33.901  25.847  23.845  1.00  0.00     0.014 A 
BRANCH   7  12
ATOM     12  C   UNL A   1      33.679  28.616  26.309  1.00  0.00     0.075 A 
ATOM     13  N   UNL A   1      32.915  29.753  26.096  1.00  0.00    -0.233 N 
ATOM     14  N   UNL A   1      33.464  30.845  26.687  1.00  0.00    -0.166 NA
ATOM     15  C   UNL A   1      34.449  30.350  27.462  1.00  0.00     0.129 A 
ATOM     16  C   UNL A   1      34.646  28.971  27.221  1.00  0.00     0.060 A 
BRANCH  13  17
ATOM     17  C   UNL A   1      31.725  29.833  25.332  1.00  0.00     0.065 A 
ATOM     18  C   UNL A   1      29.595  30.170  23.578  1.00  0.00     0.082 A 
ATOM     19  C   UNL A   1      30.375  29.015  23.494  1.00  0.00     0.024 A 
ATOM     20  C   UNL A   1      29.857  31.144  24.550  1.00  0.00     0.024 A 
ATOM     21  C   UNL A   1      31.442  28.846  24.372  1.00  0.00     0.030 A 
ATOM     22  C   UNL A   1      30.913  30.963  25.451  1.00  0.00     0.030 A 
BRANCH  18  23
ATOM     23  S   UNL A   1      28.285  30.365  22.407  1.00  0.00     0.238 S 
ATOM     24  O   UNL A   1      28.704  29.781  21.166  1.00  0.00    -0.207 OA
ATOM     25  O   UNL A   1      27.782  31.723  22.514  1.00  0.00    -0.207 OA
BRANCH  23  26
ATOM     26  N   UNL A   1      27.043  29.393  22.990  1.00  0.00    -0.225 NA
ATOM     27  H   UNL A   1      27.312  29.003  23.893  1.00  0.00     0.137 HD
ATOM     28  H   UNL A   1      26.867  28.636  22.331  1.00  0.00     0.137 HD
ENDBRANCH  23  26
ENDBRANCH  18  23
ENDBRANCH  13  17
BRANCH  15  29
ATOM     29  C   UNL A   1      35.222  31.181  28.441  1.00  0.00     0.393 C 
ATOM     30  F   UNL A   1      36.407  30.616  28.796  1.00  0.00    -0.203 F 
ATOM     31  F   UNL A   1      35.511  32.413  27.934  1.00  0.00    -0.203 F 
ENDBRANCH  15  29
ENDBRANCH   7  12
ENDBRANCH   3   6
ENDBRANCH   1   2
BRANCH   1  32
ATOM     32  C   UNL A   1      36.099  22.289  24.217  1.00  0.00     0.042 C 
BRANCH  32  33
ATOM     33  C   UNL A   1      37.207  22.918  25.032  1.00  0.00     0.118 C 
BRANCH  33  34
ATOM     34  N   UNL A   1      38.074  21.909  25.654  1.00  0.00    -0.352 N 
ATOM     35  C   UNL A   1      39.284  22.082  26.303  1.00  0.00     0.251 C 
ATOM     36  H   UNL A   1      37.750  20.982  25.602  1.00  0.00     0.163 HD
ATOM     37  O   UNL A   1      40.048  21.136  26.451  1.00  0.00    -0.269 OA
BRANCH  35  38
ATOM     38  C   UNL A   1      39.625  23.419  26.815  1.00  0.00     0.039 A 
ATOM     39  C   UNL A   1      38.763  24.517  26.731  1.00  0.00     0.014 A 
ATOM     40  C   UNL A   1      40.857  23.538  27.439  1.00  0.00     0.014 A 
ATOM     41  C   UNL A   1      39.152  25.716  27.328  1.00  0.00     0.010 A 
ATOM     42  C   UNL A   1      41.086  24.589  28.267  1.00  0.00     0.010 A 
ATOM     43  C   UNL A   1      40.323  25.732  28.095  1.00  0.00    -0.014 A 
BRANCH  43  44
ATOM     44  C   UNL A   1      40.829  26.898  28.797  1.00  0.00     0.031 A 
ATOM     45  C   UNL A   1      41.965  27.562  28.115  1.00  0.00     0.074 A 
ATOM     46  C   UNL A   1      40.066  27.512  29.733  1.00  0.00     0.049 A 
ATOM     47  N   UNL A   1      43.206  27.567  28.468  1.00  0.00    -0.248 NA
ATOM     48  C   UNL A   1      41.727  28.117  26.768  1.00  0.00     0.031 C 
ATOM     49  C   UNL A   1      38.710  27.148  30.181  1.00  0.00     0.029 A 
ATOM     50  N   UNL A   1      40.266  28.697  30.361  1.00  0.00    -0.354 N 
ATOM     51  C   UNL A   1      43.850  28.361  27.523  1.00  0.00     0.074 A 
ATOM     52  C   UNL A   1      42.972  28.406  26.384  1.00  0.00     0.031 C 
ATOM     53  C   UNL A   1      38.135  28.207  30.793  1.00  0.00     0.029 A 
ATOM     54  C   UNL A   1      39.123  29.261  30.924  1.00  0.00     0.049 A 
ATOM     55  H   UNL A   1      41.151  29.126  30.415  1.00  0.00     0.167 HD
ATOM     56  C   UNL A   1      44.873  29.195  27.869  1.00  0.00     0.031 A 
ATOM     57  C   UNL A   1      38.996  30.524  31.410  1.00  0.00     0.031 A 
ATOM     58  C   UNL A   1      45.306  28.950  29.225  1.00  0.00     0.049 A 
ATOM     59  C   UNL A   1      40.375  31.035  31.627  1.00  0.00     0.074 A 
ATOM     60  C   UNL A   1      45.785  27.856  29.916  1.00  0.00     0.029 A 
ATOM     61  N   UNL A   1      44.856  29.838  30.178  1.00  0.00    -0.354 N 
ATOM     62  N   UNL A   1      41.200  30.525  32.500  1.00  0.00    -0.248 NA
ATOM     63  C   UNL A   1      41.001  31.780  30.544  1.00  0.00     0.031 C 
ATOM     64  C   UNL A   1      45.171  27.936  31.201  1.00  0.00     0.029 A 
ATOM     65  C   UNL A   1      44.425  29.115  31.259  1.00  0.00     0.049 A 
ATOM     66  H   UNL A   1      44.845  30.818  30.097  1.00  0.00     0.167 HD
ATOM     67  C   UNL A   1      42.430  30.495  31.853  1.00  0.00     0.074 A 
ATOM     68  C   UNL A   1      42.266  31.374  30.694  1.00  0.00     0.031 C 
ATOM     69  C   UNL A   1      43.357  29.535  32.146  1.00  0.00     0.031 A 
BRANCH  56  70
ATOM     70  C   UNL A   1      45.173  30.511  27.181  1.00  0.00    -0.014 A 
ATOM     71  C   UNL A   1      46.521  30.826  26.910  1.00  0.00     0.010 A 
ATOM     72  C   UNL A   1      44.238  31.557  27.040  1.00  0.00     0.010 A 
ATOM     73  C   UNL A   1      46.920  32.137  26.621  1.00  0.00     0.020 A 
ATOM     74  C   UNL A   1      44.619  32.858  26.707  1.00  0.00     0.020 A 
ATOM     75  C   UNL A   1      45.964  33.148  26.542  1.00  0.00     0.054 A 
BRANCH  75  76
ATOM     76  S   UNL A   1      46.499  34.857  26.297  1.00  0.00     0.124 S 
ATOM     77  O   UNL A   1      47.256  35.110  27.518  1.00  0.00    -0.237 OA
ATOM     78  O   UNL A   1      47.283  34.760  25.070  1.00  0.00    -0.237 OA
ATOM     79  O   UNL A   1      45.242  35.592  26.172  1.00  0.00    -0.744 OA
ENDBRANCH  75  76
ENDBRANCH  56  70
BRANCH  57  80
ATOM     80  C   UNL A   1      37.801  31.411  31.409  1.00  0.00    -0.014 A 
ATOM     81  C   UNL A   1      36.658  31.103  32.172  1.00  0.00     0.010 A 
ATOM     82  C   UNL A   1      37.888  32.713  30.871  1.00  0.00     0.010 A 
ATOM     83  C   UNL A   1      35.675  32.074  32.440  1.00  0.00     0.020 A 
ATOM     84  C   UNL A   1      36.911  33.686  31.129  1.00  0.00     0.020 A 
ATOM     85  C   UNL A   1      35.820  33.368  31.934  1.00  0.00     0.054 A 
BRANCH  85  86
ATOM     86  S   UNL A   1      34.645  34.666  32.435  1.00  0.00     0.124 S 
ATOM     87  O   UNL A   1      35.474  35.535  33.267  1.00  0.00    -0.237 OA
ATOM     88  O   UNL A   1      34.227  35.231  31.156  1.00  0.00    -0.237 OA
ATOM     89  O   UNL A   1      33.604  33.932  33.154  1.00  0.00    -0.744 OA
ENDBRANCH  85  86
ENDBRANCH  57  80
BRANCH  69  90
ATOM     90  C   UNL A   1      43.147  28.680  33.376  1.00  0.00    -0.014 A 
ATOM     91  C   UNL A   1      43.661  28.991  34.651  1.00  0.00     0.010 A 
ATOM     92  C   UNL A   1      42.244  27.609  33.261  1.00  0.00     0.010 A 
ATOM     93  C   UNL A   1      43.294  28.235  35.776  1.00  0.00     0.020 A 
ATOM     94  C   UNL A   1      41.861  26.865  34.379  1.00  0.00     0.020 A 
ATOM     95  C   UNL A   1      42.394  27.175  35.630  1.00  0.00     0.054 A 
BRANCH  95  96
ATOM     96  S   UNL A   1      41.883  26.226  37.091  1.00  0.00     0.124 S 
ATOM     97  O   UNL A   1      41.778  24.867  36.566  1.00  0.00    -0.237 OA
ATOM     98  O   UNL A   1      42.978  26.456  38.030  1.00  0.00    -0.237 OA
ATOM     99  O   UNL A   1      40.611  26.838  37.476  1.00  0.00    -0.744 OA
ENDBRANCH  95  96
ENDBRANCH  69  90
ENDBRANCH  43  44
ENDBRANCH  35  38
ENDBRANCH  33  34
ENDBRANCH  32  33
ENDBRANCH   1  32
TORSDOF 18
ENDMDL
MODEL 2
REMARK VINA RESULT:     -13.2      2.397      3.308
REMARK SMILES NS(=O)(=O)c1ccc(-n2nc(C(F)F)cc2-c2ccc(C(=O)NCCCNC(=O)c3ccc(-c4c5nc(c(-c6ccc(S(=O)(=O)[O-])cc6)c6ccc([nH]6)c(-c6ccc(S(=O)(=O)[O-])cc6)c6nc(c(-c7ccc(S(=O)(=O)[O-])cc7)c7ccc4[nH]7)C=C6)C=C5)cc3)cc2)cc1
REMARK SMILES IDX 24 1 23 2 21 3 22 4 20 6 17 7 18 8 91 9 19 10 90 11 16 12
REMARK SMILES IDX 9 13 10 14 11 15 15 16 8 17 5 18 6 19 93 20 7 21 92 22 2 23
REMARK SMILES IDX 3 24 4 25 1 26 12 29 13 30 14 31 25 32 26 33 27 34 28 35
REMARK SMILES IDX 29 37 30 38 31 39 89 40 32 41 88 42 33 43 34 44 35 45 82 46
REMARK SMILES IDX 36 47 87 48 81 49 83 50 37 51 86 52 80 53 79 54 38 56 68 57
REMARK SMILES IDX 49 58 67 59 50 60 53 61 66 62 84 63 51 64 52 65 65 67 85 68
REMARK SMILES IDX 54 69 39 70 40 71 48 72 41 73 47 74 42 75 43 76 44 77 45 78
REMARK SMILES IDX 46 79 69 80 70 81 78 82 71 83 77 84 72 85 73 86 74 87 75 88
REMARK SMILES IDX 76 89 55 90 56 91 64 92 57 93 63 94 58 95 59 96 60 97 61 98
REMARK SMILES IDX 62 99
REMARK H PARENT 23 5 1 27 1 28 27 36 83 55 53 66
REMARK Flexibility Score: inf
ROOT
ATOM      1  C   UNL A   1      34.767  23.471  25.551  1.00  0.00     0.118 C 
ENDROOT
BRANCH   1   2
ATOM      2  N   UNL A   1      33.589  22.647  25.774  1.00  0.00    -0.352 N 
ATOM      3  C   UNL A   1      32.254  22.908  25.576  1.00  0.00     0.251 C 
ATOM      4  O   UNL A   1      31.447  21.993  25.719  1.00  0.00    -0.269 OA
ATOM      5  H   UNL A   1      33.781  21.748  26.127  1.00  0.00     0.163 HD
BRANCH   3   6
ATOM      6  C   UNL A   1      31.767  24.242  25.134  1.00  0.00     0.039 A 
ATOM      7  C   UNL A   1      30.713  26.721  24.361  1.00  0.00     0.000 A 
ATOM      8  C   UNL A   1      30.580  26.283  25.685  1.00  0.00     0.011 A 
ATOM      9  C   UNL A   1      31.398  25.939  23.439  1.00  0.00     0.011 A 
ATOM     10  C   UNL A   1      31.103  25.045  26.069  1.00  0.00     0.014 A 
ATOM     11  C   UNL A   1      31.959  24.736  23.843  1.00  0.00     0.014 A 
BRANCH   7  12
ATOM     12  C   UNL A   1      30.244  28.028  23.941  1.00  0.00     0.075 A 
ATOM     13  N   UNL A   1      30.739  29.228  24.428  1.00  0.00    -0.233 N 
ATOM     14  N   UNL A   1      30.007  30.286  23.994  1.00  0.00    -0.166 NA
ATOM     15  C   UNL A   1      29.193  29.770  23.052  1.00  0.00     0.129 A 
ATOM     16  C   UNL A   1      29.277  28.359  23.021  1.00  0.00     0.060 A 
BRANCH  13  17
ATOM     17  C   UNL A   1      31.840  29.387  25.304  1.00  0.00     0.065 A 
ATOM     18  C   UNL A   1      34.108  29.979  26.798  1.00  0.00     0.082 A 
ATOM     19  C   UNL A   1      32.899  30.599  27.115  1.00  0.00     0.024 A 
ATOM     20  C   UNL A   1      34.186  29.046  25.756  1.00  0.00     0.024 A 
ATOM     21  C   UNL A   1      31.763  30.304  26.367  1.00  0.00     0.030 A 
ATOM     22  C   UNL A   1      33.038  28.727  25.020  1.00  0.00     0.030 A 
BRANCH  18  23
ATOM     23  S   UNL A   1      35.534  30.427  27.742  1.00  0.00     0.238 S 
ATOM     24  O   UNL A   1      35.392  31.796  28.145  1.00  0.00    -0.207 OA
ATOM     25  O   UNL A   1      36.709  29.922  27.053  1.00  0.00    -0.207 OA
BRANCH  23  26
ATOM     26  N   UNL A   1      35.424  29.508  29.145  1.00  0.00    -0.225 NA
ATOM     27  H   UNL A   1      34.462  29.191  29.270  1.00  0.00     0.137 HD
ATOM     28  H   UNL A   1      35.702  30.075  29.945  1.00  0.00     0.137 HD
ENDBRANCH  23  26
ENDBRANCH  18  23
ENDBRANCH  13  17
BRANCH  15  29
ATOM     29  C   UNL A   1      28.319  30.609  22.170  1.00  0.00     0.393 C 
ATOM     30  F   UNL A   1      28.734  31.902  22.090  1.00  0.00    -0.203 F 
ATOM     31  F   UNL A   1      28.285  30.129  20.895  1.00  0.00    -0.203 F 
ENDBRANCH  15  29
ENDBRANCH   7  12
ENDBRANCH   3   6
ENDBRANCH   1   2
BRANCH   1  32
ATOM     32  C   UNL A   1      36.003  22.926  26.285  1.00  0.00     0.042 C 
BRANCH  32  33
ATOM     33  C   UNL A   1      37.196  22.775  25.368  1.00  0.00     0.118 C 
BRANCH  33  34
ATOM     34  N   UNL A   1      38.168  21.804  25.884  1.00  0.00    -0.352 N 
ATOM     35  C   UNL A   1      39.427  22.029  26.413  1.00  0.00     0.251 C 
ATOM     36  H   UNL A   1      37.886  20.862  25.849  1.00  0.00     0.163 HD
ATOM     37  O   UNL A   1      40.248  21.120  26.469  1.00  0.00    -0.269 OA
BRANCH  35  38
ATOM     38  C   UNL A   1      39.752  23.375  26.912  1.00  0.00     0.039 A 
ATOM     39  C   UNL A   1      38.903  24.476  26.762  1.00  0.00     0.014 A 
ATOM     40  C   UNL A   1      40.954  23.501  27.591  1.00  0.00     0.014 A 
ATOM     41  C   UNL A   1      39.271  25.686  27.350  1.00  0.00     0.010 A 
ATOM     42  C   UNL A   1      41.150  24.569  28.405  1.00  0.00     0.010 A 
ATOM     43  C   UNL A   1      40.404  25.712  28.172  1.00  0.00    -0.014 A 
BRANCH  43  44
ATOM     44  C   UNL A   1      40.883  26.891  28.871  1.00  0.00     0.031 A 
ATOM     45  C   UNL A   1      42.002  27.581  28.186  1.00  0.00     0.074 A 
ATOM     46  C   UNL A   1      40.108  27.488  29.808  1.00  0.00     0.049 A 
ATOM     47  N   UNL A   1      43.244  27.616  28.536  1.00  0.00    -0.248 NA
ATOM     48  C   UNL A   1      41.748  28.129  26.839  1.00  0.00     0.031 C 
ATOM     49  C   UNL A   1      38.762  27.093  30.259  1.00  0.00     0.029 A 
ATOM     50  N   UNL A   1      40.282  28.678  30.434  1.00  0.00    -0.354 N 
ATOM     51  C   UNL A   1      43.866  28.424  27.588  1.00  0.00     0.074 A 
ATOM     52  C   UNL A   1      42.984  28.446  26.452  1.00  0.00     0.031 C 
ATOM     53  C   UNL A   1      38.163  28.138  30.871  1.00  0.00     0.029 A 
ATOM     54  C   UNL A   1      39.127  29.215  30.998  1.00  0.00     0.049 A 
ATOM     55  H   UNL A   1      41.156  29.128  30.485  1.00  0.00     0.167 HD
ATOM     56  C   UNL A   1      44.870  29.282  27.931  1.00  0.00     0.031 A 
ATOM     57  C   UNL A   1      38.970  30.475  31.484  1.00  0.00     0.031 A 
ATOM     58  C   UNL A   1      45.311  29.050  29.287  1.00  0.00     0.049 A 
ATOM     59  C   UNL A   1      40.338  31.020  31.697  1.00  0.00     0.074 A 
ATOM     60  C   UNL A   1      45.818  27.968  29.978  1.00  0.00     0.029 A 
ATOM     61  N   UNL A   1      44.842  29.927  30.239  1.00  0.00    -0.354 N 
ATOM     62  N   UNL A   1      41.176  30.531  32.568  1.00  0.00    -0.248 NA
ATOM     63  C   UNL A   1      40.943  31.778  30.611  1.00  0.00     0.031 C 
ATOM     64  C   UNL A   1      45.205  28.035  31.264  1.00  0.00     0.029 A 
ATOM     65  C   UNL A   1      44.431  29.197  31.323  1.00  0.00     0.049 A 
ATOM     66  H   UNL A   1      44.808  30.908  30.157  1.00  0.00     0.167 HD
ATOM     67  C   UNL A   1      42.405  30.529  31.919  1.00  0.00     0.074 A 
ATOM     68  C   UNL A   1      42.217  31.403  30.759  1.00  0.00     0.031 C 
ATOM     69  C   UNL A   1      43.356  29.591  32.211  1.00  0.00     0.031 A 
BRANCH  56  70
ATOM     70  C   UNL A   1      45.137  30.604  27.241  1.00  0.00    -0.014 A 
ATOM     71  C   UNL A   1      46.469  30.917  26.900  1.00  0.00     0.010 A 
ATOM     72  C   UNL A   1      44.200  31.654  27.161  1.00  0.00     0.010 A 
ATOM     73  C   UNL A   1      46.856  32.230  26.603  1.00  0.00     0.020 A 
ATOM     74  C   UNL A   1      44.566  32.958  26.821  1.00  0.00     0.020 A 
ATOM     75  C   UNL A   1      45.902  33.245  26.586  1.00  0.00     0.054 A 
BRANCH  75  76
ATOM     76  S   UNL A   1      46.429  34.954  26.329  1.00  0.00     0.124 S 
ATOM     77  O   UNL A   1      47.248  35.194  27.512  1.00  0.00    -0.237 OA
ATOM     78  O   UNL A   1      47.149  34.867  25.062  1.00  0.00    -0.237 OA
ATOM     79  O   UNL A   1      45.170  35.695  26.275  1.00  0.00    -0.744 OA
ENDBRANCH  75  76
ENDBRANCH  56  70
BRANCH  57  80
ATOM     80  C   UNL A   1      37.755  31.335  31.484  1.00  0.00    -0.014 A 
ATOM     81  C   UNL A   1      36.748  31.179  32.457  1.00  0.00     0.010 A 
ATOM     82  C   UNL A   1      37.712  32.500  30.689  1.00  0.00     0.010 A 
ATOM     83  C   UNL A   1      35.778  32.177  32.669  1.00  0.00     0.020 A 
ATOM     84  C   UNL A   1      36.746  33.496  30.891  1.00  0.00     0.020 A 
ATOM     85  C   UNL A   1      35.797  33.342  31.898  1.00  0.00     0.054 A 
BRANCH  85  86
ATOM     86  S   UNL A   1      34.659  34.705  32.299  1.00  0.00     0.124 S 
ATOM     87  O   UNL A   1      33.555  34.008  32.954  1.00  0.00    -0.237 OA
ATOM     88  O   UNL A   1      35.470  35.554  33.166  1.00  0.00    -0.237 OA
ATOM     89  O   UNL A   1      34.339  35.283  30.995  1.00  0.00    -0.744 OA
ENDBRANCH  85  86
ENDBRANCH  57  80
BRANCH  69  90
ATOM     90  C   UNL A   1      43.168  28.734  33.442  1.00  0.00    -0.014 A 
ATOM     91  C   UNL A   1      43.607  29.097  34.732  1.00  0.00     0.010 A 
ATOM     92  C   UNL A   1      42.360  27.592  33.308  1.00  0.00     0.010 A 
ATOM     93  C   UNL A   1      43.259  28.324  35.852  1.00  0.00     0.020 A 
ATOM     94  C   UNL A   1      41.996  26.829  34.419  1.00  0.00     0.020 A 
ATOM     95  C   UNL A   1      42.454  27.193  35.685  1.00  0.00     0.054 A 
BRANCH  95  96
ATOM     96  S   UNL A   1      41.966  26.219  37.137  1.00  0.00     0.124 S 
ATOM     97  O   UNL A   1      40.659  26.778  37.469  1.00  0.00    -0.237 OA
ATOM     98  O   UNL A   1      41.954  24.851  36.624  1.00  0.00    -0.237 OA
ATOM     99  O   UNL A   1      43.021  26.495  38.112  1.00  0.00    -0.744 OA
ENDBRANCH  95  96
ENDBRANCH  69  90
ENDBRANCH  43  44
ENDBRANCH  35  38
ENDBRANCH  33  34
ENDBRANCH  32  33
ENDBRANCH   1  32
TORSDOF 18
ENDMDL
MODEL 3
REMARK VINA RESULT:     -13.1      3.736      8.198
REMARK SMILES NS(=O)(=O)c1ccc(-n2nc(C(F)F)cc2-c2ccc(C(=O)NCCCNC(=O)c3ccc(-c4c5nc(c(-c6ccc(S(=O)(=O)[O-])cc6)c6ccc([nH]6)c(-c6ccc(S(=O)(=O)[O-])cc6)c6nc(c(-c7ccc(S(=O)(=O)[O-])cc7)c7ccc4[nH]7)C=C6)C=C5)cc3)cc2)cc1
REMARK SMILES IDX 24 1 23 2 21 3 22 4 20 6 17 7 18 8 91 9 19 10 90 11 16 12
REMARK SMILES IDX 9 13 10 14 11 15 15 16 8 17 5 18 6 19 93 20 7 21 92 22 2 23
REMARK SMILES IDX 3 24 4 25 1 26 12 29 13 30 14 31 25 32 26 33 27 34 28 35
REMARK SMILES IDX 29 37 30 38 31 39 89 40 32 41 88 42 33 43 34 44 35 45 82 46
REMARK SMILES IDX 36 47 87 48 81 49 83 50 37 51 86 52 80 53 79 54 38 56 68 57
REMARK SMILES IDX 49 58 67 59 50 60 53 61 66 62 84 63 51 64 52 65 65 67 85 68
REMARK SMILES IDX 54 69 39 70 40 71 48 72 41 73 47 74 42 75 43 76 44 77 45 78
REMARK SMILES IDX 46 79 69 80 70 81 78 82 71 83 77 84 72 85 73 86 74 87 75 88
REMARK SMILES IDX 76 89 55 90 56 91 64 92 57 93 63 94 58 95 59 96 60 97 61 98
REMARK SMILES IDX 62 99
REMARK H PARENT 23 5 1 27 1 28 27 36 83 55 53 66
REMARK Flexibility Score: inf
ROOT
ATOM      1  C   UNL A   1      37.665  20.593  25.032  1.00  0.00     0.118 C 
ENDROOT
BRANCH   1   2
ATOM      2  N   UNL A   1      38.429  21.790  25.347  1.00  0.00    -0.352 N 
ATOM      3  C   UNL A   1      38.040  23.102  25.474  1.00  0.00     0.251 C 
ATOM      4  O   UNL A   1      38.860  23.924  25.878  1.00  0.00    -0.269 OA
ATOM      5  H   UNL A   1      39.390  21.634  25.494  1.00  0.00     0.163 HD
BRANCH   3   6
ATOM      6  C   UNL A   1      36.647  23.543  25.198  1.00  0.00     0.039 A 
ATOM      7  C   UNL A   1      34.077  24.474  24.578  1.00  0.00     0.000 A 
ATOM      8  C   UNL A   1      34.944  24.070  23.555  1.00  0.00     0.011 A 
ATOM      9  C   UNL A   1      34.481  24.380  25.905  1.00  0.00     0.011 A 
ATOM     10  C   UNL A   1      36.227  23.609  23.865  1.00  0.00     0.014 A 
ATOM     11  C   UNL A   1      35.737  23.872  26.204  1.00  0.00     0.014 A 
BRANCH   7  12
ATOM     12  C   UNL A   1      32.716  24.893  24.301  1.00  0.00     0.075 A 
ATOM     13  N   UNL A   1      31.691  24.031  23.944  1.00  0.00    -0.233 N 
ATOM     14  N   UNL A   1      30.572  24.705  23.578  1.00  0.00    -0.166 NA
ATOM     15  C   UNL A   1      30.819  25.984  23.926  1.00  0.00     0.129 A 
ATOM     16  C   UNL A   1      32.161  26.151  24.338  1.00  0.00     0.060 A 
BRANCH  13  17
ATOM     17  C   UNL A   1      31.760  22.616  23.906  1.00  0.00     0.065 A 
ATOM     18  C   UNL A   1      32.266  19.884  23.829  1.00  0.00     0.082 A 
ATOM     19  C   UNL A   1      32.124  20.519  25.064  1.00  0.00     0.024 A 
ATOM     20  C   UNL A   1      32.133  20.601  22.633  1.00  0.00     0.024 A 
ATOM     21  C   UNL A   1      31.871  21.888  25.103  1.00  0.00     0.030 A 
ATOM     22  C   UNL A   1      31.851  21.971  22.670  1.00  0.00     0.030 A 
BRANCH  18  23
ATOM     23  S   UNL A   1      32.641  18.156  23.831  1.00  0.00     0.238 S 
ATOM     24  O   UNL A   1      31.886  17.537  24.882  1.00  0.00    -0.207 OA
ATOM     25  O   UNL A   1      34.078  18.005  23.693  1.00  0.00    -0.207 OA
BRANCH  23  26
ATOM     26  N   UNL A   1      32.001  17.579  22.388  1.00  0.00    -0.225 NA
ATOM     27  H   UNL A   1      32.348  16.635  22.216  1.00  0.00     0.137 HD
ATOM     28  H   UNL A   1      32.283  18.190  21.623  1.00  0.00     0.137 HD
ENDBRANCH  23  26
ENDBRANCH  18  23
ENDBRANCH  13  17
BRANCH  15  29
ATOM     29  C   UNL A   1      29.785  27.067  23.867  1.00  0.00     0.393 C 
ATOM     30  F   UNL A   1      30.113  28.066  23.005  1.00  0.00    -0.203 F 
ATOM     31  F   UNL A   1      28.575  26.584  23.467  1.00  0.00    -0.203 F 
ENDBRANCH  15  29
ENDBRANCH   7  12
ENDBRANCH   3   6
ENDBRANCH   1   2
BRANCH   1  32
ATOM     32  C   UNL A   1      38.551  19.338  24.973  1.00  0.00     0.042 C 
BRANCH  32  33
ATOM     33  C   UNL A   1      39.461  19.219  26.176  1.00  0.00     0.118 C 
BRANCH  33  34
ATOM     34  N   UNL A   1      40.838  18.882  25.793  1.00  0.00    -0.352 N 
ATOM     35  C   UNL A   1      41.955  19.698  25.753  1.00  0.00     0.251 C 
ATOM     36  H   UNL A   1      40.987  17.946  25.529  1.00  0.00     0.163 HD
ATOM     37  O   UNL A   1      42.933  19.377  25.089  1.00  0.00    -0.269 OA
BRANCH  35  38
ATOM     38  C   UNL A   1      41.944  20.948  26.530  1.00  0.00     0.039 A 
ATOM     39  C   UNL A   1      41.831  20.986  27.924  1.00  0.00     0.014 A 
ATOM     40  C   UNL A   1      42.093  22.119  25.805  1.00  0.00     0.014 A 
ATOM     41  C   UNL A   1      41.919  22.221  28.566  1.00  0.00     0.010 A 
ATOM     42  C   UNL A   1      42.483  23.253  26.443  1.00  0.00     0.010 A 
ATOM     43  C   UNL A   1      42.247  23.348  27.804  1.00  0.00    -0.014 A 
BRANCH  43  44
ATOM     44  C   UNL A   1      42.404  24.687  28.344  1.00  0.00     0.031 A 
ATOM     45  C   UNL A   1      41.220  25.556  28.143  1.00  0.00     0.074 A 
ATOM     46  C   UNL A   1      43.358  24.938  29.272  1.00  0.00     0.049 A 
ATOM     47  N   UNL A   1      41.101  26.556  27.335  1.00  0.00    -0.248 NA
ATOM     48  C   UNL A   1      39.949  25.140  28.768  1.00  0.00     0.031 C 
ATOM     49  C   UNL A   1      44.331  23.995  29.853  1.00  0.00     0.029 A 
ATOM     50  N   UNL A   1      43.550  26.048  30.026  1.00  0.00    -0.354 N 
ATOM     51  C   UNL A   1      39.820  27.054  27.560  1.00  0.00     0.074 A 
ATOM     52  C   UNL A   1      39.092  25.990  28.199  1.00  0.00     0.031 C 
ATOM     53  C   UNL A   1      44.814  24.497  31.011  1.00  0.00     0.029 A 
ATOM     54  C   UNL A   1      44.315  25.850  31.174  1.00  0.00     0.049 A 
ATOM     55  H   UNL A   1      43.178  26.927  29.782  1.00  0.00     0.167 HD
ATOM     56  C   UNL A   1      39.559  28.392  27.524  1.00  0.00     0.031 A 
ATOM     57  C   UNL A   1      44.475  26.723  32.204  1.00  0.00     0.031 A 
ATOM     58  C   UNL A   1      40.692  29.129  27.012  1.00  0.00     0.049 A 
ATOM     59  C   UNL A   1      44.055  28.056  31.698  1.00  0.00     0.074 A 
ATOM     60  C   UNL A   1      41.425  29.104  25.843  1.00  0.00     0.029 A 
ATOM     61  N   UNL A   1      41.481  29.762  27.946  1.00  0.00    -0.354 N 
ATOM     62  N   UNL A   1      44.681  28.692  30.746  1.00  0.00    -0.248 NA
ATOM     63  C   UNL A   1      42.669  28.454  31.901  1.00  0.00     0.031 C 
ATOM     64  C   UNL A   1      42.777  29.292  26.254  1.00  0.00     0.029 A 
ATOM     65  C   UNL A   1      42.791  29.510  27.634  1.00  0.00     0.049 A 
ATOM     66  H   UNL A   1      41.161  30.301  28.705  1.00  0.00     0.167 HD
ATOM     67  C   UNL A   1      43.675  29.230  29.954  1.00  0.00     0.074 A 
ATOM     68  C   UNL A   1      42.464  29.137  30.771  1.00  0.00     0.031 C 
ATOM     69  C   UNL A   1      43.857  29.417  28.612  1.00  0.00     0.031 A 
BRANCH  56  70
ATOM     70  C   UNL A   1      38.499  29.078  28.361  1.00  0.00    -0.014 A 
ATOM     71  C   UNL A   1      37.578  29.921  27.703  1.00  0.00     0.010 A 
ATOM     72  C   UNL A   1      38.531  29.152  29.768  1.00  0.00     0.010 A 
ATOM     73  C   UNL A   1      36.815  30.859  28.410  1.00  0.00     0.020 A 
ATOM     74  C   UNL A   1      37.740  30.051  30.487  1.00  0.00     0.020 A 
ATOM     75  C   UNL A   1      36.918  30.930  29.798  1.00  0.00     0.054 A 
BRANCH  75  76
ATOM     76  S   UNL A   1      36.029  32.226  30.689  1.00  0.00     0.124 S 
ATOM     77  O   UNL A   1      34.783  32.304  29.935  1.00  0.00    -0.237 OA
ATOM     78  O   UNL A   1      35.928  31.661  32.032  1.00  0.00    -0.237 OA
ATOM     79  O   UNL A   1      36.910  33.386  30.571  1.00  0.00    -0.744 OA
ENDBRANCH  75  76
ENDBRANCH  56  70
BRANCH  57  80
ATOM     80  C   UNL A   1      44.667  26.437  33.652  1.00  0.00    -0.014 A 
ATOM     81  C   UNL A   1      45.536  27.215  34.442  1.00  0.00     0.010 A 
ATOM     82  C   UNL A   1      43.782  25.569  34.325  1.00  0.00     0.010 A 
ATOM     83  C   UNL A   1      45.477  27.173  35.848  1.00  0.00     0.020 A 
ATOM     84  C   UNL A   1      43.720  25.518  35.725  1.00  0.00     0.020 A 
ATOM     85  C   UNL A   1      44.552  26.340  36.482  1.00  0.00     0.054 A 
BRANCH  85  86
ATOM     86  S   UNL A   1      44.353  26.427  38.290  1.00  0.00     0.124 S 
ATOM     87  O   UNL A   1      44.863  27.760  38.597  1.00  0.00    -0.237 OA
ATOM     88  O   UNL A   1      42.915  26.246  38.462  1.00  0.00    -0.237 OA
ATOM     89  O   UNL A   1      45.175  25.322  38.781  1.00  0.00    -0.744 OA
ENDBRANCH  85  86
ENDBRANCH  57  80
BRANCH  69  90
ATOM     90  C   UNL A   1      45.257  29.300  28.052  1.00  0.00    -0.014 A 
ATOM     91  C   UNL A   1      46.163  30.376  27.958  1.00  0.00     0.010 A 
ATOM     92  C   UNL A   1      45.726  28.005  27.771  1.00  0.00     0.010 A 
ATOM     93  C   UNL A   1      47.496  30.160  27.575  1.00  0.00     0.020 A 
ATOM     94  C   UNL A   1      47.055  27.781  27.406  1.00  0.00     0.020 A 
ATOM     95  C   UNL A   1      47.933  28.860  27.300  1.00  0.00     0.054 A 
BRANCH  95  96
ATOM     96  S   UNL A   1      49.668  28.574  26.849  1.00  0.00     0.124 S 
ATOM     97  O   UNL A   1      50.358  29.659  27.540  1.00  0.00    -0.237 OA
ATOM     98  O   UNL A   1      49.923  27.233  27.368  1.00  0.00    -0.237 OA
ATOM     99  O   UNL A   1      49.668  28.673  25.390  1.00  0.00    -0.744 OA
ENDBRANCH  95  96
ENDBRANCH  69  90
ENDBRANCH  43  44
ENDBRANCH  35  38
ENDBRANCH  33  34
ENDBRANCH  32  33
ENDBRANCH   1  32
TORSDOF 18
ENDMDL
