MODEL 1
REMARK VINA RESULT:     -11.2      0.000      0.000
REMARK SMILES CC(C)Cc1ccc([C@H](C)C(=O)NCCCNC(=O)c2ccc(-c3c4nc(c(-c5ccc(S(=O)(=O)[O-])cc5)c5ccc([nH]5)c(-c5ccc(S(=O)(=O)[O-])cc5)c5nc(c(-c6ccc(S(=O)(=O)[O-])cc6)c6ccc3[nH]6)C=C5)C=C4)cc2)cc1
REMARK SMILES IDX 15 1 14 2 13 3 11 4 12 5 9 7 10 8 8 9 5 10 6 11 81 12 7 13
REMARK SMILES IDX 80 14 4 15 2 16 1 17 3 18 16 19 17 20 18 21 19 23 20 24
REMARK SMILES IDX 21 25 79 26 22 27 78 28 23 29 24 30 25 31 72 32 26 33 77 34
REMARK SMILES IDX 71 35 73 36 27 37 76 38 70 39 69 40 28 42 58 43 39 44 57 45
REMARK SMILES IDX 40 46 43 47 56 48 74 49 41 50 42 51 55 53 75 54 44 55 29 56
REMARK SMILES IDX 30 57 38 58 31 59 37 60 32 61 33 62 34 63 35 64 36 65 59 66
REMARK SMILES IDX 60 67 68 68 61 69 67 70 62 71 63 72 64 73 65 74 66 75 45 76
REMARK SMILES IDX 46 77 54 78 47 79 53 80 48 81 49 82 50 83 51 84 52 85
REMARK H PARENT 13 6 17 22 73 41 43 52
REMARK Flexibility Score: inf
ROOT
ATOM      1  C   UNL A   1      31.812  28.320  27.018  1.00  0.00     0.042 C 
ENDROOT
BRANCH   1   2
ATOM      2  C   UNL A   1      31.728  27.166  26.034  1.00  0.00     0.117 C 
BRANCH   2   3
ATOM      3  N   UNL A   1      31.420  25.903  26.688  1.00  0.00    -0.356 N 
ATOM      4  C   UNL A   1      32.015  24.685  26.549  1.00  0.00     0.227 C 
ATOM      5  O   UNL A   1      31.673  23.791  27.328  1.00  0.00    -0.274 OA
ATOM      6  H   UNL A   1      30.670  25.933  27.327  1.00  0.00     0.163 HD
BRANCH   4   7
ATOM      7  C   UNL A   1      33.055  24.425  25.458  1.00  0.00     0.105 C 
ATOM      8  C   UNL A   1      34.246  25.378  25.644  1.00  0.00     0.023 C 
BRANCH   7   9
ATOM      9  C   UNL A   1      33.443  22.963  25.256  1.00  0.00    -0.036 A 
ATOM     10  C   UNL A   1      34.133  20.252  24.832  1.00  0.00    -0.048 A 
ATOM     11  C   UNL A   1      35.069  21.150  25.350  1.00  0.00     0.004 A 
ATOM     12  C   UNL A   1      32.847  20.710  24.535  1.00  0.00     0.004 A 
ATOM     13  C   UNL A   1      34.716  22.476  25.591  1.00  0.00     0.005 A 
ATOM     14  C   UNL A   1      32.506  22.050  24.746  1.00  0.00     0.005 A 
BRANCH  10  15
ATOM     15  C   UNL A   1      34.497  18.797  24.672  1.00  0.00     0.038 C 
BRANCH  15  16
ATOM     16  C   UNL A   1      33.342  17.972  24.066  1.00  0.00    -0.013 C 
ATOM     17  C   UNL A   1      33.842  16.982  23.010  1.00  0.00     0.008 C 
ATOM     18  C   UNL A   1      32.590  17.228  25.168  1.00  0.00     0.008 C 
ENDBRANCH  15  16
ENDBRANCH  10  15
ENDBRANCH   7   9
ENDBRANCH   4   7
ENDBRANCH   2   3
ENDBRANCH   1   2
BRANCH   1  19
ATOM     19  C   UNL A   1      33.237  28.758  27.327  1.00  0.00     0.118 C 
BRANCH  19  20
ATOM     20  N   UNL A   1      33.336  30.167  27.696  1.00  0.00    -0.352 N 
ATOM     21  C   UNL A   1      34.384  30.857  28.257  1.00  0.00     0.251 C 
ATOM     22  H   UNL A   1      32.531  30.703  27.515  1.00  0.00     0.163 HD
ATOM     23  O   UNL A   1      34.226  32.011  28.645  1.00  0.00    -0.269 OA
BRANCH  21  24
ATOM     24  C   UNL A   1      35.690  30.187  28.423  1.00  0.00     0.039 A 
ATOM     25  C   UNL A   1      36.584  30.161  27.350  1.00  0.00     0.014 A 
ATOM     26  C   UNL A   1      36.050  29.637  29.655  1.00  0.00     0.014 A 
ATOM     27  C   UNL A   1      37.882  29.684  27.548  1.00  0.00     0.010 A 
ATOM     28  C   UNL A   1      37.366  29.247  29.873  1.00  0.00     0.010 A 
ATOM     29  C   UNL A   1      38.301  29.282  28.827  1.00  0.00    -0.014 A 
BRANCH  29  30
ATOM     30  C   UNL A   1      39.715  28.933  29.117  1.00  0.00     0.031 A 
ATOM     31  C   UNL A   1      40.652  29.979  29.652  1.00  0.00     0.074 A 
ATOM     32  C   UNL A   1      40.177  27.708  28.792  1.00  0.00     0.049 A 
ATOM     33  N   UNL A   1      41.947  29.911  29.827  1.00  0.00    -0.248 NA
ATOM     34  C   UNL A   1      40.064  31.281  30.005  1.00  0.00     0.031 C 
ATOM     35  C   UNL A   1      39.379  26.618  28.225  1.00  0.00     0.029 A 
ATOM     36  N   UNL A   1      41.442  27.180  28.873  1.00  0.00    -0.354 N 
ATOM     37  C   UNL A   1      42.330  31.166  30.284  1.00  0.00     0.074 A 
ATOM     38  C   UNL A   1      41.139  31.987  30.320  1.00  0.00     0.031 C 
ATOM     39  C   UNL A   1      40.167  25.549  28.029  1.00  0.00     0.029 A 
ATOM     40  C   UNL A   1      41.534  25.890  28.405  1.00  0.00     0.049 A 
ATOM     41  H   UNL A   1      42.213  27.679  29.232  1.00  0.00     0.167 HD
ATOM     42  C   UNL A   1      43.561  31.592  30.657  1.00  0.00     0.031 A 
ATOM     43  C   UNL A   1      42.601  25.077  28.274  1.00  0.00     0.031 A 
ATOM     44  C   UNL A   1      44.738  30.768  30.640  1.00  0.00     0.049 A 
ATOM     45  C   UNL A   1      43.959  25.578  28.678  1.00  0.00     0.074 A 
ATOM     46  C   UNL A   1      46.016  31.085  31.065  1.00  0.00     0.029 A 
ATOM     47  N   UNL A   1      44.784  29.464  30.171  1.00  0.00    -0.354 N 
ATOM     48  N   UNL A   1      44.290  26.749  29.168  1.00  0.00    -0.248 NA
ATOM     49  C   UNL A   1      45.087  24.651  28.508  1.00  0.00     0.031 C 
ATOM     50  C   UNL A   1      46.845  29.989  30.810  1.00  0.00     0.029 A 
ATOM     51  C   UNL A   1      46.074  28.972  30.269  1.00  0.00     0.049 A 
ATOM     52  H   UNL A   1      44.013  28.962  29.819  1.00  0.00     0.167 HD
ATOM     53  C   UNL A   1      45.663  26.694  29.379  1.00  0.00     0.074 A 
ATOM     54  C   UNL A   1      46.097  25.371  28.978  1.00  0.00     0.031 C 
ATOM     55  C   UNL A   1      46.489  27.654  29.859  1.00  0.00     0.031 A 
BRANCH  42  56
ATOM     56  C   UNL A   1      43.691  33.021  31.110  1.00  0.00    -0.014 A 
ATOM     57  C   UNL A   1      44.041  34.039  30.205  1.00  0.00     0.010 A 
ATOM     58  C   UNL A   1      43.433  33.355  32.452  1.00  0.00     0.010 A 
ATOM     59  C   UNL A   1      44.173  35.360  30.643  1.00  0.00     0.020 A 
ATOM     60  C   UNL A   1      43.539  34.679  32.888  1.00  0.00     0.020 A 
ATOM     61  C   UNL A   1      43.927  35.670  31.983  1.00  0.00     0.054 A 
BRANCH  61  62
ATOM     62  S   UNL A   1      44.090  37.395  32.520  1.00  0.00     0.124 S 
ATOM     63  O   UNL A   1      45.476  37.433  32.982  1.00  0.00    -0.237 OA
ATOM     64  O   UNL A   1      43.816  38.141  31.296  1.00  0.00    -0.237 OA
ATOM     65  O   UNL A   1      43.081  37.529  33.567  1.00  0.00    -0.744 OA
ENDBRANCH  61  62
ENDBRANCH  42  56
BRANCH  43  66
ATOM     66  C   UNL A   1      42.423  23.704  27.730  1.00  0.00    -0.014 A 
ATOM     67  C   UNL A   1      42.554  23.464  26.351  1.00  0.00     0.010 A 
ATOM     68  C   UNL A   1      42.142  22.625  28.589  1.00  0.00     0.010 A 
ATOM     69  C   UNL A   1      42.400  22.172  25.840  1.00  0.00     0.020 A 
ATOM     70  C   UNL A   1      42.011  21.329  28.085  1.00  0.00     0.020 A 
ATOM     71  C   UNL A   1      42.131  21.112  26.710  1.00  0.00     0.054 A 
BRANCH  71  72
ATOM     72  S   UNL A   1      41.997  19.434  26.033  1.00  0.00     0.124 S 
ATOM     73  O   UNL A   1      40.561  19.317  25.796  1.00  0.00    -0.237 OA
ATOM     74  O   UNL A   1      42.832  19.507  24.837  1.00  0.00    -0.237 OA
ATOM     75  O   UNL A   1      42.528  18.592  27.103  1.00  0.00    -0.744 OA
ENDBRANCH  71  72
ENDBRANCH  43  66
BRANCH  55  76
ATOM     76  C   UNL A   1      47.947  27.313  29.991  1.00  0.00    -0.014 A 
ATOM     77  C   UNL A   1      48.857  27.632  28.968  1.00  0.00     0.010 A 
ATOM     78  C   UNL A   1      48.424  26.739  31.184  1.00  0.00     0.010 A 
ATOM     79  C   UNL A   1      50.220  27.372  29.131  1.00  0.00     0.020 A 
ATOM     80  C   UNL A   1      49.789  26.499  31.359  1.00  0.00     0.020 A 
ATOM     81  C   UNL A   1      50.677  26.811  30.328  1.00  0.00     0.054 A 
BRANCH  81  82
ATOM     82  S   UNL A   1      52.459  26.550  30.543  1.00  0.00     0.124 S 
ATOM     83  O   UNL A   1      52.882  26.202  29.189  1.00  0.00    -0.237 OA
ATOM     84  O   UNL A   1      52.918  27.848  31.031  1.00  0.00    -0.237 OA
ATOM     85  O   UNL A   1      52.535  25.464  31.518  1.00  0.00    -0.744 OA
ENDBRANCH  81  82
ENDBRANCH  55  76
ENDBRANCH  29  30
ENDBRANCH  21  24
ENDBRANCH  19  20
ENDBRANCH   1  19
TORSDOF 16
ENDMDL
MODEL 2
REMARK VINA RESULT:     -10.7      1.247      2.124
REMARK SMILES CC(C)Cc1ccc([C@H](C)C(=O)NCCCNC(=O)c2ccc(-c3c4nc(c(-c5ccc(S(=O)(=O)[O-])cc5)c5ccc([nH]5)c(-c5ccc(S(=O)(=O)[O-])cc5)c5nc(c(-c6ccc(S(=O)(=O)[O-])cc6)c6ccc3[nH]6)C=C5)C=C4)cc2)cc1
REMARK SMILES IDX 15 1 14 2 13 3 11 4 12 5 9 7 10 8 8 9 5 10 6 11 81 12 7 13
REMARK SMILES IDX 80 14 4 15 2 16 1 17 3 18 16 19 17 20 18 21 19 23 20 24
REMARK SMILES IDX 21 25 79 26 22 27 78 28 23 29 24 30 25 31 72 32 26 33 77 34
REMARK SMILES IDX 71 35 73 36 27 37 76 38 70 39 69 40 28 42 58 43 39 44 57 45
REMARK SMILES IDX 40 46 43 47 56 48 74 49 41 50 42 51 55 53 75 54 44 55 29 56
REMARK SMILES IDX 30 57 38 58 31 59 37 60 32 61 33 62 34 63 35 64 36 65 59 66
REMARK SMILES IDX 60 67 68 68 61 69 67 70 62 71 63 72 64 73 65 74 66 75 45 76
REMARK SMILES IDX 46 77 54 78 47 79 53 80 48 81 49 82 50 83 51 84 52 85
REMARK H PARENT 13 6 17 22 73 41 43 52
REMARK Flexibility Score: inf
ROOT
ATOM      1  C   UNL A   1      32.141  28.286  27.154  1.00  0.00     0.042 C 
ENDROOT
BRANCH   1   2
ATOM      2  C   UNL A   1      31.420  28.733  25.895  1.00  0.00     0.117 C 
BRANCH   2   3
ATOM      3  N   UNL A   1      32.334  28.967  24.787  1.00  0.00    -0.356 N 
ATOM      4  C   UNL A   1      32.590  28.192  23.696  1.00  0.00     0.227 C 
ATOM      5  O   UNL A   1      33.299  28.674  22.808  1.00  0.00    -0.274 OA
ATOM      6  H   UNL A   1      32.841  29.809  24.833  1.00  0.00     0.163 HD
BRANCH   4   7
ATOM      7  C   UNL A   1      32.037  26.771  23.577  1.00  0.00     0.105 C 
ATOM      8  C   UNL A   1      31.543  26.528  22.142  1.00  0.00     0.023 C 
BRANCH   7   9
ATOM      9  C   UNL A   1      32.935  25.669  24.132  1.00  0.00    -0.036 A 
ATOM     10  C   UNL A   1      34.554  23.594  25.171  1.00  0.00    -0.048 A 
ATOM     11  C   UNL A   1      34.941  24.289  24.023  1.00  0.00     0.004 A 
ATOM     12  C   UNL A   1      33.359  23.945  25.804  1.00  0.00     0.004 A 
ATOM     13  C   UNL A   1      34.160  25.334  23.534  1.00  0.00     0.005 A 
ATOM     14  C   UNL A   1      32.560  24.972  25.291  1.00  0.00     0.005 A 
BRANCH  10  15
ATOM     15  C   UNL A   1      35.459  22.535  25.748  1.00  0.00     0.038 C 
BRANCH  15  16
ATOM     16  C   UNL A   1      35.637  21.337  24.792  1.00  0.00    -0.013 C 
ATOM     17  C   UNL A   1      37.019  20.694  24.935  1.00  0.00     0.008 C 
ATOM     18  C   UNL A   1      34.546  20.297  25.040  1.00  0.00     0.008 C 
ENDBRANCH  15  16
ENDBRANCH  10  15
ENDBRANCH   7   9
ENDBRANCH   4   7
ENDBRANCH   2   3
ENDBRANCH   1   2
BRANCH   1  19
ATOM     19  C   UNL A   1      33.564  28.817  27.265  1.00  0.00     0.118 C 
BRANCH  19  20
ATOM     20  N   UNL A   1      33.628  30.185  27.771  1.00  0.00    -0.352 N 
ATOM     21  C   UNL A   1      34.649  30.835  28.423  1.00  0.00     0.251 C 
ATOM     22  H   UNL A   1      32.817  30.723  27.621  1.00  0.00     0.163 HD
ATOM     23  O   UNL A   1      34.459  31.942  28.916  1.00  0.00    -0.269 OA
BRANCH  21  24
ATOM     24  C   UNL A   1      35.962  30.173  28.559  1.00  0.00     0.039 A 
ATOM     25  C   UNL A   1      36.834  30.160  27.467  1.00  0.00     0.014 A 
ATOM     26  C   UNL A   1      36.351  29.617  29.780  1.00  0.00     0.014 A 
ATOM     27  C   UNL A   1      38.139  29.690  27.636  1.00  0.00     0.010 A 
ATOM     28  C   UNL A   1      37.673  29.235  29.968  1.00  0.00     0.010 A 
ATOM     29  C   UNL A   1      38.587  29.283  28.904  1.00  0.00    -0.014 A 
BRANCH  29  30
ATOM     30  C   UNL A   1      40.008  28.942  29.163  1.00  0.00     0.031 A 
ATOM     31  C   UNL A   1      40.953  29.994  29.673  1.00  0.00     0.074 A 
ATOM     32  C   UNL A   1      40.470  27.719  28.831  1.00  0.00     0.049 A 
ATOM     33  N   UNL A   1      42.251  29.934  29.819  1.00  0.00    -0.248 NA
ATOM     34  C   UNL A   1      40.366  31.295  30.035  1.00  0.00     0.031 C 
ATOM     35  C   UNL A   1      39.664  26.623  28.286  1.00  0.00     0.029 A 
ATOM     36  N   UNL A   1      41.739  27.197  28.886  1.00  0.00    -0.354 N 
ATOM     37  C   UNL A   1      42.638  31.192  30.263  1.00  0.00     0.074 A 
ATOM     38  C   UNL A   1      41.444  32.008  30.324  1.00  0.00     0.031 C 
ATOM     39  C   UNL A   1      40.453  25.557  28.076  1.00  0.00     0.029 A 
ATOM     40  C   UNL A   1      41.826  25.906  28.420  1.00  0.00     0.049 A 
ATOM     41  H   UNL A   1      42.515  27.701  29.225  1.00  0.00     0.167 HD
ATOM     42  C   UNL A   1      43.875  31.626  30.606  1.00  0.00     0.031 A 
ATOM     43  C   UNL A   1      42.894  25.098  28.267  1.00  0.00     0.031 A 
ATOM     44  C   UNL A   1      45.055  30.807  30.566  1.00  0.00     0.049 A 
ATOM     45  C   UNL A   1      44.259  25.607  28.639  1.00  0.00     0.074 A 
ATOM     46  C   UNL A   1      46.341  31.132  30.961  1.00  0.00     0.029 A 
ATOM     47  N   UNL A   1      45.097  29.502  30.100  1.00  0.00    -0.354 N 
ATOM     48  N   UNL A   1      44.595  26.781  29.118  1.00  0.00    -0.248 NA
ATOM     49  C   UNL A   1      45.387  24.685  28.446  1.00  0.00     0.031 C 
ATOM     50  C   UNL A   1      47.170  30.039  30.691  1.00  0.00     0.029 A 
ATOM     51  C   UNL A   1      46.392  29.017  30.171  1.00  0.00     0.049 A 
ATOM     52  H   UNL A   1      44.322  28.995  29.767  1.00  0.00     0.167 HD
ATOM     53  C   UNL A   1      45.972  26.733  29.298  1.00  0.00     0.074 A 
ATOM     54  C   UNL A   1      46.404  25.412  28.891  1.00  0.00     0.031 C 
ATOM     55  C   UNL A   1      46.804  27.700  29.756  1.00  0.00     0.031 A 
BRANCH  42  56
ATOM     56  C   UNL A   1      44.008  33.057  31.053  1.00  0.00    -0.014 A 
ATOM     57  C   UNL A   1      43.839  33.413  32.403  1.00  0.00     0.010 A 
ATOM     58  C   UNL A   1      44.337  34.054  30.116  1.00  0.00     0.010 A 
ATOM     59  C   UNL A   1      43.952  34.747  32.801  1.00  0.00     0.020 A 
ATOM     60  C   UNL A   1      44.476  35.386  30.516  1.00  0.00     0.020 A 
ATOM     61  C   UNL A   1      44.263  35.726  31.853  1.00  0.00     0.054 A 
BRANCH  61  62
ATOM     62  S   UNL A   1      44.419  37.449  32.401  1.00  0.00     0.124 S 
ATOM     63  O   UNL A   1      43.901  38.177  31.246  1.00  0.00    -0.237 OA
ATOM     64  O   UNL A   1      43.577  37.484  33.594  1.00  0.00    -0.237 OA
ATOM     65  O   UNL A   1      45.850  37.607  32.647  1.00  0.00    -0.744 OA
ENDBRANCH  61  62
ENDBRANCH  42  56
BRANCH  43  66
ATOM     66  C   UNL A   1      42.711  23.722  27.732  1.00  0.00    -0.014 A 
ATOM     67  C   UNL A   1      42.442  22.652  28.603  1.00  0.00     0.010 A 
ATOM     68  C   UNL A   1      42.784  23.477  26.348  1.00  0.00     0.010 A 
ATOM     69  C   UNL A   1      42.257  21.360  28.101  1.00  0.00     0.020 A 
ATOM     70  C   UNL A   1      42.576  22.191  25.841  1.00  0.00     0.020 A 
ATOM     71  C   UNL A   1      42.324  21.138  26.723  1.00  0.00     0.054 A 
BRANCH  71  72
ATOM     72  S   UNL A   1      42.019  19.466  26.088  1.00  0.00     0.124 S 
ATOM     73  O   UNL A   1      42.850  19.441  24.889  1.00  0.00    -0.237 OA
ATOM     74  O   UNL A   1      42.473  18.621  27.190  1.00  0.00    -0.237 OA
ATOM     75  O   UNL A   1      40.577  19.448  25.854  1.00  0.00    -0.744 OA
ENDBRANCH  71  72
ENDBRANCH  43  66
BRANCH  55  76
ATOM     76  C   UNL A   1      48.266  27.366  29.856  1.00  0.00    -0.014 A 
ATOM     77  C   UNL A   1      49.149  27.675  28.806  1.00  0.00     0.010 A 
ATOM     78  C   UNL A   1      48.776  26.811  31.044  1.00  0.00     0.010 A 
ATOM     79  C   UNL A   1      50.517  27.422  28.938  1.00  0.00     0.020 A 
ATOM     80  C   UNL A   1      50.146  26.579  31.188  1.00  0.00     0.020 A 
ATOM     81  C   UNL A   1      51.007  26.880  30.131  1.00  0.00     0.054 A 
BRANCH  81  82
ATOM     82  S   UNL A   1      52.795  26.629  30.305  1.00  0.00     0.124 S 
ATOM     83  O   UNL A   1      53.238  27.932  30.796  1.00  0.00    -0.237 OA
ATOM     84  O   UNL A   1      52.874  25.534  31.268  1.00  0.00    -0.237 OA
ATOM     85  O   UNL A   1      53.230  26.292  28.952  1.00  0.00    -0.744 OA
ENDBRANCH  81  82
ENDBRANCH  55  76
ENDBRANCH  29  30
ENDBRANCH  21  24
ENDBRANCH  19  20
ENDBRANCH   1  19
TORSDOF 16
ENDMDL
MODEL 3
REMARK VINA RESULT:     -10.7      2.778      9.105
REMARK SMILES CC(C)Cc1ccc([C@H](C)C(=O)NCCCNC(=O)c2ccc(-c3c4nc(c(-c5ccc(S(=O)(=O)[O-])cc5)c5ccc([nH]5)c(-c5ccc(S(=O)(=O)[O-])cc5)c5nc(c(-c6ccc(S(=O)(=O)[O-])cc6)c6ccc3[nH]6)C=C5)C=C4)cc2)cc1
REMARK SMILES IDX 15 1 14 2 13 3 11 4 12 5 9 7 10 8 8 9 5 10 6 11 81 12 7 13
REMARK SMILES IDX 80 14 4 15 2 16 1 17 3 18 16 19 17 20 18 21 19 23 20 24
REMARK SMILES IDX 21 25 79 26 22 27 78 28 23 29 24 30 25 31 72 32 26 33 77 34
REMARK SMILES IDX 71 35 73 36 27 37 76 38 70 39 69 40 28 42 58 43 39 44 57 45
REMARK SMILES IDX 40 46 43 47 56 48 74 49 41 50 42 51 55 53 75 54 44 55 29 56
REMARK SMILES IDX 30 57 38 58 31 59 37 60 32 61 33 62 34 63 35 64 36 65 59 66
REMARK SMILES IDX 60 67 68 68 61 69 67 70 62 71 63 72 64 73 65 74 66 75 45 76
REMARK SMILES IDX 46 77 54 78 47 79 53 80 48 81 49 82 50 83 51 84 52 85
REMARK H PARENT 13 6 17 22 73 41 43 52
REMARK Flexibility Score: inf
ROOT
ATOM      1  C   UNL A   1      36.696  23.066  23.710  1.00  0.00     0.042 C 
ENDROOT
BRANCH   1   2
ATOM      2  C   UNL A   1      35.260  23.470  23.425  1.00  0.00     0.117 C 
BRANCH   2   3
ATOM      3  N   UNL A   1      34.730  24.378  24.431  1.00  0.00    -0.356 N 
ATOM      4  C   UNL A   1      33.489  24.425  24.991  1.00  0.00     0.227 C 
ATOM      5  O   UNL A   1      33.320  25.194  25.941  1.00  0.00    -0.274 OA
ATOM      6  H   UNL A   1      35.363  25.059  24.756  1.00  0.00     0.163 HD
BRANCH   4   7
ATOM      7  C   UNL A   1      32.339  23.570  24.455  1.00  0.00     0.105 C 
ATOM      8  C   UNL A   1      31.957  24.045  23.044  1.00  0.00     0.023 C 
BRANCH   7   9
ATOM      9  C   UNL A   1      32.527  22.061  24.584  1.00  0.00    -0.036 A 
ATOM     10  C   UNL A   1      32.898  19.262  24.771  1.00  0.00    -0.048 A 
ATOM     11  C   UNL A   1      33.153  20.087  25.869  1.00  0.00     0.004 A 
ATOM     12  C   UNL A   1      32.446  19.839  23.582  1.00  0.00     0.004 A 
ATOM     13  C   UNL A   1      32.936  21.461  25.785  1.00  0.00     0.005 A 
ATOM     14  C   UNL A   1      32.262  21.222  23.490  1.00  0.00     0.005 A 
BRANCH  10  15
ATOM     15  C   UNL A   1      33.038  17.767  24.907  1.00  0.00     0.038 C 
BRANCH  15  16
ATOM     16  C   UNL A   1      34.369  17.252  24.318  1.00  0.00    -0.013 C 
ATOM     17  C   UNL A   1      34.964  16.121  25.161  1.00  0.00     0.008 C 
ATOM     18  C   UNL A   1      34.162  16.783  22.880  1.00  0.00     0.008 C 
ENDBRANCH  15  16
ENDBRANCH  10  15
ENDBRANCH   7   9
ENDBRANCH   4   7
ENDBRANCH   2   3
ENDBRANCH   1   2
BRANCH   1  19
ATOM     19  C   UNL A   1      37.113  23.275  25.159  1.00  0.00     0.118 C 
BRANCH  19  20
ATOM     20  N   UNL A   1      38.230  22.426  25.562  1.00  0.00    -0.352 N 
ATOM     21  C   UNL A   1      39.377  22.748  26.249  1.00  0.00     0.251 C 
ATOM     22  H   UNL A   1      38.149  21.479  25.304  1.00  0.00     0.163 HD
ATOM     23  O   UNL A   1      40.282  21.927  26.358  1.00  0.00    -0.269 OA
BRANCH  21  24
ATOM     24  C   UNL A   1      39.526  24.102  26.820  1.00  0.00     0.039 A 
ATOM     25  C   UNL A   1      39.087  24.343  28.124  1.00  0.00     0.014 A 
ATOM     26  C   UNL A   1      40.151  25.113  26.086  1.00  0.00     0.014 A 
ATOM     27  C   UNL A   1      39.377  25.567  28.731  1.00  0.00     0.010 A 
ATOM     28  C   UNL A   1      40.516  26.294  26.722  1.00  0.00     0.010 A 
ATOM     29  C   UNL A   1      40.149  26.527  28.056  1.00  0.00    -0.014 A 
BRANCH  29  30
ATOM     30  C   UNL A   1      40.625  27.765  28.724  1.00  0.00     0.031 A 
ATOM     31  C   UNL A   1      41.987  27.799  29.360  1.00  0.00     0.074 A 
ATOM     32  C   UNL A   1      39.788  28.814  28.856  1.00  0.00     0.049 A 
ATOM     33  N   UNL A   1      42.520  28.726  30.112  1.00  0.00    -0.248 NA
ATOM     34  C   UNL A   1      42.849  26.625  29.149  1.00  0.00     0.031 C 
ATOM     35  C   UNL A   1      38.425  28.888  28.323  1.00  0.00     0.029 A 
ATOM     36  N   UNL A   1      39.954  30.015  29.500  1.00  0.00    -0.354 N 
ATOM     37  C   UNL A   1      43.766  28.237  30.486  1.00  0.00     0.074 A 
ATOM     38  C   UNL A   1      43.893  26.914  29.911  1.00  0.00     0.031 C 
ATOM     39  C   UNL A   1      37.889  30.077  28.644  1.00  0.00     0.029 A 
ATOM     40  C   UNL A   1      38.846  30.828  29.449  1.00  0.00     0.049 A 
ATOM     41  H   UNL A   1      40.789  30.270  29.957  1.00  0.00     0.167 HD
ATOM     42  C   UNL A   1      44.726  28.840  31.227  1.00  0.00     0.031 A 
ATOM     43  C   UNL A   1      38.615  32.035  30.003  1.00  0.00     0.031 A 
ATOM     44  C   UNL A   1      44.606  30.162  31.778  1.00  0.00     0.049 A 
ATOM     45  C   UNL A   1      39.690  32.677  30.835  1.00  0.00     0.074 A 
ATOM     46  C   UNL A   1      45.551  30.888  32.481  1.00  0.00     0.029 A 
ATOM     47  N   UNL A   1      43.472  30.955  31.691  1.00  0.00    -0.354 N 
ATOM     48  N   UNL A   1      40.887  32.224  31.123  1.00  0.00    -0.248 NA
ATOM     49  C   UNL A   1      39.382  33.990  31.419  1.00  0.00     0.031 C 
ATOM     50  C   UNL A   1      44.971  32.103  32.861  1.00  0.00     0.029 A 
ATOM     51  C   UNL A   1      43.682  32.152  32.353  1.00  0.00     0.049 A 
ATOM     52  H   UNL A   1      42.641  30.704  31.228  1.00  0.00     0.167 HD
ATOM     53  C   UNL A   1      41.480  33.203  31.911  1.00  0.00     0.074 A 
ATOM     54  C   UNL A   1      40.518  34.279  32.040  1.00  0.00     0.031 C 
ATOM     55  C   UNL A   1      42.711  33.209  32.477  1.00  0.00     0.031 A 
BRANCH  42  56
ATOM     56  C   UNL A   1      45.991  28.066  31.485  1.00  0.00    -0.014 A 
ATOM     57  C   UNL A   1      47.084  28.150  30.603  1.00  0.00     0.010 A 
ATOM     58  C   UNL A   1      46.100  27.269  32.638  1.00  0.00     0.010 A 
ATOM     59  C   UNL A   1      48.247  27.416  30.847  1.00  0.00     0.020 A 
ATOM     60  C   UNL A   1      47.272  26.553  32.899  1.00  0.00     0.020 A 
ATOM     61  C   UNL A   1      48.331  26.617  31.991  1.00  0.00     0.054 A 
BRANCH  61  62
ATOM     62  S   UNL A   1      49.859  25.685  32.291  1.00  0.00     0.124 S 
ATOM     63  O   UNL A   1      49.405  24.661  33.228  1.00  0.00    -0.237 OA
ATOM     64  O   UNL A   1      50.210  25.205  30.957  1.00  0.00    -0.237 OA
ATOM     65  O   UNL A   1      50.768  26.682  32.849  1.00  0.00    -0.744 OA
ENDBRANCH  61  62
ENDBRANCH  42  56
BRANCH  43  66
ATOM     66  C   UNL A   1      37.308  32.710  29.789  1.00  0.00    -0.014 A 
ATOM     67  C   UNL A   1      36.259  32.534  30.708  1.00  0.00     0.010 A 
ATOM     68  C   UNL A   1      37.110  33.550  28.677  1.00  0.00     0.010 A 
ATOM     69  C   UNL A   1      35.033  33.179  30.515  1.00  0.00     0.020 A 
ATOM     70  C   UNL A   1      35.894  34.214  28.493  1.00  0.00     0.020 A 
ATOM     71  C   UNL A   1      34.859  34.016  29.410  1.00  0.00     0.054 A 
BRANCH  71  72
ATOM     72  S   UNL A   1      33.282  34.891  29.212  1.00  0.00     0.124 S 
ATOM     73  O   UNL A   1      33.719  36.197  28.728  1.00  0.00    -0.237 OA
ATOM     74  O   UNL A   1      32.577  34.059  28.240  1.00  0.00    -0.237 OA
ATOM     75  O   UNL A   1      32.714  34.878  30.558  1.00  0.00    -0.744 OA
ENDBRANCH  71  72
ENDBRANCH  43  66
BRANCH  55  76
ATOM     76  C   UNL A   1      43.098  34.418  33.282  1.00  0.00    -0.014 A 
ATOM     77  C   UNL A   1      42.832  34.482  34.661  1.00  0.00     0.010 A 
ATOM     78  C   UNL A   1      43.807  35.467  32.668  1.00  0.00     0.010 A 
ATOM     79  C   UNL A   1      43.259  35.581  35.410  1.00  0.00     0.020 A 
ATOM     80  C   UNL A   1      44.254  36.557  33.418  1.00  0.00     0.020 A 
ATOM     81  C   UNL A   1      43.971  36.609  34.785  1.00  0.00     0.054 A 
BRANCH  81  82
ATOM     82  S   UNL A   1      44.576  37.990  35.794  1.00  0.00     0.124 S 
ATOM     83  O   UNL A   1      43.888  39.130  35.194  1.00  0.00    -0.237 OA
ATOM     84  O   UNL A   1      44.135  37.625  37.137  1.00  0.00    -0.237 OA
ATOM     85  O   UNL A   1      46.023  37.958  35.591  1.00  0.00    -0.744 OA
ENDBRANCH  81  82
ENDBRANCH  55  76
ENDBRANCH  29  30
ENDBRANCH  21  24
ENDBRANCH  19  20
ENDBRANCH   1  19
TORSDOF 16
ENDMDL
