MODEL 1
REMARK VINA RESULT:     -12.6      0.000      0.000
REMARK SMILES O=C(NCCCNC(=O)[C@@H](c1c[nH]c2cc(OCc3ccccc3)ccc12)[NH+]1CCSCC1)c1ccc(-c2c3nc(c(-c4ccc(S(=O)(=O)[O-])cc4)c4ccc([nH]4)c(-c4ccc(S(=O)(=O)[O-])cc4)c4nc(c(-c5ccc(S(=O)(=O)[O-])cc5)c5ccc2[nH]5)C=C4)C=C3)cc1
REMARK SMILES IDX 5 1 4 2 3 3 1 4 2 5 34 7 35 8 93 9 36 10 92 11 37 12 38 13
REMARK SMILES IDX 39 14 86 15 40 16 91 17 85 18 87 19 41 20 90 21 84 22 83 23
REMARK SMILES IDX 42 25 72 26 53 27 71 28 54 29 57 30 70 31 88 32 55 33 56 34
REMARK SMILES IDX 69 36 89 37 58 38 43 39 44 40 52 41 45 42 51 43 46 44 47 45
REMARK SMILES IDX 48 46 49 47 50 48 73 49 74 50 82 51 75 52 81 53 76 54 77 55
REMARK SMILES IDX 78 56 79 57 80 58 59 59 60 60 68 61 61 62 67 63 62 64 63 65
REMARK SMILES IDX 64 66 65 67 66 68 6 69 7 70 8 71 9 73 10 74 11 75 12 76
REMARK SMILES IDX 27 77 13 78 14 79 26 80 15 82 25 83 16 84 17 85 18 86 19 87
REMARK SMILES IDX 20 88 24 89 21 90 23 91 22 92 28 93 29 94 33 95 30 97 32 98
REMARK SMILES IDX 31 99
REMARK H PARENT 3 6 87 24 57 35 7 72 13 81 28 96
REMARK Flexibility Score: inf
ROOT
ATOM      1  C   UNL A   1      38.364  23.714  26.356  1.00  0.00     0.042 C 
ENDROOT
BRANCH   1   2
ATOM      2  C   UNL A   1      39.783  23.743  26.892  1.00  0.00     0.118 C 
BRANCH   2   3
ATOM      3  N   UNL A   1      40.707  24.362  25.952  1.00  0.00    -0.352 N 
ATOM      4  O   UNL A   1      41.790  26.053  24.936  1.00  0.00    -0.269 OA
ATOM      5  C   UNL A   1      41.224  25.635  25.941  1.00  0.00     0.251 C 
ATOM      6  H   UNL A   1      41.006  23.783  25.214  1.00  0.00     0.163 HD
BRANCH   5   7
ATOM      7  C   UNL A   1      41.086  26.501  27.135  1.00  0.00     0.039 A 
ATOM      8  C   UNL A   1      41.851  27.660  27.266  1.00  0.00     0.014 A 
ATOM      9  C   UNL A   1      40.156  26.163  28.123  1.00  0.00     0.014 A 
ATOM     10  C   UNL A   1      41.802  28.395  28.442  1.00  0.00     0.010 A 
ATOM     11  C   UNL A   1      40.029  26.966  29.259  1.00  0.00     0.010 A 
ATOM     12  C   UNL A   1      40.870  28.076  29.440  1.00  0.00    -0.014 A 
BRANCH  12  13
ATOM     13  C   UNL A   1      40.732  28.972  30.615  1.00  0.00     0.031 A 
ATOM     14  C   UNL A   1      41.625  28.833  31.816  1.00  0.00     0.074 A 
ATOM     15  C   UNL A   1      39.783  29.928  30.583  1.00  0.00     0.049 A 
ATOM     16  N   UNL A   1      41.628  29.534  32.921  1.00  0.00    -0.248 NA
ATOM     17  C   UNL A   1      42.636  27.764  31.780  1.00  0.00     0.031 C 
ATOM     18  C   UNL A   1      38.847  30.149  29.476  1.00  0.00     0.029 A 
ATOM     19  N   UNL A   1      39.448  30.895  31.495  1.00  0.00    -0.354 N 
ATOM     20  C   UNL A   1      42.622  28.982  33.721  1.00  0.00     0.074 A 
ATOM     21  C   UNL A   1      43.182  27.870  32.984  1.00  0.00     0.031 C 
ATOM     22  C   UNL A   1      38.073  31.206  29.757  1.00  0.00     0.029 A 
ATOM     23  C   UNL A   1      38.402  31.690  31.092  1.00  0.00     0.049 A 
ATOM     24  H   UNL A   1      39.913  31.011  32.356  1.00  0.00     0.167 HD
ATOM     25  C   UNL A   1      43.027  29.370  34.955  1.00  0.00     0.031 A 
ATOM     26  C   UNL A   1      37.751  32.680  31.730  1.00  0.00     0.031 A 
ATOM     27  C   UNL A   1      42.452  30.473  35.682  1.00  0.00     0.049 A 
ATOM     28  C   UNL A   1      38.196  33.068  33.109  1.00  0.00     0.074 A 
ATOM     29  C   UNL A   1      42.818  30.971  36.922  1.00  0.00     0.029 A 
ATOM     30  N   UNL A   1      41.379  31.240  35.248  1.00  0.00    -0.354 N 
ATOM     31  N   UNL A   1      39.173  32.568  33.827  1.00  0.00    -0.248 NA
ATOM     32  C   UNL A   1      37.457  34.155  33.762  1.00  0.00     0.031 C 
ATOM     33  C   UNL A   1      41.927  31.993  37.264  1.00  0.00     0.029 A 
ATOM     34  C   UNL A   1      41.048  32.182  36.209  1.00  0.00     0.049 A 
ATOM     35  H   UNL A   1      40.920  31.130  34.383  1.00  0.00     0.167 HD
ATOM     36  C   UNL A   1      39.177  33.291  35.013  1.00  0.00     0.074 A 
ATOM     37  C   UNL A   1      38.120  34.276  34.905  1.00  0.00     0.031 C 
ATOM     38  C   UNL A   1      39.986  33.152  36.093  1.00  0.00     0.031 A 
BRANCH  25  39
ATOM     39  C   UNL A   1      44.121  28.569  35.616  1.00  0.00    -0.014 A 
ATOM     40  C   UNL A   1      45.479  28.897  35.448  1.00  0.00     0.010 A 
ATOM     41  C   UNL A   1      43.783  27.484  36.447  1.00  0.00     0.010 A 
ATOM     42  C   UNL A   1      46.476  28.125  36.052  1.00  0.00     0.020 A 
ATOM     43  C   UNL A   1      44.774  26.728  37.079  1.00  0.00     0.020 A 
ATOM     44  C   UNL A   1      46.117  27.040  36.859  1.00  0.00     0.054 A 
BRANCH  44  45
ATOM     45  S   UNL A   1      47.432  26.053  37.626  1.00  0.00     0.124 S 
ATOM     46  O   UNL A   1      48.265  27.087  38.236  1.00  0.00    -0.237 OA
ATOM     47  O   UNL A   1      46.694  25.209  38.562  1.00  0.00    -0.237 OA
ATOM     48  O   UNL A   1      48.040  25.348  36.501  1.00  0.00    -0.744 OA
ENDBRANCH  44  45
ENDBRANCH  25  39
BRANCH  26  49
ATOM     49  C   UNL A   1      36.593  33.338  31.067  1.00  0.00    -0.014 A 
ATOM     50  C   UNL A   1      35.353  33.443  31.717  1.00  0.00     0.010 A 
ATOM     51  C   UNL A   1      36.750  33.916  29.792  1.00  0.00     0.010 A 
ATOM     52  C   UNL A   1      34.288  34.107  31.101  1.00  0.00     0.020 A 
ATOM     53  C   UNL A   1      35.699  34.609  29.189  1.00  0.00     0.020 A 
ATOM     54  C   UNL A   1      34.470  34.692  29.844  1.00  0.00     0.054 A 
BRANCH  54  55
ATOM     55  S   UNL A   1      33.095  35.611  29.098  1.00  0.00     0.124 S 
ATOM     56  O   UNL A   1      32.468  34.591  28.264  1.00  0.00    -0.237 OA
ATOM     57  O   UNL A   1      32.329  36.033  30.268  1.00  0.00    -0.237 OA
ATOM     58  O   UNL A   1      33.759  36.693  28.373  1.00  0.00    -0.744 OA
ENDBRANCH  54  55
ENDBRANCH  26  49
BRANCH  38  59
ATOM     59  C   UNL A   1      39.777  34.106  37.238  1.00  0.00    -0.014 A 
ATOM     60  C   UNL A   1      40.289  35.415  37.204  1.00  0.00     0.010 A 
ATOM     61  C   UNL A   1      39.009  33.700  38.346  1.00  0.00     0.010 A 
ATOM     62  C   UNL A   1      40.059  36.292  38.268  1.00  0.00     0.020 A 
ATOM     63  C   UNL A   1      38.752  34.583  39.397  1.00  0.00     0.020 A 
ATOM     64  C   UNL A   1      39.290  35.870  39.356  1.00  0.00     0.054 A 
BRANCH  64  65
ATOM     65  S   UNL A   1      38.963  37.043  40.700  1.00  0.00     0.124 S 
ATOM     66  O   UNL A   1      38.285  38.130  39.998  1.00  0.00    -0.237 OA
ATOM     67  O   UNL A   1      38.127  36.263  41.608  1.00  0.00    -0.237 OA
ATOM     68  O   UNL A   1      40.294  37.366  41.211  1.00  0.00    -0.744 OA
ENDBRANCH  64  65
ENDBRANCH  38  59
ENDBRANCH  12  13
ENDBRANCH   5   7
ENDBRANCH   2   3
ENDBRANCH   1   2
BRANCH   1  69
ATOM     69  C   UNL A   1      38.032  22.443  25.589  1.00  0.00     0.118 C 
BRANCH  69  70
ATOM     70  N   UNL A   1      37.492  22.706  24.263  1.00  0.00    -0.351 N 
ATOM     71  C   UNL A   1      36.182  22.891  23.893  1.00  0.00     0.283 C 
ATOM     72  H   UNL A   1      38.153  22.758  23.535  1.00  0.00     0.163 HD
ATOM     73  O   UNL A   1      35.948  23.143  22.705  1.00  0.00    -0.268 OA
BRANCH  71  74
ATOM     74  C   UNL A   1      35.035  22.846  24.962  1.00  0.00     0.307 C 
BRANCH  74  75
ATOM     75  C   UNL A   1      34.345  24.221  25.047  1.00  0.00     0.044 A 
ATOM     76  C   UNL A   1      34.545  25.251  25.959  1.00  0.00     0.094 A 
ATOM     77  C   UNL A   1      33.435  24.797  24.060  1.00  0.00     0.009 A 
ATOM     78  N   UNL A   1      33.637  26.248  25.731  1.00  0.00    -0.361 N 
ATOM     79  C   UNL A   1      32.975  26.017  24.558  1.00  0.00     0.050 A 
ATOM     80  C   UNL A   1      32.932  24.394  22.802  1.00  0.00     0.015 A 
ATOM     81  H   UNL A   1      33.484  27.018  26.324  1.00  0.00     0.166 HD
ATOM     82  C   UNL A   1      32.030  26.814  23.898  1.00  0.00     0.073 A 
ATOM     83  C   UNL A   1      31.983  25.180  22.129  1.00  0.00     0.047 A 
ATOM     84  C   UNL A   1      31.555  26.392  22.655  1.00  0.00     0.121 A 
BRANCH  84  85
ATOM     85  O   UNL A   1      30.720  27.289  22.041  1.00  0.00    -0.489 OA
BRANCH  85  86
ATOM     86  C   UNL A   1      30.894  28.691  22.296  1.00  0.00     0.265 C 
BRANCH  86  87
ATOM     87  C   UNL A   1      29.615  29.434  22.631  1.00  0.00    -0.011 A 
ATOM     88  C   UNL A   1      29.651  30.817  22.862  1.00  0.00     0.007 A 
ATOM     89  C   UNL A   1      28.400  28.750  22.778  1.00  0.00     0.007 A 
ATOM     90  C   UNL A   1      28.512  31.486  23.311  1.00  0.00     0.000 A 
ATOM     91  C   UNL A   1      27.263  29.422  23.229  1.00  0.00     0.000 A 
ATOM     92  C   UNL A   1      27.323  30.785  23.509  1.00  0.00     0.000 A 
ENDBRANCH  86  87
ENDBRANCH  85  86
ENDBRANCH  84  85
ENDBRANCH  74  75
BRANCH  74  93
ATOM     93  N   UNL A   1      34.217  21.624  24.607  1.00  0.00    -0.319 N 
ATOM     94  C   UNL A   1      32.830  21.593  25.079  1.00  0.00     0.274 C 
ATOM     95  C   UNL A   1      34.959  20.407  25.034  1.00  0.00     0.274 C 
ATOM     96  H   UNL A   1      34.103  21.661  23.595  1.00  0.00     0.349 HD
ATOM     97  C   UNL A   1      32.003  20.363  24.667  1.00  0.00     0.131 C 
ATOM     98  C   UNL A   1      34.366  19.081  24.543  1.00  0.00     0.131 C 
ATOM     99  S   UNL A   1      32.718  18.802  25.239  1.00  0.00    -0.150 SA
ENDBRANCH  74  93
ENDBRANCH  71  74
ENDBRANCH  69  70
ENDBRANCH   1  69
TORSDOF 18
ENDMDL
MODEL 2
REMARK VINA RESULT:     -12.4      4.446     10.661
REMARK SMILES O=C(NCCCNC(=O)[C@@H](c1c[nH]c2cc(OCc3ccccc3)ccc12)[NH+]1CCSCC1)c1ccc(-c2c3nc(c(-c4ccc(S(=O)(=O)[O-])cc4)c4ccc([nH]4)c(-c4ccc(S(=O)(=O)[O-])cc4)c4nc(c(-c5ccc(S(=O)(=O)[O-])cc5)c5ccc2[nH]5)C=C4)C=C3)cc1
REMARK SMILES IDX 5 1 4 2 3 3 1 4 2 5 34 7 35 8 93 9 36 10 92 11 37 12 38 13
REMARK SMILES IDX 39 14 86 15 40 16 91 17 85 18 87 19 41 20 90 21 84 22 83 23
REMARK SMILES IDX 42 25 72 26 53 27 71 28 54 29 57 30 70 31 88 32 55 33 56 34
REMARK SMILES IDX 69 36 89 37 58 38 43 39 44 40 52 41 45 42 51 43 46 44 47 45
REMARK SMILES IDX 48 46 49 47 50 48 73 49 74 50 82 51 75 52 81 53 76 54 77 55
REMARK SMILES IDX 78 56 79 57 80 58 59 59 60 60 68 61 61 62 67 63 62 64 63 65
REMARK SMILES IDX 64 66 65 67 66 68 6 69 7 70 8 71 9 73 10 74 11 75 12 76
REMARK SMILES IDX 27 77 13 78 14 79 26 80 15 82 25 83 16 84 17 85 18 86 19 87
REMARK SMILES IDX 20 88 24 89 21 90 23 91 22 92 28 93 29 94 33 95 30 97 32 98
REMARK SMILES IDX 31 99
REMARK H PARENT 3 6 87 24 57 35 7 72 13 81 28 96
REMARK Flexibility Score: inf
ROOT
ATOM      1  C   UNL A   1      32.695  27.637  26.490  1.00  0.00     0.042 C 
ENDROOT
BRANCH   1   2
ATOM      2  C   UNL A   1      33.970  28.268  27.019  1.00  0.00     0.118 C 
BRANCH   2   3
ATOM      3  N   UNL A   1      33.798  29.687  27.301  1.00  0.00    -0.352 N 
ATOM      4  O   UNL A   1      34.182  31.642  28.344  1.00  0.00    -0.269 OA
ATOM      5  C   UNL A   1      34.611  30.546  28.000  1.00  0.00     0.251 C 
ATOM      6  H   UNL A   1      32.978  30.090  26.936  1.00  0.00     0.163 HD
BRANCH   5   7
ATOM      7  C   UNL A   1      35.992  30.142  28.345  1.00  0.00     0.039 A 
ATOM      8  C   UNL A   1      37.026  30.274  27.417  1.00  0.00     0.014 A 
ATOM      9  C   UNL A   1      36.264  29.652  29.627  1.00  0.00     0.014 A 
ATOM     10  C   UNL A   1      38.289  29.778  27.709  1.00  0.00     0.010 A 
ATOM     11  C   UNL A   1      37.562  29.254  29.957  1.00  0.00     0.010 A 
ATOM     12  C   UNL A   1      38.581  29.291  28.991  1.00  0.00    -0.014 A 
BRANCH  12  13
ATOM     13  C   UNL A   1      39.978  28.916  29.323  1.00  0.00     0.031 A 
ATOM     14  C   UNL A   1      40.903  29.874  30.020  1.00  0.00     0.074 A 
ATOM     15  C   UNL A   1      40.407  27.682  28.989  1.00  0.00     0.049 A 
ATOM     16  N   UNL A   1      42.150  29.697  30.375  1.00  0.00    -0.248 NA
ATOM     17  C   UNL A   1      40.366  31.203  30.351  1.00  0.00     0.031 C 
ATOM     18  C   UNL A   1      39.602  26.671  28.296  1.00  0.00     0.029 A 
ATOM     19  N   UNL A   1      41.613  27.063  29.188  1.00  0.00    -0.354 N 
ATOM     20  C   UNL A   1      42.556  30.896  30.952  1.00  0.00     0.074 A 
ATOM     21  C   UNL A   1      41.429  31.800  30.873  1.00  0.00     0.031 C 
ATOM     22  C   UNL A   1      40.323  25.549  28.163  1.00  0.00     0.029 A 
ATOM     23  C   UNL A   1      41.662  25.784  28.688  1.00  0.00     0.049 A 
ATOM     24  H   UNL A   1      42.372  27.494  29.645  1.00  0.00     0.167 HD
ATOM     25  C   UNL A   1      43.758  31.210  31.494  1.00  0.00     0.031 A 
ATOM     26  C   UNL A   1      42.675  24.900  28.627  1.00  0.00     0.031 A 
ATOM     27  C   UNL A   1      44.876  30.302  31.555  1.00  0.00     0.049 A 
ATOM     28  C   UNL A   1      44.005  25.283  29.204  1.00  0.00     0.074 A 
ATOM     29  C   UNL A   1      46.123  30.509  32.121  1.00  0.00     0.029 A 
ATOM     30  N   UNL A   1      44.892  29.021  31.019  1.00  0.00    -0.354 N 
ATOM     31  N   UNL A   1      44.354  26.403  29.792  1.00  0.00    -0.248 NA
ATOM     32  C   UNL A   1      45.077  24.284  29.116  1.00  0.00     0.031 C 
ATOM     33  C   UNL A   1      46.911  29.382  31.868  1.00  0.00     0.029 A 
ATOM     34  C   UNL A   1      46.136  28.441  31.209  1.00  0.00     0.049 A 
ATOM     35  H   UNL A   1      44.129  28.588  30.570  1.00  0.00     0.167 HD
ATOM     36  C   UNL A   1      45.683  26.238  30.159  1.00  0.00     0.074 A 
ATOM     37  C   UNL A   1      46.068  24.903  29.746  1.00  0.00     0.031 C 
ATOM     38  C   UNL A   1      46.509  27.114  30.783  1.00  0.00     0.031 A 
BRANCH  25  39
ATOM     39  C   UNL A   1      43.940  32.607  32.030  1.00  0.00    -0.014 A 
ATOM     40  C   UNL A   1      44.588  33.606  31.279  1.00  0.00     0.010 A 
ATOM     41  C   UNL A   1      43.428  32.938  33.299  1.00  0.00     0.010 A 
ATOM     42  C   UNL A   1      44.766  34.888  31.807  1.00  0.00     0.020 A 
ATOM     43  C   UNL A   1      43.575  34.227  33.818  1.00  0.00     0.020 A 
ATOM     44  C   UNL A   1      44.264  35.189  33.077  1.00  0.00     0.054 A 
BRANCH  44  45
ATOM     45  S   UNL A   1      44.515  36.860  33.739  1.00  0.00     0.124 S 
ATOM     46  O   UNL A   1      44.229  36.666  35.158  1.00  0.00    -0.237 OA
ATOM     47  O   UNL A   1      45.913  37.127  33.413  1.00  0.00    -0.237 OA
ATOM     48  O   UNL A   1      43.542  37.671  33.014  1.00  0.00    -0.744 OA
ENDBRANCH  44  45
ENDBRANCH  25  39
BRANCH  26  49
ATOM     49  C   UNL A   1      42.459  23.587  27.964  1.00  0.00    -0.014 A 
ATOM     50  C   UNL A   1      43.021  23.312  26.707  1.00  0.00     0.010 A 
ATOM     51  C   UNL A   1      41.727  22.580  28.623  1.00  0.00     0.010 A 
ATOM     52  C   UNL A   1      42.849  22.055  26.117  1.00  0.00     0.020 A 
ATOM     53  C   UNL A   1      41.582  21.314  28.052  1.00  0.00     0.020 A 
ATOM     54  C   UNL A   1      42.138  21.062  26.797  1.00  0.00     0.054 A 
BRANCH  54  55
ATOM     55  S   UNL A   1      41.991  19.419  26.044  1.00  0.00     0.124 S 
ATOM     56  O   UNL A   1      42.777  19.574  24.824  1.00  0.00    -0.237 OA
ATOM     57  O   UNL A   1      42.573  18.553  27.066  1.00  0.00    -0.237 OA
ATOM     58  O   UNL A   1      40.552  19.258  25.847  1.00  0.00    -0.744 OA
ENDBRANCH  54  55
ENDBRANCH  26  49
BRANCH  38  59
ATOM     59  C   UNL A   1      47.909  26.647  31.084  1.00  0.00    -0.014 A 
ATOM     60  C   UNL A   1      48.957  26.836  30.166  1.00  0.00     0.010 A 
ATOM     61  C   UNL A   1      48.188  26.056  32.331  1.00  0.00     0.010 A 
ATOM     62  C   UNL A   1      50.254  26.418  30.479  1.00  0.00     0.020 A 
ATOM     63  C   UNL A   1      49.488  25.665  32.658  1.00  0.00     0.020 A 
ATOM     64  C   UNL A   1      50.510  25.838  31.724  1.00  0.00     0.054 A 
BRANCH  64  65
ATOM     65  S   UNL A   1      52.211  25.351  32.126  1.00  0.00     0.124 S 
ATOM     66  O   UNL A   1      52.092  23.901  32.250  1.00  0.00    -0.237 OA
ATOM     67  O   UNL A   1      52.960  25.823  30.964  1.00  0.00    -0.237 OA
ATOM     68  O   UNL A   1      52.491  26.063  33.372  1.00  0.00    -0.744 OA
ENDBRANCH  64  65
ENDBRANCH  38  59
ENDBRANCH  12  13
ENDBRANCH   5   7
ENDBRANCH   2   3
ENDBRANCH   1   2
BRANCH   1  69
ATOM     69  C   UNL A   1      32.052  28.426  25.360  1.00  0.00     0.118 C 
BRANCH  69  70
ATOM     70  N   UNL A   1      32.588  28.082  24.051  1.00  0.00    -0.351 N 
ATOM     71  C   UNL A   1      31.970  27.419  23.019  1.00  0.00     0.283 C 
ATOM     72  H   UNL A   1      33.517  28.362  23.884  1.00  0.00     0.163 HD
ATOM     73  O   UNL A   1      32.606  27.266  21.969  1.00  0.00    -0.268 OA
BRANCH  71  74
ATOM     74  C   UNL A   1      30.485  26.933  23.157  1.00  0.00     0.307 C 
BRANCH  74  75
ATOM     75  C   UNL A   1      30.372  25.921  24.314  1.00  0.00     0.044 A 
ATOM     76  C   UNL A   1      29.456  25.880  25.359  1.00  0.00     0.094 A 
ATOM     77  C   UNL A   1      31.124  24.678  24.455  1.00  0.00     0.009 A 
ATOM     78  N   UNL A   1      29.794  24.874  26.224  1.00  0.00    -0.361 N 
ATOM     79  C   UNL A   1      30.780  24.102  25.679  1.00  0.00     0.050 A 
ATOM     80  C   UNL A   1      32.085  23.992  23.678  1.00  0.00     0.015 A 
ATOM     81  H   UNL A   1      29.384  24.729  27.107  1.00  0.00     0.166 HD
ATOM     82  C   UNL A   1      31.364  22.927  26.172  1.00  0.00     0.073 A 
ATOM     83  C   UNL A   1      32.681  22.814  24.158  1.00  0.00     0.047 A 
ATOM     84  C   UNL A   1      32.307  22.269  25.380  1.00  0.00     0.121 A 
BRANCH  84  85
ATOM     85  O   UNL A   1      32.738  21.076  25.898  1.00  0.00    -0.489 OA
BRANCH  85  86
ATOM     86  C   UNL A   1      33.929  20.476  25.367  1.00  0.00     0.265 C 
BRANCH  86  87
ATOM     87  C   UNL A   1      33.688  19.236  24.527  1.00  0.00    -0.011 A 
ATOM     88  C   UNL A   1      34.593  18.167  24.583  1.00  0.00     0.007 A 
ATOM     89  C   UNL A   1      32.605  19.165  23.639  1.00  0.00     0.007 A 
ATOM     90  C   UNL A   1      34.463  17.086  23.711  1.00  0.00     0.000 A 
ATOM     91  C   UNL A   1      32.478  18.084  22.766  1.00  0.00     0.000 A 
ATOM     92  C   UNL A   1      33.414  17.052  22.793  1.00  0.00     0.000 A 
ENDBRANCH  86  87
ENDBRANCH  85  86
ENDBRANCH  84  85
ENDBRANCH  74  75
BRANCH  74  93
ATOM     93  N   UNL A   1      29.660  28.201  23.193  1.00  0.00    -0.319 N 
ATOM     94  C   UNL A   1      28.207  28.051  23.078  1.00  0.00     0.274 C 
ATOM     95  C   UNL A   1      30.188  29.148  22.175  1.00  0.00     0.274 C 
ATOM     96  H   UNL A   1      29.768  28.565  24.139  1.00  0.00     0.349 HD
ATOM     97  C   UNL A   1      27.385  29.348  23.164  1.00  0.00     0.131 C 
ATOM     98  C   UNL A   1      29.602  30.563  22.241  1.00  0.00     0.131 C 
ATOM     99  S   UNL A   1      27.826  30.555  21.890  1.00  0.00    -0.150 SA
ENDBRANCH  74  93
ENDBRANCH  71  74
ENDBRANCH  69  70
ENDBRANCH   1  69
TORSDOF 18
ENDMDL
MODEL 3
REMARK VINA RESULT:     -11.9      5.776     10.211
REMARK SMILES O=C(NCCCNC(=O)[C@@H](c1c[nH]c2cc(OCc3ccccc3)ccc12)[NH+]1CCSCC1)c1ccc(-c2c3nc(c(-c4ccc(S(=O)(=O)[O-])cc4)c4ccc([nH]4)c(-c4ccc(S(=O)(=O)[O-])cc4)c4nc(c(-c5ccc(S(=O)(=O)[O-])cc5)c5ccc2[nH]5)C=C4)C=C3)cc1
REMARK SMILES IDX 5 1 4 2 3 3 1 4 2 5 34 7 35 8 93 9 36 10 92 11 37 12 38 13
REMARK SMILES IDX 39 14 86 15 40 16 91 17 85 18 87 19 41 20 90 21 84 22 83 23
REMARK SMILES IDX 42 25 72 26 53 27 71 28 54 29 57 30 70 31 88 32 55 33 56 34
REMARK SMILES IDX 69 36 89 37 58 38 43 39 44 40 52 41 45 42 51 43 46 44 47 45
REMARK SMILES IDX 48 46 49 47 50 48 73 49 74 50 82 51 75 52 81 53 76 54 77 55
REMARK SMILES IDX 78 56 79 57 80 58 59 59 60 60 68 61 61 62 67 63 62 64 63 65
REMARK SMILES IDX 64 66 65 67 66 68 6 69 7 70 8 71 9 73 10 74 11 75 12 76
REMARK SMILES IDX 27 77 13 78 14 79 26 80 15 82 25 83 16 84 17 85 18 86 19 87
REMARK SMILES IDX 20 88 24 89 21 90 23 91 22 92 28 93 29 94 33 95 30 97 32 98
REMARK SMILES IDX 31 99
REMARK H PARENT 3 6 87 24 57 35 7 72 13 81 28 96
REMARK Flexibility Score: inf
ROOT
ATOM      1  C   UNL A   1      38.598  22.121  26.430  1.00  0.00     0.042 C 
ENDROOT
BRANCH   1   2
ATOM      2  C   UNL A   1      39.077  21.077  25.437  1.00  0.00     0.118 C 
BRANCH   2   3
ATOM      3  N   UNL A   1      39.860  20.032  26.082  1.00  0.00    -0.352 N 
ATOM      4  O   UNL A   1      41.709  19.061  26.917  1.00  0.00    -0.269 OA
ATOM      5  C   UNL A   1      41.112  20.097  26.645  1.00  0.00     0.251 C 
ATOM      6  H   UNL A   1      39.428  19.148  26.120  1.00  0.00     0.163 HD
BRANCH   5   7
ATOM      7  C   UNL A   1      41.738  21.412  26.909  1.00  0.00     0.039 A 
ATOM      8  C   UNL A   1      42.059  22.271  25.857  1.00  0.00     0.014 A 
ATOM      9  C   UNL A   1      41.979  21.804  28.229  1.00  0.00     0.014 A 
ATOM     10  C   UNL A   1      42.757  23.445  26.107  1.00  0.00     0.010 A 
ATOM     11  C   UNL A   1      42.584  23.037  28.487  1.00  0.00     0.010 A 
ATOM     12  C   UNL A   1      43.000  23.858  27.425  1.00  0.00    -0.014 A 
BRANCH  12  13
ATOM     13  C   UNL A   1      43.606  25.191  27.667  1.00  0.00     0.031 A 
ATOM     14  C   UNL A   1      42.792  26.336  28.198  1.00  0.00     0.074 A 
ATOM     15  C   UNL A   1      44.918  25.356  27.403  1.00  0.00     0.049 A 
ATOM     16  N   UNL A   1      43.174  27.561  28.459  1.00  0.00    -0.248 NA
ATOM     17  C   UNL A   1      41.367  26.082  28.461  1.00  0.00     0.031 C 
ATOM     18  C   UNL A   1      45.806  24.318  26.870  1.00  0.00     0.029 A 
ATOM     19  N   UNL A   1      45.735  26.445  27.550  1.00  0.00    -0.354 N 
ATOM     20  C   UNL A   1      42.035  28.231  28.896  1.00  0.00     0.074 A 
ATOM     21  C   UNL A   1      40.945  27.282  28.838  1.00  0.00     0.031 C 
ATOM     22  C   UNL A   1      47.048  24.809  26.770  1.00  0.00     0.029 A 
ATOM     23  C   UNL A   1      47.032  26.214  27.158  1.00  0.00     0.049 A 
ATOM     24  H   UNL A   1      45.424  27.311  27.901  1.00  0.00     0.167 HD
ATOM     25  C   UNL A   1      41.915  29.517  29.305  1.00  0.00     0.031 A 
ATOM     26  C   UNL A   1      48.091  27.041  27.085  1.00  0.00     0.031 A 
ATOM     27  C   UNL A   1      43.010  30.455  29.346  1.00  0.00     0.049 A 
ATOM     28  C   UNL A   1      47.925  28.469  27.511  1.00  0.00     0.074 A 
ATOM     29  C   UNL A   1      43.000  31.769  29.783  1.00  0.00     0.029 A 
ATOM     30  N   UNL A   1      44.304  30.188  28.921  1.00  0.00    -0.354 N 
ATOM     31  N   UNL A   1      46.853  29.070  27.970  1.00  0.00    -0.248 NA
ATOM     32  C   UNL A   1      49.110  29.331  27.416  1.00  0.00     0.031 C 
ATOM     33  C   UNL A   1      44.269  32.314  29.561  1.00  0.00     0.029 A 
ATOM     34  C   UNL A   1      45.091  31.320  29.052  1.00  0.00     0.049 A 
ATOM     35  H   UNL A   1      44.616  29.319  28.577  1.00  0.00     0.167 HD
ATOM     36  C   UNL A   1      47.237  30.378  28.235  1.00  0.00     0.074 A 
ATOM     37  C   UNL A   1      48.645  30.474  27.905  1.00  0.00     0.031 C 
ATOM     38  C   UNL A   1      46.490  31.406  28.710  1.00  0.00     0.031 A 
BRANCH  25  39
ATOM     39  C   UNL A   1      40.544  30.000  29.703  1.00  0.00    -0.014 A 
ATOM     40  C   UNL A   1      40.176  30.141  31.054  1.00  0.00     0.010 A 
ATOM     41  C   UNL A   1      39.613  30.349  28.707  1.00  0.00     0.010 A 
ATOM     42  C   UNL A   1      38.889  30.568  31.399  1.00  0.00     0.020 A 
ATOM     43  C   UNL A   1      38.336  30.807  29.046  1.00  0.00     0.020 A 
ATOM     44  C   UNL A   1      37.975  30.891  30.391  1.00  0.00     0.054 A 
BRANCH  44  45
ATOM     45  S   UNL A   1      36.312  31.438  30.868  1.00  0.00     0.124 S 
ATOM     46  O   UNL A   1      35.978  30.490  31.928  1.00  0.00    -0.237 OA
ATOM     47  O   UNL A   1      36.539  32.812  31.306  1.00  0.00    -0.237 OA
ATOM     48  O   UNL A   1      35.534  31.298  29.641  1.00  0.00    -0.744 OA
ENDBRANCH  44  45
ENDBRANCH  25  39
BRANCH  26  49
ATOM     49  C   UNL A   1      49.383  26.528  26.555  1.00  0.00    -0.014 A 
ATOM     50  C   UNL A   1      49.755  26.749  25.219  1.00  0.00     0.010 A 
ATOM     51  C   UNL A   1      50.277  25.858  27.414  1.00  0.00     0.010 A 
ATOM     52  C   UNL A   1      50.994  26.303  24.749  1.00  0.00     0.020 A 
ATOM     53  C   UNL A   1      51.528  25.441  26.956  1.00  0.00     0.020 A 
ATOM     54  C   UNL A   1      51.876  25.659  25.622  1.00  0.00     0.054 A 
BRANCH  54  55
ATOM     55  S   UNL A   1      53.505  25.155  25.007  1.00  0.00     0.124 S 
ATOM     56  O   UNL A   1      53.483  23.713  25.238  1.00  0.00    -0.237 OA
ATOM     57  O   UNL A   1      53.456  25.573  23.609  1.00  0.00    -0.237 OA
ATOM     58  O   UNL A   1      54.436  25.909  25.844  1.00  0.00    -0.744 OA
ENDBRANCH  54  55
ENDBRANCH  26  49
BRANCH  38  59
ATOM     59  C   UNL A   1      47.188  32.722  28.928  1.00  0.00    -0.014 A 
ATOM     60  C   UNL A   1      47.222  33.707  27.926  1.00  0.00     0.010 A 
ATOM     61  C   UNL A   1      47.775  32.995  30.178  1.00  0.00     0.010 A 
ATOM     62  C   UNL A   1      47.853  34.933  28.161  1.00  0.00     0.020 A 
ATOM     63  C   UNL A   1      48.380  34.229  30.426  1.00  0.00     0.020 A 
ATOM     64  C   UNL A   1      48.426  35.185  29.412  1.00  0.00     0.054 A 
BRANCH  64  65
ATOM     65  S   UNL A   1      49.193  36.802  29.708  1.00  0.00     0.124 S 
ATOM     66  O   UNL A   1      49.427  37.282  28.349  1.00  0.00    -0.237 OA
ATOM     67  O   UNL A   1      48.161  37.512  30.458  1.00  0.00    -0.237 OA
ATOM     68  O   UNL A   1      50.399  36.479  30.470  1.00  0.00    -0.744 OA
ENDBRANCH  64  65
ENDBRANCH  38  59
ENDBRANCH  12  13
ENDBRANCH   5   7
ENDBRANCH   2   3
ENDBRANCH   1   2
BRANCH   1  69
ATOM     69  C   UNL A   1      37.691  23.174  25.812  1.00  0.00     0.118 C 
BRANCH  69  70
ATOM     70  N   UNL A   1      37.574  23.044  24.367  1.00  0.00    -0.351 N 
ATOM     71  C   UNL A   1      36.435  23.005  23.600  1.00  0.00     0.283 C 
ATOM     72  H   UNL A   1      38.424  22.974  23.874  1.00  0.00     0.163 HD
ATOM     73  O   UNL A   1      36.569  22.928  22.372  1.00  0.00    -0.268 OA
BRANCH  71  74
ATOM     74  C   UNL A   1      35.020  23.121  24.264  1.00  0.00     0.307 C 
BRANCH  74  75
ATOM     75  C   UNL A   1      34.277  24.350  23.702  1.00  0.00     0.044 A 
ATOM     76  C   UNL A   1      33.994  24.678  22.381  1.00  0.00     0.094 A 
ATOM     77  C   UNL A   1      33.561  25.359  24.476  1.00  0.00     0.009 A 
ATOM     78  N   UNL A   1      33.416  25.917  22.331  1.00  0.00    -0.361 N 
ATOM     79  C   UNL A   1      33.104  26.338  23.593  1.00  0.00     0.050 A 
ATOM     80  C   UNL A   1      33.275  25.558  25.847  1.00  0.00     0.015 A 
ATOM     81  H   UNL A   1      33.249  26.428  21.507  1.00  0.00     0.166 HD
ATOM     82  C   UNL A   1      32.430  27.496  24.003  1.00  0.00     0.073 A 
ATOM     83  C   UNL A   1      32.601  26.714  26.274  1.00  0.00     0.047 A 
ATOM     84  C   UNL A   1      32.157  27.662  25.362  1.00  0.00     0.121 A 
BRANCH  84  85
ATOM     85  O   UNL A   1      31.401  28.768  25.650  1.00  0.00    -0.489 OA
BRANCH  85  86
ATOM     86  C   UNL A   1      31.380  29.859  24.718  1.00  0.00     0.265 C 
BRANCH  86  87
ATOM     87  C   UNL A   1      30.060  30.042  23.993  1.00  0.00    -0.011 A 
ATOM     88  C   UNL A   1      29.352  31.246  24.122  1.00  0.00     0.007 A 
ATOM     89  C   UNL A   1      29.498  28.999  23.242  1.00  0.00     0.007 A 
ATOM     90  C   UNL A   1      28.073  31.373  23.580  1.00  0.00     0.000 A 
ATOM     91  C   UNL A   1      28.217  29.129  22.704  1.00  0.00     0.000 A 
ATOM     92  C   UNL A   1      27.500  30.310  22.885  1.00  0.00     0.000 A 
ENDBRANCH  86  87
ENDBRANCH  85  86
ENDBRANCH  84  85
ENDBRANCH  74  75
BRANCH  74  93
ATOM     93  N   UNL A   1      34.403  21.748  24.116  1.00  0.00    -0.319 N 
ATOM     94  C   UNL A   1      32.945  21.659  24.220  1.00  0.00     0.274 C 
ATOM     95  C   UNL A   1      35.070  20.816  25.064  1.00  0.00     0.274 C 
ATOM     96  H   UNL A   1      34.570  21.482  23.145  1.00  0.00     0.349 HD
ATOM     97  C   UNL A   1      32.336  20.260  24.020  1.00  0.00     0.131 C 
ATOM     98  C   UNL A   1      34.714  19.337  24.878  1.00  0.00     0.131 C 
ATOM     99  S   UNL A   1      32.958  19.039  25.201  1.00  0.00    -0.150 SA
ENDBRANCH  74  93
ENDBRANCH  71  74
ENDBRANCH  69  70
ENDBRANCH   1  69
TORSDOF 18
ENDMDL
