MODEL 1
REMARK VINA RESULT:     -11.2      0.000      0.000
REMARK SMILES O=C(NCCCNC(=O)c1cccc(Nc2ccnc3ccc(F)cc23)c1)c1ccc(-c2c3nc(c(-c4ccc(S(=O)(=O)[O-])cc4)c4ccc([nH]4)c(-c4ccc(S(=O)(=O)[O-])cc4)c4nc(c(-c5ccc(S(=O)(=O)[O-])cc5)c5ccc2[nH]5)C=C4)C=C3)cc1
REMARK SMILES IDX 4 1 3 2 1 3 2 4 28 6 29 7 87 8 30 9 86 10 31 11 32 12 33 13
REMARK SMILES IDX 80 14 34 15 85 16 79 17 81 18 35 19 84 20 78 21 77 22 36 24
REMARK SMILES IDX 66 25 47 26 65 27 48 28 51 29 64 30 82 31 49 32 50 33 63 35
REMARK SMILES IDX 83 36 52 37 37 38 38 39 46 40 39 41 45 42 40 43 41 44 42 45
REMARK SMILES IDX 43 46 44 47 67 48 68 49 76 50 69 51 75 52 70 53 71 54 72 55
REMARK SMILES IDX 73 56 74 57 53 58 54 59 62 60 55 61 61 62 56 63 57 64 58 65
REMARK SMILES IDX 59 66 60 67 5 68 6 69 7 70 8 71 9 73 10 74 11 75 27 76 12 77
REMARK SMILES IDX 14 78 13 79 15 80 16 82 17 83 26 84 18 85 20 86 25 87 19 88
REMARK SMILES IDX 21 89 23 90 22 91 24 92
REMARK H PARENT 3 5 81 23 51 34 7 72 15 81
REMARK Flexibility Score: inf
ROOT
ATOM      1  C   UNL A   1      34.454  32.317  29.042  1.00  0.00     0.118 C 
ENDROOT
BRANCH   1   2
ATOM      2  N   UNL A   1      33.927  31.140  28.366  1.00  0.00    -0.352 N 
ATOM      3  O   UNL A   1      33.870  29.185  27.275  1.00  0.00    -0.269 OA
ATOM      4  C   UNL A   1      34.537  29.990  27.923  1.00  0.00     0.251 C 
ATOM      5  H   UNL A   1      32.959  31.173  28.194  1.00  0.00     0.163 HD
BRANCH   4   6
ATOM      6  C   UNL A   1      35.971  29.706  28.180  1.00  0.00     0.039 A 
ATOM      7  C   UNL A   1      36.957  29.934  27.219  1.00  0.00     0.014 A 
ATOM      8  C   UNL A   1      36.350  29.263  29.455  1.00  0.00     0.014 A 
ATOM      9  C   UNL A   1      38.284  29.587  27.480  1.00  0.00     0.010 A 
ATOM     10  C   UNL A   1      37.694  28.989  29.742  1.00  0.00     0.010 A 
ATOM     11  C   UNL A   1      38.672  29.116  28.745  1.00  0.00    -0.014 A 
BRANCH  11  12
ATOM     12  C   UNL A   1      40.105  28.818  29.018  1.00  0.00     0.031 A 
ATOM     13  C   UNL A   1      41.003  29.834  29.676  1.00  0.00     0.074 A 
ATOM     14  C   UNL A   1      40.598  27.608  28.689  1.00  0.00     0.049 A 
ATOM     15  N   UNL A   1      42.261  29.718  30.023  1.00  0.00    -0.248 NA
ATOM     16  C   UNL A   1      40.418  31.149  29.982  1.00  0.00     0.031 C 
ATOM     17  C   UNL A   1      39.839  26.539  28.033  1.00  0.00     0.029 A 
ATOM     18  N   UNL A   1      41.845  27.062  28.872  1.00  0.00    -0.354 N 
ATOM     19  C   UNL A   1      42.623  30.942  30.574  1.00  0.00     0.074 A 
ATOM     20  C   UNL A   1      41.458  31.799  30.490  1.00  0.00     0.031 C 
ATOM     21  C   UNL A   1      40.621  25.455  27.910  1.00  0.00     0.029 A 
ATOM     22  C   UNL A   1      41.950  25.766  28.424  1.00  0.00     0.049 A 
ATOM     23  H   UNL A   1      42.592  27.553  29.284  1.00  0.00     0.167 HD
ATOM     24  C   UNL A   1      43.812  31.319  31.106  1.00  0.00     0.031 A 
ATOM     25  C   UNL A   1      42.998  24.920  28.414  1.00  0.00     0.031 A 
ATOM     26  C   UNL A   1      44.973  30.469  31.184  1.00  0.00     0.049 A 
ATOM     27  C   UNL A   1      44.314  25.371  28.983  1.00  0.00     0.074 A 
ATOM     28  C   UNL A   1      46.211  30.753  31.737  1.00  0.00     0.029 A 
ATOM     29  N   UNL A   1      45.046  29.175  30.690  1.00  0.00    -0.354 N 
ATOM     30  N   UNL A   1      44.618  26.520  29.539  1.00  0.00    -0.248 NA
ATOM     31  C   UNL A   1      45.425  24.412  28.926  1.00  0.00     0.031 C 
ATOM     32  C   UNL A   1      47.048  29.651  31.529  1.00  0.00     0.029 A 
ATOM     33  C   UNL A   1      46.315  28.658  30.901  1.00  0.00     0.049 A 
ATOM     34  H   UNL A   1      44.307  28.695  30.253  1.00  0.00     0.167 HD
ATOM     35  C   UNL A   1      45.952  26.414  29.915  1.00  0.00     0.074 A 
ATOM     36  C   UNL A   1      46.389  25.084  29.541  1.00  0.00     0.031 C 
ATOM     37  C   UNL A   1      46.742  27.336  30.517  1.00  0.00     0.031 A 
BRANCH  24  38
ATOM     38  C   UNL A   1      43.930  32.727  31.631  1.00  0.00    -0.014 A 
ATOM     39  C   UNL A   1      44.344  33.784  30.800  1.00  0.00     0.010 A 
ATOM     40  C   UNL A   1      43.565  33.008  32.962  1.00  0.00     0.010 A 
ATOM     41  C   UNL A   1      44.430  35.086  31.301  1.00  0.00     0.020 A 
ATOM     42  C   UNL A   1      43.625  34.313  33.459  1.00  0.00     0.020 A 
ATOM     43  C   UNL A   1      44.074  35.342  32.628  1.00  0.00     0.054 A 
BRANCH  43  44
ATOM     44  S   UNL A   1      44.180  37.045  33.246  1.00  0.00     0.124 S 
ATOM     45  O   UNL A   1      43.056  37.097  34.178  1.00  0.00    -0.237 OA
ATOM     46  O   UNL A   1      45.505  37.082  33.859  1.00  0.00    -0.237 OA
ATOM     47  O   UNL A   1      44.030  37.862  32.044  1.00  0.00    -0.744 OA
ENDBRANCH  43  44
ENDBRANCH  24  38
BRANCH  25  48
ATOM     48  C   UNL A   1      42.841  23.559  27.834  1.00  0.00    -0.014 A 
ATOM     49  C   UNL A   1      42.224  22.532  28.569  1.00  0.00     0.010 A 
ATOM     50  C   UNL A   1      43.285  23.294  26.525  1.00  0.00     0.010 A 
ATOM     51  C   UNL A   1      42.065  21.260  28.009  1.00  0.00     0.020 A 
ATOM     52  C   UNL A   1      43.101  22.033  25.952  1.00  0.00     0.020 A 
ATOM     53  C   UNL A   1      42.502  21.020  26.703  1.00  0.00     0.054 A 
BRANCH  53  54
ATOM     54  S   UNL A   1      42.231  19.381  25.975  1.00  0.00     0.124 S 
ATOM     55  O   UNL A   1      40.781  19.358  25.810  1.00  0.00    -0.237 OA
ATOM     56  O   UNL A   1      43.008  19.451  24.739  1.00  0.00    -0.237 OA
ATOM     57  O   UNL A   1      42.763  18.468  26.984  1.00  0.00    -0.744 OA
ENDBRANCH  53  54
ENDBRANCH  25  48
BRANCH  37  58
ATOM     58  C   UNL A   1      48.157  26.931  30.835  1.00  0.00    -0.014 A 
ATOM     59  C   UNL A   1      49.212  27.209  29.947  1.00  0.00     0.010 A 
ATOM     60  C   UNL A   1      48.442  26.304  32.061  1.00  0.00     0.010 A 
ATOM     61  C   UNL A   1      50.520  26.835  30.266  1.00  0.00     0.020 A 
ATOM     62  C   UNL A   1      49.751  25.952  32.396  1.00  0.00     0.020 A 
ATOM     63  C   UNL A   1      50.781  26.207  31.488  1.00  0.00     0.054 A 
BRANCH  63  64
ATOM     64  S   UNL A   1      52.493  25.768  31.898  1.00  0.00     0.124 S 
ATOM     65  O   UNL A   1      53.181  26.013  30.633  1.00  0.00    -0.237 OA
ATOM     66  O   UNL A   1      52.815  26.698  32.977  1.00  0.00    -0.237 OA
ATOM     67  O   UNL A   1      52.406  24.366  32.298  1.00  0.00    -0.744 OA
ENDBRANCH  63  64
ENDBRANCH  37  58
ENDBRANCH  11  12
ENDBRANCH   4   6
ENDBRANCH   1   2
BRANCH   1  68
ATOM     68  C   UNL A   1      35.315  33.210  28.150  1.00  0.00     0.042 C 
BRANCH  68  69
ATOM     69  C   UNL A   1      35.130  34.714  28.331  1.00  0.00     0.118 C 
BRANCH  69  70
ATOM     70  N   UNL A   1      33.754  35.171  28.227  1.00  0.00    -0.352 N 
ATOM     71  C   UNL A   1      33.018  35.897  29.134  1.00  0.00     0.251 C 
ATOM     72  H   UNL A   1      33.286  34.929  27.395  1.00  0.00     0.163 HD
ATOM     73  O   UNL A   1      31.951  36.406  28.819  1.00  0.00    -0.269 OA
BRANCH  71  74
ATOM     74  C   UNL A   1      33.487  36.001  30.526  1.00  0.00     0.041 A 
ATOM     75  C   UNL A   1      33.317  37.231  31.167  1.00  0.00     0.014 A 
ATOM     76  C   UNL A   1      34.109  34.921  31.172  1.00  0.00     0.039 A 
ATOM     77  C   UNL A   1      33.738  37.382  32.480  1.00  0.00     0.003 A 
ATOM     78  C   UNL A   1      34.517  35.064  32.504  1.00  0.00     0.039 A 
ATOM     79  C   UNL A   1      34.318  36.301  33.143  1.00  0.00     0.026 A 
BRANCH  78  80
ATOM     80  N   UNL A   1      34.965  33.966  33.269  1.00  0.00    -0.355 N 
ATOM     81  H   UNL A   1      34.384  33.174  33.329  1.00  0.00     0.167 HD
BRANCH  80  82
ATOM     82  C   UNL A   1      36.206  33.938  33.958  1.00  0.00     0.050 A 
ATOM     83  C   UNL A   1      36.187  33.750  35.344  1.00  0.00     0.047 A 
ATOM     84  C   UNL A   1      37.452  34.105  33.306  1.00  0.00     0.027 A 
ATOM     85  C   UNL A   1      37.376  33.762  36.038  1.00  0.00     0.114 A 
ATOM     86  C   UNL A   1      38.613  34.083  34.121  1.00  0.00     0.072 A 
ATOM     87  C   UNL A   1      37.606  34.341  31.920  1.00  0.00     0.051 A 
ATOM     88  N   UNL A   1      38.577  33.915  35.449  1.00  0.00    -0.256 NA
ATOM     89  C   UNL A   1      39.860  34.259  33.539  1.00  0.00     0.032 A 
ATOM     90  C   UNL A   1      38.873  34.526  31.373  1.00  0.00     0.124 A 
ATOM     91  C   UNL A   1      40.005  34.479  32.171  1.00  0.00     0.041 A 
ATOM     92  F   UNL A   1      39.004  34.762  30.062  1.00  0.00    -0.207 F 
ENDBRANCH  80  82
ENDBRANCH  78  80
ENDBRANCH  71  74
ENDBRANCH  69  70
ENDBRANCH  68  69
ENDBRANCH   1  68
TORSDOF 15
ENDMDL
MODEL 2
REMARK VINA RESULT:     -11.2      3.797      7.288
REMARK SMILES O=C(NCCCNC(=O)c1cccc(Nc2ccnc3ccc(F)cc23)c1)c1ccc(-c2c3nc(c(-c4ccc(S(=O)(=O)[O-])cc4)c4ccc([nH]4)c(-c4ccc(S(=O)(=O)[O-])cc4)c4nc(c(-c5ccc(S(=O)(=O)[O-])cc5)c5ccc2[nH]5)C=C4)C=C3)cc1
REMARK SMILES IDX 4 1 3 2 1 3 2 4 28 6 29 7 87 8 30 9 86 10 31 11 32 12 33 13
REMARK SMILES IDX 80 14 34 15 85 16 79 17 81 18 35 19 84 20 78 21 77 22 36 24
REMARK SMILES IDX 66 25 47 26 65 27 48 28 51 29 64 30 82 31 49 32 50 33 63 35
REMARK SMILES IDX 83 36 52 37 37 38 38 39 46 40 39 41 45 42 40 43 41 44 42 45
REMARK SMILES IDX 43 46 44 47 67 48 68 49 76 50 69 51 75 52 70 53 71 54 72 55
REMARK SMILES IDX 73 56 74 57 53 58 54 59 62 60 55 61 61 62 56 63 57 64 58 65
REMARK SMILES IDX 59 66 60 67 5 68 6 69 7 70 8 71 9 73 10 74 11 75 27 76 12 77
REMARK SMILES IDX 14 78 13 79 15 80 16 82 17 83 26 84 18 85 20 86 25 87 19 88
REMARK SMILES IDX 21 89 23 90 22 91 24 92
REMARK H PARENT 3 5 81 23 51 34 7 72 15 81
REMARK Flexibility Score: inf
ROOT
ATOM      1  C   UNL A   1      33.711  28.239  26.905  1.00  0.00     0.118 C 
ENDROOT
BRANCH   1   2
ATOM      2  N   UNL A   1      33.571  29.626  27.327  1.00  0.00    -0.352 N 
ATOM      3  O   UNL A   1      34.022  31.584  28.315  1.00  0.00    -0.269 OA
ATOM      4  C   UNL A   1      34.436  30.477  27.973  1.00  0.00     0.251 C 
ATOM      5  H   UNL A   1      32.697  30.026  27.114  1.00  0.00     0.163 HD
BRANCH   4   6
ATOM      6  C   UNL A   1      35.835  30.094  28.287  1.00  0.00     0.039 A 
ATOM      7  C   UNL A   1      36.200  29.567  29.527  1.00  0.00     0.014 A 
ATOM      8  C   UNL A   1      36.803  30.200  27.279  1.00  0.00     0.014 A 
ATOM      9  C   UNL A   1      37.539  29.287  29.803  1.00  0.00     0.010 A 
ATOM     10  C   UNL A   1      38.134  29.844  27.532  1.00  0.00     0.010 A 
ATOM     11  C   UNL A   1      38.523  29.415  28.809  1.00  0.00    -0.014 A 
BRANCH  11  12
ATOM     12  C   UNL A   1      39.933  29.043  29.110  1.00  0.00     0.031 A 
ATOM     13  C   UNL A   1      40.861  30.002  29.811  1.00  0.00     0.074 A 
ATOM     14  C   UNL A   1      40.376  27.817  28.769  1.00  0.00     0.049 A 
ATOM     15  N   UNL A   1      42.104  29.819  30.186  1.00  0.00    -0.248 NA
ATOM     16  C   UNL A   1      40.332  31.337  30.128  1.00  0.00     0.031 C 
ATOM     17  C   UNL A   1      39.585  26.799  28.073  1.00  0.00     0.029 A 
ATOM     18  N   UNL A   1      41.590  27.209  28.971  1.00  0.00    -0.354 N 
ATOM     19  C   UNL A   1      42.509  31.014  30.770  1.00  0.00     0.074 A 
ATOM     20  C   UNL A   1      41.389  31.927  30.675  1.00  0.00     0.031 C 
ATOM     21  C   UNL A   1      40.317  25.681  27.948  1.00  0.00     0.029 A 
ATOM     22  C   UNL A   1      41.646  25.918  28.501  1.00  0.00     0.049 A 
ATOM     23  H   UNL A   1      42.350  27.655  29.412  1.00  0.00     0.167 HD
ATOM     24  C   UNL A   1      43.701  31.322  31.339  1.00  0.00     0.031 A 
ATOM     25  C   UNL A   1      42.652  25.023  28.499  1.00  0.00     0.031 A 
ATOM     26  C   UNL A   1      44.817  30.416  31.428  1.00  0.00     0.049 A 
ATOM     27  C   UNL A   1      43.972  25.399  29.109  1.00  0.00     0.074 A 
ATOM     28  C   UNL A   1      46.053  30.630  32.017  1.00  0.00     0.029 A 
ATOM     29  N   UNL A   1      44.842  29.130  30.910  1.00  0.00    -0.354 N 
ATOM     30  N   UNL A   1      44.317  26.521  29.696  1.00  0.00    -0.248 NA
ATOM     31  C   UNL A   1      45.038  24.389  29.060  1.00  0.00     0.031 C 
ATOM     32  C   UNL A   1      46.842  29.494  31.808  1.00  0.00     0.029 A 
ATOM     33  C   UNL A   1      46.078  28.549  31.142  1.00  0.00     0.049 A 
ATOM     34  H   UNL A   1      44.091  28.694  30.445  1.00  0.00     0.167 HD
ATOM     35  C   UNL A   1      45.635  26.344  30.102  1.00  0.00     0.074 A 
ATOM     36  C   UNL A   1      46.017  25.002  29.712  1.00  0.00     0.031 C 
ATOM     37  C   UNL A   1      46.452  27.215  30.742  1.00  0.00     0.031 A 
BRANCH  24  38
ATOM     38  C   UNL A   1      43.872  32.713  31.895  1.00  0.00    -0.014 A 
ATOM     39  C   UNL A   1      43.543  33.011  33.230  1.00  0.00     0.010 A 
ATOM     40  C   UNL A   1      44.426  33.725  31.088  1.00  0.00     0.010 A 
ATOM     41  C   UNL A   1      43.726  34.302  33.734  1.00  0.00     0.020 A 
ATOM     42  C   UNL A   1      44.634  35.010  31.595  1.00  0.00     0.020 A 
ATOM     43  C   UNL A   1      44.266  35.295  32.912  1.00  0.00     0.054 A 
BRANCH  43  44
ATOM     44  S   UNL A   1      44.507  36.958  33.597  1.00  0.00     0.124 S 
ATOM     45  O   UNL A   1      45.387  36.690  34.733  1.00  0.00    -0.237 OA
ATOM     46  O   UNL A   1      45.121  37.678  32.485  1.00  0.00    -0.237 OA
ATOM     47  O   UNL A   1      43.156  37.390  33.946  1.00  0.00    -0.744 OA
ENDBRANCH  43  44
ENDBRANCH  24  38
BRANCH  25  48
ATOM     48  C   UNL A   1      42.445  23.682  27.888  1.00  0.00    -0.014 A 
ATOM     49  C   UNL A   1      42.757  23.453  26.537  1.00  0.00     0.010 A 
ATOM     50  C   UNL A   1      41.958  22.617  28.669  1.00  0.00     0.010 A 
ATOM     51  C   UNL A   1      42.574  22.185  25.974  1.00  0.00     0.020 A 
ATOM     52  C   UNL A   1      41.802  21.343  28.118  1.00  0.00     0.020 A 
ATOM     53  C   UNL A   1      42.101  21.138  26.771  1.00  0.00     0.054 A 
BRANCH  53  54
ATOM     54  S   UNL A   1      41.929  19.488  26.037  1.00  0.00     0.124 S 
ATOM     55  O   UNL A   1      42.789  19.587  24.861  1.00  0.00    -0.237 OA
ATOM     56  O   UNL A   1      42.414  18.615  27.104  1.00  0.00    -0.237 OA
ATOM     57  O   UNL A   1      40.498  19.385  25.761  1.00  0.00    -0.744 OA
ENDBRANCH  53  54
ENDBRANCH  25  48
BRANCH  37  58
ATOM     58  C   UNL A   1      47.838  26.737  31.087  1.00  0.00    -0.014 A 
ATOM     59  C   UNL A   1      48.922  26.960  30.219  1.00  0.00     0.010 A 
ATOM     60  C   UNL A   1      48.065  26.095  32.317  1.00  0.00     0.010 A 
ATOM     61  C   UNL A   1      50.203  26.518  30.562  1.00  0.00     0.020 A 
ATOM     62  C   UNL A   1      49.348  25.675  32.676  1.00  0.00     0.020 A 
ATOM     63  C   UNL A   1      50.407  25.877  31.788  1.00  0.00     0.054 A 
BRANCH  63  64
ATOM     64  S   UNL A   1      52.086  25.348  32.230  1.00  0.00     0.124 S 
ATOM     65  O   UNL A   1      52.852  25.758  31.057  1.00  0.00    -0.237 OA
ATOM     66  O   UNL A   1      52.352  26.107  33.450  1.00  0.00    -0.237 OA
ATOM     67  O   UNL A   1      51.957  23.906  32.418  1.00  0.00    -0.744 OA
ENDBRANCH  63  64
ENDBRANCH  37  58
ENDBRANCH  11  12
ENDBRANCH   4   6
ENDBRANCH   1   2
BRANCH   1  68
ATOM     68  C   UNL A   1      32.468  27.671  26.221  1.00  0.00     0.042 C 
BRANCH  68  69
ATOM     69  C   UNL A   1      32.125  28.264  24.857  1.00  0.00     0.118 C 
BRANCH  69  70
ATOM     70  N   UNL A   1      33.066  27.936  23.799  1.00  0.00    -0.352 N 
ATOM     71  C   UNL A   1      33.154  26.784  23.053  1.00  0.00     0.251 C 
ATOM     72  H   UNL A   1      33.730  28.632  23.589  1.00  0.00     0.163 HD
ATOM     73  O   UNL A   1      33.846  26.736  22.045  1.00  0.00    -0.269 OA
BRANCH  71  74
ATOM     74  C   UNL A   1      32.460  25.570  23.515  1.00  0.00     0.041 A 
ATOM     75  C   UNL A   1      31.250  25.251  22.893  1.00  0.00     0.014 A 
ATOM     76  C   UNL A   1      32.977  24.784  24.556  1.00  0.00     0.039 A 
ATOM     77  C   UNL A   1      30.558  24.115  23.288  1.00  0.00     0.003 A 
ATOM     78  C   UNL A   1      32.291  23.626  24.943  1.00  0.00     0.039 A 
ATOM     79  C   UNL A   1      31.085  23.305  24.292  1.00  0.00     0.026 A 
BRANCH  78  80
ATOM     80  N   UNL A   1      32.850  22.692  25.841  1.00  0.00    -0.355 N 
ATOM     81  H   UNL A   1      32.599  22.753  26.790  1.00  0.00     0.167 HD
BRANCH  80  82
ATOM     82  C   UNL A   1      33.753  21.667  25.453  1.00  0.00     0.050 A 
ATOM     83  C   UNL A   1      33.223  20.423  25.091  1.00  0.00     0.047 A 
ATOM     84  C   UNL A   1      35.158  21.846  25.433  1.00  0.00     0.027 A 
ATOM     85  C   UNL A   1      34.083  19.403  24.753  1.00  0.00     0.114 A 
ATOM     86  C   UNL A   1      35.943  20.728  25.052  1.00  0.00     0.072 A 
ATOM     87  C   UNL A   1      35.819  23.037  25.814  1.00  0.00     0.051 A 
ATOM     88  N   UNL A   1      35.421  19.541  24.720  1.00  0.00    -0.256 NA
ATOM     89  C   UNL A   1      37.326  20.840  25.030  1.00  0.00     0.032 A 
ATOM     90  C   UNL A   1      37.210  23.108  25.791  1.00  0.00     0.124 A 
ATOM     91  C   UNL A   1      37.970  22.021  25.394  1.00  0.00     0.041 A 
ATOM     92  F   UNL A   1      37.824  24.237  26.167  1.00  0.00    -0.207 F 
ENDBRANCH  80  82
ENDBRANCH  78  80
ENDBRANCH  71  74
ENDBRANCH  69  70
ENDBRANCH  68  69
ENDBRANCH   1  68
TORSDOF 15
ENDMDL
MODEL 3
REMARK VINA RESULT:     -11.2      4.411      7.422
REMARK SMILES O=C(NCCCNC(=O)c1cccc(Nc2ccnc3ccc(F)cc23)c1)c1ccc(-c2c3nc(c(-c4ccc(S(=O)(=O)[O-])cc4)c4ccc([nH]4)c(-c4ccc(S(=O)(=O)[O-])cc4)c4nc(c(-c5ccc(S(=O)(=O)[O-])cc5)c5ccc2[nH]5)C=C4)C=C3)cc1
REMARK SMILES IDX 4 1 3 2 1 3 2 4 28 6 29 7 87 8 30 9 86 10 31 11 32 12 33 13
REMARK SMILES IDX 80 14 34 15 85 16 79 17 81 18 35 19 84 20 78 21 77 22 36 24
REMARK SMILES IDX 66 25 47 26 65 27 48 28 51 29 64 30 82 31 49 32 50 33 63 35
REMARK SMILES IDX 83 36 52 37 37 38 38 39 46 40 39 41 45 42 40 43 41 44 42 45
REMARK SMILES IDX 43 46 44 47 67 48 68 49 76 50 69 51 75 52 70 53 71 54 72 55
REMARK SMILES IDX 73 56 74 57 53 58 54 59 62 60 55 61 61 62 56 63 57 64 58 65
REMARK SMILES IDX 59 66 60 67 5 68 6 69 7 70 8 71 9 73 10 74 11 75 27 76 12 77
REMARK SMILES IDX 14 78 13 79 15 80 16 82 17 83 26 84 18 85 20 86 25 87 19 88
REMARK SMILES IDX 21 89 23 90 22 91 24 92
REMARK H PARENT 3 5 81 23 51 34 7 72 15 81
REMARK Flexibility Score: inf
ROOT
ATOM      1  C   UNL A   1      35.316  30.169  27.644  1.00  0.00     0.118 C 
ENDROOT
BRANCH   1   2
ATOM      2  N   UNL A   1      35.345  30.154  29.100  1.00  0.00    -0.352 N 
ATOM      3  O   UNL A   1      36.069  29.805  31.190  1.00  0.00    -0.269 OA
ATOM      4  C   UNL A   1      36.344  29.843  29.992  1.00  0.00     0.251 C 
ATOM      5  H   UNL A   1      34.494  30.411  29.523  1.00  0.00     0.163 HD
BRANCH   4   6
ATOM      6  C   UNL A   1      37.727  29.531  29.552  1.00  0.00     0.039 A 
ATOM      7  C   UNL A   1      38.144  29.705  28.232  1.00  0.00     0.014 A 
ATOM      8  C   UNL A   1      38.660  29.118  30.514  1.00  0.00     0.014 A 
ATOM      9  C   UNL A   1      39.433  29.331  27.849  1.00  0.00     0.010 A 
ATOM     10  C   UNL A   1      39.977  28.818  30.143  1.00  0.00     0.010 A 
ATOM     11  C   UNL A   1      40.369  28.890  28.799  1.00  0.00    -0.014 A 
BRANCH  11  12
ATOM     12  C   UNL A   1      41.759  28.564  28.374  1.00  0.00     0.031 A 
ATOM     13  C   UNL A   1      42.834  29.619  28.340  1.00  0.00     0.074 A 
ATOM     14  C   UNL A   1      42.061  27.294  28.036  1.00  0.00     0.049 A 
ATOM     15  N   UNL A   1      44.102  29.493  28.036  1.00  0.00    -0.248 NA
ATOM     16  C   UNL A   1      42.437  30.993  28.686  1.00  0.00     0.031 C 
ATOM     17  C   UNL A   1      41.110  26.180  28.012  1.00  0.00     0.029 A 
ATOM     18  N   UNL A   1      43.251  26.720  27.665  1.00  0.00    -0.354 N 
ATOM     19  C   UNL A   1      44.652  30.766  28.141  1.00  0.00     0.074 A 
ATOM     20  C   UNL A   1      43.572  31.658  28.510  1.00  0.00     0.031 C 
ATOM     21  C   UNL A   1      41.762  25.051  27.691  1.00  0.00     0.029 A 
ATOM     22  C   UNL A   1      43.161  25.368  27.430  1.00  0.00     0.049 A 
ATOM     23  H   UNL A   1      44.090  27.228  27.575  1.00  0.00     0.167 HD
ATOM     24  C   UNL A   1      45.937  31.156  27.954  1.00  0.00     0.031 A 
ATOM     25  C   UNL A   1      44.093  24.478  27.037  1.00  0.00     0.031 A 
ATOM     26  C   UNL A   1      47.010  30.270  27.583  1.00  0.00     0.049 A 
ATOM     27  C   UNL A   1      45.503  24.942  26.808  1.00  0.00     0.074 A 
ATOM     28  C   UNL A   1      48.350  30.571  27.404  1.00  0.00     0.029 A 
ATOM     29  N   UNL A   1      46.869  28.915  27.323  1.00  0.00    -0.354 N 
ATOM     30  N   UNL A   1      46.008  26.143  26.958  1.00  0.00    -0.248 NA
ATOM     31  C   UNL A   1      46.470  23.929  26.361  1.00  0.00     0.031 C 
ATOM     32  C   UNL A   1      49.009  29.409  26.985  1.00  0.00     0.029 A 
ATOM     33  C   UNL A   1      48.091  28.372  26.960  1.00  0.00     0.049 A 
ATOM     34  H   UNL A   1      46.024  28.413  27.386  1.00  0.00     0.167 HD
ATOM     35  C   UNL A   1      47.357  26.027  26.640  1.00  0.00     0.074 A 
ATOM     36  C   UNL A   1      47.591  24.636  26.311  1.00  0.00     0.031 C 
ATOM     37  C   UNL A   1      48.313  26.987  26.625  1.00  0.00     0.031 A 
BRANCH  24  38
ATOM     38  C   UNL A   1      46.256  32.620  28.129  1.00  0.00    -0.014 A 
ATOM     39  C   UNL A   1      46.155  33.523  27.055  1.00  0.00     0.010 A 
ATOM     40  C   UNL A   1      46.607  33.110  29.402  1.00  0.00     0.010 A 
ATOM     41  C   UNL A   1      46.438  34.879  27.241  1.00  0.00     0.020 A 
ATOM     42  C   UNL A   1      46.865  34.470  29.597  1.00  0.00     0.020 A 
ATOM     43  C   UNL A   1      46.796  35.344  28.510  1.00  0.00     0.054 A 
BRANCH  43  44
ATOM     44  S   UNL A   1      47.141  37.112  28.725  1.00  0.00     0.124 S 
ATOM     45  O   UNL A   1      46.479  37.691  27.559  1.00  0.00    -0.237 OA
ATOM     46  O   UNL A   1      46.517  37.407  30.012  1.00  0.00    -0.237 OA
ATOM     47  O   UNL A   1      48.601  37.185  28.713  1.00  0.00    -0.744 OA
ENDBRANCH  43  44
ENDBRANCH  24  38
BRANCH  25  48
ATOM     48  C   UNL A   1      43.710  23.055  26.827  1.00  0.00    -0.014 A 
ATOM     49  C   UNL A   1      42.891  22.388  27.754  1.00  0.00     0.010 A 
ATOM     50  C   UNL A   1      44.145  22.369  25.678  1.00  0.00     0.010 A 
ATOM     51  C   UNL A   1      42.523  21.055  27.541  1.00  0.00     0.020 A 
ATOM     52  C   UNL A   1      43.755  21.048  25.447  1.00  0.00     0.020 A 
ATOM     53  C   UNL A   1      42.955  20.396  26.386  1.00  0.00     0.054 A 
BRANCH  53  54
ATOM     54  S   UNL A   1      42.415  18.687  26.099  1.00  0.00     0.124 S 
ATOM     55  O   UNL A   1      42.679  18.065  27.393  1.00  0.00    -0.237 OA
ATOM     56  O   UNL A   1      41.006  18.854  25.753  1.00  0.00    -0.237 OA
ATOM     57  O   UNL A   1      43.270  18.240  25.002  1.00  0.00    -0.744 OA
ENDBRANCH  53  54
ENDBRANCH  25  48
BRANCH  37  58
ATOM     58  C   UNL A   1      49.712  26.564  26.265  1.00  0.00    -0.014 A 
ATOM     59  C   UNL A   1      50.569  25.992  27.223  1.00  0.00     0.010 A 
ATOM     60  C   UNL A   1      50.160  26.700  24.939  1.00  0.00     0.010 A 
ATOM     61  C   UNL A   1      51.861  25.595  26.866  1.00  0.00     0.020 A 
ATOM     62  C   UNL A   1      51.441  26.280  24.572  1.00  0.00     0.020 A 
ATOM     63  C   UNL A   1      52.289  25.744  25.543  1.00  0.00     0.054 A 
BRANCH  63  64
ATOM     64  S   UNL A   1      53.956  25.184  25.094  1.00  0.00     0.124 S 
ATOM     65  O   UNL A   1      53.780  23.736  25.019  1.00  0.00    -0.237 OA
ATOM     66  O   UNL A   1      54.188  25.856  23.818  1.00  0.00    -0.237 OA
ATOM     67  O   UNL A   1      54.788  25.654  26.198  1.00  0.00    -0.744 OA
ENDBRANCH  63  64
ENDBRANCH  37  58
ENDBRANCH  11  12
ENDBRANCH   4   6
ENDBRANCH   1   2
BRANCH   1  68
ATOM     68  C   UNL A   1      34.436  29.080  27.031  1.00  0.00     0.042 C 
BRANCH  68  69
ATOM     69  C   UNL A   1      33.381  29.555  26.034  1.00  0.00     0.118 C 
BRANCH  69  70
ATOM     70  N   UNL A   1      33.622  29.149  24.659  1.00  0.00    -0.352 N 
ATOM     71  C   UNL A   1      33.044  28.122  23.951  1.00  0.00     0.251 C 
ATOM     72  H   UNL A   1      34.289  29.683  24.168  1.00  0.00     0.163 HD
ATOM     73  O   UNL A   1      33.173  28.041  22.738  1.00  0.00    -0.269 OA
BRANCH  71  74
ATOM     74  C   UNL A   1      32.319  27.065  24.675  1.00  0.00     0.041 A 
ATOM     75  C   UNL A   1      30.924  27.074  24.590  1.00  0.00     0.014 A 
ATOM     76  C   UNL A   1      32.998  26.107  25.444  1.00  0.00     0.039 A 
ATOM     77  C   UNL A   1      30.193  26.098  25.251  1.00  0.00     0.003 A 
ATOM     78  C   UNL A   1      32.263  25.108  26.095  1.00  0.00     0.039 A 
ATOM     79  C   UNL A   1      30.861  25.117  25.982  1.00  0.00     0.026 A 
BRANCH  78  80
ATOM     80  N   UNL A   1      32.889  24.007  26.718  1.00  0.00    -0.355 N 
ATOM     81  H   UNL A   1      33.004  24.030  27.695  1.00  0.00     0.167 HD
BRANCH  80  82
ATOM     82  C   UNL A   1      33.363  22.867  26.016  1.00  0.00     0.050 A 
ATOM     83  C   UNL A   1      32.431  21.898  25.627  1.00  0.00     0.047 A 
ATOM     84  C   UNL A   1      34.730  22.665  25.710  1.00  0.00     0.027 A 
ATOM     85  C   UNL A   1      32.873  20.765  24.983  1.00  0.00     0.114 A 
ATOM     86  C   UNL A   1      35.066  21.467  25.028  1.00  0.00     0.072 A 
ATOM     87  C   UNL A   1      35.773  23.545  26.081  1.00  0.00     0.051 A 
ATOM     88  N   UNL A   1      34.164  20.544  24.674  1.00  0.00    -0.256 NA
ATOM     89  C   UNL A   1      36.393  21.207  24.717  1.00  0.00     0.032 A 
ATOM     90  C   UNL A   1      37.095  23.245  25.762  1.00  0.00     0.124 A 
ATOM     91  C   UNL A   1      37.414  22.085  25.075  1.00  0.00     0.041 A 
ATOM     92  F   UNL A   1      38.074  24.080  26.131  1.00  0.00    -0.207 F 
ENDBRANCH  80  82
ENDBRANCH  78  80
ENDBRANCH  71  74
ENDBRANCH  69  70
ENDBRANCH  68  69
ENDBRANCH   1  68
TORSDOF 15
ENDMDL
