MODEL 1
REMARK VINA RESULT:     -10.2      0.000      0.000
REMARK SMILES CCCC[C@H](C(=O)NCCCNC(=O)c1ccc(-c2c3nc(c(-c4ccc(S(=O)(=O)[O-])cc4)c4ccc([nH]4)c(-c4ccc(S(=O)(=O)[O-])cc4)c4nc(c(-c5ccc(S(=O)(=O)[O-])cc5)c5ccc2[nH]5)C=C4)C=C3)cc1)[C@H](O)c1ccc(C(F)(F)F)cc1
REMARK SMILES IDX 10 1 9 2 8 3 6 4 7 5 5 7 4 8 3 9 2 10 1 11 75 12 77 13 78 14
REMARK SMILES IDX 86 15 79 16 85 17 80 18 81 19 82 20 83 21 84 22 76 23 11 25
REMARK SMILES IDX 12 26 13 27 14 29 15 30 16 31 74 32 17 33 73 34 18 35 19 36
REMARK SMILES IDX 20 37 67 38 21 39 72 40 66 41 68 42 22 43 71 44 65 45 64 46
REMARK SMILES IDX 23 48 53 49 34 50 52 51 35 52 38 53 51 54 69 55 36 56 37 57
REMARK SMILES IDX 50 59 70 60 39 61 24 62 25 63 33 64 26 65 32 66 27 67 28 68
REMARK SMILES IDX 29 69 30 70 31 71 54 72 55 73 63 74 56 75 62 76 57 77 58 78
REMARK SMILES IDX 59 79 60 80 61 81 40 82 41 83 49 84 42 85 48 86 43 87 44 88
REMARK SMILES IDX 45 89 46 90 47 91
REMARK H PARENT 8 6 76 24 12 28 68 47 38 58
REMARK Flexibility Score: inf
ROOT
ATOM      1  C   UNL A   1      33.721  27.794  25.249  1.00  0.00     0.042 C 
ENDROOT
BRANCH   1   2
ATOM      2  C   UNL A   1      32.422  27.291  24.579  1.00  0.00     0.117 C 
BRANCH   2   3
ATOM      3  N   UNL A   1      31.505  26.349  25.217  1.00  0.00    -0.356 N 
ATOM      4  C   UNL A   1      31.672  25.185  25.914  1.00  0.00     0.226 C 
ATOM      5  O   UNL A   1      30.942  25.068  26.912  1.00  0.00    -0.275 OA
ATOM      6  H   UNL A   1      30.559  26.610  25.126  1.00  0.00     0.163 HD
BRANCH   4   7
ATOM      7  C   UNL A   1      32.478  23.956  25.465  1.00  0.00     0.111 C 
BRANCH   7   8
ATOM      8  C   UNL A   1      33.985  24.018  25.634  1.00  0.00     0.016 C 
BRANCH   8   9
ATOM      9  C   UNL A   1      34.838  24.056  24.347  1.00  0.00     0.001 C 
BRANCH   9  10
ATOM     10  C   UNL A   1      35.617  22.860  23.765  1.00  0.00    -0.003 C 
ATOM     11  C   UNL A   1      36.011  21.651  24.598  1.00  0.00     0.004 C 
ENDBRANCH   9  10
ENDBRANCH   8   9
ENDBRANCH   7   8
BRANCH   7  12
ATOM     12  C   UNL A   1      31.789  22.657  26.015  1.00  0.00     0.157 C 
BRANCH  12  13
ATOM     13  C   UNL A   1      32.291  21.401  25.290  1.00  0.00    -0.019 A 
ATOM     14  C   UNL A   1      32.888  20.378  26.048  1.00  0.00     0.007 A 
ATOM     15  C   UNL A   1      32.112  21.181  23.915  1.00  0.00     0.007 A 
ATOM     16  C   UNL A   1      33.256  19.161  25.464  1.00  0.00     0.013 A 
ATOM     17  C   UNL A   1      32.487  19.961  23.326  1.00  0.00     0.013 A 
ATOM     18  C   UNL A   1      33.044  18.930  24.098  1.00  0.00     0.056 A 
BRANCH  18  19
ATOM     19  C   UNL A   1      33.385  17.582  23.506  1.00  0.00     0.416 C 
ATOM     20  F   UNL A   1      33.076  17.497  22.180  1.00  0.00    -0.166 F 
ATOM     21  F   UNL A   1      34.716  17.297  23.591  1.00  0.00    -0.166 F 
ATOM     22  F   UNL A   1      32.745  16.538  24.102  1.00  0.00    -0.166 F 
ENDBRANCH  18  19
ENDBRANCH  12  13
BRANCH  12  23
ATOM     23  O   UNL A   1      31.950  22.516  27.428  1.00  0.00    -0.388 OA
ATOM     24  H   UNL A   1      31.339  23.115  27.885  1.00  0.00     0.211 HD
ENDBRANCH  12  23
ENDBRANCH   7  12
ENDBRANCH   4   7
ENDBRANCH   2   3
ENDBRANCH   1   2
BRANCH   1  25
ATOM     25  C   UNL A   1      33.878  28.139  26.741  1.00  0.00     0.118 C 
BRANCH  25  26
ATOM     26  N   UNL A   1      33.505  29.483  27.125  1.00  0.00    -0.352 N 
ATOM     27  C   UNL A   1      34.253  30.414  27.819  1.00  0.00     0.251 C 
ATOM     28  H   UNL A   1      32.602  29.771  26.856  1.00  0.00     0.163 HD
ATOM     29  O   UNL A   1      33.747  31.485  28.133  1.00  0.00    -0.269 OA
BRANCH  27  30
ATOM     30  C   UNL A   1      35.658  30.129  28.214  1.00  0.00     0.039 A 
ATOM     31  C   UNL A   1      36.656  30.192  27.235  1.00  0.00     0.014 A 
ATOM     32  C   UNL A   1      35.990  29.719  29.509  1.00  0.00     0.014 A 
ATOM     33  C   UNL A   1      37.983  29.879  27.559  1.00  0.00     0.010 A 
ATOM     34  C   UNL A   1      37.326  29.433  29.837  1.00  0.00     0.010 A 
ATOM     35  C   UNL A   1      38.339  29.508  28.867  1.00  0.00    -0.014 A 
BRANCH  35  36
ATOM     36  C   UNL A   1      39.766  29.213  29.203  1.00  0.00     0.031 A 
ATOM     37  C   UNL A   1      40.625  30.228  29.916  1.00  0.00     0.074 A 
ATOM     38  C   UNL A   1      40.299  28.019  28.870  1.00  0.00     0.049 A 
ATOM     39  N   UNL A   1      41.862  30.117  30.336  1.00  0.00    -0.248 NA
ATOM     40  C   UNL A   1      40.020  31.541  30.181  1.00  0.00     0.031 C 
ATOM     41  C   UNL A   1      39.591  26.951  28.163  1.00  0.00     0.029 A 
ATOM     42  N   UNL A   1      41.551  27.495  29.091  1.00  0.00    -0.354 N 
ATOM     43  C   UNL A   1      42.184  31.341  30.913  1.00  0.00     0.074 A 
ATOM     44  C   UNL A   1      41.028  32.197  30.740  1.00  0.00     0.031 C 
ATOM     45  C   UNL A   1      40.403  25.888  28.043  1.00  0.00     0.029 A 
ATOM     46  C   UNL A   1      41.702  26.207  28.631  1.00  0.00     0.049 A 
ATOM     47  H   UNL A   1      42.272  27.995  29.538  1.00  0.00     0.167 HD
ATOM     48  C   UNL A   1      43.326  31.719  31.542  1.00  0.00     0.031 A 
ATOM     49  C   UNL A   1      42.759  25.370  28.676  1.00  0.00     0.031 A 
ATOM     50  C   UNL A   1      44.484  30.874  31.698  1.00  0.00     0.049 A 
ATOM     51  C   UNL A   1      44.030  25.821  29.344  1.00  0.00     0.074 A 
ATOM     52  C   UNL A   1      45.674  31.153  32.349  1.00  0.00     0.029 A 
ATOM     53  N   UNL A   1      44.605  29.590  31.186  1.00  0.00    -0.354 N 
ATOM     54  N   UNL A   1      44.289  26.961  29.939  1.00  0.00    -0.248 NA
ATOM     55  C   UNL A   1      45.147  24.866  29.361  1.00  0.00     0.031 C 
ATOM     56  C   UNL A   1      46.536  30.064  32.177  1.00  0.00     0.029 A 
ATOM     57  C   UNL A   1      45.859  29.077  31.479  1.00  0.00     0.049 A 
ATOM     58  H   UNL A   1      43.903  29.114  30.686  1.00  0.00     0.167 HD
ATOM     59  C   UNL A   1      45.587  26.850  30.424  1.00  0.00     0.074 A 
ATOM     60  C   UNL A   1      46.055  25.526  30.066  1.00  0.00     0.031 C 
ATOM     61  C   UNL A   1      46.322  27.761  31.110  1.00  0.00     0.031 A 
BRANCH  48  62
ATOM     62  C   UNL A   1      43.384  33.125  32.092  1.00  0.00    -0.014 A 
ATOM     63  C   UNL A   1      43.830  34.202  31.301  1.00  0.00     0.010 A 
ATOM     64  C   UNL A   1      42.970  33.381  33.413  1.00  0.00     0.010 A 
ATOM     65  C   UNL A   1      43.926  35.488  31.841  1.00  0.00     0.020 A 
ATOM     66  C   UNL A   1      43.032  34.673  33.947  1.00  0.00     0.020 A 
ATOM     67  C   UNL A   1      43.535  35.714  33.163  1.00  0.00     0.054 A 
BRANCH  67  68
ATOM     68  S   UNL A   1      43.688  37.389  33.842  1.00  0.00     0.124 S 
ATOM     69  O   UNL A   1      44.011  38.169  32.650  1.00  0.00    -0.237 OA
ATOM     70  O   UNL A   1      42.363  37.629  34.408  1.00  0.00    -0.237 OA
ATOM     71  O   UNL A   1      44.767  37.271  34.820  1.00  0.00    -0.744 OA
ENDBRANCH  67  68
ENDBRANCH  48  62
BRANCH  49  72
ATOM     72  C   UNL A   1      42.645  24.004  28.090  1.00  0.00    -0.014 A 
ATOM     73  C   UNL A   1      42.095  22.947  28.838  1.00  0.00     0.010 A 
ATOM     74  C   UNL A   1      43.059  23.758  26.768  1.00  0.00     0.010 A 
ATOM     75  C   UNL A   1      41.961  21.674  28.277  1.00  0.00     0.020 A 
ATOM     76  C   UNL A   1      42.901  22.493  26.194  1.00  0.00     0.020 A 
ATOM     77  C   UNL A   1      42.357  21.456  26.955  1.00  0.00     0.054 A 
BRANCH  77  78
ATOM     78  S   UNL A   1      42.099  19.816  26.223  1.00  0.00     0.124 S 
ATOM     79  O   UNL A   1      42.959  19.869  25.045  1.00  0.00    -0.237 OA
ATOM     80  O   UNL A   1      42.542  18.923  27.291  1.00  0.00    -0.237 OA
ATOM     81  O   UNL A   1      40.664  19.784  25.951  1.00  0.00    -0.744 OA
ENDBRANCH  77  78
ENDBRANCH  49  72
BRANCH  61  82
ATOM     82  C   UNL A   1      47.706  27.351  31.549  1.00  0.00    -0.014 A 
ATOM     83  C   UNL A   1      47.934  26.759  32.805  1.00  0.00     0.010 A 
ATOM     84  C   UNL A   1      48.790  27.517  30.666  1.00  0.00     0.010 A 
ATOM     85  C   UNL A   1      49.224  26.372  33.181  1.00  0.00     0.020 A 
ATOM     86  C   UNL A   1      50.075  27.103  31.026  1.00  0.00     0.020 A 
ATOM     87  C   UNL A   1      50.287  26.546  32.288  1.00  0.00     0.054 A 
BRANCH  87  88
ATOM     88  S   UNL A   1      51.942  25.998  32.786  1.00  0.00     0.124 S 
ATOM     89  O   UNL A   1      52.168  24.862  31.897  1.00  0.00    -0.237 OA
ATOM     90  O   UNL A   1      52.763  27.177  32.520  1.00  0.00    -0.237 OA
ATOM     91  O   UNL A   1      51.787  25.661  34.199  1.00  0.00    -0.744 OA
ENDBRANCH  87  88
ENDBRANCH  61  82
ENDBRANCH  35  36
ENDBRANCH  27  30
ENDBRANCH  25  26
ENDBRANCH   1  25
TORSDOF 20
ENDMDL
MODEL 2
REMARK VINA RESULT:     -10.1      1.053      8.285
REMARK SMILES CCCC[C@H](C(=O)NCCCNC(=O)c1ccc(-c2c3nc(c(-c4ccc(S(=O)(=O)[O-])cc4)c4ccc([nH]4)c(-c4ccc(S(=O)(=O)[O-])cc4)c4nc(c(-c5ccc(S(=O)(=O)[O-])cc5)c5ccc2[nH]5)C=C4)C=C3)cc1)[C@H](O)c1ccc(C(F)(F)F)cc1
REMARK SMILES IDX 10 1 9 2 8 3 6 4 7 5 5 7 4 8 3 9 2 10 1 11 75 12 77 13 78 14
REMARK SMILES IDX 86 15 79 16 85 17 80 18 81 19 82 20 83 21 84 22 76 23 11 25
REMARK SMILES IDX 12 26 13 27 14 29 15 30 16 31 74 32 17 33 73 34 18 35 19 36
REMARK SMILES IDX 20 37 67 38 21 39 72 40 66 41 68 42 22 43 71 44 65 45 64 46
REMARK SMILES IDX 23 48 53 49 34 50 52 51 35 52 38 53 51 54 69 55 36 56 37 57
REMARK SMILES IDX 50 59 70 60 39 61 24 62 25 63 33 64 26 65 32 66 27 67 28 68
REMARK SMILES IDX 29 69 30 70 31 71 54 72 55 73 63 74 56 75 62 76 57 77 58 78
REMARK SMILES IDX 59 79 60 80 61 81 40 82 41 83 49 84 42 85 48 86 43 87 44 88
REMARK SMILES IDX 45 89 46 90 47 91
REMARK H PARENT 8 6 76 24 12 28 68 47 38 58
REMARK Flexibility Score: inf
ROOT
ATOM      1  C   UNL A   1      32.787  26.998  26.199  1.00  0.00     0.042 C 
ENDROOT
BRANCH   1   2
ATOM      2  C   UNL A   1      32.574  26.308  24.833  1.00  0.00     0.117 C 
BRANCH   2   3
ATOM      3  N   UNL A   1      33.664  25.738  24.044  1.00  0.00    -0.356 N 
ATOM      4  C   UNL A   1      34.065  24.463  23.760  1.00  0.00     0.226 C 
ATOM      5  O   UNL A   1      34.417  24.279  22.583  1.00  0.00    -0.275 OA
ATOM      6  H   UNL A   1      34.236  26.423  23.625  1.00  0.00     0.163 HD
BRANCH   4   7
ATOM      7  C   UNL A   1      34.331  23.339  24.774  1.00  0.00     0.111 C 
BRANCH   7   8
ATOM      8  C   UNL A   1      35.013  23.728  26.073  1.00  0.00     0.016 C 
BRANCH   8   9
ATOM      9  C   UNL A   1      36.539  23.959  26.028  1.00  0.00     0.001 C 
BRANCH   9  10
ATOM     10  C   UNL A   1      37.518  23.229  25.088  1.00  0.00    -0.003 C 
ATOM     11  C   UNL A   1      37.930  21.780  25.294  1.00  0.00     0.004 C 
ENDBRANCH   9  10
ENDBRANCH   8   9
ENDBRANCH   7   8
BRANCH   7  12
ATOM     12  C   UNL A   1      33.038  22.461  24.925  1.00  0.00     0.157 C 
BRANCH  12  13
ATOM     13  C   UNL A   1      33.300  20.999  24.539  1.00  0.00    -0.019 A 
ATOM     14  C   UNL A   1      34.515  20.407  24.927  1.00  0.00     0.007 A 
ATOM     15  C   UNL A   1      32.355  20.192  23.888  1.00  0.00     0.007 A 
ATOM     16  C   UNL A   1      34.763  19.047  24.711  1.00  0.00     0.013 A 
ATOM     17  C   UNL A   1      32.604  18.826  23.665  1.00  0.00     0.013 A 
ATOM     18  C   UNL A   1      33.802  18.234  24.093  1.00  0.00     0.056 A 
BRANCH  18  19
ATOM     19  C   UNL A   1      34.064  16.755  23.934  1.00  0.00     0.416 C 
ATOM     20  F   UNL A   1      32.975  15.993  24.237  1.00  0.00    -0.166 F 
ATOM     21  F   UNL A   1      34.403  16.420  22.656  1.00  0.00    -0.166 F 
ATOM     22  F   UNL A   1      35.074  16.285  24.718  1.00  0.00    -0.166 F 
ENDBRANCH  18  19
ENDBRANCH  12  13
BRANCH  12  23
ATOM     23  O   UNL A   1      32.481  22.539  26.239  1.00  0.00    -0.388 OA
ATOM     24  H   UNL A   1      32.838  21.821  26.785  1.00  0.00     0.211 HD
ENDBRANCH  12  23
ENDBRANCH   7  12
ENDBRANCH   4   7
ENDBRANCH   2   3
ENDBRANCH   1   2
BRANCH   1  25
ATOM     25  C   UNL A   1      33.942  27.955  26.543  1.00  0.00     0.118 C 
BRANCH  25  26
ATOM     26  N   UNL A   1      33.565  29.309  26.886  1.00  0.00    -0.352 N 
ATOM     27  C   UNL A   1      34.294  30.249  27.589  1.00  0.00     0.251 C 
ATOM     28  H   UNL A   1      32.675  29.598  26.578  1.00  0.00     0.163 HD
ATOM     29  O   UNL A   1      33.785  31.329  27.863  1.00  0.00    -0.269 OA
BRANCH  27  30
ATOM     30  C   UNL A   1      35.681  29.963  28.042  1.00  0.00     0.039 A 
ATOM     31  C   UNL A   1      36.723  30.062  27.113  1.00  0.00     0.014 A 
ATOM     32  C   UNL A   1      35.955  29.517  29.338  1.00  0.00     0.014 A 
ATOM     33  C   UNL A   1      38.037  29.749  27.489  1.00  0.00     0.010 A 
ATOM     34  C   UNL A   1      37.277  29.231  29.720  1.00  0.00     0.010 A 
ATOM     35  C   UNL A   1      38.334  29.342  28.802  1.00  0.00    -0.014 A 
BRANCH  35  36
ATOM     36  C   UNL A   1      39.746  29.048  29.196  1.00  0.00     0.031 A 
ATOM     37  C   UNL A   1      40.388  27.725  28.862  1.00  0.00     0.074 A 
ATOM     38  C   UNL A   1      40.464  29.980  29.857  1.00  0.00     0.049 A 
ATOM     39  N   UNL A   1      41.619  27.324  29.076  1.00  0.00    -0.248 NA
ATOM     40  C   UNL A   1      39.537  26.717  28.214  1.00  0.00     0.031 C 
ATOM     41  C   UNL A   1      39.965  31.294  30.262  1.00  0.00     0.029 A 
ATOM     42  N   UNL A   1      41.768  29.972  30.296  1.00  0.00    -0.354 N 
ATOM     43  C   UNL A   1      41.689  26.022  28.592  1.00  0.00     0.074 A 
ATOM     44  C   UNL A   1      40.362  25.683  28.122  1.00  0.00     0.031 C 
ATOM     45  C   UNL A   1      40.958  31.980  30.851  1.00  0.00     0.029 A 
ATOM     46  C   UNL A   1      42.155  31.145  30.903  1.00  0.00     0.049 A 
ATOM     47  H   UNL A   1      42.368  29.199  30.185  1.00  0.00     0.167 HD
ATOM     48  C   UNL A   1      42.758  25.187  28.528  1.00  0.00     0.031 A 
ATOM     49  C   UNL A   1      43.336  31.515  31.438  1.00  0.00     0.031 A 
ATOM     50  C   UNL A   1      44.076  25.517  29.013  1.00  0.00     0.049 A 
ATOM     51  C   UNL A   1      44.500  30.561  31.391  1.00  0.00     0.074 A 
ATOM     52  C   UNL A   1      45.230  24.754  28.961  1.00  0.00     0.029 A 
ATOM     53  N   UNL A   1      44.413  26.702  29.651  1.00  0.00    -0.354 N 
ATOM     54  N   UNL A   1      44.560  29.359  30.871  1.00  0.00    -0.248 NA
ATOM     55  C   UNL A   1      45.760  31.022  31.991  1.00  0.00     0.031 C 
ATOM     56  C   UNL A   1      46.248  25.451  29.623  1.00  0.00     0.029 A 
ATOM     57  C   UNL A   1      45.748  26.679  30.025  1.00  0.00     0.049 A 
ATOM     58  H   UNL A   1      43.795  27.451  29.814  1.00  0.00     0.167 HD
ATOM     59  C   UNL A   1      45.869  28.930  31.055  1.00  0.00     0.074 A 
ATOM     60  C   UNL A   1      46.571  30.008  31.723  1.00  0.00     0.031 C 
ATOM     61  C   UNL A   1      46.439  27.751  30.699  1.00  0.00     0.031 A 
BRANCH  48  62
ATOM     62  C   UNL A   1      42.537  23.819  27.927  1.00  0.00    -0.014 A 
ATOM     63  C   UNL A   1      42.275  22.698  28.738  1.00  0.00     0.010 A 
ATOM     64  C   UNL A   1      42.572  23.650  26.530  1.00  0.00     0.010 A 
ATOM     65  C   UNL A   1      42.123  21.430  28.170  1.00  0.00     0.020 A 
ATOM     66  C   UNL A   1      42.386  22.389  25.954  1.00  0.00     0.020 A 
ATOM     67  C   UNL A   1      42.188  21.281  26.782  1.00  0.00     0.054 A 
BRANCH  67  68
ATOM     68  S   UNL A   1      42.006  19.622  26.074  1.00  0.00     0.124 S 
ATOM     69  O   UNL A   1      42.948  19.664  24.959  1.00  0.00    -0.237 OA
ATOM     70  O   UNL A   1      42.389  18.754  27.186  1.00  0.00    -0.237 OA
ATOM     71  O   UNL A   1      40.596  19.557  25.695  1.00  0.00    -0.744 OA
ENDBRANCH  67  68
ENDBRANCH  48  62
BRANCH  49  72
ATOM     72  C   UNL A   1      43.482  32.871  32.040  1.00  0.00    -0.014 A 
ATOM     73  C   UNL A   1      43.685  34.000  31.224  1.00  0.00     0.010 A 
ATOM     74  C   UNL A   1      43.387  33.047  33.433  1.00  0.00     0.010 A 
ATOM     75  C   UNL A   1      43.791  35.274  31.789  1.00  0.00     0.020 A 
ATOM     76  C   UNL A   1      43.464  34.323  33.999  1.00  0.00     0.020 A 
ATOM     77  C   UNL A   1      43.671  35.429  33.173  1.00  0.00     0.054 A 
BRANCH  77  78
ATOM     78  S   UNL A   1      43.732  37.102  33.874  1.00  0.00     0.124 S 
ATOM     79  O   UNL A   1      42.322  37.376  34.132  1.00  0.00    -0.237 OA
ATOM     80  O   UNL A   1      44.568  36.915  35.058  1.00  0.00    -0.237 OA
ATOM     81  O   UNL A   1      44.342  37.897  32.811  1.00  0.00    -0.744 OA
ENDBRANCH  77  78
ENDBRANCH  49  72
BRANCH  61  82
ATOM     82  C   UNL A   1      47.906  27.569  30.994  1.00  0.00    -0.014 A 
ATOM     83  C   UNL A   1      48.346  26.936  32.170  1.00  0.00     0.010 A 
ATOM     84  C   UNL A   1      48.861  27.997  30.051  1.00  0.00     0.010 A 
ATOM     85  C   UNL A   1      49.714  26.765  32.413  1.00  0.00     0.020 A 
ATOM     86  C   UNL A   1      50.226  27.799  30.275  1.00  0.00     0.020 A 
ATOM     87  C   UNL A   1      50.644  27.197  31.463  1.00  0.00     0.054 A 
BRANCH  87  88
ATOM     88  S   UNL A   1      52.409  26.925  31.784  1.00  0.00     0.124 S 
ATOM     89  O   UNL A   1      53.036  27.840  30.834  1.00  0.00    -0.237 OA
ATOM     90  O   UNL A   1      52.538  27.295  33.191  1.00  0.00    -0.237 OA
ATOM     91  O   UNL A   1      52.599  25.504  31.499  1.00  0.00    -0.744 OA
ENDBRANCH  87  88
ENDBRANCH  61  82
ENDBRANCH  35  36
ENDBRANCH  27  30
ENDBRANCH  25  26
ENDBRANCH   1  25
TORSDOF 20
ENDMDL
MODEL 3
REMARK VINA RESULT:     -10.0      2.170      2.986
REMARK SMILES CCCC[C@H](C(=O)NCCCNC(=O)c1ccc(-c2c3nc(c(-c4ccc(S(=O)(=O)[O-])cc4)c4ccc([nH]4)c(-c4ccc(S(=O)(=O)[O-])cc4)c4nc(c(-c5ccc(S(=O)(=O)[O-])cc5)c5ccc2[nH]5)C=C4)C=C3)cc1)[C@H](O)c1ccc(C(F)(F)F)cc1
REMARK SMILES IDX 10 1 9 2 8 3 6 4 7 5 5 7 4 8 3 9 2 10 1 11 75 12 77 13 78 14
REMARK SMILES IDX 86 15 79 16 85 17 80 18 81 19 82 20 83 21 84 22 76 23 11 25
REMARK SMILES IDX 12 26 13 27 14 29 15 30 16 31 74 32 17 33 73 34 18 35 19 36
REMARK SMILES IDX 20 37 67 38 21 39 72 40 66 41 68 42 22 43 71 44 65 45 64 46
REMARK SMILES IDX 23 48 53 49 34 50 52 51 35 52 38 53 51 54 69 55 36 56 37 57
REMARK SMILES IDX 50 59 70 60 39 61 24 62 25 63 33 64 26 65 32 66 27 67 28 68
REMARK SMILES IDX 29 69 30 70 31 71 54 72 55 73 63 74 56 75 62 76 57 77 58 78
REMARK SMILES IDX 59 79 60 80 61 81 40 82 41 83 49 84 42 85 48 86 43 87 44 88
REMARK SMILES IDX 45 89 46 90 47 91
REMARK H PARENT 8 6 76 24 12 28 68 47 38 58
REMARK Flexibility Score: inf
ROOT
ATOM      1  C   UNL A   1      34.267  27.976  25.530  1.00  0.00     0.042 C 
ENDROOT
BRANCH   1   2
ATOM      2  C   UNL A   1      33.494  27.967  24.191  1.00  0.00     0.117 C 
BRANCH   2   3
ATOM      3  N   UNL A   1      33.831  27.083  23.078  1.00  0.00    -0.356 N 
ATOM      4  C   UNL A   1      33.171  26.075  22.432  1.00  0.00     0.226 C 
ATOM      5  O   UNL A   1      33.298  26.078  21.196  1.00  0.00    -0.275 OA
ATOM      6  H   UNL A   1      34.729  27.251  22.711  1.00  0.00     0.163 HD
BRANCH   4   7
ATOM      7  C   UNL A   1      32.505  24.852  23.083  1.00  0.00     0.111 C 
BRANCH   7   8
ATOM      8  C   UNL A   1      30.997  24.736  22.957  1.00  0.00     0.016 C 
BRANCH   8   9
ATOM      9  C   UNL A   1      30.149  25.238  24.147  1.00  0.00     0.001 C 
BRANCH   9  10
ATOM     10  C   UNL A   1      30.711  25.909  25.415  1.00  0.00    -0.003 C 
ATOM     11  C   UNL A   1      31.483  25.142  26.478  1.00  0.00     0.004 C 
ENDBRANCH   9  10
ENDBRANCH   8   9
ENDBRANCH   7   8
BRANCH   7  12
ATOM     12  C   UNL A   1      33.316  23.561  22.706  1.00  0.00     0.157 C 
BRANCH  12  13
ATOM     13  C   UNL A   1      34.516  23.356  23.640  1.00  0.00    -0.019 A 
ATOM     14  C   UNL A   1      35.794  23.207  23.073  1.00  0.00     0.007 A 
ATOM     15  C   UNL A   1      34.419  23.392  25.040  1.00  0.00     0.007 A 
ATOM     16  C   UNL A   1      36.941  23.137  23.872  1.00  0.00     0.013 A 
ATOM     17  C   UNL A   1      35.570  23.316  25.844  1.00  0.00     0.013 A 
ATOM     18  C   UNL A   1      36.845  23.209  25.268  1.00  0.00     0.056 A 
BRANCH  18  19
ATOM     19  C   UNL A   1      38.103  23.202  26.105  1.00  0.00     0.416 C 
ATOM     20  F   UNL A   1      38.592  21.946  26.309  1.00  0.00    -0.166 F 
ATOM     21  F   UNL A   1      39.119  23.903  25.526  1.00  0.00    -0.166 F 
ATOM     22  F   UNL A   1      37.944  23.742  27.346  1.00  0.00    -0.166 F 
ENDBRANCH  18  19
ENDBRANCH  12  13
BRANCH  12  23
ATOM     23  O   UNL A   1      32.494  22.392  22.684  1.00  0.00    -0.388 OA
ATOM     24  H   UNL A   1      32.046  22.326  21.826  1.00  0.00     0.211 HD
ENDBRANCH  12  23
ENDBRANCH   7  12
ENDBRANCH   4   7
ENDBRANCH   2   3
ENDBRANCH   1   2
BRANCH   1  25
ATOM     25  C   UNL A   1      33.640  28.185  26.919  1.00  0.00     0.118 C 
BRANCH  25  26
ATOM     26  N   UNL A   1      33.412  29.558  27.313  1.00  0.00    -0.352 N 
ATOM     27  C   UNL A   1      34.291  30.431  27.924  1.00  0.00     0.251 C 
ATOM     28  H   UNL A   1      32.515  29.917  27.121  1.00  0.00     0.163 HD
ATOM     29  O   UNL A   1      33.903  31.542  28.265  1.00  0.00    -0.269 OA
BRANCH  27  30
ATOM     30  C   UNL A   1      35.699  30.037  28.198  1.00  0.00     0.039 A 
ATOM     31  C   UNL A   1      36.042  29.632  29.492  1.00  0.00     0.014 A 
ATOM     32  C   UNL A   1      36.696  30.146  27.224  1.00  0.00     0.014 A 
ATOM     33  C   UNL A   1      37.369  29.304  29.801  1.00  0.00     0.010 A 
ATOM     34  C   UNL A   1      38.020  29.789  27.529  1.00  0.00     0.010 A 
ATOM     35  C   UNL A   1      38.374  29.365  28.821  1.00  0.00    -0.014 A 
BRANCH  35  36
ATOM     36  C   UNL A   1      39.779  28.977  29.158  1.00  0.00     0.031 A 
ATOM     37  C   UNL A   1      40.688  29.916  29.910  1.00  0.00     0.074 A 
ATOM     38  C   UNL A   1      40.244  27.764  28.790  1.00  0.00     0.049 A 
ATOM     39  N   UNL A   1      41.913  29.720  30.335  1.00  0.00    -0.248 NA
ATOM     40  C   UNL A   1      40.158  31.253  30.213  1.00  0.00     0.031 C 
ATOM     41  C   UNL A   1      39.482  26.763  28.043  1.00  0.00     0.029 A 
ATOM     42  N   UNL A   1      41.461  27.162  29.004  1.00  0.00    -0.354 N 
ATOM     43  C   UNL A   1      42.299  30.904  30.954  1.00  0.00     0.074 A 
ATOM     44  C   UNL A   1      41.197  31.831  30.801  1.00  0.00     0.031 C 
ATOM     45  C   UNL A   1      40.232  25.659  27.896  1.00  0.00     0.029 A 
ATOM     46  C   UNL A   1      41.542  25.883  28.503  1.00  0.00     0.049 A 
ATOM     47  H   UNL A   1      42.206  27.605  29.472  1.00  0.00     0.167 HD
ATOM     48  C   UNL A   1      43.456  31.194  31.604  1.00  0.00     0.031 A 
ATOM     49  C   UNL A   1      42.548  24.984  28.529  1.00  0.00     0.031 A 
ATOM     50  C   UNL A   1      44.562  30.279  31.741  1.00  0.00     0.049 A 
ATOM     51  C   UNL A   1      43.836  25.339  29.221  1.00  0.00     0.074 A 
ATOM     52  C   UNL A   1      45.759  30.467  32.410  1.00  0.00     0.029 A 
ATOM     53  N   UNL A   1      44.612  29.007  31.189  1.00  0.00    -0.354 N 
ATOM     54  N   UNL A   1      44.156  26.442  29.855  1.00  0.00    -0.248 NA
ATOM     55  C   UNL A   1      44.895  24.319  29.215  1.00  0.00     0.031 C 
ATOM     56  C   UNL A   1      46.558  29.335  32.209  1.00  0.00     0.029 A 
ATOM     57  C   UNL A   1      45.831  28.412  31.474  1.00  0.00     0.049 A 
ATOM     58  H   UNL A   1      43.888  28.588  30.668  1.00  0.00     0.167 HD
ATOM     59  C   UNL A   1      45.441  26.240  30.346  1.00  0.00     0.074 A 
ATOM     60  C   UNL A   1      45.834  24.902  29.948  1.00  0.00     0.031 C 
ATOM     61  C   UNL A   1      46.221  27.084  31.067  1.00  0.00     0.031 A 
BRANCH  48  62
ATOM     62  C   UNL A   1      43.590  32.576  32.200  1.00  0.00    -0.014 A 
ATOM     63  C   UNL A   1      44.034  33.666  31.425  1.00  0.00     0.010 A 
ATOM     64  C   UNL A   1      43.253  32.796  33.548  1.00  0.00     0.010 A 
ATOM     65  C   UNL A   1      44.201  34.927  32.005  1.00  0.00     0.020 A 
ATOM     66  C   UNL A   1      43.386  34.064  34.124  1.00  0.00     0.020 A 
ATOM     67  C   UNL A   1      43.885  35.117  33.353  1.00  0.00     0.054 A 
BRANCH  67  68
ATOM     68  S   UNL A   1      44.130  36.759  34.082  1.00  0.00     0.124 S 
ATOM     69  O   UNL A   1      45.257  37.269  33.305  1.00  0.00    -0.237 OA
ATOM     70  O   UNL A   1      42.849  37.417  33.833  1.00  0.00    -0.237 OA
ATOM     71  O   UNL A   1      44.420  36.478  35.486  1.00  0.00    -0.744 OA
ENDBRANCH  67  68
ENDBRANCH  48  62
BRANCH  49  72
ATOM     72  C   UNL A   1      42.360  23.647  27.899  1.00  0.00    -0.014 A 
ATOM     73  C   UNL A   1      42.964  23.345  26.664  1.00  0.00     0.010 A 
ATOM     74  C   UNL A   1      41.600  22.653  28.545  1.00  0.00     0.010 A 
ATOM     75  C   UNL A   1      42.812  22.080  26.089  1.00  0.00     0.020 A 
ATOM     76  C   UNL A   1      41.469  21.379  27.987  1.00  0.00     0.020 A 
ATOM     77  C   UNL A   1      42.072  21.101  26.759  1.00  0.00     0.054 A 
BRANCH  77  78
ATOM     78  S   UNL A   1      41.956  19.442  26.032  1.00  0.00     0.124 S 
ATOM     79  O   UNL A   1      42.773  19.577  24.830  1.00  0.00    -0.237 OA
ATOM     80  O   UNL A   1      42.513  18.598  27.086  1.00  0.00    -0.237 OA
ATOM     81  O   UNL A   1      40.524  19.270  25.800  1.00  0.00    -0.744 OA
ENDBRANCH  77  78
ENDBRANCH  49  72
BRANCH  61  82
ATOM     82  C   UNL A   1      47.574  26.580  31.502  1.00  0.00    -0.014 A 
ATOM     83  C   UNL A   1      48.721  26.777  30.713  1.00  0.00     0.010 A 
ATOM     84  C   UNL A   1      47.706  25.941  32.751  1.00  0.00     0.010 A 
ATOM     85  C   UNL A   1      49.968  26.315  31.147  1.00  0.00     0.020 A 
ATOM     86  C   UNL A   1      48.955  25.507  33.203  1.00  0.00     0.020 A 
ATOM     87  C   UNL A   1      50.076  25.683  32.391  1.00  0.00     0.054 A 
BRANCH  87  88
ATOM     88  S   UNL A   1      51.711  25.131  32.949  1.00  0.00     0.124 S 
ATOM     89  O   UNL A   1      52.031  26.115  33.979  1.00  0.00    -0.237 OA
ATOM     90  O   UNL A   1      51.444  23.779  33.434  1.00  0.00    -0.237 OA
ATOM     91  O   UNL A   1      52.533  25.203  31.742  1.00  0.00    -0.744 OA
ENDBRANCH  87  88
ENDBRANCH  61  82
ENDBRANCH  35  36
ENDBRANCH  27  30
ENDBRANCH  25  26
ENDBRANCH   1  25
TORSDOF 20
ENDMDL
