MODEL 1
REMARK VINA RESULT:     -13.6      0.000      0.000
REMARK SMILES O=C(NCCCNC(=O)c1nn(Cc2ccc(F)cc2)c2ccccc12)c1ccc(-c2c3nc(c(-c4ccc(S(=O)(=O)[O-])cc4)c4ccc([nH]4)c(-c4ccc(S(=O)(=O)[O-])cc4)c4nc(c(-c5ccc(S(=O)(=O)[O-])cc5)c5ccc2[nH]5)C=C4)C=C3)cc1
REMARK SMILES IDX 4 1 3 2 1 3 2 4 27 6 28 7 86 8 29 9 85 10 30 11 31 12 32 13
REMARK SMILES IDX 79 14 33 15 84 16 78 17 80 18 34 19 83 20 77 21 76 22 35 24
REMARK SMILES IDX 65 25 46 26 64 27 47 28 50 29 63 30 81 31 48 32 49 33 62 35
REMARK SMILES IDX 82 36 51 37 36 38 37 39 45 40 38 41 44 42 39 43 40 44 41 45
REMARK SMILES IDX 42 46 43 47 66 48 67 49 75 50 68 51 74 52 69 53 70 54 71 55
REMARK SMILES IDX 72 56 73 57 52 58 53 59 61 60 54 61 60 62 55 63 56 64 57 65
REMARK SMILES IDX 58 66 59 67 5 68 6 69 7 70 8 71 9 73 10 74 11 75 26 76 12 77
REMARK SMILES IDX 21 78 25 79 22 80 24 81 23 82 13 83 14 84 15 85 20 86 16 87
REMARK SMILES IDX 19 88 17 89 18 90
REMARK H PARENT 3 5 80 23 50 34 7 72
REMARK Flexibility Score: inf
ROOT
ATOM      1  C   UNL A   1      39.584  21.892  26.461  1.00  0.00     0.118 C 
ENDROOT
BRANCH   1   2
ATOM      2  N   UNL A   1      40.931  21.988  25.871  1.00  0.00    -0.352 N 
ATOM      3  O   UNL A   1      42.767  23.185  25.210  1.00  0.00    -0.269 OA
ATOM      4  C   UNL A   1      41.806  23.087  25.932  1.00  0.00     0.251 C 
ATOM      5  H   UNL A   1      41.255  21.197  25.384  1.00  0.00     0.163 HD
BRANCH   4   6
ATOM      6  C   UNL A   1      41.494  24.106  26.962  1.00  0.00     0.039 A 
ATOM      7  C   UNL A   1      42.214  24.292  28.143  1.00  0.00     0.014 A 
ATOM      8  C   UNL A   1      40.575  25.041  26.545  1.00  0.00     0.014 A 
ATOM      9  C   UNL A   1      42.061  25.512  28.814  1.00  0.00     0.010 A 
ATOM     10  C   UNL A   1      40.806  26.320  26.934  1.00  0.00     0.010 A 
ATOM     11  C   UNL A   1      41.369  26.550  28.170  1.00  0.00    -0.014 A 
BRANCH  11  12
ATOM     12  C   UNL A   1      41.184  27.898  28.696  1.00  0.00     0.031 A 
ATOM     13  C   UNL A   1      42.214  28.891  28.323  1.00  0.00     0.074 A 
ATOM     14  C   UNL A   1      40.060  28.283  29.352  1.00  0.00     0.049 A 
ATOM     15  N   UNL A   1      43.137  29.363  29.090  1.00  0.00    -0.248 NA
ATOM     16  C   UNL A   1      42.317  29.323  26.924  1.00  0.00     0.031 C 
ATOM     17  C   UNL A   1      38.805  27.546  29.607  1.00  0.00     0.029 A 
ATOM     18  N   UNL A   1      39.768  29.504  29.862  1.00  0.00    -0.354 N 
ATOM     19  C   UNL A   1      43.826  30.303  28.337  1.00  0.00     0.074 A 
ATOM     20  C   UNL A   1      43.392  30.114  26.974  1.00  0.00     0.031 C 
ATOM     21  C   UNL A   1      37.826  28.400  29.973  1.00  0.00     0.029 A 
ATOM     22  C   UNL A   1      38.439  29.685  30.216  1.00  0.00     0.049 A 
ATOM     23  H   UNL A   1      40.447  30.209  29.973  1.00  0.00     0.167 HD
ATOM     24  C   UNL A   1      44.551  31.293  28.930  1.00  0.00     0.031 A 
ATOM     25  C   UNL A   1      37.872  30.799  30.738  1.00  0.00     0.031 A 
ATOM     26  C   UNL A   1      44.718  31.056  30.343  1.00  0.00     0.049 A 
ATOM     27  C   UNL A   1      38.982  31.557  31.367  1.00  0.00     0.074 A 
ATOM     28  C   UNL A   1      45.312  30.053  31.084  1.00  0.00     0.029 A 
ATOM     29  N   UNL A   1      43.842  31.687  31.199  1.00  0.00    -0.354 N 
ATOM     30  N   UNL A   1      39.654  31.113  32.395  1.00  0.00    -0.248 NA
ATOM     31  C   UNL A   1      39.656  32.567  30.568  1.00  0.00     0.031 C 
ATOM     32  C   UNL A   1      44.409  29.813  32.161  1.00  0.00     0.029 A 
ATOM     33  C   UNL A   1      43.365  30.738  32.072  1.00  0.00     0.049 A 
ATOM     34  H   UNL A   1      43.601  32.641  31.187  1.00  0.00     0.167 HD
ATOM     35  C   UNL A   1      40.974  31.451  32.130  1.00  0.00     0.074 A 
ATOM     36  C   UNL A   1      40.899  32.421  31.037  1.00  0.00     0.031 C 
ATOM     37  C   UNL A   1      42.020  30.720  32.625  1.00  0.00     0.031 A 
BRANCH  24  38
ATOM     38  C   UNL A   1      44.848  32.622  28.294  1.00  0.00    -0.014 A 
ATOM     39  C   UNL A   1      43.885  33.643  28.170  1.00  0.00     0.010 A 
ATOM     40  C   UNL A   1      46.184  32.962  27.999  1.00  0.00     0.010 A 
ATOM     41  C   UNL A   1      44.220  34.928  27.742  1.00  0.00     0.020 A 
ATOM     42  C   UNL A   1      46.538  34.262  27.611  1.00  0.00     0.020 A 
ATOM     43  C   UNL A   1      45.549  35.234  27.477  1.00  0.00     0.054 A 
BRANCH  43  44
ATOM     44  S   UNL A   1      45.957  36.938  27.027  1.00  0.00     0.124 S 
ATOM     45  O   UNL A   1      46.735  37.376  28.183  1.00  0.00    -0.237 OA
ATOM     46  O   UNL A   1      46.711  36.763  25.789  1.00  0.00    -0.237 OA
ATOM     47  O   UNL A   1      44.651  37.575  26.875  1.00  0.00    -0.744 OA
ENDBRANCH  43  44
ENDBRANCH  24  38
BRANCH  25  48
ATOM     48  C   UNL A   1      36.623  31.435  30.248  1.00  0.00    -0.014 A 
ATOM     49  C   UNL A   1      36.536  31.905  28.921  1.00  0.00     0.010 A 
ATOM     50  C   UNL A   1      35.639  31.857  31.161  1.00  0.00     0.010 A 
ATOM     51  C   UNL A   1      35.569  32.843  28.544  1.00  0.00     0.020 A 
ATOM     52  C   UNL A   1      34.666  32.797  30.789  1.00  0.00     0.020 A 
ATOM     53  C   UNL A   1      34.666  33.317  29.493  1.00  0.00     0.054 A 
BRANCH  53  54
ATOM     54  S   UNL A   1      33.572  34.693  29.032  1.00  0.00     0.124 S 
ATOM     55  O   UNL A   1      34.508  35.633  28.423  1.00  0.00    -0.237 OA
ATOM     56  O   UNL A   1      32.634  34.056  28.110  1.00  0.00    -0.237 OA
ATOM     57  O   UNL A   1      32.997  35.120  30.305  1.00  0.00    -0.744 OA
ENDBRANCH  53  54
ENDBRANCH  25  48
BRANCH  37  58
ATOM     58  C   UNL A   1      41.744  29.633  33.652  1.00  0.00    -0.014 A 
ATOM     59  C   UNL A   1      42.025  29.925  34.999  1.00  0.00     0.010 A 
ATOM     60  C   UNL A   1      41.434  28.298  33.316  1.00  0.00     0.010 A 
ATOM     61  C   UNL A   1      42.046  28.920  35.972  1.00  0.00     0.020 A 
ATOM     62  C   UNL A   1      41.429  27.286  34.294  1.00  0.00     0.020 A 
ATOM     63  C   UNL A   1      41.762  27.603  35.612  1.00  0.00     0.054 A 
BRANCH  63  64
ATOM     64  S   UNL A   1      41.868  26.324  36.897  1.00  0.00     0.124 S 
ATOM     65  O   UNL A   1      42.208  25.132  36.124  1.00  0.00    -0.237 OA
ATOM     66  O   UNL A   1      42.933  26.826  37.763  1.00  0.00    -0.237 OA
ATOM     67  O   UNL A   1      40.538  26.312  37.500  1.00  0.00    -0.744 OA
ENDBRANCH  63  64
ENDBRANCH  37  58
ENDBRANCH  11  12
ENDBRANCH   4   6
ENDBRANCH   1   2
BRANCH   1  68
ATOM     68  C   UNL A   1      38.512  21.349  25.549  1.00  0.00     0.042 C 
BRANCH  68  69
ATOM     69  C   UNL A   1      37.371  22.336  25.347  1.00  0.00     0.118 C 
BRANCH  69  70
ATOM     70  N   UNL A   1      36.479  22.497  26.492  1.00  0.00    -0.351 N 
ATOM     71  C   UNL A   1      35.096  22.433  26.522  1.00  0.00     0.272 C 
ATOM     72  H   UNL A   1      36.918  22.675  27.355  1.00  0.00     0.163 HD
ATOM     73  O   UNL A   1      34.516  22.609  27.591  1.00  0.00    -0.267 OA
BRANCH  71  74
ATOM     74  C   UNL A   1      34.396  22.136  25.269  1.00  0.00     0.158 A 
ATOM     75  N   UNL A   1      33.817  20.943  25.044  1.00  0.00    -0.166 NA
ATOM     76  C   UNL A   1      34.145  23.040  24.194  1.00  0.00     0.033 A 
ATOM     77  N   UNL A   1      33.135  21.108  23.891  1.00  0.00    -0.260 N 
ATOM     78  C   UNL A   1      33.323  22.345  23.312  1.00  0.00     0.069 A 
ATOM     79  C   UNL A   1      34.463  24.388  23.927  1.00  0.00     0.013 A 
ATOM     80  C   UNL A   1      32.827  22.946  22.146  1.00  0.00     0.028 A 
ATOM     81  C   UNL A   1      33.847  25.034  22.855  1.00  0.00     0.001 A 
ATOM     82  C   UNL A   1      33.043  24.317  21.975  1.00  0.00     0.002 A 
BRANCH  77  83
ATOM     83  C   UNL A   1      32.340  19.993  23.382  1.00  0.00     0.180 C 
BRANCH  83  84
ATOM     84  C   UNL A   1      32.767  18.623  23.884  1.00  0.00    -0.026 A 
ATOM     85  C   UNL A   1      33.541  17.745  23.104  1.00  0.00     0.008 A 
ATOM     86  C   UNL A   1      32.474  18.237  25.205  1.00  0.00     0.008 A 
ATOM     87  C   UNL A   1      34.017  16.539  23.619  1.00  0.00     0.039 A 
ATOM     88  C   UNL A   1      32.954  17.028  25.723  1.00  0.00     0.039 A 
ATOM     89  C   UNL A   1      33.725  16.193  24.926  1.00  0.00     0.123 A 
ATOM     90  F   UNL A   1      34.205  15.046  25.426  1.00  0.00    -0.207 F 
ENDBRANCH  83  84
ENDBRANCH  77  83
ENDBRANCH  71  74
ENDBRANCH  69  70
ENDBRANCH  68  69
ENDBRANCH   1  68
TORSDOF 15
ENDMDL
MODEL 2
REMARK VINA RESULT:     -13.3      2.593      4.007
REMARK SMILES O=C(NCCCNC(=O)c1nn(Cc2ccc(F)cc2)c2ccccc12)c1ccc(-c2c3nc(c(-c4ccc(S(=O)(=O)[O-])cc4)c4ccc([nH]4)c(-c4ccc(S(=O)(=O)[O-])cc4)c4nc(c(-c5ccc(S(=O)(=O)[O-])cc5)c5ccc2[nH]5)C=C4)C=C3)cc1
REMARK SMILES IDX 4 1 3 2 1 3 2 4 27 6 28 7 86 8 29 9 85 10 30 11 31 12 32 13
REMARK SMILES IDX 79 14 33 15 84 16 78 17 80 18 34 19 83 20 77 21 76 22 35 24
REMARK SMILES IDX 65 25 46 26 64 27 47 28 50 29 63 30 81 31 48 32 49 33 62 35
REMARK SMILES IDX 82 36 51 37 36 38 37 39 45 40 38 41 44 42 39 43 40 44 41 45
REMARK SMILES IDX 42 46 43 47 66 48 67 49 75 50 68 51 74 52 69 53 70 54 71 55
REMARK SMILES IDX 72 56 73 57 52 58 53 59 61 60 54 61 60 62 55 63 56 64 57 65
REMARK SMILES IDX 58 66 59 67 5 68 6 69 7 70 8 71 9 73 10 74 11 75 26 76 12 77
REMARK SMILES IDX 21 78 25 79 22 80 24 81 23 82 13 83 14 84 15 85 20 86 16 87
REMARK SMILES IDX 19 88 17 89 18 90
REMARK H PARENT 3 5 80 23 50 34 7 72
REMARK Flexibility Score: inf
ROOT
ATOM      1  C   UNL A   1      39.689  23.024  27.278  1.00  0.00     0.118 C 
ENDROOT
BRANCH   1   2
ATOM      2  N   UNL A   1      40.999  22.355  27.355  1.00  0.00    -0.352 N 
ATOM      3  O   UNL A   1      43.252  22.269  26.957  1.00  0.00    -0.269 OA
ATOM      4  C   UNL A   1      42.261  22.934  27.134  1.00  0.00     0.251 C 
ATOM      5  H   UNL A   1      40.991  21.398  27.587  1.00  0.00     0.163 HD
BRANCH   4   6
ATOM      6  C   UNL A   1      42.307  24.414  27.165  1.00  0.00     0.039 A 
ATOM      7  C   UNL A   1      41.721  25.251  26.214  1.00  0.00     0.014 A 
ATOM      8  C   UNL A   1      42.765  24.922  28.360  1.00  0.00     0.014 A 
ATOM      9  C   UNL A   1      41.504  26.589  26.568  1.00  0.00     0.010 A 
ATOM     10  C   UNL A   1      42.136  26.035  28.816  1.00  0.00     0.010 A 
ATOM     11  C   UNL A   1      41.687  26.967  27.907  1.00  0.00    -0.014 A 
BRANCH  11  12
ATOM     12  C   UNL A   1      41.435  28.295  28.454  1.00  0.00     0.031 A 
ATOM     13  C   UNL A   1      42.439  29.334  28.136  1.00  0.00     0.074 A 
ATOM     14  C   UNL A   1      40.278  28.624  29.081  1.00  0.00     0.049 A 
ATOM     15  N   UNL A   1      43.319  29.822  28.942  1.00  0.00    -0.248 NA
ATOM     16  C   UNL A   1      42.570  29.800  26.749  1.00  0.00     0.031 C 
ATOM     17  C   UNL A   1      39.044  27.836  29.281  1.00  0.00     0.029 A 
ATOM     18  N   UNL A   1      39.924  29.823  29.606  1.00  0.00    -0.354 N 
ATOM     19  C   UNL A   1      43.995  30.804  28.231  1.00  0.00     0.074 A 
ATOM     20  C   UNL A   1      43.613  30.628  26.850  1.00  0.00     0.031 C 
ATOM     21  C   UNL A   1      38.023  28.645  29.632  1.00  0.00     0.029 A 
ATOM     22  C   UNL A   1      38.578  29.947  29.920  1.00  0.00     0.049 A 
ATOM     23  H   UNL A   1      40.572  30.550  29.753  1.00  0.00     0.167 HD
ATOM     24  C   UNL A   1      44.664  31.806  28.867  1.00  0.00     0.031 A 
ATOM     25  C   UNL A   1      37.954  31.028  30.447  1.00  0.00     0.031 A 
ATOM     26  C   UNL A   1      44.794  31.546  30.280  1.00  0.00     0.049 A 
ATOM     27  C   UNL A   1      39.014  31.812  31.127  1.00  0.00     0.074 A 
ATOM     28  C   UNL A   1      45.402  30.549  31.018  1.00  0.00     0.029 A 
ATOM     29  N   UNL A   1      43.868  32.125  31.120  1.00  0.00    -0.354 N 
ATOM     30  N   UNL A   1      39.669  31.371  32.167  1.00  0.00    -0.248 NA
ATOM     31  C   UNL A   1      39.675  32.863  30.370  1.00  0.00     0.031 C 
ATOM     32  C   UNL A   1      44.475  30.252  32.061  1.00  0.00     0.029 A 
ATOM     33  C   UNL A   1      43.400  31.140  31.957  1.00  0.00     0.049 A 
ATOM     34  H   UNL A   1      43.593  33.070  31.120  1.00  0.00     0.167 HD
ATOM     35  C   UNL A   1      40.984  31.763  31.952  1.00  0.00     0.074 A 
ATOM     36  C   UNL A   1      40.907  32.753  30.877  1.00  0.00     0.031 C 
ATOM     37  C   UNL A   1      42.039  31.061  32.465  1.00  0.00     0.031 A 
BRANCH  24  38
ATOM     38  C   UNL A   1      44.930  33.159  28.269  1.00  0.00    -0.014 A 
ATOM     39  C   UNL A   1      43.921  34.123  28.076  1.00  0.00     0.010 A 
ATOM     40  C   UNL A   1      46.263  33.580  28.084  1.00  0.00     0.010 A 
ATOM     41  C   UNL A   1      44.212  35.432  27.688  1.00  0.00     0.020 A 
ATOM     42  C   UNL A   1      46.569  34.905  27.737  1.00  0.00     0.020 A 
ATOM     43  C   UNL A   1      45.537  35.818  27.532  1.00  0.00     0.054 A 
BRANCH  43  44
ATOM     44  S   UNL A   1      45.877  37.549  27.131  1.00  0.00     0.124 S 
ATOM     45  O   UNL A   1      44.538  38.061  26.852  1.00  0.00    -0.237 OA
ATOM     46  O   UNL A   1      46.496  38.039  28.359  1.00  0.00    -0.237 OA
ATOM     47  O   UNL A   1      46.767  37.466  25.976  1.00  0.00    -0.744 OA
ENDBRANCH  43  44
ENDBRANCH  24  38
BRANCH  25  48
ATOM     48  C   UNL A   1      36.698  31.627  29.929  1.00  0.00    -0.014 A 
ATOM     49  C   UNL A   1      36.678  32.263  28.670  1.00  0.00     0.010 A 
ATOM     50  C   UNL A   1      35.611  31.848  30.795  1.00  0.00     0.010 A 
ATOM     51  C   UNL A   1      35.667  33.167  28.328  1.00  0.00     0.020 A 
ATOM     52  C   UNL A   1      34.593  32.754  30.458  1.00  0.00     0.020 A 
ATOM     53  C   UNL A   1      34.653  33.441  29.244  1.00  0.00     0.054 A 
BRANCH  53  54
ATOM     54  S   UNL A   1      33.485  34.779  28.862  1.00  0.00     0.124 S 
ATOM     55  O   UNL A   1      32.569  34.126  27.931  1.00  0.00    -0.237 OA
ATOM     56  O   UNL A   1      32.924  35.096  30.175  1.00  0.00    -0.237 OA
ATOM     57  O   UNL A   1      34.328  35.821  28.282  1.00  0.00    -0.744 OA
ENDBRANCH  53  54
ENDBRANCH  25  48
BRANCH  37  58
ATOM     58  C   UNL A   1      41.772  29.942  33.460  1.00  0.00    -0.014 A 
ATOM     59  C   UNL A   1      41.893  30.247  34.829  1.00  0.00     0.010 A 
ATOM     60  C   UNL A   1      41.627  28.587  33.096  1.00  0.00     0.010 A 
ATOM     61  C   UNL A   1      41.917  29.240  35.799  1.00  0.00     0.020 A 
ATOM     62  C   UNL A   1      41.625  27.570  34.068  1.00  0.00     0.020 A 
ATOM     63  C   UNL A   1      41.797  27.904  35.412  1.00  0.00     0.054 A 
BRANCH  63  64
ATOM     64  S   UNL A   1      41.902  26.629  36.701  1.00  0.00     0.124 S 
ATOM     65  O   UNL A   1      43.112  27.014  37.423  1.00  0.00    -0.237 OA
ATOM     66  O   UNL A   1      40.654  26.814  37.440  1.00  0.00    -0.237 OA
ATOM     67  O   UNL A   1      41.997  25.376  35.956  1.00  0.00    -0.744 OA
ENDBRANCH  63  64
ENDBRANCH  37  58
ENDBRANCH  11  12
ENDBRANCH   4   6
ENDBRANCH   1   2
BRANCH   1  68
ATOM     68  C   UNL A   1      38.720  22.446  26.277  1.00  0.00     0.042 C 
BRANCH  68  69
ATOM     69  C   UNL A   1      37.878  23.520  25.602  1.00  0.00     0.118 C 
BRANCH  69  70
ATOM     70  N   UNL A   1      37.468  23.218  24.234  1.00  0.00    -0.351 N 
ATOM     71  C   UNL A   1      36.206  23.315  23.671  1.00  0.00     0.272 C 
ATOM     72  H   UNL A   1      38.180  22.904  23.632  1.00  0.00     0.163 HD
ATOM     73  O   UNL A   1      36.054  23.000  22.493  1.00  0.00    -0.267 OA
BRANCH  71  74
ATOM     74  C   UNL A   1      35.115  23.811  24.516  1.00  0.00     0.158 A 
ATOM     75  N   UNL A   1      34.420  24.919  24.201  1.00  0.00    -0.166 NA
ATOM     76  C   UNL A   1      34.582  23.183  25.681  1.00  0.00     0.033 A 
ATOM     77  N   UNL A   1      33.409  24.950  25.095  1.00  0.00    -0.260 N 
ATOM     78  C   UNL A   1      33.473  23.945  26.037  1.00  0.00     0.069 A 
ATOM     79  C   UNL A   1      34.879  22.012  26.410  1.00  0.00     0.013 A 
ATOM     80  C   UNL A   1      32.660  23.593  27.123  1.00  0.00     0.028 A 
ATOM     81  C   UNL A   1      33.986  21.575  27.389  1.00  0.00     0.001 A 
ATOM     82  C   UNL A   1      32.895  22.360  27.742  1.00  0.00     0.002 A 
BRANCH  77  83
ATOM     83  C   UNL A   1      32.422  26.023  24.997  1.00  0.00     0.180 C 
BRANCH  83  84
ATOM     84  C   UNL A   1      32.704  27.232  25.875  1.00  0.00    -0.026 A 
ATOM     85  C   UNL A   1      34.010  27.696  26.117  1.00  0.00     0.008 A 
ATOM     86  C   UNL A   1      31.636  27.987  26.395  1.00  0.00     0.008 A 
ATOM     87  C   UNL A   1      34.245  28.869  26.834  1.00  0.00     0.039 A 
ATOM     88  C   UNL A   1      31.872  29.166  27.112  1.00  0.00     0.039 A 
ATOM     89  C   UNL A   1      33.174  29.599  27.320  1.00  0.00     0.123 A 
ATOM     90  F   UNL A   1      33.402  30.738  27.986  1.00  0.00    -0.207 F 
ENDBRANCH  83  84
ENDBRANCH  77  83
ENDBRANCH  71  74
ENDBRANCH  69  70
ENDBRANCH  68  69
ENDBRANCH   1  68
TORSDOF 15
ENDMDL
MODEL 3
REMARK VINA RESULT:     -13.1      3.286      7.841
REMARK SMILES O=C(NCCCNC(=O)c1nn(Cc2ccc(F)cc2)c2ccccc12)c1ccc(-c2c3nc(c(-c4ccc(S(=O)(=O)[O-])cc4)c4ccc([nH]4)c(-c4ccc(S(=O)(=O)[O-])cc4)c4nc(c(-c5ccc(S(=O)(=O)[O-])cc5)c5ccc2[nH]5)C=C4)C=C3)cc1
REMARK SMILES IDX 4 1 3 2 1 3 2 4 27 6 28 7 86 8 29 9 85 10 30 11 31 12 32 13
REMARK SMILES IDX 79 14 33 15 84 16 78 17 80 18 34 19 83 20 77 21 76 22 35 24
REMARK SMILES IDX 65 25 46 26 64 27 47 28 50 29 63 30 81 31 48 32 49 33 62 35
REMARK SMILES IDX 82 36 51 37 36 38 37 39 45 40 38 41 44 42 39 43 40 44 41 45
REMARK SMILES IDX 42 46 43 47 66 48 67 49 75 50 68 51 74 52 69 53 70 54 71 55
REMARK SMILES IDX 72 56 73 57 52 58 53 59 61 60 54 61 60 62 55 63 56 64 57 65
REMARK SMILES IDX 58 66 59 67 5 68 6 69 7 70 8 71 9 73 10 74 11 75 26 76 12 77
REMARK SMILES IDX 21 78 25 79 22 80 24 81 23 82 13 83 14 84 15 85 20 86 16 87
REMARK SMILES IDX 19 88 17 89 18 90
REMARK H PARENT 3 5 80 23 50 34 7 72
REMARK Flexibility Score: inf
ROOT
ATOM      1  C   UNL A   1      38.829  21.120  25.574  1.00  0.00     0.118 C 
ENDROOT
BRANCH   1   2
ATOM      2  N   UNL A   1      39.494  19.809  25.679  1.00  0.00    -0.352 N 
ATOM      3  O   UNL A   1      41.365  18.490  25.732  1.00  0.00    -0.269 OA
ATOM      4  C   UNL A   1      40.857  19.568  25.923  1.00  0.00     0.251 C 
ATOM      5  H   UNL A   1      38.922  19.016  25.567  1.00  0.00     0.163 HD
BRANCH   4   6
ATOM      6  C   UNL A   1      41.630  20.711  26.461  1.00  0.00     0.039 A 
ATOM      7  C   UNL A   1      42.244  21.696  25.685  1.00  0.00     0.014 A 
ATOM      8  C   UNL A   1      41.487  20.877  27.820  1.00  0.00     0.014 A 
ATOM      9  C   UNL A   1      42.589  22.900  26.313  1.00  0.00     0.010 A 
ATOM     10  C   UNL A   1      41.397  22.158  28.259  1.00  0.00     0.010 A 
ATOM     11  C   UNL A   1      42.121  23.136  27.615  1.00  0.00    -0.014 A 
BRANCH  11  12
ATOM     12  C   UNL A   1      42.328  24.361  28.380  1.00  0.00     0.031 A 
ATOM     13  C   UNL A   1      41.296  25.409  28.226  1.00  0.00     0.074 A 
ATOM     14  C   UNL A   1      43.310  24.492  29.307  1.00  0.00     0.049 A 
ATOM     15  N   UNL A   1      41.414  26.510  27.565  1.00  0.00    -0.248 NA
ATOM     16  C   UNL A   1      39.947  25.167  28.752  1.00  0.00     0.031 C 
ATOM     17  C   UNL A   1      44.282  23.500  29.812  1.00  0.00     0.029 A 
ATOM     18  N   UNL A   1      43.582  25.564  30.089  1.00  0.00    -0.354 N 
ATOM     19  C   UNL A   1      40.226  27.203  27.748  1.00  0.00     0.074 A 
ATOM     20  C   UNL A   1      39.305  26.262  28.339  1.00  0.00     0.031 C 
ATOM     21  C   UNL A   1      44.836  23.932  30.965  1.00  0.00     0.029 A 
ATOM     22  C   UNL A   1      44.450  25.313  31.142  1.00  0.00     0.049 A 
ATOM     23  H   UNL A   1      43.195  26.454  29.922  1.00  0.00     0.167 HD
ATOM     24  C   UNL A   1      40.160  28.554  27.580  1.00  0.00     0.031 A 
ATOM     25  C   UNL A   1      44.885  26.192  32.076  1.00  0.00     0.031 A 
ATOM     26  C   UNL A   1      41.350  29.070  26.947  1.00  0.00     0.049 A 
ATOM     27  C   UNL A   1      44.731  27.535  31.465  1.00  0.00     0.074 A 
ATOM     28  C   UNL A   1      41.955  28.855  25.724  1.00  0.00     0.029 A 
ATOM     29  N   UNL A   1      42.330  29.587  27.766  1.00  0.00    -0.354 N 
ATOM     30  N   UNL A   1      45.410  27.924  30.421  1.00  0.00    -0.248 NA
ATOM     31  C   UNL A   1      43.493  28.257  31.712  1.00  0.00     0.031 C 
ATOM     32  C   UNL A   1      43.348  28.772  26.017  1.00  0.00     0.029 A 
ATOM     33  C   UNL A   1      43.526  29.029  27.380  1.00  0.00     0.049 A 
ATOM     34  H   UNL A   1      42.198  30.236  28.493  1.00  0.00     0.167 HD
ATOM     35  C   UNL A   1      44.496  28.623  29.642  1.00  0.00     0.074 A 
ATOM     36  C   UNL A   1      43.360  28.869  30.531  1.00  0.00     0.031 C 
ATOM     37  C   UNL A   1      44.618  28.702  28.282  1.00  0.00     0.031 A 
BRANCH  24  38
ATOM     38  C   UNL A   1      39.158  29.445  28.259  1.00  0.00    -0.014 A 
ATOM     39  C   UNL A   1      39.478  30.250  29.369  1.00  0.00     0.010 A 
ATOM     40  C   UNL A   1      37.904  29.660  27.651  1.00  0.00     0.010 A 
ATOM     41  C   UNL A   1      38.590  31.201  29.875  1.00  0.00     0.020 A 
ATOM     42  C   UNL A   1      37.022  30.643  28.124  1.00  0.00     0.020 A 
ATOM     43  C   UNL A   1      37.370  31.400  29.241  1.00  0.00     0.054 A 
BRANCH  43  44
ATOM     44  S   UNL A   1      36.292  32.712  29.863  1.00  0.00     0.124 S 
ATOM     45  O   UNL A   1      36.691  32.789  31.266  1.00  0.00    -0.237 OA
ATOM     46  O   UNL A   1      36.678  33.852  29.035  1.00  0.00    -0.237 OA
ATOM     47  O   UNL A   1      34.947  32.195  29.622  1.00  0.00    -0.744 OA
ENDBRANCH  43  44
ENDBRANCH  24  38
BRANCH  25  48
ATOM     48  C   UNL A   1      44.884  25.955  33.542  1.00  0.00    -0.014 A 
ATOM     49  C   UNL A   1      43.817  25.261  34.151  1.00  0.00     0.010 A 
ATOM     50  C   UNL A   1      45.762  26.672  34.375  1.00  0.00     0.010 A 
ATOM     51  C   UNL A   1      43.571  25.364  35.524  1.00  0.00     0.020 A 
ATOM     52  C   UNL A   1      45.522  26.779  35.754  1.00  0.00     0.020 A 
ATOM     53  C   UNL A   1      44.401  26.160  36.311  1.00  0.00     0.054 A 
BRANCH  53  54
ATOM     54  S   UNL A   1      43.928  26.453  38.041  1.00  0.00     0.124 S 
ATOM     55  O   UNL A   1      42.473  26.347  37.979  1.00  0.00    -0.237 OA
ATOM     56  O   UNL A   1      44.606  25.365  38.744  1.00  0.00    -0.237 OA
ATOM     57  O   UNL A   1      44.446  27.789  38.321  1.00  0.00    -0.744 OA
ENDBRANCH  53  54
ENDBRANCH  25  48
BRANCH  37  58
ATOM     58  C   UNL A   1      45.888  28.187  27.621  1.00  0.00    -0.014 A 
ATOM     59  C   UNL A   1      46.761  29.138  27.061  1.00  0.00     0.010 A 
ATOM     60  C   UNL A   1      46.131  26.825  27.346  1.00  0.00     0.010 A 
ATOM     61  C   UNL A   1      47.810  28.755  26.220  1.00  0.00     0.020 A 
ATOM     62  C   UNL A   1      47.199  26.430  26.520  1.00  0.00     0.020 A 
ATOM     63  C   UNL A   1      48.016  27.404  25.942  1.00  0.00     0.054 A 
BRANCH  63  64
ATOM     64  S   UNL A   1      49.349  26.962  24.791  1.00  0.00     0.124 S 
ATOM     65  O   UNL A   1      48.627  26.261  23.731  1.00  0.00    -0.237 OA
ATOM     66  O   UNL A   1      49.893  28.265  24.412  1.00  0.00    -0.237 OA
ATOM     67  O   UNL A   1      50.246  26.127  25.586  1.00  0.00    -0.744 OA
ENDBRANCH  63  64
ENDBRANCH  37  58
ENDBRANCH  11  12
ENDBRANCH   4   6
ENDBRANCH   1   2
BRANCH   1  68
ATOM     68  C   UNL A   1      37.443  21.102  24.981  1.00  0.00     0.042 C 
BRANCH  68  69
ATOM     69  C   UNL A   1      36.644  22.346  25.340  1.00  0.00     0.118 C 
BRANCH  69  70
ATOM     70  N   UNL A   1      35.886  22.259  26.585  1.00  0.00    -0.351 N 
ATOM     71  C   UNL A   1      34.526  22.060  26.754  1.00  0.00     0.272 C 
ATOM     72  H   UNL A   1      36.409  22.355  27.413  1.00  0.00     0.163 HD
ATOM     73  O   UNL A   1      34.066  22.028  27.893  1.00  0.00    -0.267 OA
BRANCH  71  74
ATOM     74  C   UNL A   1      33.705  21.876  25.552  1.00  0.00     0.158 A 
ATOM     75  N   UNL A   1      33.612  20.687  24.931  1.00  0.00    -0.166 NA
ATOM     76  C   UNL A   1      32.849  22.843  24.945  1.00  0.00     0.033 A 
ATOM     77  N   UNL A   1      32.650  20.865  24.001  1.00  0.00    -0.260 N 
ATOM     78  C   UNL A   1      32.175  22.158  23.939  1.00  0.00     0.069 A 
ATOM     79  C   UNL A   1      32.526  24.192  25.200  1.00  0.00     0.013 A 
ATOM     80  C   UNL A   1      31.201  22.787  23.151  1.00  0.00     0.028 A 
ATOM     81  C   UNL A   1      31.451  24.774  24.527  1.00  0.00     0.001 A 
ATOM     82  C   UNL A   1      30.802  24.079  23.513  1.00  0.00     0.002 A 
BRANCH  77  83
ATOM     83  C   UNL A   1      32.262  19.728  23.169  1.00  0.00     0.180 C 
BRANCH  83  84
ATOM     84  C   UNL A   1      32.660  18.368  23.721  1.00  0.00    -0.026 A 
ATOM     85  C   UNL A   1      33.560  17.521  23.050  1.00  0.00     0.008 A 
ATOM     86  C   UNL A   1      32.202  17.965  24.989  1.00  0.00     0.008 A 
ATOM     87  C   UNL A   1      33.998  16.325  23.621  1.00  0.00     0.039 A 
ATOM     88  C   UNL A   1      32.645  16.767  25.563  1.00  0.00     0.039 A 
ATOM     89  C   UNL A   1      33.543  15.962  24.876  1.00  0.00     0.123 A 
ATOM     90  F   UNL A   1      33.986  14.826  25.433  1.00  0.00    -0.207 F 
ENDBRANCH  83  84
ENDBRANCH  77  83
ENDBRANCH  71  74
ENDBRANCH  69  70
ENDBRANCH  68  69
ENDBRANCH   1  68
TORSDOF 15
ENDMDL
