MODEL 1
REMARK VINA RESULT:      -9.4      0.000      0.000
REMARK SMILES O=C(NCCCNC(=O)[C@@H](O)c1cscc1Br)c1ccc(-c2c3nc(c(-c4ccc(S(=O)(=O)[O-])cc4)c4ccc([nH]4)c(-c4ccc(S(=O)(=O)[O-])cc4)c4nc(c(-c5ccc(S(=O)(=O)[O-])cc5)c5ccc2[nH]5)C=C4)C=C3)cc1
REMARK SMILES IDX 4 1 3 2 1 3 2 4 18 6 19 7 77 8 20 9 76 10 21 11 22 12 23 13
REMARK SMILES IDX 70 14 24 15 75 16 69 17 71 18 25 19 74 20 68 21 67 22 26 24
REMARK SMILES IDX 56 25 37 26 55 27 38 28 41 29 54 30 72 31 39 32 40 33 53 35
REMARK SMILES IDX 73 36 42 37 27 38 28 39 36 40 29 41 35 42 30 43 31 44 32 45
REMARK SMILES IDX 33 46 34 47 57 48 58 49 66 50 59 51 65 52 60 53 61 54 62 55
REMARK SMILES IDX 63 56 64 57 43 58 44 59 52 60 45 61 51 62 46 63 47 64 48 65
REMARK SMILES IDX 49 66 50 67 5 68 6 69 7 70 8 71 9 73 10 74 11 75 12 77 13 78
REMARK SMILES IDX 16 79 14 80 15 81 17 82
REMARK H PARENT 3 5 71 23 41 34 7 72 11 76
REMARK Flexibility Score: inf
ROOT
ATOM      1  C   UNL A   1      40.199  21.673  26.789  1.00  0.00     0.118 C 
ENDROOT
BRANCH   1   2
ATOM      2  N   UNL A   1      39.107  22.225  25.996  1.00  0.00    -0.352 N 
ATOM      3  O   UNL A   1      37.536  23.702  25.347  1.00  0.00    -0.269 OA
ATOM      4  C   UNL A   1      38.556  23.486  25.996  1.00  0.00     0.251 C 
ATOM      5  H   UNL A   1      38.699  21.595  25.359  1.00  0.00     0.163 HD
BRANCH   4   6
ATOM      6  C   UNL A   1      39.169  24.568  26.796  1.00  0.00     0.039 A 
ATOM      7  C   UNL A   1      38.931  24.661  28.168  1.00  0.00     0.014 A 
ATOM      8  C   UNL A   1      39.991  25.508  26.166  1.00  0.00     0.014 A 
ATOM      9  C   UNL A   1      39.345  25.789  28.863  1.00  0.00     0.010 A 
ATOM     10  C   UNL A   1      40.498  26.588  26.895  1.00  0.00     0.010 A 
ATOM     11  C   UNL A   1      40.139  26.766  28.239  1.00  0.00    -0.014 A 
BRANCH  11  12
ATOM     12  C   UNL A   1      40.592  27.939  29.033  1.00  0.00     0.031 A 
ATOM     13  C   UNL A   1      39.677  29.107  29.294  1.00  0.00     0.074 A 
ATOM     14  C   UNL A   1      41.824  27.913  29.579  1.00  0.00     0.049 A 
ATOM     15  N   UNL A   1      39.891  30.166  30.035  1.00  0.00    -0.248 NA
ATOM     16  C   UNL A   1      38.361  29.094  28.638  1.00  0.00     0.031 C 
ATOM     17  C   UNL A   1      42.806  26.840  29.393  1.00  0.00     0.029 A 
ATOM     18  N   UNL A   1      42.448  28.788  30.432  1.00  0.00    -0.354 N 
ATOM     19  C   UNL A   1      38.756  30.959  29.907  1.00  0.00     0.074 A 
ATOM     20  C   UNL A   1      37.860  30.266  29.005  1.00  0.00     0.031 C 
ATOM     21  C   UNL A   1      43.871  27.079  30.171  1.00  0.00     0.029 A 
ATOM     22  C   UNL A   1      43.680  28.350  30.859  1.00  0.00     0.049 A 
ATOM     23  H   UNL A   1      42.052  29.644  30.712  1.00  0.00     0.167 HD
ATOM     24  C   UNL A   1      38.482  32.153  30.488  1.00  0.00     0.031 A 
ATOM     25  C   UNL A   1      44.562  28.907  31.709  1.00  0.00     0.031 A 
ATOM     26  C   UNL A   1      39.366  32.831  31.400  1.00  0.00     0.049 A 
ATOM     27  C   UNL A   1      44.232  30.224  32.346  1.00  0.00     0.074 A 
ATOM     28  C   UNL A   1      39.161  34.026  32.070  1.00  0.00     0.029 A 
ATOM     29  N   UNL A   1      40.622  32.376  31.773  1.00  0.00    -0.354 N 
ATOM     30  N   UNL A   1      43.141  30.942  32.228  1.00  0.00    -0.248 NA
ATOM     31  C   UNL A   1      45.252  30.806  33.226  1.00  0.00     0.031 C 
ATOM     32  C   UNL A   1      40.311  34.313  32.816  1.00  0.00     0.029 A 
ATOM     33  C   UNL A   1      41.212  33.274  32.647  1.00  0.00     0.049 A 
ATOM     34  H   UNL A   1      41.034  31.537  31.461  1.00  0.00     0.167 HD
ATOM     35  C   UNL A   1      43.339  32.059  33.030  1.00  0.00     0.074 A 
ATOM     36  C   UNL A   1      44.644  31.909  33.643  1.00  0.00     0.031 C 
ATOM     37  C   UNL A   1      42.515  33.115  33.239  1.00  0.00     0.031 A 
BRANCH  24  38
ATOM     38  C   UNL A   1      37.183  32.824  30.125  1.00  0.00    -0.014 A 
ATOM     39  C   UNL A   1      36.014  32.613  30.877  1.00  0.00     0.010 A 
ATOM     40  C   UNL A   1      37.142  33.707  29.030  1.00  0.00     0.010 A 
ATOM     41  C   UNL A   1      34.818  33.242  30.517  1.00  0.00     0.020 A 
ATOM     42  C   UNL A   1      35.953  34.355  28.681  1.00  0.00     0.020 A 
ATOM     43  C   UNL A   1      34.794  34.102  29.415  1.00  0.00     0.054 A 
BRANCH  43  44
ATOM     44  S   UNL A   1      33.232  34.913  28.970  1.00  0.00     0.124 S 
ATOM     45  O   UNL A   1      32.544  34.961  30.258  1.00  0.00    -0.237 OA
ATOM     46  O   UNL A   1      33.674  36.203  28.448  1.00  0.00    -0.237 OA
ATOM     47  O   UNL A   1      32.644  34.013  27.982  1.00  0.00    -0.744 OA
ENDBRANCH  43  44
ENDBRANCH  24  38
BRANCH  25  48
ATOM     48  C   UNL A   1      45.839  28.205  32.008  1.00  0.00    -0.014 A 
ATOM     49  C   UNL A   1      45.915  27.286  33.068  1.00  0.00     0.010 A 
ATOM     50  C   UNL A   1      46.973  28.423  31.205  1.00  0.00     0.010 A 
ATOM     51  C   UNL A   1      47.106  26.601  33.324  1.00  0.00     0.020 A 
ATOM     52  C   UNL A   1      48.157  27.722  31.441  1.00  0.00     0.020 A 
ATOM     53  C   UNL A   1      48.219  26.822  32.507  1.00  0.00     0.054 A 
BRANCH  53  54
ATOM     54  S   UNL A   1      49.735  25.872  32.809  1.00  0.00     0.124 S 
ATOM     55  O   UNL A   1      50.506  26.790  33.640  1.00  0.00    -0.237 OA
ATOM     56  O   UNL A   1      49.234  24.677  33.482  1.00  0.00    -0.237 OA
ATOM     57  O   UNL A   1      50.265  25.643  31.467  1.00  0.00    -0.744 OA
ENDBRANCH  53  54
ENDBRANCH  25  48
BRANCH  37  58
ATOM     58  C   UNL A   1      42.998  34.178  34.186  1.00  0.00    -0.014 A 
ATOM     59  C   UNL A   1      42.644  34.150  35.547  1.00  0.00     0.010 A 
ATOM     60  C   UNL A   1      43.832  35.205  33.711  1.00  0.00     0.010 A 
ATOM     61  C   UNL A   1      43.085  35.156  36.410  1.00  0.00     0.020 A 
ATOM     62  C   UNL A   1      44.294  36.199  34.576  1.00  0.00     0.020 A 
ATOM     63  C   UNL A   1      43.903  36.179  35.917  1.00  0.00     0.054 A 
BRANCH  63  64
ATOM     64  S   UNL A   1      44.484  37.464  37.056  1.00  0.00     0.124 S 
ATOM     65  O   UNL A   1      44.565  38.630  36.181  1.00  0.00    -0.237 OA
ATOM     66  O   UNL A   1      43.427  37.507  38.064  1.00  0.00    -0.237 OA
ATOM     67  O   UNL A   1      45.767  36.951  37.530  1.00  0.00    -0.744 OA
ENDBRANCH  63  64
ENDBRANCH  37  58
ENDBRANCH  11  12
ENDBRANCH   4   6
ENDBRANCH   1   2
BRANCH   1  68
ATOM     68  C   UNL A   1      41.476  21.458  25.989  1.00  0.00     0.042 C 
BRANCH  68  69
ATOM     69  C   UNL A   1      42.326  22.706  25.830  1.00  0.00     0.117 C 
BRANCH  69  70
ATOM     70  N   UNL A   1      43.108  22.699  24.601  1.00  0.00    -0.353 N 
ATOM     71  C   UNL A   1      44.420  23.048  24.420  1.00  0.00     0.253 C 
ATOM     72  H   UNL A   1      42.630  22.402  23.794  1.00  0.00     0.163 HD
ATOM     73  O   UNL A   1      44.914  22.886  23.300  1.00  0.00    -0.272 OA
BRANCH  71  74
ATOM     74  C   UNL A   1      45.243  23.643  25.585  1.00  0.00     0.235 C 
BRANCH  74  75
ATOM     75  O   UNL A   1      46.055  22.617  26.163  1.00  0.00    -0.378 OA
ATOM     76  H   UNL A   1      46.918  22.987  26.405  1.00  0.00     0.212 HD
ENDBRANCH  74  75
BRANCH  74  77
ATOM     77  C   UNL A   1      46.065  24.856  25.195  1.00  0.00     0.015 A 
ATOM     78  C   UNL A   1      47.395  24.840  24.791  1.00  0.00     0.073 A 
ATOM     79  C   UNL A   1      45.589  26.210  25.169  1.00  0.00     0.035 A 
ATOM     80  S   UNL A   1      48.047  26.394  24.503  1.00  0.00    -0.151 S 
ATOM     81  C   UNL A   1      46.549  27.135  24.843  1.00  0.00     0.080 A 
ATOM     82  Br  UNL A   1      43.799  26.703  25.545  1.00  0.00    -0.050 Br
ENDBRANCH  74  77
ENDBRANCH  71  74
ENDBRANCH  69  70
ENDBRANCH  68  69
ENDBRANCH   1  68
TORSDOF 15
ENDMDL
MODEL 2
REMARK VINA RESULT:      -9.4      1.520      8.795
REMARK SMILES O=C(NCCCNC(=O)[C@@H](O)c1cscc1Br)c1ccc(-c2c3nc(c(-c4ccc(S(=O)(=O)[O-])cc4)c4ccc([nH]4)c(-c4ccc(S(=O)(=O)[O-])cc4)c4nc(c(-c5ccc(S(=O)(=O)[O-])cc5)c5ccc2[nH]5)C=C4)C=C3)cc1
REMARK SMILES IDX 4 1 3 2 1 3 2 4 18 6 19 7 77 8 20 9 76 10 21 11 22 12 23 13
REMARK SMILES IDX 70 14 24 15 75 16 69 17 71 18 25 19 74 20 68 21 67 22 26 24
REMARK SMILES IDX 56 25 37 26 55 27 38 28 41 29 54 30 72 31 39 32 40 33 53 35
REMARK SMILES IDX 73 36 42 37 27 38 28 39 36 40 29 41 35 42 30 43 31 44 32 45
REMARK SMILES IDX 33 46 34 47 57 48 58 49 66 50 59 51 65 52 60 53 61 54 62 55
REMARK SMILES IDX 63 56 64 57 43 58 44 59 52 60 45 61 51 62 46 63 47 64 48 65
REMARK SMILES IDX 49 66 50 67 5 68 6 69 7 70 8 71 9 73 10 74 11 75 12 77 13 78
REMARK SMILES IDX 16 79 14 80 15 81 17 82
REMARK H PARENT 3 5 71 23 41 34 7 72 11 76
REMARK Flexibility Score: inf
ROOT
ATOM      1  C   UNL A   1      40.708  21.636  27.374  1.00  0.00     0.118 C 
ENDROOT
BRANCH   1   2
ATOM      2  N   UNL A   1      39.607  21.841  26.440  1.00  0.00    -0.352 N 
ATOM      3  O   UNL A   1      37.859  22.873  25.464  1.00  0.00    -0.269 OA
ATOM      4  C   UNL A   1      38.842  22.959  26.196  1.00  0.00     0.251 C 
ATOM      5  H   UNL A   1      39.374  21.054  25.896  1.00  0.00     0.163 HD
BRANCH   4   6
ATOM      6  C   UNL A   1      39.181  24.248  26.835  1.00  0.00     0.039 A 
ATOM      7  C   UNL A   1      39.885  25.228  26.135  1.00  0.00     0.014 A 
ATOM      8  C   UNL A   1      38.794  24.481  28.159  1.00  0.00     0.014 A 
ATOM      9  C   UNL A   1      40.368  26.342  26.807  1.00  0.00     0.010 A 
ATOM     10  C   UNL A   1      39.190  25.658  28.803  1.00  0.00     0.010 A 
ATOM     11  C   UNL A   1      40.024  26.577  28.149  1.00  0.00    -0.014 A 
BRANCH  11  12
ATOM     12  C   UNL A   1      40.533  27.803  28.818  1.00  0.00     0.031 A 
ATOM     13  C   UNL A   1      41.984  27.943  29.196  1.00  0.00     0.074 A 
ATOM     14  C   UNL A   1      39.681  28.827  29.024  1.00  0.00     0.049 A 
ATOM     15  N   UNL A   1      42.602  28.978  29.708  1.00  0.00    -0.248 NA
ATOM     16  C   UNL A   1      42.853  26.775  28.982  1.00  0.00     0.031 C 
ATOM     17  C   UNL A   1      38.250  28.811  28.708  1.00  0.00     0.029 A 
ATOM     18  N   UNL A   1      39.898  30.093  29.507  1.00  0.00    -0.354 N 
ATOM     19  C   UNL A   1      43.919  28.577  29.910  1.00  0.00     0.074 A 
ATOM     20  C   UNL A   1      44.009  27.199  29.478  1.00  0.00     0.031 C 
ATOM     21  C   UNL A   1      37.736  30.028  28.928  1.00  0.00     0.029 A 
ATOM     22  C   UNL A   1      38.781  30.894  29.462  1.00  0.00     0.049 A 
ATOM     23  H   UNL A   1      40.768  30.398  29.851  1.00  0.00     0.167 HD
ATOM     24  C   UNL A   1      44.958  29.292  30.406  1.00  0.00     0.031 A 
ATOM     25  C   UNL A   1      38.611  32.182  29.812  1.00  0.00     0.031 A 
ATOM     26  C   UNL A   1      44.871  30.670  30.817  1.00  0.00     0.049 A 
ATOM     27  C   UNL A   1      39.779  32.954  30.350  1.00  0.00     0.074 A 
ATOM     28  C   UNL A   1      45.879  31.491  31.297  1.00  0.00     0.029 A 
ATOM     29  N   UNL A   1      43.713  31.431  30.795  1.00  0.00    -0.354 N 
ATOM     30  N   UNL A   1      41.020  32.560  30.508  1.00  0.00    -0.248 NA
ATOM     31  C   UNL A   1      39.523  34.340  30.760  1.00  0.00     0.031 C 
ATOM     32  C   UNL A   1      45.319  32.736  31.604  1.00  0.00     0.029 A 
ATOM     33  C   UNL A   1      43.974  32.706  31.272  1.00  0.00     0.049 A 
ATOM     34  H   UNL A   1      42.834  31.113  30.488  1.00  0.00     0.167 HD
ATOM     35  C   UNL A   1      41.698  33.657  31.027  1.00  0.00     0.074 A 
ATOM     36  C   UNL A   1      40.733  34.733  31.134  1.00  0.00     0.031 C 
ATOM     37  C   UNL A   1      43.001  33.761  31.383  1.00  0.00     0.031 A 
BRANCH  24  38
ATOM     38  C   UNL A   1      46.277  28.583  30.568  1.00  0.00    -0.014 A 
ATOM     39  C   UNL A   1      46.616  27.927  31.764  1.00  0.00     0.010 A 
ATOM     40  C   UNL A   1      47.180  28.546  29.489  1.00  0.00     0.010 A 
ATOM     41  C   UNL A   1      47.850  27.282  31.893  1.00  0.00     0.020 A 
ATOM     42  C   UNL A   1      48.406  27.882  29.606  1.00  0.00     0.020 A 
ATOM     43  C   UNL A   1      48.740  27.272  30.815  1.00  0.00     0.054 A 
BRANCH  43  44
ATOM     44  S   UNL A   1      50.333  26.422  31.002  1.00  0.00     0.124 S 
ATOM     45  O   UNL A   1      50.578  26.559  32.436  1.00  0.00    -0.237 OA
ATOM     46  O   UNL A   1      50.033  25.068  30.545  1.00  0.00    -0.237 OA
ATOM     47  O   UNL A   1      51.235  27.182  30.140  1.00  0.00    -0.744 OA
ENDBRANCH  43  44
ENDBRANCH  24  38
BRANCH  25  48
ATOM     48  C   UNL A   1      37.276  32.818  29.650  1.00  0.00    -0.014 A 
ATOM     49  C   UNL A   1      36.386  32.893  30.733  1.00  0.00     0.010 A 
ATOM     50  C   UNL A   1      36.908  33.388  28.417  1.00  0.00     0.010 A 
ATOM     51  C   UNL A   1      35.147  33.523  30.587  1.00  0.00     0.020 A 
ATOM     52  C   UNL A   1      35.683  34.041  28.273  1.00  0.00     0.020 A 
ATOM     53  C   UNL A   1      34.804  34.096  29.357  1.00  0.00     0.054 A 
BRANCH  53  54
ATOM     54  S   UNL A   1      33.222  34.971  29.205  1.00  0.00     0.124 S 
ATOM     55  O   UNL A   1      33.647  36.277  28.710  1.00  0.00    -0.237 OA
ATOM     56  O   UNL A   1      32.489  34.141  28.252  1.00  0.00    -0.237 OA
ATOM     57  O   UNL A   1      32.693  34.956  30.566  1.00  0.00    -0.744 OA
ENDBRANCH  53  54
ENDBRANCH  25  48
BRANCH  37  58
ATOM     58  C   UNL A   1      43.459  35.096  31.903  1.00  0.00    -0.014 A 
ATOM     59  C   UNL A   1      43.414  35.393  33.276  1.00  0.00     0.010 A 
ATOM     60  C   UNL A   1      43.957  36.056  31.005  1.00  0.00     0.010 A 
ATOM     61  C   UNL A   1      43.825  36.645  33.739  1.00  0.00     0.020 A 
ATOM     62  C   UNL A   1      44.391  37.301  31.467  1.00  0.00     0.020 A 
ATOM     63  C   UNL A   1      44.305  37.594  32.831  1.00  0.00     0.054 A 
BRANCH  63  64
ATOM     64  S   UNL A   1      44.854  39.206  33.453  1.00  0.00     0.124 S 
ATOM     65  O   UNL A   1      43.645  40.013  33.312  1.00  0.00    -0.237 OA
ATOM     66  O   UNL A   1      45.253  38.906  34.826  1.00  0.00    -0.237 OA
ATOM     67  O   UNL A   1      45.951  39.566  32.558  1.00  0.00    -0.744 OA
ENDBRANCH  63  64
ENDBRANCH  37  58
ENDBRANCH  11  12
ENDBRANCH   4   6
ENDBRANCH   1   2
BRANCH   1  68
ATOM     68  C   UNL A   1      42.072  21.603  26.700  1.00  0.00     0.042 C 
BRANCH  68  69
ATOM     69  C   UNL A   1      42.500  22.931  26.100  1.00  0.00     0.117 C 
BRANCH  69  70
ATOM     70  N   UNL A   1      43.041  22.790  24.755  1.00  0.00    -0.353 N 
ATOM     71  C   UNL A   1      44.325  22.504  24.376  1.00  0.00     0.253 C 
ATOM     72  H   UNL A   1      42.398  22.916  24.021  1.00  0.00     0.163 HD
ATOM     73  O   UNL A   1      44.554  22.345  23.173  1.00  0.00    -0.272 OA
BRANCH  71  74
ATOM     74  C   UNL A   1      45.453  22.402  25.429  1.00  0.00     0.235 C 
BRANCH  74  75
ATOM     75  O   UNL A   1      46.410  21.428  25.005  1.00  0.00    -0.378 OA
ATOM     76  H   UNL A   1      46.091  20.991  24.200  1.00  0.00     0.212 HD
ENDBRANCH  74  75
BRANCH  74  77
ATOM     77  C   UNL A   1      46.108  23.730  25.753  1.00  0.00     0.015 A 
ATOM     78  C   UNL A   1      46.811  24.528  24.857  1.00  0.00     0.073 A 
ATOM     79  C   UNL A   1      46.090  24.376  27.034  1.00  0.00     0.035 A 
ATOM     80  S   UNL A   1      47.495  25.925  25.568  1.00  0.00    -0.151 S 
ATOM     81  C   UNL A   1      46.814  25.542  27.084  1.00  0.00     0.080 A 
ATOM     82  Br  UNL A   1      45.156  23.703  28.538  1.00  0.00    -0.050 Br
ENDBRANCH  74  77
ENDBRANCH  71  74
ENDBRANCH  69  70
ENDBRANCH  68  69
ENDBRANCH   1  68
TORSDOF 15
ENDMDL
MODEL 3
REMARK VINA RESULT:      -9.4      3.226      9.380
REMARK SMILES O=C(NCCCNC(=O)[C@@H](O)c1cscc1Br)c1ccc(-c2c3nc(c(-c4ccc(S(=O)(=O)[O-])cc4)c4ccc([nH]4)c(-c4ccc(S(=O)(=O)[O-])cc4)c4nc(c(-c5ccc(S(=O)(=O)[O-])cc5)c5ccc2[nH]5)C=C4)C=C3)cc1
REMARK SMILES IDX 4 1 3 2 1 3 2 4 18 6 19 7 77 8 20 9 76 10 21 11 22 12 23 13
REMARK SMILES IDX 70 14 24 15 75 16 69 17 71 18 25 19 74 20 68 21 67 22 26 24
REMARK SMILES IDX 56 25 37 26 55 27 38 28 41 29 54 30 72 31 39 32 40 33 53 35
REMARK SMILES IDX 73 36 42 37 27 38 28 39 36 40 29 41 35 42 30 43 31 44 32 45
REMARK SMILES IDX 33 46 34 47 57 48 58 49 66 50 59 51 65 52 60 53 61 54 62 55
REMARK SMILES IDX 63 56 64 57 43 58 44 59 52 60 45 61 51 62 46 63 47 64 48 65
REMARK SMILES IDX 49 66 50 67 5 68 6 69 7 70 8 71 9 73 10 74 11 75 12 77 13 78
REMARK SMILES IDX 16 79 14 80 15 81 17 82
REMARK H PARENT 3 5 71 23 41 34 7 72 11 76
REMARK Flexibility Score: inf
ROOT
ATOM      1  C   UNL A   1      40.816  23.368  27.534  1.00  0.00     0.118 C 
ENDROOT
BRANCH   1   2
ATOM      2  N   UNL A   1      41.113  24.151  26.340  1.00  0.00    -0.352 N 
ATOM      3  O   UNL A   1      41.200  25.952  24.991  1.00  0.00    -0.269 OA
ATOM      4  C   UNL A   1      41.047  25.508  26.126  1.00  0.00     0.251 C 
ATOM      5  H   UNL A   1      41.409  23.624  25.562  1.00  0.00     0.163 HD
BRANCH   4   6
ATOM      6  C   UNL A   1      40.760  26.427  27.249  1.00  0.00     0.039 A 
ATOM      7  C   UNL A   1      41.539  27.566  27.453  1.00  0.00     0.014 A 
ATOM      8  C   UNL A   1      39.699  26.144  28.114  1.00  0.00     0.014 A 
ATOM      9  C   UNL A   1      41.387  28.304  28.619  1.00  0.00     0.010 A 
ATOM     10  C   UNL A   1      39.478  26.954  29.233  1.00  0.00     0.010 A 
ATOM     11  C   UNL A   1      40.351  28.013  29.524  1.00  0.00    -0.014 A 
BRANCH  11  12
ATOM     12  C   UNL A   1      40.202  28.854  30.741  1.00  0.00     0.031 A 
ATOM     13  C   UNL A   1      41.137  28.706  31.913  1.00  0.00     0.074 A 
ATOM     14  C   UNL A   1      39.249  29.807  30.755  1.00  0.00     0.049 A 
ATOM     15  N   UNL A   1      41.193  29.417  33.011  1.00  0.00    -0.248 NA
ATOM     16  C   UNL A   1      42.129  27.621  31.853  1.00  0.00     0.031 C 
ATOM     17  C   UNL A   1      38.278  30.044  29.683  1.00  0.00     0.029 A 
ATOM     18  N   UNL A   1      38.965  30.780  31.679  1.00  0.00    -0.354 N 
ATOM     19  C   UNL A   1      42.197  28.847  33.786  1.00  0.00     0.074 A 
ATOM     20  C   UNL A   1      42.716  27.721  33.039  1.00  0.00     0.031 C 
ATOM     21  C   UNL A   1      37.561  31.139  29.972  1.00  0.00     0.029 A 
ATOM     22  C   UNL A   1      37.974  31.645  31.276  1.00  0.00     0.049 A 
ATOM     23  H   UNL A   1      39.426  30.853  32.545  1.00  0.00     0.167 HD
ATOM     24  C   UNL A   1      42.648  29.227  35.007  1.00  0.00     0.031 A 
ATOM     25  C   UNL A   1      37.451  32.724  31.885  1.00  0.00     0.031 A 
ATOM     26  C   UNL A   1      42.144  30.359  35.741  1.00  0.00     0.049 A 
ATOM     27  C   UNL A   1      37.974  33.129  33.231  1.00  0.00     0.074 A 
ATOM     28  C   UNL A   1      42.564  30.847  36.968  1.00  0.00     0.029 A 
ATOM     29  N   UNL A   1      41.112  31.182  35.317  1.00  0.00    -0.354 N 
ATOM     30  N   UNL A   1      38.941  32.589  33.932  1.00  0.00    -0.248 NA
ATOM     31  C   UNL A   1      37.333  34.286  33.868  1.00  0.00     0.031 C 
ATOM     32  C   UNL A   1      41.757  31.940  37.303  1.00  0.00     0.029 A 
ATOM     33  C   UNL A   1      40.867  32.162  36.265  1.00  0.00     0.049 A 
ATOM     34  H   UNL A   1      40.625  31.085  34.467  1.00  0.00     0.167 HD
ATOM     35  C   UNL A   1      39.033  33.349  35.092  1.00  0.00     0.074 A 
ATOM     36  C   UNL A   1      38.038  34.397  34.985  1.00  0.00     0.031 C 
ATOM     37  C   UNL A   1      39.866  33.190  36.150  1.00  0.00     0.031 A 
BRANCH  24  38
ATOM     38  C   UNL A   1      43.722  28.386  35.646  1.00  0.00    -0.014 A 
ATOM     39  C   UNL A   1      45.083  28.719  35.526  1.00  0.00     0.010 A 
ATOM     40  C   UNL A   1      43.359  27.260  36.408  1.00  0.00     0.010 A 
ATOM     41  C   UNL A   1      46.062  27.919  36.123  1.00  0.00     0.020 A 
ATOM     42  C   UNL A   1      44.335  26.471  37.025  1.00  0.00     0.020 A 
ATOM     43  C   UNL A   1      45.682  26.795  36.861  1.00  0.00     0.054 A 
BRANCH  43  44
ATOM     44  S   UNL A   1      46.970  25.776  37.633  1.00  0.00     0.124 S 
ATOM     45  O   UNL A   1      47.712  26.768  38.407  1.00  0.00    -0.237 OA
ATOM     46  O   UNL A   1      46.197  24.818  38.419  1.00  0.00    -0.237 OA
ATOM     47  O   UNL A   1      47.689  25.206  36.495  1.00  0.00    -0.744 OA
ENDBRANCH  43  44
ENDBRANCH  24  38
BRANCH  25  48
ATOM     48  C   UNL A   1      36.375  33.500  31.211  1.00  0.00    -0.014 A 
ATOM     49  C   UNL A   1      36.518  33.901  29.872  1.00  0.00     0.010 A 
ATOM     50  C   UNL A   1      35.185  33.804  31.896  1.00  0.00     0.010 A 
ATOM     51  C   UNL A   1      35.490  34.598  29.231  1.00  0.00     0.020 A 
ATOM     52  C   UNL A   1      34.146  34.477  31.252  1.00  0.00     0.020 A 
ATOM     53  C   UNL A   1      34.309  34.879  29.925  1.00  0.00     0.054 A 
BRANCH  53  54
ATOM     54  S   UNL A   1      32.958  35.722  29.056  1.00  0.00     0.124 S 
ATOM     55  O   UNL A   1      33.673  36.755  28.314  1.00  0.00    -0.237 OA
ATOM     56  O   UNL A   1      32.379  34.650  28.250  1.00  0.00    -0.237 OA
ATOM     57  O   UNL A   1      32.105  36.204  30.140  1.00  0.00    -0.744 OA
ENDBRANCH  53  54
ENDBRANCH  25  48
BRANCH  37  58
ATOM     58  C   UNL A   1      39.745  34.191  37.265  1.00  0.00    -0.014 A 
ATOM     59  C   UNL A   1      38.974  33.913  38.408  1.00  0.00     0.010 A 
ATOM     60  C   UNL A   1      40.428  35.416  37.175  1.00  0.00     0.010 A 
ATOM     61  C   UNL A   1      38.857  34.862  39.426  1.00  0.00     0.020 A 
ATOM     62  C   UNL A   1      40.333  36.358  38.202  1.00  0.00     0.020 A 
ATOM     63  C   UNL A   1      39.532  36.082  39.314  1.00  0.00     0.054 A 
BRANCH  63  64
ATOM     64  S   UNL A   1      39.386  37.293  40.655  1.00  0.00     0.124 S 
ATOM     65  O   UNL A   1      38.854  36.477  41.743  1.00  0.00    -0.237 OA
ATOM     66  O   UNL A   1      40.762  37.753  40.829  1.00  0.00    -0.237 OA
ATOM     67  O   UNL A   1      38.466  38.293  40.118  1.00  0.00    -0.744 OA
ENDBRANCH  63  64
ENDBRANCH  37  58
ENDBRANCH  11  12
ENDBRANCH   4   6
ENDBRANCH   1   2
BRANCH   1  68
ATOM     68  C   UNL A   1      41.932  23.401  28.568  1.00  0.00     0.042 C 
BRANCH  68  69
ATOM     69  C   UNL A   1      43.143  22.562  28.201  1.00  0.00     0.117 C 
BRANCH  69  70
ATOM     70  N   UNL A   1      44.154  23.322  27.479  1.00  0.00    -0.353 N 
ATOM     71  C   UNL A   1      44.461  23.285  26.145  1.00  0.00     0.253 C 
ATOM     72  H   UNL A   1      44.687  23.946  28.022  1.00  0.00     0.163 HD
ATOM     73  O   UNL A   1      45.304  24.080  25.721  1.00  0.00    -0.272 OA
BRANCH  71  74
ATOM     74  C   UNL A   1      43.779  22.260  25.209  1.00  0.00     0.235 C 
BRANCH  74  75
ATOM     75  O   UNL A   1      43.789  22.764  23.870  1.00  0.00    -0.378 OA
ATOM     76  H   UNL A   1      44.556  22.406  23.397  1.00  0.00     0.212 HD
ENDBRANCH  74  75
BRANCH  74  77
ATOM     77  C   UNL A   1      44.374  20.868  25.290  1.00  0.00     0.015 A 
ATOM     78  C   UNL A   1      45.712  20.544  25.094  1.00  0.00     0.073 A 
ATOM     79  C   UNL A   1      43.646  19.670  25.598  1.00  0.00     0.035 A 
ATOM     80  S   UNL A   1      46.033  18.866  25.176  1.00  0.00    -0.151 S 
ATOM     81  C   UNL A   1      44.404  18.526  25.546  1.00  0.00     0.080 A 
ATOM     82  Br  UNL A   1      41.805  19.642  26.043  1.00  0.00    -0.050 Br
ENDBRANCH  74  77
ENDBRANCH  71  74
ENDBRANCH  69  70
ENDBRANCH  68  69
ENDBRANCH   1  68
TORSDOF 15
ENDMDL
