MODEL 1
REMARK VINA RESULT:     -13.1      0.000      0.000
REMARK SMILES O=C(NCCCNC(=O)[C@@H](Cc1ccc(F)cc1)NC(=O)c1ccn(C2CCCC2)n1)c1ccc(-c2c3nc(c(-c4ccc(S(=O)(=O)[O-])cc4)c4ccc([nH]4)c(-c4ccc(S(=O)(=O)[O-])cc4)c4nc(c(-c5ccc(S(=O)(=O)[O-])cc5)c5ccc2[nH]5)C=C4)C=C3)cc1
REMARK SMILES IDX 5 1 4 2 3 3 1 4 2 5 32 7 33 8 91 9 34 10 90 11 35 12 36 13
REMARK SMILES IDX 37 14 84 15 38 16 89 17 83 18 85 19 39 20 88 21 82 22 81 23
REMARK SMILES IDX 40 25 70 26 51 27 69 28 52 29 55 30 68 31 86 32 53 33 54 34
REMARK SMILES IDX 67 36 87 37 56 38 41 39 42 40 50 41 43 42 49 43 44 44 45 45
REMARK SMILES IDX 46 46 47 47 48 48 71 49 72 50 80 51 73 52 79 53 74 54 75 55
REMARK SMILES IDX 76 56 77 57 78 58 57 59 58 60 66 61 59 62 65 63 60 64 61 65
REMARK SMILES IDX 62 66 63 67 64 68 6 69 7 70 8 71 9 73 10 74 11 75 12 76
REMARK SMILES IDX 13 77 18 78 14 79 17 80 15 81 16 82 19 83 20 84 21 86 22 87
REMARK SMILES IDX 23 88 31 89 24 90 25 91 26 92 27 93 30 94 28 95 29 96
REMARK H PARENT 3 6 85 24 55 35 7 72 19 85
REMARK Flexibility Score: inf
ROOT
ATOM      1  C   UNL A   1      31.858  28.874  26.008  1.00  0.00     0.042 C 
ENDROOT
BRANCH   1   2
ATOM      2  C   UNL A   1      32.554  29.187  27.331  1.00  0.00     0.118 C 
BRANCH   2   3
ATOM      3  N   UNL A   1      32.951  30.573  27.479  1.00  0.00    -0.352 N 
ATOM      4  O   UNL A   1      33.973  32.495  27.685  1.00  0.00    -0.269 OA
ATOM      5  C   UNL A   1      34.107  31.266  27.699  1.00  0.00     0.251 C 
ATOM      6  H   UNL A   1      32.178  31.179  27.401  1.00  0.00     0.163 HD
BRANCH   5   7
ATOM      7  C   UNL A   1      35.460  30.705  27.979  1.00  0.00     0.039 A 
ATOM      8  C   UNL A   1      35.863  29.376  27.844  1.00  0.00     0.014 A 
ATOM      9  C   UNL A   1      36.416  31.644  28.421  1.00  0.00     0.014 A 
ATOM     10  C   UNL A   1      37.175  28.999  28.180  1.00  0.00     0.010 A 
ATOM     11  C   UNL A   1      37.712  31.271  28.768  1.00  0.00     0.010 A 
ATOM     12  C   UNL A   1      38.093  29.937  28.672  1.00  0.00    -0.014 A 
BRANCH  12  13
ATOM     13  C   UNL A   1      39.495  29.549  28.895  1.00  0.00     0.031 A 
ATOM     14  C   UNL A   1      39.893  29.467  30.329  1.00  0.00     0.074 A 
ATOM     15  C   UNL A   1      40.326  29.057  27.949  1.00  0.00     0.049 A 
ATOM     16  N   UNL A   1      40.798  30.149  30.956  1.00  0.00    -0.248 NA
ATOM     17  C   UNL A   1      39.114  28.569  31.198  1.00  0.00     0.031 C 
ATOM     18  C   UNL A   1      40.002  28.750  26.554  1.00  0.00     0.029 A 
ATOM     19  N   UNL A   1      41.617  28.607  28.066  1.00  0.00    -0.354 N 
ATOM     20  C   UNL A   1      40.848  29.620  32.244  1.00  0.00     0.074 A 
ATOM     21  C   UNL A   1      39.684  28.783  32.384  1.00  0.00     0.031 C 
ATOM     22  C   UNL A   1      40.975  27.970  26.027  1.00  0.00     0.029 A 
ATOM     23  C   UNL A   1      42.049  27.825  26.997  1.00  0.00     0.049 A 
ATOM     24  H   UNL A   1      42.189  28.819  28.840  1.00  0.00     0.167 HD
ATOM     25  C   UNL A   1      41.965  29.703  33.022  1.00  0.00     0.031 A 
ATOM     26  C   UNL A   1      43.176  27.066  26.924  1.00  0.00     0.031 A 
ATOM     27  C   UNL A   1      42.895  30.687  32.534  1.00  0.00     0.049 A 
ATOM     28  C   UNL A   1      44.115  27.554  27.959  1.00  0.00     0.074 A 
ATOM     29  C   UNL A   1      42.841  32.038  32.259  1.00  0.00     0.029 A 
ATOM     30  N   UNL A   1      44.031  30.222  31.915  1.00  0.00    -0.354 N 
ATOM     31  N   UNL A   1      44.710  28.711  27.914  1.00  0.00    -0.248 NA
ATOM     32  C   UNL A   1      44.116  26.901  29.258  1.00  0.00     0.031 C 
ATOM     33  C   UNL A   1      43.669  32.217  31.114  1.00  0.00     0.029 A 
ATOM     34  C   UNL A   1      44.225  30.978  30.791  1.00  0.00     0.049 A 
ATOM     35  H   UNL A   1      44.601  29.481  32.224  1.00  0.00     0.167 HD
ATOM     36  C   UNL A   1      44.770  29.128  29.233  1.00  0.00     0.074 A 
ATOM     37  C   UNL A   1      44.500  27.928  30.021  1.00  0.00     0.031 C 
ATOM     38  C   UNL A   1      44.758  30.456  29.551  1.00  0.00     0.031 A 
BRANCH  25  39
ATOM     39  C   UNL A   1      42.400  28.604  33.970  1.00  0.00    -0.014 A 
ATOM     40  C   UNL A   1      42.965  27.426  33.437  1.00  0.00     0.010 A 
ATOM     41  C   UNL A   1      42.002  28.562  35.323  1.00  0.00     0.010 A 
ATOM     42  C   UNL A   1      43.038  26.246  34.193  1.00  0.00     0.020 A 
ATOM     43  C   UNL A   1      42.118  27.408  36.100  1.00  0.00     0.020 A 
ATOM     44  C   UNL A   1      42.597  26.244  35.517  1.00  0.00     0.054 A 
BRANCH  44  45
ATOM     45  S   UNL A   1      42.582  24.693  36.448  1.00  0.00     0.124 S 
ATOM     46  O   UNL A   1      43.718  24.875  37.346  1.00  0.00    -0.237 OA
ATOM     47  O   UNL A   1      41.264  24.720  37.074  1.00  0.00    -0.237 OA
ATOM     48  O   UNL A   1      42.754  23.674  35.414  1.00  0.00    -0.744 OA
ENDBRANCH  44  45
ENDBRANCH  25  39
BRANCH  26  49
ATOM     49  C   UNL A   1      43.408  25.787  26.202  1.00  0.00    -0.014 A 
ATOM     50  C   UNL A   1      44.637  25.523  25.561  1.00  0.00     0.010 A 
ATOM     51  C   UNL A   1      42.529  24.701  26.389  1.00  0.00     0.010 A 
ATOM     52  C   UNL A   1      45.000  24.215  25.190  1.00  0.00     0.020 A 
ATOM     53  C   UNL A   1      42.879  23.397  26.012  1.00  0.00     0.020 A 
ATOM     54  C   UNL A   1      44.126  23.155  25.440  1.00  0.00     0.054 A 
BRANCH  54  55
ATOM     55  S   UNL A   1      44.674  21.447  25.142  1.00  0.00     0.124 S 
ATOM     56  O   UNL A   1      43.686  20.667  25.881  1.00  0.00    -0.237 OA
ATOM     57  O   UNL A   1      44.605  21.338  23.687  1.00  0.00    -0.237 OA
ATOM     58  O   UNL A   1      46.027  21.418  25.696  1.00  0.00    -0.744 OA
ENDBRANCH  54  55
ENDBRANCH  26  49
BRANCH  38  59
ATOM     59  C   UNL A   1      45.070  31.464  28.472  1.00  0.00    -0.014 A 
ATOM     60  C   UNL A   1      44.112  32.009  27.596  1.00  0.00     0.010 A 
ATOM     61  C   UNL A   1      46.380  31.977  28.436  1.00  0.00     0.010 A 
ATOM     62  C   UNL A   1      44.466  33.018  26.687  1.00  0.00     0.020 A 
ATOM     63  C   UNL A   1      46.733  32.996  27.549  1.00  0.00     0.020 A 
ATOM     64  C   UNL A   1      45.777  33.506  26.671  1.00  0.00     0.054 A 
BRANCH  64  65
ATOM     65  S   UNL A   1      46.220  34.843  25.529  1.00  0.00     0.124 S 
ATOM     66  O   UNL A   1      45.346  34.589  24.387  1.00  0.00    -0.237 OA
ATOM     67  O   UNL A   1      45.912  36.045  26.302  1.00  0.00    -0.237 OA
ATOM     68  O   UNL A   1      47.644  34.629  25.277  1.00  0.00    -0.744 OA
ENDBRANCH  64  65
ENDBRANCH  38  59
ENDBRANCH  12  13
ENDBRANCH   5   7
ENDBRANCH   2   3
ENDBRANCH   1   2
BRANCH   1  69
ATOM     69  C   UNL A   1      32.394  29.629  24.785  1.00  0.00     0.117 C 
BRANCH  69  70
ATOM     70  N   UNL A   1      31.432  29.710  23.702  1.00  0.00    -0.354 N 
ATOM     71  C   UNL A   1      30.857  28.765  22.915  1.00  0.00     0.242 C 
ATOM     72  H   UNL A   1      31.140  30.627  23.499  1.00  0.00     0.163 HD
ATOM     73  O   UNL A   1      29.949  29.172  22.175  1.00  0.00    -0.273 OA
BRANCH  71  74
ATOM     74  C   UNL A   1      31.204  27.254  22.926  1.00  0.00     0.176 C 
BRANCH  74  75
ATOM     75  C   UNL A   1      30.205  26.282  23.594  1.00  0.00     0.070 C 
BRANCH  75  76
ATOM     76  C   UNL A   1      30.627  25.113  24.460  1.00  0.00    -0.045 A 
ATOM     77  C   UNL A   1      30.758  25.176  25.856  1.00  0.00     0.007 A 
ATOM     78  C   UNL A   1      30.812  23.861  23.839  1.00  0.00     0.007 A 
ATOM     79  C   UNL A   1      31.201  24.070  26.586  1.00  0.00     0.039 A 
ATOM     80  C   UNL A   1      31.212  22.742  24.574  1.00  0.00     0.039 A 
ATOM     81  C   UNL A   1      31.424  22.864  25.938  1.00  0.00     0.123 A 
ATOM     82  F   UNL A   1      31.850  21.810  26.641  1.00  0.00    -0.207 F 
ENDBRANCH  75  76
ENDBRANCH  74  75
BRANCH  74  83
ATOM     83  N   UNL A   1      31.793  26.775  21.681  1.00  0.00    -0.339 N 
ATOM     84  C   UNL A   1      32.833  25.907  21.446  1.00  0.00     0.272 C 
ATOM     85  H   UNL A   1      31.373  27.136  20.867  1.00  0.00     0.164 HD
ATOM     86  O   UNL A   1      33.122  25.710  20.256  1.00  0.00    -0.267 OA
BRANCH  84  87
ATOM     87  C   UNL A   1      33.598  25.301  22.548  1.00  0.00     0.150 A 
ATOM     88  C   UNL A   1      33.977  25.828  23.816  1.00  0.00     0.056 A 
ATOM     89  N   UNL A   1      34.044  24.035  22.431  1.00  0.00    -0.167 NA
ATOM     90  C   UNL A   1      34.749  24.855  24.411  1.00  0.00     0.110 A 
ATOM     91  N   UNL A   1      34.765  23.808  23.538  1.00  0.00    -0.269 N 
BRANCH  91  92
ATOM     92  C   UNL A   1      35.497  22.568  23.679  1.00  0.00     0.107 C 
ATOM     93  C   UNL A   1      36.903  22.727  24.255  1.00  0.00     0.027 C 
ATOM     94  C   UNL A   1      34.846  21.571  24.641  1.00  0.00     0.027 C 
ATOM     95  C   UNL A   1      37.279  21.309  24.666  1.00  0.00     0.002 C 
ATOM     96  C   UNL A   1      35.969  20.616  25.039  1.00  0.00     0.002 C 
ENDBRANCH  91  92
ENDBRANCH  84  87
ENDBRANCH  74  83
ENDBRANCH  71  74
ENDBRANCH  69  70
ENDBRANCH   1  69
TORSDOF 18
ENDMDL
MODEL 2
REMARK VINA RESULT:     -12.9      1.837      2.716
REMARK SMILES O=C(NCCCNC(=O)[C@@H](Cc1ccc(F)cc1)NC(=O)c1ccn(C2CCCC2)n1)c1ccc(-c2c3nc(c(-c4ccc(S(=O)(=O)[O-])cc4)c4ccc([nH]4)c(-c4ccc(S(=O)(=O)[O-])cc4)c4nc(c(-c5ccc(S(=O)(=O)[O-])cc5)c5ccc2[nH]5)C=C4)C=C3)cc1
REMARK SMILES IDX 5 1 4 2 3 3 1 4 2 5 32 7 33 8 91 9 34 10 90 11 35 12 36 13
REMARK SMILES IDX 37 14 84 15 38 16 89 17 83 18 85 19 39 20 88 21 82 22 81 23
REMARK SMILES IDX 40 25 70 26 51 27 69 28 52 29 55 30 68 31 86 32 53 33 54 34
REMARK SMILES IDX 67 36 87 37 56 38 41 39 42 40 50 41 43 42 49 43 44 44 45 45
REMARK SMILES IDX 46 46 47 47 48 48 71 49 72 50 80 51 73 52 79 53 74 54 75 55
REMARK SMILES IDX 76 56 77 57 78 58 57 59 58 60 66 61 59 62 65 63 60 64 61 65
REMARK SMILES IDX 62 66 63 67 64 68 6 69 7 70 8 71 9 73 10 74 11 75 12 76
REMARK SMILES IDX 13 77 18 78 14 79 17 80 15 81 16 82 19 83 20 84 21 86 22 87
REMARK SMILES IDX 23 88 31 89 24 90 25 91 26 92 27 93 30 94 28 95 29 96
REMARK H PARENT 3 6 85 24 55 35 7 72 19 85
REMARK Flexibility Score: inf
ROOT
ATOM      1  C   UNL A   1      32.555  28.415  27.269  1.00  0.00     0.042 C 
ENDROOT
BRANCH   1   2
ATOM      2  C   UNL A   1      33.058  29.604  26.455  1.00  0.00     0.118 C 
BRANCH   2   3
ATOM      3  N   UNL A   1      33.267  30.809  27.233  1.00  0.00    -0.352 N 
ATOM      4  O   UNL A   1      34.020  32.499  28.399  1.00  0.00    -0.269 OA
ATOM      5  C   UNL A   1      34.291  31.388  27.928  1.00  0.00     0.251 C 
ATOM      6  H   UNL A   1      32.451  31.359  27.271  1.00  0.00     0.163 HD
BRANCH   5   7
ATOM      7  C   UNL A   1      35.642  30.816  28.196  1.00  0.00     0.039 A 
ATOM      8  C   UNL A   1      36.035  29.485  28.047  1.00  0.00     0.014 A 
ATOM      9  C   UNL A   1      36.607  31.745  28.640  1.00  0.00     0.014 A 
ATOM     10  C   UNL A   1      37.346  29.097  28.371  1.00  0.00     0.010 A 
ATOM     11  C   UNL A   1      37.902  31.360  28.975  1.00  0.00     0.010 A 
ATOM     12  C   UNL A   1      38.273  30.025  28.866  1.00  0.00    -0.014 A 
BRANCH  12  13
ATOM     13  C   UNL A   1      39.674  29.625  29.076  1.00  0.00     0.031 A 
ATOM     14  C   UNL A   1      40.050  29.421  30.505  1.00  0.00     0.074 A 
ATOM     15  C   UNL A   1      40.523  29.221  28.105  1.00  0.00     0.049 A 
ATOM     16  N   UNL A   1      40.941  30.051  31.203  1.00  0.00    -0.248 NA
ATOM     17  C   UNL A   1      39.263  28.448  31.280  1.00  0.00     0.031 C 
ATOM     18  C   UNL A   1      40.223  29.034  26.684  1.00  0.00     0.029 A 
ATOM     19  N   UNL A   1      41.814  28.769  28.204  1.00  0.00    -0.354 N 
ATOM     20  C   UNL A   1      40.974  29.412  32.441  1.00  0.00     0.074 A 
ATOM     21  C   UNL A   1      39.814  28.561  32.489  1.00  0.00     0.031 C 
ATOM     22  C   UNL A   1      41.208  28.307  26.107  1.00  0.00     0.029 A 
ATOM     23  C   UNL A   1      42.268  28.084  27.078  1.00  0.00     0.049 A 
ATOM     24  H   UNL A   1      42.373  28.915  29.002  1.00  0.00     0.167 HD
ATOM     25  C   UNL A   1      42.079  29.433  33.241  1.00  0.00     0.031 A 
ATOM     26  C   UNL A   1      43.401  27.340  26.959  1.00  0.00     0.031 A 
ATOM     27  C   UNL A   1      43.010  30.460  32.855  1.00  0.00     0.049 A 
ATOM     28  C   UNL A   1      44.320  27.741  28.047  1.00  0.00     0.074 A 
ATOM     29  C   UNL A   1      42.952  31.830  32.697  1.00  0.00     0.029 A 
ATOM     30  N   UNL A   1      44.159  30.056  32.217  1.00  0.00    -0.354 N 
ATOM     31  N   UNL A   1      44.909  28.900  28.111  1.00  0.00    -0.248 NA
ATOM     32  C   UNL A   1      44.306  26.978  29.284  1.00  0.00     0.031 C 
ATOM     33  C   UNL A   1      43.797  32.111  31.585  1.00  0.00     0.029 A 
ATOM     34  C   UNL A   1      44.365  30.907  31.165  1.00  0.00     0.049 A 
ATOM     35  H   UNL A   1      44.728  29.294  32.470  1.00  0.00     0.167 HD
ATOM     36  C   UNL A   1      44.946  29.202  29.462  1.00  0.00     0.074 A 
ATOM     37  C   UNL A   1      44.671  27.937  30.139  1.00  0.00     0.031 C 
ATOM     38  C   UNL A   1      44.920  30.497  29.894  1.00  0.00     0.031 A 
BRANCH  25  39
ATOM     39  C   UNL A   1      42.505  28.258  34.098  1.00  0.00    -0.014 A 
ATOM     40  C   UNL A   1      42.773  28.473  35.466  1.00  0.00     0.010 A 
ATOM     41  C   UNL A   1      42.935  27.032  33.551  1.00  0.00     0.010 A 
ATOM     42  C   UNL A   1      43.515  27.549  36.217  1.00  0.00     0.020 A 
ATOM     43  C   UNL A   1      43.629  26.082  34.303  1.00  0.00     0.020 A 
ATOM     44  C   UNL A   1      43.952  26.366  35.621  1.00  0.00     0.054 A 
BRANCH  44  45
ATOM     45  S   UNL A   1      45.008  25.235  36.558  1.00  0.00     0.124 S 
ATOM     46  O   UNL A   1      46.061  26.131  37.027  1.00  0.00    -0.237 OA
ATOM     47  O   UNL A   1      44.096  24.735  37.582  1.00  0.00    -0.237 OA
ATOM     48  O   UNL A   1      45.419  24.248  35.562  1.00  0.00    -0.744 OA
ENDBRANCH  44  45
ENDBRANCH  25  39
BRANCH  26  49
ATOM     49  C   UNL A   1      43.652  26.129  26.133  1.00  0.00    -0.014 A 
ATOM     50  C   UNL A   1      44.900  25.916  25.509  1.00  0.00     0.010 A 
ATOM     51  C   UNL A   1      42.765  25.035  26.194  1.00  0.00     0.010 A 
ATOM     52  C   UNL A   1      45.271  24.645  25.033  1.00  0.00     0.020 A 
ATOM     53  C   UNL A   1      43.123  23.768  25.713  1.00  0.00     0.020 A 
ATOM     54  C   UNL A   1      44.386  23.572  25.161  1.00  0.00     0.054 A 
BRANCH  54  55
ATOM     55  S   UNL A   1      44.939  21.894  24.727  1.00  0.00     0.124 S 
ATOM     56  O   UNL A   1      44.101  21.058  25.580  1.00  0.00    -0.237 OA
ATOM     57  O   UNL A   1      44.656  21.823  23.297  1.00  0.00    -0.237 OA
ATOM     58  O   UNL A   1      46.361  21.900  25.072  1.00  0.00    -0.744 OA
ENDBRANCH  54  55
ENDBRANCH  26  49
BRANCH  38  59
ATOM     59  C   UNL A   1      45.243  31.596  28.911  1.00  0.00    -0.014 A 
ATOM     60  C   UNL A   1      46.523  32.159  28.745  1.00  0.00     0.010 A 
ATOM     61  C   UNL A   1      44.221  31.984  28.026  1.00  0.00     0.010 A 
ATOM     62  C   UNL A   1      46.762  33.107  27.739  1.00  0.00     0.020 A 
ATOM     63  C   UNL A   1      44.458  32.910  27.009  1.00  0.00     0.020 A 
ATOM     64  C   UNL A   1      45.726  33.475  26.875  1.00  0.00     0.054 A 
BRANCH  64  65
ATOM     65  S   UNL A   1      46.050  34.665  25.545  1.00  0.00     0.124 S 
ATOM     66  O   UNL A   1      45.117  34.241  24.504  1.00  0.00    -0.237 OA
ATOM     67  O   UNL A   1      45.749  35.948  26.176  1.00  0.00    -0.237 OA
ATOM     68  O   UNL A   1      47.463  34.458  25.229  1.00  0.00    -0.744 OA
ENDBRANCH  64  65
ENDBRANCH  38  59
ENDBRANCH  12  13
ENDBRANCH   5   7
ENDBRANCH   2   3
ENDBRANCH   1   2
BRANCH   1  69
ATOM     69  C   UNL A   1      31.265  27.760  26.756  1.00  0.00     0.117 C 
BRANCH  69  70
ATOM     70  N   UNL A   1      31.257  27.575  25.318  1.00  0.00    -0.354 N 
ATOM     71  C   UNL A   1      31.562  26.513  24.528  1.00  0.00     0.242 C 
ATOM     72  H   UNL A   1      30.976  28.374  24.817  1.00  0.00     0.163 HD
ATOM     73  O   UNL A   1      31.296  26.653  23.325  1.00  0.00    -0.273 OA
BRANCH  71  74
ATOM     74  C   UNL A   1      32.138  25.162  25.024  1.00  0.00     0.176 C 
BRANCH  74  75
ATOM     75  C   UNL A   1      33.606  25.129  25.507  1.00  0.00     0.070 C 
BRANCH  75  76
ATOM     76  C   UNL A   1      34.589  24.043  25.122  1.00  0.00    -0.045 A 
ATOM     77  C   UNL A   1      35.147  23.906  23.842  1.00  0.00     0.007 A 
ATOM     78  C   UNL A   1      35.043  23.171  26.132  1.00  0.00     0.007 A 
ATOM     79  C   UNL A   1      36.010  22.848  23.544  1.00  0.00     0.039 A 
ATOM     80  C   UNL A   1      35.940  22.139  25.846  1.00  0.00     0.039 A 
ATOM     81  C   UNL A   1      36.398  21.974  24.548  1.00  0.00     0.123 A 
ATOM     82  F   UNL A   1      37.222  20.963  24.258  1.00  0.00    -0.207 F 
ENDBRANCH  75  76
ENDBRANCH  74  75
BRANCH  74  83
ATOM     83  N   UNL A   1      31.205  24.384  25.831  1.00  0.00    -0.339 N 
ATOM     84  C   UNL A   1      30.907  23.042  25.829  1.00  0.00     0.272 C 
ATOM     85  H   UNL A   1      30.701  24.911  26.492  1.00  0.00     0.164 HD
ATOM     86  O   UNL A   1      30.036  22.674  26.631  1.00  0.00    -0.267 OA
BRANCH  84  87
ATOM     87  C   UNL A   1      31.540  22.111  24.880  1.00  0.00     0.150 A 
ATOM     88  C   UNL A   1      31.808  22.242  23.488  1.00  0.00     0.056 A 
ATOM     89  N   UNL A   1      31.983  20.915  25.317  1.00  0.00    -0.167 NA
ATOM     90  C   UNL A   1      32.344  21.036  23.093  1.00  0.00     0.110 A 
ATOM     91  N   UNL A   1      32.419  20.276  24.222  1.00  0.00    -0.269 N 
BRANCH  91  92
ATOM     92  C   UNL A   1      32.855  18.900  24.318  1.00  0.00     0.107 C 
ATOM     93  C   UNL A   1      32.673  18.090  23.036  1.00  0.00     0.027 C 
ATOM     94  C   UNL A   1      34.350  18.743  24.610  1.00  0.00     0.027 C 
ATOM     95  C   UNL A   1      33.546  16.862  23.266  1.00  0.00     0.002 C 
ATOM     96  C   UNL A   1      34.691  17.322  24.168  1.00  0.00     0.002 C 
ENDBRANCH  91  92
ENDBRANCH  84  87
ENDBRANCH  74  83
ENDBRANCH  71  74
ENDBRANCH  69  70
ENDBRANCH   1  69
TORSDOF 18
ENDMDL
MODEL 3
REMARK VINA RESULT:     -12.8      2.738      9.094
REMARK SMILES O=C(NCCCNC(=O)[C@@H](Cc1ccc(F)cc1)NC(=O)c1ccn(C2CCCC2)n1)c1ccc(-c2c3nc(c(-c4ccc(S(=O)(=O)[O-])cc4)c4ccc([nH]4)c(-c4ccc(S(=O)(=O)[O-])cc4)c4nc(c(-c5ccc(S(=O)(=O)[O-])cc5)c5ccc2[nH]5)C=C4)C=C3)cc1
REMARK SMILES IDX 5 1 4 2 3 3 1 4 2 5 32 7 33 8 91 9 34 10 90 11 35 12 36 13
REMARK SMILES IDX 37 14 84 15 38 16 89 17 83 18 85 19 39 20 88 21 82 22 81 23
REMARK SMILES IDX 40 25 70 26 51 27 69 28 52 29 55 30 68 31 86 32 53 33 54 34
REMARK SMILES IDX 67 36 87 37 56 38 41 39 42 40 50 41 43 42 49 43 44 44 45 45
REMARK SMILES IDX 46 46 47 47 48 48 71 49 72 50 80 51 73 52 79 53 74 54 75 55
REMARK SMILES IDX 76 56 77 57 78 58 57 59 58 60 66 61 59 62 65 63 60 64 61 65
REMARK SMILES IDX 62 66 63 67 64 68 6 69 7 70 8 71 9 73 10 74 11 75 12 76
REMARK SMILES IDX 13 77 18 78 14 79 17 80 15 81 16 82 19 83 20 84 21 86 22 87
REMARK SMILES IDX 23 88 31 89 24 90 25 91 26 92 27 93 30 94 28 95 29 96
REMARK H PARENT 3 6 85 24 55 35 7 72 19 85
REMARK Flexibility Score: inf
ROOT
ATOM      1  C   UNL A   1      35.521  21.762  25.880  1.00  0.00     0.042 C 
ENDROOT
BRANCH   1   2
ATOM      2  C   UNL A   1      36.742  22.112  25.033  1.00  0.00     0.118 C 
BRANCH   2   3
ATOM      3  N   UNL A   1      37.953  21.419  25.425  1.00  0.00    -0.352 N 
ATOM      4  O   UNL A   1      39.857  20.748  26.266  1.00  0.00    -0.269 OA
ATOM      5  C   UNL A   1      39.095  21.710  26.116  1.00  0.00     0.251 C 
ATOM      6  H   UNL A   1      37.954  20.487  25.106  1.00  0.00     0.163 HD
BRANCH   5   7
ATOM      7  C   UNL A   1      39.513  23.035  26.657  1.00  0.00     0.039 A 
ATOM      8  C   UNL A   1      38.874  24.260  26.465  1.00  0.00     0.014 A 
ATOM      9  C   UNL A   1      40.681  23.015  27.451  1.00  0.00     0.014 A 
ATOM     10  C   UNL A   1      39.415  25.433  27.022  1.00  0.00     0.010 A 
ATOM     11  C   UNL A   1      41.226  24.177  27.991  1.00  0.00     0.010 A 
ATOM     12  C   UNL A   1      40.607  25.400  27.759  1.00  0.00    -0.014 A 
BRANCH  12  13
ATOM     13  C   UNL A   1      41.086  26.614  28.439  1.00  0.00     0.031 A 
ATOM     14  C   UNL A   1      42.363  27.162  27.900  1.00  0.00     0.074 A 
ATOM     15  C   UNL A   1      40.363  27.356  29.309  1.00  0.00     0.049 A 
ATOM     16  N   UNL A   1      43.496  27.316  28.508  1.00  0.00    -0.248 NA
ATOM     17  C   UNL A   1      42.404  27.497  26.467  1.00  0.00     0.031 C 
ATOM     18  C   UNL A   1      38.966  27.156  29.699  1.00  0.00     0.029 A 
ATOM     19  N   UNL A   1      40.690  28.528  29.940  1.00  0.00    -0.354 N 
ATOM     20  C   UNL A   1      44.331  27.961  27.598  1.00  0.00     0.074 A 
ATOM     21  C   UNL A   1      43.670  27.888  26.320  1.00  0.00     0.031 C 
ATOM     22  C   UNL A   1      38.503  28.274  30.306  1.00  0.00     0.029 A 
ATOM     23  C   UNL A   1      39.598  29.219  30.464  1.00  0.00     0.049 A 
ATOM     24  H   UNL A   1      41.616  28.855  30.018  1.00  0.00     0.167 HD
ATOM     25  C   UNL A   1      45.386  28.729  27.995  1.00  0.00     0.031 A 
ATOM     26  C   UNL A   1      39.571  30.492  30.941  1.00  0.00     0.031 A 
ATOM     27  C   UNL A   1      45.748  28.486  29.367  1.00  0.00     0.049 A 
ATOM     28  C   UNL A   1      40.963  30.883  31.261  1.00  0.00     0.074 A 
ATOM     29  C   UNL A   1      46.122  27.380  30.103  1.00  0.00     0.029 A 
ATOM     30  N   UNL A   1      45.410  29.453  30.284  1.00  0.00    -0.354 N 
ATOM     31  N   UNL A   1      41.655  30.371  32.237  1.00  0.00    -0.248 NA
ATOM     32  C   UNL A   1      41.733  31.593  30.254  1.00  0.00     0.031 C 
ATOM     33  C   UNL A   1      45.540  27.578  31.389  1.00  0.00     0.029 A 
ATOM     34  C   UNL A   1      44.896  28.816  31.380  1.00  0.00     0.049 A 
ATOM     35  H   UNL A   1      45.517  30.425  30.172  1.00  0.00     0.167 HD
ATOM     36  C   UNL A   1      42.951  30.308  31.755  1.00  0.00     0.074 A 
ATOM     37  C   UNL A   1      42.960  31.179  30.582  1.00  0.00     0.031 C 
ATOM     38  C   UNL A   1      43.816  29.344  32.187  1.00  0.00     0.031 A 
BRANCH  25  39
ATOM     39  C   UNL A   1      45.810  29.993  27.275  1.00  0.00    -0.014 A 
ATOM     40  C   UNL A   1      47.187  30.272  27.139  1.00  0.00     0.010 A 
ATOM     41  C   UNL A   1      44.918  31.049  26.997  1.00  0.00     0.010 A 
ATOM     42  C   UNL A   1      47.642  31.563  26.834  1.00  0.00     0.020 A 
ATOM     43  C   UNL A   1      45.358  32.325  26.642  1.00  0.00     0.020 A 
ATOM     44  C   UNL A   1      46.720  32.584  26.604  1.00  0.00     0.054 A 
BRANCH  44  45
ATOM     45  S   UNL A   1      47.313  34.272  26.329  1.00  0.00     0.124 S 
ATOM     46  O   UNL A   1      46.111  34.930  25.825  1.00  0.00    -0.237 OA
ATOM     47  O   UNL A   1      47.743  34.671  27.666  1.00  0.00    -0.237 OA
ATOM     48  O   UNL A   1      48.391  34.100  25.358  1.00  0.00    -0.744 OA
ENDBRANCH  44  45
ENDBRANCH  25  39
BRANCH  26  49
ATOM     49  C   UNL A   1      38.470  31.492  30.904  1.00  0.00    -0.014 A 
ATOM     50  C   UNL A   1      38.395  32.458  29.878  1.00  0.00     0.010 A 
ATOM     51  C   UNL A   1      37.329  31.316  31.712  1.00  0.00     0.010 A 
ATOM     52  C   UNL A   1      37.204  33.163  29.627  1.00  0.00     0.020 A 
ATOM     53  C   UNL A   1      36.142  32.022  31.475  1.00  0.00     0.020 A 
ATOM     54  C   UNL A   1      36.076  32.922  30.414  1.00  0.00     0.054 A 
BRANCH  54  55
ATOM     55  S   UNL A   1      34.486  33.686  29.967  1.00  0.00     0.124 S 
ATOM     56  O   UNL A   1      34.889  34.712  29.010  1.00  0.00    -0.237 OA
ATOM     57  O   UNL A   1      33.736  32.563  29.411  1.00  0.00    -0.237 OA
ATOM     58  O   UNL A   1      33.978  34.193  31.241  1.00  0.00    -0.744 OA
ENDBRANCH  54  55
ENDBRANCH  26  49
BRANCH  38  59
ATOM     59  C   UNL A   1      43.495  28.597  33.458  1.00  0.00    -0.014 A 
ATOM     60  C   UNL A   1      43.669  29.125  34.752  1.00  0.00     0.010 A 
ATOM     61  C   UNL A   1      42.866  27.347  33.324  1.00  0.00     0.010 A 
ATOM     62  C   UNL A   1      43.251  28.404  35.881  1.00  0.00     0.020 A 
ATOM     63  C   UNL A   1      42.428  26.634  34.442  1.00  0.00     0.020 A 
ATOM     64  C   UNL A   1      42.631  27.162  35.717  1.00  0.00     0.054 A 
BRANCH  64  65
ATOM     65  S   UNL A   1      42.048  26.253  37.175  1.00  0.00     0.124 S 
ATOM     66  O   UNL A   1      43.080  26.544  38.165  1.00  0.00    -0.237 OA
ATOM     67  O   UNL A   1      40.742  26.857  37.432  1.00  0.00    -0.237 OA
ATOM     68  O   UNL A   1      41.998  24.864  36.723  1.00  0.00    -0.744 OA
ENDBRANCH  64  65
ENDBRANCH  38  59
ENDBRANCH  12  13
ENDBRANCH   5   7
ENDBRANCH   2   3
ENDBRANCH   1   2
BRANCH   1  69
ATOM     69  C   UNL A   1      35.074  22.843  26.875  1.00  0.00     0.117 C 
BRANCH  69  70
ATOM     70  N   UNL A   1      33.632  22.966  26.968  1.00  0.00    -0.354 N 
ATOM     71  C   UNL A   1      32.741  23.793  26.363  1.00  0.00     0.242 C 
ATOM     72  H   UNL A   1      33.218  22.326  27.591  1.00  0.00     0.163 HD
ATOM     73  O   UNL A   1      31.547  23.523  26.560  1.00  0.00    -0.273 OA
BRANCH  71  74
ATOM     74  C   UNL A   1      33.106  24.970  25.421  1.00  0.00     0.176 C 
BRANCH  74  75
ATOM     75  C   UNL A   1      33.958  26.125  25.996  1.00  0.00     0.070 C 
BRANCH  75  76
ATOM     76  C   UNL A   1      33.403  27.502  26.300  1.00  0.00    -0.045 A 
ATOM     77  C   UNL A   1      32.034  27.797  26.384  1.00  0.00     0.007 A 
ATOM     78  C   UNL A   1      34.316  28.531  26.606  1.00  0.00     0.007 A 
ATOM     79  C   UNL A   1      31.594  29.102  26.619  1.00  0.00     0.039 A 
ATOM     80  C   UNL A   1      33.878  29.828  26.885  1.00  0.00     0.039 A 
ATOM     81  C   UNL A   1      32.519  30.105  26.866  1.00  0.00     0.123 A 
ATOM     82  F   UNL A   1      32.093  31.352  27.088  1.00  0.00    -0.207 F 
ENDBRANCH  75  76
ENDBRANCH  74  75
BRANCH  74  83
ATOM     83  N   UNL A   1      33.459  24.555  24.068  1.00  0.00    -0.339 N 
ATOM     84  C   UNL A   1      33.440  25.241  22.878  1.00  0.00     0.272 C 
ATOM     85  H   UNL A   1      33.763  23.622  23.996  1.00  0.00     0.164 HD
ATOM     86  O   UNL A   1      33.781  24.601  21.872  1.00  0.00    -0.267 OA
BRANCH  84  87
ATOM     87  C   UNL A   1      32.978  26.637  22.796  1.00  0.00     0.150 A 
ATOM     88  C   UNL A   1      33.703  27.845  22.590  1.00  0.00     0.056 A 
ATOM     89  N   UNL A   1      31.663  26.910  22.909  1.00  0.00    -0.167 NA
ATOM     90  C   UNL A   1      32.775  28.859  22.682  1.00  0.00     0.110 A 
ATOM     91  N   UNL A   1      31.574  28.247  22.881  1.00  0.00    -0.269 N 
BRANCH  91  92
ATOM     92  C   UNL A   1      30.296  28.889  23.105  1.00  0.00     0.107 C 
ATOM     93  C   UNL A   1      29.850  29.815  21.975  1.00  0.00     0.027 C 
ATOM     94  C   UNL A   1      29.125  27.910  23.225  1.00  0.00     0.027 C 
ATOM     95  C   UNL A   1      28.367  30.026  22.256  1.00  0.00     0.002 C 
ATOM     96  C   UNL A   1      27.881  28.747  22.937  1.00  0.00     0.002 C 
ENDBRANCH  91  92
ENDBRANCH  84  87
ENDBRANCH  74  83
ENDBRANCH  71  74
ENDBRANCH  69  70
ENDBRANCH   1  69
TORSDOF 18
ENDMDL
