MODEL 1
REMARK VINA RESULT:     -10.9      0.000      0.000
REMARK SMILES CNc1nccc(-c2cc(C(=O)NCCCNC(=O)c3ccc(-c4c5nc(c(-c6ccc(S(=O)(=O)[O-])cc6)c6ccc([nH]6)c(-c6ccc(S(=O)(=O)[O-])cc6)c6nc(c(-c7ccc(S(=O)(=O)[O-])cc7)c7ccc4[nH]7)C=C6)C=C5)cc3)ccn2)n1
REMARK SMILES IDX 15 1 14 2 13 3 11 4 12 5 10 7 8 8 9 9 82 10 81 11 80 12 7 13
REMARK SMILES IDX 3 14 4 15 83 16 5 17 6 18 2 19 1 20 16 22 17 23 18 24 19 26
REMARK SMILES IDX 20 27 21 28 79 29 22 30 78 31 23 32 24 33 25 34 72 35 26 36
REMARK SMILES IDX 77 37 71 38 73 39 27 40 76 41 70 42 69 43 28 45 58 46 39 47
REMARK SMILES IDX 57 48 40 49 43 50 56 51 74 52 41 53 42 54 55 56 75 57 44 58
REMARK SMILES IDX 29 59 30 60 38 61 31 62 37 63 32 64 33 65 34 66 35 67 36 68
REMARK SMILES IDX 59 69 60 70 68 71 61 72 67 73 62 74 63 75 64 76 65 77 66 78
REMARK SMILES IDX 45 79 46 80 54 81 47 82 53 83 48 84 49 85 50 86 51 87 52 88
REMARK H PARENT 13 6 2 21 17 25 73 44 43 55
REMARK Flexibility Score: inf
ROOT
ATOM      1  C   UNL A   1      35.440  33.256  28.187  1.00  0.00     0.042 C 
ENDROOT
BRANCH   1   2
ATOM      2  C   UNL A   1      35.423  34.751  28.506  1.00  0.00     0.118 C 
BRANCH   2   3
ATOM      3  N   UNL A   1      34.084  35.301  28.381  1.00  0.00    -0.352 N 
ATOM      4  C   UNL A   1      33.219  35.871  29.280  1.00  0.00     0.251 C 
ATOM      5  O   UNL A   1      32.153  36.308  28.847  1.00  0.00    -0.269 OA
ATOM      6  H   UNL A   1      33.723  35.253  27.466  1.00  0.00     0.163 HD
BRANCH   4   7
ATOM      7  C   UNL A   1      33.536  36.061  30.721  1.00  0.00     0.043 A 
ATOM      8  C   UNL A   1      34.414  35.389  32.850  1.00  0.00     0.090 A 
ATOM      9  C   UNL A   1      33.987  35.055  31.567  1.00  0.00     0.044 A 
ATOM     10  N   UNL A   1      34.310  36.647  33.345  1.00  0.00    -0.255 NA
ATOM     11  C   UNL A   1      33.755  37.583  32.550  1.00  0.00     0.112 A 
ATOM     12  C   UNL A   1      33.381  37.348  31.241  1.00  0.00     0.034 A 
BRANCH   8  13
ATOM     13  C   UNL A   1      35.176  34.420  33.647  1.00  0.00     0.094 A 
ATOM     14  C   UNL A   1      36.400  32.483  33.736  1.00  0.00     0.222 A 
ATOM     15  N   UNL A   1      36.679  32.651  35.036  1.00  0.00    -0.222 NA
ATOM     16  N   UNL A   1      35.666  33.337  33.010  1.00  0.00    -0.211 NA
ATOM     17  C   UNL A   1      36.196  33.751  35.632  1.00  0.00     0.117 A 
ATOM     18  C   UNL A   1      35.431  34.679  34.981  1.00  0.00     0.051 A 
BRANCH  14  19
ATOM     19  N   UNL A   1      36.966  31.383  33.158  1.00  0.00    -0.357 N 
ATOM     20  C   UNL A   1      38.371  31.318  32.884  1.00  0.00     0.143 C 
ATOM     21  H   UNL A   1      36.395  30.615  32.923  1.00  0.00     0.163 HD
ENDBRANCH  14  19
ENDBRANCH   8  13
ENDBRANCH   4   7
ENDBRANCH   2   3
ENDBRANCH   1   2
BRANCH   1  22
ATOM     22  C   UNL A   1      34.563  32.431  29.126  1.00  0.00     0.118 C 
BRANCH  22  23
ATOM     23  N   UNL A   1      33.924  31.321  28.434  1.00  0.00    -0.352 N 
ATOM     24  C   UNL A   1      34.473  30.186  27.888  1.00  0.00     0.251 C 
ATOM     25  H   UNL A   1      32.948  31.395  28.343  1.00  0.00     0.163 HD
ATOM     26  O   UNL A   1      33.788  29.494  27.141  1.00  0.00    -0.269 OA
BRANCH  24  27
ATOM     27  C   UNL A   1      35.870  29.799  28.184  1.00  0.00     0.039 A 
ATOM     28  C   UNL A   1      36.805  29.810  27.145  1.00  0.00     0.014 A 
ATOM     29  C   UNL A   1      36.252  29.375  29.460  1.00  0.00     0.014 A 
ATOM     30  C   UNL A   1      38.130  29.447  27.395  1.00  0.00     0.010 A 
ATOM     31  C   UNL A   1      37.588  29.076  29.724  1.00  0.00     0.010 A 
ATOM     32  C   UNL A   1      38.540  29.105  28.694  1.00  0.00    -0.014 A 
BRANCH  32  33
ATOM     33  C   UNL A   1      39.959  28.783  28.994  1.00  0.00     0.031 A 
ATOM     34  C   UNL A   1      40.869  29.826  29.587  1.00  0.00     0.074 A 
ATOM     35  C   UNL A   1      40.445  27.568  28.671  1.00  0.00     0.049 A 
ATOM     36  N   UNL A   1      42.148  29.749  29.853  1.00  0.00    -0.248 NA
ATOM     37  C   UNL A   1      40.268  31.133  29.901  1.00  0.00     0.031 C 
ATOM     38  C   UNL A   1      39.675  26.483  28.057  1.00  0.00     0.029 A 
ATOM     39  N   UNL A   1      41.706  27.043  28.805  1.00  0.00    -0.354 N 
ATOM     40  C   UNL A   1      42.509  30.997  30.347  1.00  0.00     0.074 A 
ATOM     41  C   UNL A   1      41.324  31.826  30.305  1.00  0.00     0.031 C 
ATOM     42  C   UNL A   1      40.473  25.417  27.887  1.00  0.00     0.029 A 
ATOM     43  C   UNL A   1      41.819  25.753  28.340  1.00  0.00     0.049 A 
ATOM     44  H   UNL A   1      42.458  27.541  29.196  1.00  0.00     0.167 HD
ATOM     45  C   UNL A   1      43.714  31.411  30.808  1.00  0.00     0.031 A 
ATOM     46  C   UNL A   1      42.886  24.934  28.276  1.00  0.00     0.031 A 
ATOM     47  C   UNL A   1      44.887  30.580  30.860  1.00  0.00     0.049 A 
ATOM     48  C   UNL A   1      44.215  25.419  28.790  1.00  0.00     0.074 A 
ATOM     49  C   UNL A   1      46.140  30.890  31.361  1.00  0.00     0.029 A 
ATOM     50  N   UNL A   1      44.956  29.275  30.393  1.00  0.00    -0.354 N 
ATOM     51  N   UNL A   1      44.520  26.584  29.311  1.00  0.00    -0.248 NA
ATOM     52  C   UNL A   1      45.339  24.475  28.717  1.00  0.00     0.031 C 
ATOM     53  C   UNL A   1      46.979  29.790  31.154  1.00  0.00     0.029 A 
ATOM     54  C   UNL A   1      46.235  28.775  30.575  1.00  0.00     0.049 A 
ATOM     55  H   UNL A   1      44.206  28.779  29.991  1.00  0.00     0.167 HD
ATOM     56  C   UNL A   1      45.865  26.504  29.650  1.00  0.00     0.074 A 
ATOM     57  C   UNL A   1      46.310  25.173  29.291  1.00  0.00     0.031 C 
ATOM     58  C   UNL A   1      46.662  27.448  30.210  1.00  0.00     0.031 A 
BRANCH  45  59
ATOM     59  C   UNL A   1      43.826  32.834  31.292  1.00  0.00    -0.014 A 
ATOM     60  C   UNL A   1      44.111  33.884  30.399  1.00  0.00     0.010 A 
ATOM     61  C   UNL A   1      43.597  33.132  32.648  1.00  0.00     0.010 A 
ATOM     62  C   UNL A   1      44.205  35.200  30.862  1.00  0.00     0.020 A 
ATOM     63  C   UNL A   1      43.663  34.451  33.109  1.00  0.00     0.020 A 
ATOM     64  C   UNL A   1      43.984  35.475  32.214  1.00  0.00     0.054 A 
BRANCH  64  65
ATOM     65  S   UNL A   1      44.090  37.194  32.782  1.00  0.00     0.124 S 
ATOM     66  O   UNL A   1      43.918  37.933  31.534  1.00  0.00    -0.237 OA
ATOM     67  O   UNL A   1      42.979  37.289  33.725  1.00  0.00    -0.237 OA
ATOM     68  O   UNL A   1      45.419  37.282  33.380  1.00  0.00    -0.744 OA
ENDBRANCH  64  65
ENDBRANCH  45  59
BRANCH  46  69
ATOM     69  C   UNL A   1      42.740  23.565  27.711  1.00  0.00    -0.014 A 
ATOM     70  C   UNL A   1      42.315  22.500  28.524  1.00  0.00     0.010 A 
ATOM     71  C   UNL A   1      43.012  23.323  26.353  1.00  0.00     0.010 A 
ATOM     72  C   UNL A   1      42.183  21.213  27.994  1.00  0.00     0.020 A 
ATOM     73  C   UNL A   1      42.855  22.044  25.812  1.00  0.00     0.020 A 
ATOM     74  C   UNL A   1      42.453  20.993  26.640  1.00  0.00     0.054 A 
BRANCH  74  75
ATOM     75  S   UNL A   1      42.227  19.327  25.960  1.00  0.00     0.124 S 
ATOM     76  O   UNL A   1      42.733  18.487  27.041  1.00  0.00    -0.237 OA
ATOM     77  O   UNL A   1      40.785  19.269  25.736  1.00  0.00    -0.237 OA
ATOM     78  O   UNL A   1      43.038  19.342  24.745  1.00  0.00    -0.744 OA
ENDBRANCH  74  75
ENDBRANCH  46  69
BRANCH  58  79
ATOM     79  C   UNL A   1      48.088  27.066  30.500  1.00  0.00    -0.014 A 
ATOM     80  C   UNL A   1      49.111  27.308  29.565  1.00  0.00     0.010 A 
ATOM     81  C   UNL A   1      48.417  26.504  31.747  1.00  0.00     0.010 A 
ATOM     82  C   UNL A   1      50.433  26.965  29.861  1.00  0.00     0.020 A 
ATOM     83  C   UNL A   1      49.741  26.186  32.058  1.00  0.00     0.020 A 
ATOM     84  C   UNL A   1      50.739  26.406  31.106  1.00  0.00     0.054 A 
BRANCH  84  85
ATOM     85  S   UNL A   1      52.468  26.011  31.484  1.00  0.00     0.124 S 
ATOM     86  O   UNL A   1      52.365  24.644  31.988  1.00  0.00    -0.237 OA
ATOM     87  O   UNL A   1      53.122  26.155  30.186  1.00  0.00    -0.237 OA
ATOM     88  O   UNL A   1      52.843  27.015  32.478  1.00  0.00    -0.744 OA
ENDBRANCH  84  85
ENDBRANCH  58  79
ENDBRANCH  32  33
ENDBRANCH  24  27
ENDBRANCH  22  23
ENDBRANCH   1  22
TORSDOF 15
ENDMDL
MODEL 2
REMARK VINA RESULT:     -10.7      1.329      2.540
REMARK SMILES CNc1nccc(-c2cc(C(=O)NCCCNC(=O)c3ccc(-c4c5nc(c(-c6ccc(S(=O)(=O)[O-])cc6)c6ccc([nH]6)c(-c6ccc(S(=O)(=O)[O-])cc6)c6nc(c(-c7ccc(S(=O)(=O)[O-])cc7)c7ccc4[nH]7)C=C6)C=C5)cc3)ccn2)n1
REMARK SMILES IDX 15 1 14 2 13 3 11 4 12 5 10 7 8 8 9 9 82 10 81 11 80 12 7 13
REMARK SMILES IDX 3 14 4 15 83 16 5 17 6 18 2 19 1 20 16 22 17 23 18 24 19 26
REMARK SMILES IDX 20 27 21 28 79 29 22 30 78 31 23 32 24 33 25 34 72 35 26 36
REMARK SMILES IDX 77 37 71 38 73 39 27 40 76 41 70 42 69 43 28 45 58 46 39 47
REMARK SMILES IDX 57 48 40 49 43 50 56 51 74 52 41 53 42 54 55 56 75 57 44 58
REMARK SMILES IDX 29 59 30 60 38 61 31 62 37 63 32 64 33 65 34 66 35 67 36 68
REMARK SMILES IDX 59 69 60 70 68 71 61 72 67 73 62 74 63 75 64 76 65 77 66 78
REMARK SMILES IDX 45 79 46 80 54 81 47 82 53 83 48 84 49 85 50 86 51 87 52 88
REMARK H PARENT 13 6 2 21 17 25 73 44 43 55
REMARK Flexibility Score: inf
ROOT
ATOM      1  C   UNL A   1      35.451  32.867  29.495  1.00  0.00     0.042 C 
ENDROOT
BRANCH   1   2
ATOM      2  C   UNL A   1      35.163  34.120  30.324  1.00  0.00     0.118 C 
BRANCH   2   3
ATOM      3  N   UNL A   1      34.187  33.849  31.365  1.00  0.00    -0.352 N 
ATOM      4  C   UNL A   1      34.295  33.386  32.651  1.00  0.00     0.251 C 
ATOM      5  O   UNL A   1      33.266  33.319  33.322  1.00  0.00    -0.269 OA
ATOM      6  H   UNL A   1      33.259  34.033  31.092  1.00  0.00     0.163 HD
BRANCH   4   7
ATOM      7  C   UNL A   1      35.591  33.041  33.296  1.00  0.00     0.043 A 
ATOM      8  C   UNL A   1      37.486  31.635  33.730  1.00  0.00     0.090 A 
ATOM      9  C   UNL A   1      36.194  31.789  33.234  1.00  0.00     0.044 A 
ATOM     10  N   UNL A   1      38.144  32.634  34.367  1.00  0.00    -0.255 NA
ATOM     11  C   UNL A   1      37.493  33.804  34.526  1.00  0.00     0.112 A 
ATOM     12  C   UNL A   1      36.243  34.060  33.994  1.00  0.00     0.034 A 
BRANCH   8  13
ATOM     13  C   UNL A   1      38.258  30.430  33.405  1.00  0.00     0.094 A 
ATOM     14  C   UNL A   1      40.289  29.368  33.300  1.00  0.00     0.222 A 
ATOM     15  N   UNL A   1      39.728  28.210  32.924  1.00  0.00    -0.222 NA
ATOM     16  N   UNL A   1      39.598  30.488  33.554  1.00  0.00    -0.211 NA
ATOM     17  C   UNL A   1      38.392  28.182  32.808  1.00  0.00     0.117 A 
ATOM     18  C   UNL A   1      37.599  29.271  33.037  1.00  0.00     0.051 A 
BRANCH  14  19
ATOM     19  N   UNL A   1      41.643  29.331  33.467  1.00  0.00    -0.357 N 
ATOM     20  C   UNL A   1      42.357  28.091  33.546  1.00  0.00     0.143 C 
ATOM     21  H   UNL A   1      42.143  30.178  33.535  1.00  0.00     0.163 HD
ENDBRANCH  14  19
ENDBRANCH   8  13
ENDBRANCH   4   7
ENDBRANCH   2   3
ENDBRANCH   1   2
BRANCH   1  22
ATOM     22  C   UNL A   1      34.822  32.907  28.105  1.00  0.00     0.118 C 
BRANCH  22  23
ATOM     23  N   UNL A   1      34.042  31.709  27.829  1.00  0.00    -0.352 N 
ATOM     24  C   UNL A   1      34.449  30.408  27.666  1.00  0.00     0.251 C 
ATOM     25  H   UNL A   1      33.072  31.855  27.747  1.00  0.00     0.163 HD
ATOM     26  O   UNL A   1      33.658  29.590  27.204  1.00  0.00    -0.269 OA
BRANCH  24  27
ATOM     27  C   UNL A   1      35.820  29.989  28.030  1.00  0.00     0.039 A 
ATOM     28  C   UNL A   1      36.837  30.115  27.079  1.00  0.00     0.014 A 
ATOM     29  C   UNL A   1      36.101  29.424  29.278  1.00  0.00     0.014 A 
ATOM     30  C   UNL A   1      38.140  29.724  27.395  1.00  0.00     0.010 A 
ATOM     31  C   UNL A   1      37.413  29.096  29.615  1.00  0.00     0.010 A 
ATOM     32  C   UNL A   1      38.446  29.239  28.677  1.00  0.00    -0.014 A 
BRANCH  32  33
ATOM     33  C   UNL A   1      39.838  28.884  29.055  1.00  0.00     0.031 A 
ATOM     34  C   UNL A   1      40.731  29.899  29.717  1.00  0.00     0.074 A 
ATOM     35  C   UNL A   1      40.319  27.664  28.741  1.00  0.00     0.049 A 
ATOM     36  N   UNL A   1      41.990  29.792  30.057  1.00  0.00    -0.248 NA
ATOM     37  C   UNL A   1      40.137  31.213  30.018  1.00  0.00     0.031 C 
ATOM     38  C   UNL A   1      39.566  26.605  28.064  1.00  0.00     0.029 A 
ATOM     39  N   UNL A   1      41.559  27.113  28.940  1.00  0.00    -0.354 N 
ATOM     40  C   UNL A   1      42.345  31.025  30.592  1.00  0.00     0.074 A 
ATOM     41  C   UNL A   1      41.180  31.878  30.494  1.00  0.00     0.031 C 
ATOM     42  C   UNL A   1      40.352  25.526  27.925  1.00  0.00     0.029 A 
ATOM     43  C   UNL A   1      41.675  25.828  28.462  1.00  0.00     0.049 A 
ATOM     44  H   UNL A   1      42.296  27.590  29.383  1.00  0.00     0.167 HD
ATOM     45  C   UNL A   1      43.528  31.408  31.130  1.00  0.00     0.031 A 
ATOM     46  C   UNL A   1      42.728  24.988  28.447  1.00  0.00     0.031 A 
ATOM     47  C   UNL A   1      44.680  30.552  31.237  1.00  0.00     0.049 A 
ATOM     48  C   UNL A   1      44.033  25.438  29.046  1.00  0.00     0.074 A 
ATOM     49  C   UNL A   1      45.907  30.829  31.817  1.00  0.00     0.029 A 
ATOM     50  N   UNL A   1      44.752  29.254  30.754  1.00  0.00    -0.354 N 
ATOM     51  N   UNL A   1      44.329  26.589  29.603  1.00  0.00    -0.248 NA
ATOM     52  C   UNL A   1      45.141  24.474  29.024  1.00  0.00     0.031 C 
ATOM     53  C   UNL A   1      46.736  29.716  31.641  1.00  0.00     0.029 A 
ATOM     54  C   UNL A   1      46.007  28.726  31.002  1.00  0.00     0.049 A 
ATOM     55  H   UNL A   1      44.018  28.779  30.301  1.00  0.00     0.167 HD
ATOM     56  C   UNL A   1      45.650  26.477  30.020  1.00  0.00     0.074 A 
ATOM     57  C   UNL A   1      46.089  25.143  29.666  1.00  0.00     0.031 C 
ATOM     58  C   UNL A   1      46.430  27.396  30.642  1.00  0.00     0.031 A 
BRANCH  45  59
ATOM     59  C   UNL A   1      43.638  32.820  31.643  1.00  0.00    -0.014 A 
ATOM     60  C   UNL A   1      44.176  33.844  30.841  1.00  0.00     0.010 A 
ATOM     61  C   UNL A   1      43.156  33.139  32.926  1.00  0.00     0.010 A 
ATOM     62  C   UNL A   1      44.265  35.151  31.328  1.00  0.00     0.020 A 
ATOM     63  C   UNL A   1      43.219  34.451  33.406  1.00  0.00     0.020 A 
ATOM     64  C   UNL A   1      43.790  35.446  32.609  1.00  0.00     0.054 A 
BRANCH  64  65
ATOM     65  S   UNL A   1      43.898  37.155  33.207  1.00  0.00     0.124 S 
ATOM     66  O   UNL A   1      43.784  37.915  31.964  1.00  0.00    -0.237 OA
ATOM     67  O   UNL A   1      42.753  37.252  34.109  1.00  0.00    -0.237 OA
ATOM     68  O   UNL A   1      45.205  37.215  33.856  1.00  0.00    -0.744 OA
ENDBRANCH  64  65
ENDBRANCH  45  59
BRANCH  46  69
ATOM     69  C   UNL A   1      42.589  23.632  27.852  1.00  0.00    -0.014 A 
ATOM     70  C   UNL A   1      42.180  22.545  28.643  1.00  0.00     0.010 A 
ATOM     71  C   UNL A   1      42.853  23.423  26.486  1.00  0.00     0.010 A 
ATOM     72  C   UNL A   1      42.055  21.269  28.084  1.00  0.00     0.020 A 
ATOM     73  C   UNL A   1      42.703  22.155  25.917  1.00  0.00     0.020 A 
ATOM     74  C   UNL A   1      42.316  21.083  26.724  1.00  0.00     0.054 A 
BRANCH  74  75
ATOM     75  S   UNL A   1      42.100  19.430  26.008  1.00  0.00     0.124 S 
ATOM     76  O   UNL A   1      42.943  19.503  24.819  1.00  0.00    -0.237 OA
ATOM     77  O   UNL A   1      42.584  18.557  27.075  1.00  0.00    -0.237 OA
ATOM     78  O   UNL A   1      40.663  19.353  25.755  1.00  0.00    -0.744 OA
ENDBRANCH  74  75
ENDBRANCH  46  69
BRANCH  58  79
ATOM     79  C   UNL A   1      47.829  26.982  31.008  1.00  0.00    -0.014 A 
ATOM     80  C   UNL A   1      48.111  26.385  32.250  1.00  0.00     0.010 A 
ATOM     81  C   UNL A   1      48.868  27.147  30.074  1.00  0.00     0.010 A 
ATOM     82  C   UNL A   1      49.414  25.988  32.563  1.00  0.00     0.020 A 
ATOM     83  C   UNL A   1      50.167  26.726  30.372  1.00  0.00     0.020 A 
ATOM     84  C   UNL A   1      50.434  26.162  31.621  1.00  0.00     0.054 A 
BRANCH  84  85
ATOM     85  S   UNL A   1      52.108  25.599  32.033  1.00  0.00     0.124 S 
ATOM     86  O   UNL A   1      52.853  25.956  30.829  1.00  0.00    -0.237 OA
ATOM     87  O   UNL A   1      52.426  26.382  33.225  1.00  0.00    -0.237 OA
ATOM     88  O   UNL A   1      51.944  24.165  32.263  1.00  0.00    -0.744 OA
ENDBRANCH  84  85
ENDBRANCH  58  79
ENDBRANCH  32  33
ENDBRANCH  24  27
ENDBRANCH  22  23
ENDBRANCH   1  22
TORSDOF 15
ENDMDL
MODEL 3
REMARK VINA RESULT:     -10.6      3.926     10.758
REMARK SMILES CNc1nccc(-c2cc(C(=O)NCCCNC(=O)c3ccc(-c4c5nc(c(-c6ccc(S(=O)(=O)[O-])cc6)c6ccc([nH]6)c(-c6ccc(S(=O)(=O)[O-])cc6)c6nc(c(-c7ccc(S(=O)(=O)[O-])cc7)c7ccc4[nH]7)C=C6)C=C5)cc3)ccn2)n1
REMARK SMILES IDX 15 1 14 2 13 3 11 4 12 5 10 7 8 8 9 9 82 10 81 11 80 12 7 13
REMARK SMILES IDX 3 14 4 15 83 16 5 17 6 18 2 19 1 20 16 22 17 23 18 24 19 26
REMARK SMILES IDX 20 27 21 28 79 29 22 30 78 31 23 32 24 33 25 34 72 35 26 36
REMARK SMILES IDX 77 37 71 38 73 39 27 40 76 41 70 42 69 43 28 45 58 46 39 47
REMARK SMILES IDX 57 48 40 49 43 50 56 51 74 52 41 53 42 54 55 56 75 57 44 58
REMARK SMILES IDX 29 59 30 60 38 61 31 62 37 63 32 64 33 65 34 66 35 67 36 68
REMARK SMILES IDX 59 69 60 70 68 71 61 72 67 73 62 74 63 75 64 76 65 77 66 78
REMARK SMILES IDX 45 79 46 80 54 81 47 82 53 83 48 84 49 85 50 86 51 87 52 88
REMARK H PARENT 13 6 2 21 17 25 73 44 43 55
REMARK Flexibility Score: inf
ROOT
ATOM      1  C   UNL A   1      35.235  23.599  25.495  1.00  0.00     0.042 C 
ENDROOT
BRANCH   1   2
ATOM      2  C   UNL A   1      34.268  24.718  25.106  1.00  0.00     0.118 C 
BRANCH   2   3
ATOM      3  N   UNL A   1      34.138  24.823  23.663  1.00  0.00    -0.352 N 
ATOM      4  C   UNL A   1      33.627  25.792  22.838  1.00  0.00     0.251 C 
ATOM      5  O   UNL A   1      33.718  25.613  21.623  1.00  0.00    -0.269 OA
ATOM      6  H   UNL A   1      34.485  24.039  23.179  1.00  0.00     0.163 HD
BRANCH   4   7
ATOM      7  C   UNL A   1      33.050  27.072  23.330  1.00  0.00     0.043 A 
ATOM      8  C   UNL A   1      31.306  28.698  23.598  1.00  0.00     0.090 A 
ATOM      9  C   UNL A   1      31.815  27.581  22.941  1.00  0.00     0.044 A 
ATOM     10  N   UNL A   1      32.015  29.376  24.534  1.00  0.00    -0.255 NA
ATOM     11  C   UNL A   1      33.260  28.938  24.807  1.00  0.00     0.112 A 
ATOM     12  C   UNL A   1      33.805  27.794  24.257  1.00  0.00     0.034 A 
BRANCH   8  13
ATOM     13  C   UNL A   1      29.896  29.067  23.433  1.00  0.00     0.094 A 
ATOM     14  C   UNL A   1      28.298  30.708  23.299  1.00  0.00     0.222 A 
ATOM     15  N   UNL A   1      27.328  29.822  23.032  1.00  0.00    -0.222 NA
ATOM     16  N   UNL A   1      29.581  30.378  23.498  1.00  0.00    -0.211 NA
ATOM     17  C   UNL A   1      27.680  28.530  22.951  1.00  0.00     0.117 A 
ATOM     18  C   UNL A   1      28.960  28.091  23.145  1.00  0.00     0.051 A 
BRANCH  14  19
ATOM     19  N   UNL A   1      27.905  32.015  23.307  1.00  0.00    -0.357 N 
ATOM     20  C   UNL A   1      28.723  33.050  22.747  1.00  0.00     0.143 C 
ATOM     21  H   UNL A   1      27.036  32.253  23.708  1.00  0.00     0.163 HD
ENDBRANCH  14  19
ENDBRANCH   8  13
ENDBRANCH   4   7
ENDBRANCH   2   3
ENDBRANCH   1   2
BRANCH   1  22
ATOM     22  C   UNL A   1      36.687  23.909  25.140  1.00  0.00     0.118 C 
BRANCH  22  23
ATOM     23  N   UNL A   1      37.587  22.846  25.565  1.00  0.00    -0.352 N 
ATOM     24  C   UNL A   1      38.797  22.918  26.210  1.00  0.00     0.251 C 
ATOM     25  H   UNL A   1      37.280  21.934  25.358  1.00  0.00     0.163 HD
ATOM     26  O   UNL A   1      39.504  21.916  26.263  1.00  0.00    -0.269 OA
BRANCH  24  27
ATOM     27  C   UNL A   1      39.255  24.182  26.828  1.00  0.00     0.039 A 
ATOM     28  C   UNL A   1      38.891  24.455  28.150  1.00  0.00     0.014 A 
ATOM     29  C   UNL A   1      39.992  25.122  26.101  1.00  0.00     0.014 A 
ATOM     30  C   UNL A   1      39.307  25.641  28.757  1.00  0.00     0.010 A 
ATOM     31  C   UNL A   1      40.461  26.275  26.728  1.00  0.00     0.010 A 
ATOM     32  C   UNL A   1      40.121  26.550  28.061  1.00  0.00    -0.014 A 
BRANCH  32  33
ATOM     33  C   UNL A   1      40.631  27.784  28.712  1.00  0.00     0.031 A 
ATOM     34  C   UNL A   1      42.032  27.833  29.260  1.00  0.00     0.074 A 
ATOM     35  C   UNL A   1      39.807  28.839  28.868  1.00  0.00     0.049 A 
ATOM     36  N   UNL A   1      42.626  28.796  29.918  1.00  0.00    -0.248 NA
ATOM     37  C   UNL A   1      42.868  26.637  29.062  1.00  0.00     0.031 C 
ATOM     38  C   UNL A   1      38.415  28.901  28.415  1.00  0.00     0.029 A 
ATOM     39  N   UNL A   1      40.017  30.059  29.459  1.00  0.00    -0.354 N 
ATOM     40  C   UNL A   1      43.894  28.318  30.228  1.00  0.00     0.074 A 
ATOM     41  C   UNL A   1      43.970  26.964  29.723  1.00  0.00     0.031 C 
ATOM     42  C   UNL A   1      37.904  30.103  28.725  1.00  0.00     0.029 A 
ATOM     43  C   UNL A   1      38.914  30.881  29.435  1.00  0.00     0.049 A 
ATOM     44  H   UNL A   1      40.875  30.322  29.862  1.00  0.00     0.167 HD
ATOM     45  C   UNL A   1      44.909  28.954  30.862  1.00  0.00     0.031 A 
ATOM     46  C   UNL A   1      38.731  32.119  29.934  1.00  0.00     0.031 A 
ATOM     47  C   UNL A   1      44.835  30.305  31.352  1.00  0.00     0.049 A 
ATOM     48  C   UNL A   1      39.872  32.801  30.639  1.00  0.00     0.074 A 
ATOM     49  C   UNL A   1      45.827  31.057  31.958  1.00  0.00     0.029 A 
ATOM     50  N   UNL A   1      43.705  31.108  31.294  1.00  0.00    -0.354 N 
ATOM     51  N   UNL A   1      41.084  32.354  30.867  1.00  0.00    -0.248 NA
ATOM     52  C   UNL A   1      39.623  34.159  31.142  1.00  0.00     0.031 C 
ATOM     53  C   UNL A   1      45.284  32.297  32.310  1.00  0.00     0.029 A 
ATOM     54  C   UNL A   1      43.969  32.338  31.873  1.00  0.00     0.049 A 
ATOM     55  H   UNL A   1      42.843  30.842  30.901  1.00  0.00     0.167 HD
ATOM     56  C   UNL A   1      41.750  33.385  31.519  1.00  0.00     0.074 A 
ATOM     57  C   UNL A   1      40.812  34.482  31.634  1.00  0.00     0.031 C 
ATOM     58  C   UNL A   1      43.024  33.420  31.981  1.00  0.00     0.031 A 
BRANCH  45  59
ATOM     59  C   UNL A   1      46.192  28.191  31.068  1.00  0.00    -0.014 A 
ATOM     60  C   UNL A   1      46.457  27.527  32.280  1.00  0.00     0.010 A 
ATOM     61  C   UNL A   1      47.126  28.095  30.019  1.00  0.00     0.010 A 
ATOM     62  C   UNL A   1      47.648  26.818  32.454  1.00  0.00     0.020 A 
ATOM     63  C   UNL A   1      48.306  27.363  30.179  1.00  0.00     0.020 A 
ATOM     64  C   UNL A   1      48.567  26.743  31.403  1.00  0.00     0.054 A 
BRANCH  64  65
ATOM     65  S   UNL A   1      50.095  25.796  31.649  1.00  0.00     0.124 S 
ATOM     66  O   UNL A   1      50.908  26.733  32.420  1.00  0.00    -0.237 OA
ATOM     67  O   UNL A   1      49.629  24.620  32.380  1.00  0.00    -0.237 OA
ATOM     68  O   UNL A   1      50.564  25.535  30.291  1.00  0.00    -0.744 OA
ENDBRANCH  64  65
ENDBRANCH  45  59
BRANCH  46  69
ATOM     69  C   UNL A   1      37.416  32.796  29.776  1.00  0.00    -0.014 A 
ATOM     70  C   UNL A   1      36.455  32.734  30.800  1.00  0.00     0.010 A 
ATOM     71  C   UNL A   1      37.123  33.520  28.606  1.00  0.00     0.010 A 
ATOM     72  C   UNL A   1      35.217  33.366  30.649  1.00  0.00     0.020 A 
ATOM     73  C   UNL A   1      35.897  34.176  28.462  1.00  0.00     0.020 A 
ATOM     74  C   UNL A   1      34.947  34.084  29.481  1.00  0.00     0.054 A 
BRANCH  74  75
ATOM     75  S   UNL A   1      33.354  34.939  29.326  1.00  0.00     0.124 S 
ATOM     76  O   UNL A   1      32.865  34.922  30.701  1.00  0.00    -0.237 OA
ATOM     77  O   UNL A   1      33.747  36.248  28.810  1.00  0.00    -0.237 OA
ATOM     78  O   UNL A   1      32.610  34.106  28.384  1.00  0.00    -0.744 OA
ENDBRANCH  74  75
ENDBRANCH  46  69
BRANCH  58  79
ATOM     79  C   UNL A   1      43.491  34.697  32.626  1.00  0.00    -0.014 A 
ATOM     80  C   UNL A   1      43.408  34.884  34.017  1.00  0.00     0.010 A 
ATOM     81  C   UNL A   1      44.067  35.705  31.831  1.00  0.00     0.010 A 
ATOM     82  C   UNL A   1      43.867  36.068  34.599  1.00  0.00     0.020 A 
ATOM     83  C   UNL A   1      44.553  36.879  32.412  1.00  0.00     0.020 A 
ATOM     84  C   UNL A   1      44.436  37.059  33.792  1.00  0.00     0.054 A 
BRANCH  84  85
ATOM     85  S   UNL A   1      45.065  38.569  34.575  1.00  0.00     0.124 S 
ATOM     86  O   UNL A   1      43.881  39.065  35.272  1.00  0.00    -0.237 OA
ATOM     87  O   UNL A   1      46.134  38.065  35.433  1.00  0.00    -0.237 OA
ATOM     88  O   UNL A   1      45.511  39.384  33.447  1.00  0.00    -0.744 OA
ENDBRANCH  84  85
ENDBRANCH  58  79
ENDBRANCH  32  33
ENDBRANCH  24  27
ENDBRANCH  22  23
ENDBRANCH   1  22
TORSDOF 15
ENDMDL
