MODEL 1
REMARK VINA RESULT:      -9.3      0.000      0.000
REMARK SMILES O=C(NCCCNC(=O)[C@H]1CS[C@@H](c2cccc(OCc3ccc(Cl)cc3Cl)c2)[NH2+]1)c1ccc(-c2c3nc(c(-c4ccc(S(=O)(=O)[O-])cc4)c4ccc([nH]4)c(-c4ccc(S(=O)(=O)[O-])cc4)c4nc(c(-c5ccc(S(=O)(=O)[O-])cc5)c5ccc2[nH]5)C=C4)C=C3)cc1
REMARK SMILES IDX 5 1 4 2 3 3 1 4 2 5 31 7 32 8 90 9 33 10 89 11 34 12 35 13
REMARK SMILES IDX 36 14 83 15 37 16 88 17 82 18 84 19 38 20 87 21 81 22 80 23
REMARK SMILES IDX 39 25 69 26 50 27 68 28 51 29 54 30 67 31 85 32 52 33 53 34
REMARK SMILES IDX 66 36 86 37 55 38 40 39 41 40 49 41 42 42 48 43 43 44 44 45
REMARK SMILES IDX 45 46 46 47 47 48 70 49 71 50 79 51 72 52 78 53 73 54 74 55
REMARK SMILES IDX 75 56 76 57 77 58 56 59 57 60 65 61 58 62 64 63 59 64 60 65
REMARK SMILES IDX 61 66 62 67 63 68 6 69 7 70 8 71 9 73 10 74 11 75 30 76
REMARK SMILES IDX 12 77 13 78 14 81 15 82 29 83 16 84 18 85 17 86 19 87 20 88
REMARK SMILES IDX 21 89 22 90 27 91 23 92 26 93 28 94 24 95 25 96
REMARK H PARENT 3 6 84 24 54 35 7 72 30 79 30 80
REMARK Flexibility Score: inf
ROOT
ATOM      1  C   UNL A   1      41.907  21.432  26.305  1.00  0.00     0.042 C 
ENDROOT
BRANCH   1   2
ATOM      2  C   UNL A   1      40.658  21.572  27.168  1.00  0.00     0.118 C 
BRANCH   2   3
ATOM      3  N   UNL A   1      39.472  21.875  26.372  1.00  0.00    -0.352 N 
ATOM      4  O   UNL A   1      37.569  22.932  25.815  1.00  0.00    -0.269 OA
ATOM      5  C   UNL A   1      38.671  22.987  26.363  1.00  0.00     0.251 C 
ATOM      6  H   UNL A   1      39.205  21.166  25.742  1.00  0.00     0.163 HD
BRANCH   5   7
ATOM      7  C   UNL A   1      39.120  24.239  27.004  1.00  0.00     0.039 A 
ATOM      8  C   UNL A   1      38.889  24.458  28.363  1.00  0.00     0.014 A 
ATOM      9  C   UNL A   1      39.835  25.181  26.257  1.00  0.00     0.014 A 
ATOM     10  C   UNL A   1      39.240  25.669  28.942  1.00  0.00     0.010 A 
ATOM     11  C   UNL A   1      40.283  26.356  26.868  1.00  0.00     0.010 A 
ATOM     12  C   UNL A   1      39.975  26.615  28.213  1.00  0.00    -0.014 A 
BRANCH  12  13
ATOM     13  C   UNL A   1      40.516  27.804  28.915  1.00  0.00     0.031 A 
ATOM     14  C   UNL A   1      41.899  27.807  29.496  1.00  0.00     0.074 A 
ATOM     15  C   UNL A   1      39.725  28.892  29.019  1.00  0.00     0.049 A 
ATOM     16  N   UNL A   1      42.508  28.761  30.152  1.00  0.00    -0.248 NA
ATOM     17  C   UNL A   1      42.705  26.586  29.328  1.00  0.00     0.031 C 
ATOM     18  C   UNL A   1      38.357  28.993  28.498  1.00  0.00     0.029 A 
ATOM     19  N   UNL A   1      39.950  30.119  29.587  1.00  0.00    -0.354 N 
ATOM     20  C   UNL A   1      43.753  28.251  30.501  1.00  0.00     0.074 A 
ATOM     21  C   UNL A   1      43.812  26.898  29.991  1.00  0.00     0.031 C 
ATOM     22  C   UNL A   1      37.881  30.222  28.740  1.00  0.00     0.029 A 
ATOM     23  C   UNL A   1      38.872  30.968  29.502  1.00  0.00     0.049 A 
ATOM     24  H   UNL A   1      40.801  30.368  30.016  1.00  0.00     0.167 HD
ATOM     25  C   UNL A   1      44.748  28.862  31.188  1.00  0.00     0.031 A 
ATOM     26  C   UNL A   1      38.682  32.199  30.012  1.00  0.00     0.031 A 
ATOM     27  C   UNL A   1      44.673  30.212  31.685  1.00  0.00     0.049 A 
ATOM     28  C   UNL A   1      39.787  32.829  30.806  1.00  0.00     0.074 A 
ATOM     29  C   UNL A   1      45.652  30.941  32.337  1.00  0.00     0.029 A 
ATOM     30  N   UNL A   1      43.555  31.029  31.602  1.00  0.00    -0.354 N 
ATOM     31  N   UNL A   1      40.984  32.358  31.062  1.00  0.00    -0.248 NA
ATOM     32  C   UNL A   1      39.520  34.152  31.385  1.00  0.00     0.031 C 
ATOM     33  C   UNL A   1      45.104  32.170  32.713  1.00  0.00     0.029 A 
ATOM     34  C   UNL A   1      43.805  32.236  32.234  1.00  0.00     0.049 A 
ATOM     35  H   UNL A   1      42.711  30.788  31.159  1.00  0.00     0.167 HD
ATOM     36  C   UNL A   1      41.617  33.331  31.824  1.00  0.00     0.074 A 
ATOM     37  C   UNL A   1      40.681  34.429  31.963  1.00  0.00     0.031 C 
ATOM     38  C   UNL A   1      42.859  33.316  32.365  1.00  0.00     0.031 A 
BRANCH  25  39
ATOM     39  C   UNL A   1      45.997  28.073  31.485  1.00  0.00    -0.014 A 
ATOM     40  C   UNL A   1      46.169  27.397  32.705  1.00  0.00     0.010 A 
ATOM     41  C   UNL A   1      46.976  27.932  30.482  1.00  0.00     0.010 A 
ATOM     42  C   UNL A   1      47.306  26.614  32.925  1.00  0.00     0.020 A 
ATOM     43  C   UNL A   1      48.102  27.130  30.689  1.00  0.00     0.020 A 
ATOM     44  C   UNL A   1      48.264  26.484  31.915  1.00  0.00     0.054 A 
BRANCH  44  45
ATOM     45  S   UNL A   1      49.706  25.423  32.212  1.00  0.00     0.124 S 
ATOM     46  O   UNL A   1      50.563  26.297  33.009  1.00  0.00    -0.237 OA
ATOM     47  O   UNL A   1      49.125  24.290  32.930  1.00  0.00    -0.237 OA
ATOM     48  O   UNL A   1      50.200  25.121  30.871  1.00  0.00    -0.744 OA
ENDBRANCH  44  45
ENDBRANCH  25  39
BRANCH  26  49
ATOM     49  C   UNL A   1      37.370  32.880  29.837  1.00  0.00    -0.014 A 
ATOM     50  C   UNL A   1      36.436  32.932  30.885  1.00  0.00     0.010 A 
ATOM     51  C   UNL A   1      37.052  33.489  28.607  1.00  0.00     0.010 A 
ATOM     52  C   UNL A   1      35.200  33.559  30.699  1.00  0.00     0.020 A 
ATOM     53  C   UNL A   1      35.834  34.146  28.429  1.00  0.00     0.020 A 
ATOM     54  C   UNL A   1      34.907  34.161  29.471  1.00  0.00     0.054 A 
BRANCH  54  55
ATOM     55  S   UNL A   1      33.308  34.989  29.261  1.00  0.00     0.124 S 
ATOM     56  O   UNL A   1      33.712  36.310  28.789  1.00  0.00    -0.237 OA
ATOM     57  O   UNL A   1      32.640  34.142  28.275  1.00  0.00    -0.237 OA
ATOM     58  O   UNL A   1      32.725  34.953  30.600  1.00  0.00    -0.744 OA
ENDBRANCH  54  55
ENDBRANCH  26  49
BRANCH  38  59
ATOM     59  C   UNL A   1      43.287  34.529  33.145  1.00  0.00    -0.014 A 
ATOM     60  C   UNL A   1      43.740  35.687  32.489  1.00  0.00     0.010 A 
ATOM     61  C   UNL A   1      43.168  34.532  34.547  1.00  0.00     0.010 A 
ATOM     62  C   UNL A   1      44.084  36.824  33.225  1.00  0.00     0.020 A 
ATOM     63  C   UNL A   1      43.481  35.677  35.282  1.00  0.00     0.020 A 
ATOM     64  C   UNL A   1      43.945  36.813  34.616  1.00  0.00     0.054 A 
BRANCH  64  65
ATOM     65  S   UNL A   1      44.330  38.325  35.541  1.00  0.00     0.124 S 
ATOM     66  O   UNL A   1      45.791  38.307  35.559  1.00  0.00    -0.237 OA
ATOM     67  O   UNL A   1      43.725  39.367  34.714  1.00  0.00    -0.237 OA
ATOM     68  O   UNL A   1      43.688  38.114  36.836  1.00  0.00    -0.744 OA
ENDBRANCH  64  65
ENDBRANCH  38  59
ENDBRANCH  12  13
ENDBRANCH   5   7
ENDBRANCH   2   3
ENDBRANCH   1   2
BRANCH   1  69
ATOM     69  C   UNL A   1      42.392  22.761  25.748  1.00  0.00     0.118 C 
BRANCH  69  70
ATOM     70  N   UNL A   1      43.351  22.592  24.671  1.00  0.00    -0.351 N 
ATOM     71  C   UNL A   1      44.587  23.080  24.407  1.00  0.00     0.279 C 
ATOM     72  H   UNL A   1      43.029  21.980  23.970  1.00  0.00     0.163 HD
ATOM     73  O   UNL A   1      45.075  22.693  23.336  1.00  0.00    -0.268 OA
BRANCH  71  74
ATOM     74  C   UNL A   1      45.360  24.079  25.306  1.00  0.00     0.283 C 
ATOM     75  C   UNL A   1      46.624  24.708  24.750  1.00  0.00     0.151 C 
ATOM     76  N   UNL A   1      44.447  25.213  25.623  1.00  0.00    -0.321 N 
ATOM     77  S   UNL A   1      46.870  26.241  25.672  1.00  0.00    -0.088 SA
ATOM     78  C   UNL A   1      45.208  26.214  26.369  1.00  0.00     0.274 C 
ATOM     79  H   UNL A   1      43.666  24.881  26.189  1.00  0.00     0.348 HD
ATOM     80  H   UNL A   1      44.076  25.619  24.765  1.00  0.00     0.348 HD
BRANCH  78  81
ATOM     81  C   UNL A   1      44.452  27.530  26.412  1.00  0.00     0.024 A 
ATOM     82  C   UNL A   1      43.158  27.731  25.911  1.00  0.00     0.011 A 
ATOM     83  C   UNL A   1      45.092  28.614  27.050  1.00  0.00     0.057 A 
ATOM     84  C   UNL A   1      42.539  28.979  26.017  1.00  0.00     0.004 A 
ATOM     85  C   UNL A   1      44.459  29.847  27.203  1.00  0.00     0.120 A 
ATOM     86  C   UNL A   1      43.191  30.032  26.657  1.00  0.00     0.046 A 
BRANCH  85  87
ATOM     87  O   UNL A   1      44.940  30.907  27.925  1.00  0.00    -0.489 OA
BRANCH  87  88
ATOM     88  C   UNL A   1      44.011  31.915  28.354  1.00  0.00     0.267 C 
BRANCH  88  89
ATOM     89  C   UNL A   1      44.486  33.354  28.217  1.00  0.00     0.008 A 
ATOM     90  C   UNL A   1      44.891  34.103  29.337  1.00  0.00     0.010 A 
ATOM     91  C   UNL A   1      44.537  33.977  26.955  1.00  0.00     0.049 A 
ATOM     92  C   UNL A   1      45.386  35.401  29.195  1.00  0.00     0.021 A 
ATOM     93  C   UNL A   1      45.017  35.282  26.814  1.00  0.00     0.041 A 
ATOM     94  Cl  UNL A   1      44.001  33.166  25.525  1.00  0.00    -0.084 Cl
ATOM     95  C   UNL A   1      45.450  35.984  27.934  1.00  0.00     0.042 A 
ATOM     96  Cl  UNL A   1      46.046  37.589  27.766  1.00  0.00    -0.084 Cl
ENDBRANCH  88  89
ENDBRANCH  87  88
ENDBRANCH  85  87
ENDBRANCH  78  81
ENDBRANCH  71  74
ENDBRANCH  69  70
ENDBRANCH   1  69
TORSDOF 17
ENDMDL
MODEL 2
REMARK VINA RESULT:      -9.1      5.448     12.663
REMARK SMILES O=C(NCCCNC(=O)[C@H]1CS[C@@H](c2cccc(OCc3ccc(Cl)cc3Cl)c2)[NH2+]1)c1ccc(-c2c3nc(c(-c4ccc(S(=O)(=O)[O-])cc4)c4ccc([nH]4)c(-c4ccc(S(=O)(=O)[O-])cc4)c4nc(c(-c5ccc(S(=O)(=O)[O-])cc5)c5ccc2[nH]5)C=C4)C=C3)cc1
REMARK SMILES IDX 5 1 4 2 3 3 1 4 2 5 31 7 32 8 90 9 33 10 89 11 34 12 35 13
REMARK SMILES IDX 36 14 83 15 37 16 88 17 82 18 84 19 38 20 87 21 81 22 80 23
REMARK SMILES IDX 39 25 69 26 50 27 68 28 51 29 54 30 67 31 85 32 52 33 53 34
REMARK SMILES IDX 66 36 86 37 55 38 40 39 41 40 49 41 42 42 48 43 43 44 44 45
REMARK SMILES IDX 45 46 46 47 47 48 70 49 71 50 79 51 72 52 78 53 73 54 74 55
REMARK SMILES IDX 75 56 76 57 77 58 56 59 57 60 65 61 58 62 64 63 59 64 60 65
REMARK SMILES IDX 61 66 62 67 63 68 6 69 7 70 8 71 9 73 10 74 11 75 30 76
REMARK SMILES IDX 12 77 13 78 14 81 15 82 29 83 16 84 18 85 17 86 19 87 20 88
REMARK SMILES IDX 21 89 22 90 27 91 23 92 26 93 28 94 24 95 25 96
REMARK H PARENT 3 6 84 24 54 35 7 72 30 79 30 80
REMARK Flexibility Score: inf
ROOT
ATOM      1  C   UNL A   1      34.345  31.357  27.826  1.00  0.00     0.042 C 
ENDROOT
BRANCH   1   2
ATOM      2  C   UNL A   1      35.614  30.696  28.350  1.00  0.00     0.118 C 
BRANCH   2   3
ATOM      3  N   UNL A   1      35.608  30.569  29.804  1.00  0.00    -0.352 N 
ATOM      4  O   UNL A   1      36.245  29.799  31.817  1.00  0.00    -0.269 OA
ATOM      5  C   UNL A   1      36.556  30.062  30.654  1.00  0.00     0.251 C 
ATOM      6  H   UNL A   1      34.791  30.901  30.244  1.00  0.00     0.163 HD
BRANCH   5   7
ATOM      7  C   UNL A   1      37.937  29.831  30.184  1.00  0.00     0.039 A 
ATOM      8  C   UNL A   1      38.954  29.550  31.098  1.00  0.00     0.014 A 
ATOM      9  C   UNL A   1      38.211  29.833  28.812  1.00  0.00     0.014 A 
ATOM     10  C   UNL A   1      40.264  29.412  30.659  1.00  0.00     0.010 A 
ATOM     11  C   UNL A   1      39.513  29.589  28.364  1.00  0.00     0.010 A 
ATOM     12  C   UNL A   1      40.552  29.392  29.287  1.00  0.00    -0.014 A 
BRANCH  12  13
ATOM     13  C   UNL A   1      41.922  29.036  28.844  1.00  0.00     0.031 A 
ATOM     14  C   UNL A   1      43.018  30.060  28.793  1.00  0.00     0.074 A 
ATOM     15  C   UNL A   1      42.159  27.758  28.485  1.00  0.00     0.049 A 
ATOM     16  N   UNL A   1      44.260  29.909  28.413  1.00  0.00    -0.248 NA
ATOM     17  C   UNL A   1      42.683  31.431  29.215  1.00  0.00     0.031 C 
ATOM     18  C   UNL A   1      41.161  26.682  28.487  1.00  0.00     0.029 A 
ATOM     19  N   UNL A   1      43.305  27.140  28.055  1.00  0.00    -0.354 N 
ATOM     20  C   UNL A   1      44.849  31.163  28.519  1.00  0.00     0.074 A 
ATOM     21  C   UNL A   1      43.825  32.070  28.994  1.00  0.00     0.031 C 
ATOM     22  C   UNL A   1      41.745  25.536  28.113  1.00  0.00     0.029 A 
ATOM     23  C   UNL A   1      43.134  25.807  27.767  1.00  0.00     0.049 A 
ATOM     24  H   UNL A   1      44.167  27.606  27.961  1.00  0.00     0.167 HD
ATOM     25  C   UNL A   1      46.126  31.519  28.242  1.00  0.00     0.031 A 
ATOM     26  C   UNL A   1      43.985  24.905  27.243  1.00  0.00     0.031 A 
ATOM     27  C   UNL A   1      47.133  30.602  27.774  1.00  0.00     0.049 A 
ATOM     28  C   UNL A   1      45.379  25.342  26.905  1.00  0.00     0.074 A 
ATOM     29  C   UNL A   1      48.471  30.852  27.525  1.00  0.00     0.029 A 
ATOM     30  N   UNL A   1      46.914  29.266  27.469  1.00  0.00    -0.354 N 
ATOM     31  N   UNL A   1      45.937  26.516  27.083  1.00  0.00    -0.248 NA
ATOM     32  C   UNL A   1      46.260  24.340  26.292  1.00  0.00     0.031 C 
ATOM     33  C   UNL A   1      49.044  29.690  27.001  1.00  0.00     0.029 A 
ATOM     34  C   UNL A   1      48.079  28.693  26.988  1.00  0.00     0.049 A 
ATOM     35  H   UNL A   1      46.057  28.795  27.579  1.00  0.00     0.167 HD
ATOM     36  C   UNL A   1      47.237  26.391  26.613  1.00  0.00     0.074 A 
ATOM     37  C   UNL A   1      47.392  25.019  26.170  1.00  0.00     0.031 C 
ATOM     38  C   UNL A   1      48.214  27.327  26.548  1.00  0.00     0.031 A 
BRANCH  25  39
ATOM     39  C   UNL A   1      46.512  32.967  28.395  1.00  0.00    -0.014 A 
ATOM     40  C   UNL A   1      46.350  33.887  27.345  1.00  0.00     0.010 A 
ATOM     41  C   UNL A   1      46.960  33.432  29.647  1.00  0.00     0.010 A 
ATOM     42  C   UNL A   1      46.649  35.239  27.537  1.00  0.00     0.020 A 
ATOM     43  C   UNL A   1      47.236  34.786  29.851  1.00  0.00     0.020 A 
ATOM     44  C   UNL A   1      47.088  35.681  28.790  1.00  0.00     0.054 A 
BRANCH  44  45
ATOM     45  S   UNL A   1      47.423  37.449  29.023  1.00  0.00     0.124 S 
ATOM     46  O   UNL A   1      48.883  37.482  29.017  1.00  0.00    -0.237 OA
ATOM     47  O   UNL A   1      46.777  38.052  27.859  1.00  0.00    -0.237 OA
ATOM     48  O   UNL A   1      46.800  37.756  30.308  1.00  0.00    -0.744 OA
ENDBRANCH  44  45
ENDBRANCH  25  39
BRANCH  26  49
ATOM     49  C   UNL A   1      43.515  23.523  26.953  1.00  0.00    -0.014 A 
ATOM     50  C   UNL A   1      43.367  23.072  25.631  1.00  0.00     0.010 A 
ATOM     51  C   UNL A   1      43.217  22.644  28.013  1.00  0.00     0.010 A 
ATOM     52  C   UNL A   1      42.906  21.777  25.374  1.00  0.00     0.020 A 
ATOM     53  C   UNL A   1      42.791  21.339  27.760  1.00  0.00     0.020 A 
ATOM     54  C   UNL A   1      42.620  20.920  26.441  1.00  0.00     0.054 A 
BRANCH  54  55
ATOM     55  S   UNL A   1      42.049  19.237  26.084  1.00  0.00     0.124 S 
ATOM     56  O   UNL A   1      42.792  18.916  24.870  1.00  0.00    -0.237 OA
ATOM     57  O   UNL A   1      42.450  18.505  27.284  1.00  0.00    -0.237 OA
ATOM     58  O   UNL A   1      40.606  19.394  25.913  1.00  0.00    -0.744 OA
ENDBRANCH  54  55
ENDBRANCH  26  49
BRANCH  38  59
ATOM     59  C   UNL A   1      49.544  26.900  25.992  1.00  0.00    -0.014 A 
ATOM     60  C   UNL A   1      49.858  27.096  24.636  1.00  0.00     0.010 A 
ATOM     61  C   UNL A   1      50.516  26.358  26.854  1.00  0.00     0.010 A 
ATOM     62  C   UNL A   1      51.118  26.742  24.147  1.00  0.00     0.020 A 
ATOM     63  C   UNL A   1      51.786  26.032  26.374  1.00  0.00     0.020 A 
ATOM     64  C   UNL A   1      52.076  26.219  25.021  1.00  0.00     0.054 A 
BRANCH  64  65
ATOM     65  S   UNL A   1      53.726  25.835  24.375  1.00  0.00     0.124 S 
ATOM     66  O   UNL A   1      53.534  25.994  22.935  1.00  0.00    -0.237 OA
ATOM     67  O   UNL A   1      54.562  26.850  25.012  1.00  0.00    -0.237 OA
ATOM     68  O   UNL A   1      53.966  24.466  24.824  1.00  0.00    -0.744 OA
ENDBRANCH  64  65
ENDBRANCH  38  59
ENDBRANCH  12  13
ENDBRANCH   5   7
ENDBRANCH   2   3
ENDBRANCH   1   2
BRANCH   1  69
ATOM     69  C   UNL A   1      33.556  30.460  26.886  1.00  0.00     0.118 C 
BRANCH  69  70
ATOM     70  N   UNL A   1      32.770  29.468  27.597  1.00  0.00    -0.351 N 
ATOM     71  C   UNL A   1      31.906  28.491  27.230  1.00  0.00     0.279 C 
ATOM     72  H   UNL A   1      32.893  29.517  28.573  1.00  0.00     0.163 HD
ATOM     73  O   UNL A   1      31.415  27.857  28.175  1.00  0.00    -0.268 OA
BRANCH  71  74
ATOM     74  C   UNL A   1      31.489  28.174  25.771  1.00  0.00     0.283 C 
ATOM     75  C   UNL A   1      31.999  29.085  24.670  1.00  0.00     0.151 C 
ATOM     76  N   UNL A   1      31.990  26.812  25.435  1.00  0.00    -0.321 N 
ATOM     77  S   UNL A   1      31.946  28.114  23.148  1.00  0.00    -0.088 SA
ATOM     78  C   UNL A   1      31.705  26.558  24.024  1.00  0.00     0.274 C 
ATOM     79  H   UNL A   1      31.517  26.117  26.013  1.00  0.00     0.348 HD
ATOM     80  H   UNL A   1      32.993  26.750  25.610  1.00  0.00     0.348 HD
BRANCH  78  81
ATOM     81  C   UNL A   1      32.494  25.357  23.532  1.00  0.00     0.024 A 
ATOM     82  C   UNL A   1      32.475  24.863  22.220  1.00  0.00     0.011 A 
ATOM     83  C   UNL A   1      33.344  24.726  24.465  1.00  0.00     0.057 A 
ATOM     84  C   UNL A   1      33.254  23.760  21.862  1.00  0.00     0.004 A 
ATOM     85  C   UNL A   1      34.162  23.657  24.101  1.00  0.00     0.120 A 
ATOM     86  C   UNL A   1      34.090  23.159  22.802  1.00  0.00     0.046 A 
BRANCH  85  87
ATOM     87  O   UNL A   1      35.116  23.075  24.893  1.00  0.00    -0.489 OA
BRANCH  87  88
ATOM     88  C   UNL A   1      34.702  22.061  25.823  1.00  0.00     0.267 C 
BRANCH  88  89
ATOM     89  C   UNL A   1      34.500  20.670  25.239  1.00  0.00     0.008 A 
ATOM     90  C   UNL A   1      35.589  19.817  24.983  1.00  0.00     0.010 A 
ATOM     91  C   UNL A   1      33.209  20.195  24.943  1.00  0.00     0.049 A 
ATOM     92  C   UNL A   1      35.392  18.519  24.508  1.00  0.00     0.021 A 
ATOM     93  C   UNL A   1      33.010  18.901  24.452  1.00  0.00     0.041 A 
ATOM     94  Cl  UNL A   1      31.810  21.188  25.161  1.00  0.00    -0.084 Cl
ATOM     95  C   UNL A   1      34.104  18.065  24.247  1.00  0.00     0.042 A 
ATOM     96  Cl  UNL A   1      33.865  16.471  23.649  1.00  0.00    -0.084 Cl
ENDBRANCH  88  89
ENDBRANCH  87  88
ENDBRANCH  85  87
ENDBRANCH  78  81
ENDBRANCH  71  74
ENDBRANCH  69  70
ENDBRANCH   1  69
TORSDOF 17
ENDMDL
MODEL 3
REMARK VINA RESULT:      -8.9      1.282      1.985
REMARK SMILES O=C(NCCCNC(=O)[C@H]1CS[C@@H](c2cccc(OCc3ccc(Cl)cc3Cl)c2)[NH2+]1)c1ccc(-c2c3nc(c(-c4ccc(S(=O)(=O)[O-])cc4)c4ccc([nH]4)c(-c4ccc(S(=O)(=O)[O-])cc4)c4nc(c(-c5ccc(S(=O)(=O)[O-])cc5)c5ccc2[nH]5)C=C4)C=C3)cc1
REMARK SMILES IDX 5 1 4 2 3 3 1 4 2 5 31 7 32 8 90 9 33 10 89 11 34 12 35 13
REMARK SMILES IDX 36 14 83 15 37 16 88 17 82 18 84 19 38 20 87 21 81 22 80 23
REMARK SMILES IDX 39 25 69 26 50 27 68 28 51 29 54 30 67 31 85 32 52 33 53 34
REMARK SMILES IDX 66 36 86 37 55 38 40 39 41 40 49 41 42 42 48 43 43 44 44 45
REMARK SMILES IDX 45 46 46 47 47 48 70 49 71 50 79 51 72 52 78 53 73 54 74 55
REMARK SMILES IDX 75 56 76 57 77 58 56 59 57 60 65 61 58 62 64 63 59 64 60 65
REMARK SMILES IDX 61 66 62 67 63 68 6 69 7 70 8 71 9 73 10 74 11 75 30 76
REMARK SMILES IDX 12 77 13 78 14 81 15 82 29 83 16 84 18 85 17 86 19 87 20 88
REMARK SMILES IDX 21 89 22 90 27 91 23 92 26 93 28 94 24 95 25 96
REMARK H PARENT 3 6 84 24 54 35 7 72 30 79 30 80
REMARK Flexibility Score: inf
ROOT
ATOM      1  C   UNL A   1      42.183  22.314  25.740  1.00  0.00     0.042 C 
ENDROOT
BRANCH   1   2
ATOM      2  C   UNL A   1      41.066  21.752  26.611  1.00  0.00     0.118 C 
BRANCH   2   3
ATOM      3  N   UNL A   1      39.747  21.977  26.025  1.00  0.00    -0.352 N 
ATOM      4  O   UNL A   1      37.691  22.864  25.837  1.00  0.00    -0.269 OA
ATOM      5  C   UNL A   1      38.856  22.999  26.218  1.00  0.00     0.251 C 
ATOM      6  H   UNL A   1      39.453  21.283  25.391  1.00  0.00     0.163 HD
BRANCH   5   7
ATOM      7  C   UNL A   1      39.280  24.252  26.875  1.00  0.00     0.039 A 
ATOM      8  C   UNL A   1      39.032  24.454  28.233  1.00  0.00     0.014 A 
ATOM      9  C   UNL A   1      39.990  25.211  26.144  1.00  0.00     0.014 A 
ATOM     10  C   UNL A   1      39.361  25.665  28.827  1.00  0.00     0.010 A 
ATOM     11  C   UNL A   1      40.415  26.386  26.771  1.00  0.00     0.010 A 
ATOM     12  C   UNL A   1      40.089  26.627  28.115  1.00  0.00    -0.014 A 
BRANCH  12  13
ATOM     13  C   UNL A   1      40.607  27.817  28.833  1.00  0.00     0.031 A 
ATOM     14  C   UNL A   1      41.982  27.831  29.434  1.00  0.00     0.074 A 
ATOM     15  C   UNL A   1      39.802  28.895  28.935  1.00  0.00     0.049 A 
ATOM     16  N   UNL A   1      42.570  28.787  30.106  1.00  0.00    -0.248 NA
ATOM     17  C   UNL A   1      42.804  26.621  29.268  1.00  0.00     0.031 C 
ATOM     18  C   UNL A   1      38.440  28.985  28.395  1.00  0.00     0.029 A 
ATOM     19  N   UNL A   1      40.005  30.121  29.516  1.00  0.00    -0.354 N 
ATOM     20  C   UNL A   1      43.816  28.289  30.469  1.00  0.00     0.074 A 
ATOM     21  C   UNL A   1      43.897  26.940  29.950  1.00  0.00     0.031 C 
ATOM     22  C   UNL A   1      37.947  30.206  28.639  1.00  0.00     0.029 A 
ATOM     23  C   UNL A   1      38.919  30.958  29.421  1.00  0.00     0.049 A 
ATOM     24  H   UNL A   1      40.847  30.376  29.958  1.00  0.00     0.167 HD
ATOM     25  C   UNL A   1      44.794  28.905  31.175  1.00  0.00     0.031 A 
ATOM     26  C   UNL A   1      38.707  32.183  29.938  1.00  0.00     0.031 A 
ATOM     27  C   UNL A   1      44.696  30.250  31.681  1.00  0.00     0.049 A 
ATOM     28  C   UNL A   1      39.794  32.819  30.753  1.00  0.00     0.074 A 
ATOM     29  C   UNL A   1      45.657  30.985  32.353  1.00  0.00     0.029 A 
ATOM     30  N   UNL A   1      43.570  31.056  31.588  1.00  0.00    -0.354 N 
ATOM     31  N   UNL A   1      40.992  32.359  31.022  1.00  0.00    -0.248 NA
ATOM     32  C   UNL A   1      39.503  34.133  31.338  1.00  0.00     0.031 C 
ATOM     33  C   UNL A   1      45.090  32.205  32.731  1.00  0.00     0.029 A 
ATOM     34  C   UNL A   1      43.797  32.260  32.233  1.00  0.00     0.049 A 
ATOM     35  H   UNL A   1      42.735  30.808  31.132  1.00  0.00     0.167 HD
ATOM     36  C   UNL A   1      41.603  33.334  31.800  1.00  0.00     0.074 A 
ATOM     37  C   UNL A   1      40.652  34.420  31.934  1.00  0.00     0.031 C 
ATOM     38  C   UNL A   1      42.837  33.328  32.359  1.00  0.00     0.031 A 
BRANCH  25  39
ATOM     39  C   UNL A   1      46.047  28.128  31.483  1.00  0.00    -0.014 A 
ATOM     40  C   UNL A   1      47.180  28.199  30.655  1.00  0.00     0.010 A 
ATOM     41  C   UNL A   1      46.120  27.385  32.678  1.00  0.00     0.010 A 
ATOM     42  C   UNL A   1      48.354  27.524  31.003  1.00  0.00     0.020 A 
ATOM     43  C   UNL A   1      47.299  26.729  33.042  1.00  0.00     0.020 A 
ATOM     44  C   UNL A   1      48.407  26.795  32.196  1.00  0.00     0.054 A 
BRANCH  44  45
ATOM     45  S   UNL A   1      49.959  25.969  32.644  1.00  0.00     0.124 S 
ATOM     46  O   UNL A   1      50.802  26.267  31.490  1.00  0.00    -0.237 OA
ATOM     47  O   UNL A   1      50.332  26.644  33.885  1.00  0.00    -0.237 OA
ATOM     48  O   UNL A   1      49.579  24.566  32.791  1.00  0.00    -0.744 OA
ENDBRANCH  44  45
ENDBRANCH  25  39
BRANCH  26  49
ATOM     49  C   UNL A   1      37.390  32.849  29.749  1.00  0.00    -0.014 A 
ATOM     50  C   UNL A   1      37.094  33.543  28.564  1.00  0.00     0.010 A 
ATOM     51  C   UNL A   1      36.416  32.785  30.765  1.00  0.00     0.010 A 
ATOM     52  C   UNL A   1      35.860  34.181  28.407  1.00  0.00     0.020 A 
ATOM     53  C   UNL A   1      35.170  33.390  30.598  1.00  0.00     0.020 A 
ATOM     54  C   UNL A   1      34.906  34.101  29.427  1.00  0.00     0.054 A 
BRANCH  54  55
ATOM     55  S   UNL A   1      33.302  34.914  29.193  1.00  0.00     0.124 S 
ATOM     56  O   UNL A   1      32.746  34.879  30.541  1.00  0.00    -0.237 OA
ATOM     57  O   UNL A   1      33.687  36.235  28.700  1.00  0.00    -0.237 OA
ATOM     58  O   UNL A   1      32.628  34.065  28.213  1.00  0.00    -0.744 OA
ENDBRANCH  54  55
ENDBRANCH  26  49
BRANCH  38  59
ATOM     59  C   UNL A   1      43.240  34.539  33.154  1.00  0.00    -0.014 A 
ATOM     60  C   UNL A   1      43.037  34.592  34.544  1.00  0.00     0.010 A 
ATOM     61  C   UNL A   1      43.892  35.608  32.512  1.00  0.00     0.010 A 
ATOM     62  C   UNL A   1      43.465  35.703  35.277  1.00  0.00     0.020 A 
ATOM     63  C   UNL A   1      44.348  36.705  33.245  1.00  0.00     0.020 A 
ATOM     64  C   UNL A   1      44.124  36.748  34.623  1.00  0.00     0.054 A 
BRANCH  64  65
ATOM     65  S   UNL A   1      44.733  38.144  35.608  1.00  0.00     0.124 S 
ATOM     66  O   UNL A   1      43.995  39.266  35.033  1.00  0.00    -0.237 OA
ATOM     67  O   UNL A   1      44.347  37.768  36.966  1.00  0.00    -0.237 OA
ATOM     68  O   UNL A   1      46.171  38.148  35.354  1.00  0.00    -0.744 OA
ENDBRANCH  64  65
ENDBRANCH  38  59
ENDBRANCH  12  13
ENDBRANCH   5   7
ENDBRANCH   2   3
ENDBRANCH   1   2
BRANCH   1  69
ATOM     69  C   UNL A   1      43.550  21.749  26.095  1.00  0.00     0.118 C 
BRANCH  69  70
ATOM     70  N   UNL A   1      44.130  22.394  27.259  1.00  0.00    -0.351 N 
ATOM     71  C   UNL A   1      44.700  23.600  27.498  1.00  0.00     0.279 C 
ATOM     72  H   UNL A   1      44.102  21.824  28.061  1.00  0.00     0.163 HD
ATOM     73  O   UNL A   1      45.099  23.758  28.660  1.00  0.00    -0.268 OA
BRANCH  71  74
ATOM     74  C   UNL A   1      44.907  24.712  26.438  1.00  0.00     0.283 C 
ATOM     75  C   UNL A   1      43.681  25.439  25.918  1.00  0.00     0.151 C 
ATOM     76  N   UNL A   1      45.779  25.761  27.036  1.00  0.00    -0.321 N 
ATOM     77  S   UNL A   1      44.266  27.030  25.296  1.00  0.00    -0.088 SA
ATOM     78  C   UNL A   1      45.878  26.867  26.085  1.00  0.00     0.274 C 
ATOM     79  H   UNL A   1      46.707  25.378  27.218  1.00  0.00     0.348 HD
ATOM     80  H   UNL A   1      45.384  26.088  27.918  1.00  0.00     0.348 HD
BRANCH  78  81
ATOM     81  C   UNL A   1      46.445  28.101  26.764  1.00  0.00     0.024 A 
ATOM     82  C   UNL A   1      47.810  28.407  26.868  1.00  0.00     0.011 A 
ATOM     83  C   UNL A   1      45.517  29.027  27.286  1.00  0.00     0.057 A 
ATOM     84  C   UNL A   1      48.231  29.581  27.497  1.00  0.00     0.004 A 
ATOM     85  C   UNL A   1      45.930  30.223  27.870  1.00  0.00     0.120 A 
ATOM     86  C   UNL A   1      47.293  30.481  28.000  1.00  0.00     0.046 A 
BRANCH  85  87
ATOM     87  O   UNL A   1      45.107  31.240  28.275  1.00  0.00    -0.489 OA
BRANCH  87  88
ATOM     88  C   UNL A   1      45.702  32.392  28.894  1.00  0.00     0.267 C 
BRANCH  88  89
ATOM     89  C   UNL A   1      44.897  33.681  28.806  1.00  0.00     0.008 A 
ATOM     90  C   UNL A   1      43.495  33.665  28.698  1.00  0.00     0.010 A 
ATOM     91  C   UNL A   1      45.540  34.933  28.834  1.00  0.00     0.049 A 
ATOM     92  C   UNL A   1      42.759  34.852  28.682  1.00  0.00     0.021 A 
ATOM     93  C   UNL A   1      44.807  36.122  28.802  1.00  0.00     0.041 A 
ATOM     94  Cl  UNL A   1      47.264  35.061  28.901  1.00  0.00    -0.084 Cl
ATOM     95  C   UNL A   1      43.418  36.075  28.737  1.00  0.00     0.042 A 
ATOM     96  Cl  UNL A   1      42.510  37.535  28.702  1.00  0.00    -0.084 Cl
ENDBRANCH  88  89
ENDBRANCH  87  88
ENDBRANCH  85  87
ENDBRANCH  78  81
ENDBRANCH  71  74
ENDBRANCH  69  70
ENDBRANCH   1  69
TORSDOF 17
ENDMDL
