MODEL 1
REMARK VINA RESULT:     -12.5      0.000      0.000
REMARK SMILES Cn1cc(-c2cc(C(F)(F)F)c3c(C4CC4)nn(CC(=O)NCCCNC(=O)c4ccc(-c5c6nc(c(-c7ccc(S(=O)(=O)[O-])cc7)c7ccc([nH]7)c(-c7ccc(S(=O)(=O)[O-])cc7)c7nc(c(-c8ccc(S(=O)(=O)[O-])cc8)c8ccc5[nH]8)C=C7)C=C6)cc4)c3n2)cn1
REMARK SMILES IDX 24 1 23 2 22 3 20 4 21 5 19 7 18 8 5 9 6 10 90 11 7 12 89 13
REMARK SMILES IDX 12 14 13 15 17 16 4 17 1 18 2 19 3 20 92 21 91 22 8 23 9 24
REMARK SMILES IDX 10 25 11 26 14 27 15 28 16 29 25 30 26 31 27 32 28 34 29 35
REMARK SMILES IDX 30 36 88 37 31 38 87 39 32 40 33 41 34 42 81 43 35 44 86 45
REMARK SMILES IDX 80 46 82 47 36 48 85 49 79 50 78 51 37 53 67 54 48 55 66 56
REMARK SMILES IDX 49 57 52 58 65 59 83 60 50 61 51 62 64 64 84 65 53 66 38 67
REMARK SMILES IDX 39 68 47 69 40 70 46 71 41 72 42 73 43 74 44 75 45 76 68 77
REMARK SMILES IDX 69 78 77 79 70 80 76 81 71 82 72 83 73 84 74 85 75 86 54 87
REMARK SMILES IDX 55 88 63 89 56 90 62 91 57 92 58 93 59 94 60 95 61 96
REMARK H PARENT 22 6 26 33 82 52 52 63
REMARK Flexibility Score: inf
ROOT
ATOM      1  C   UNL A   1      39.270  21.693  26.028  1.00  0.00     0.042 C 
ENDROOT
BRANCH   1   2
ATOM      2  C   UNL A   1      38.060  22.592  25.770  1.00  0.00     0.117 C 
BRANCH   2   3
ATOM      3  N   UNL A   1      36.833  22.080  26.355  1.00  0.00    -0.354 N 
ATOM      4  C   UNL A   1      35.587  22.104  25.793  1.00  0.00     0.241 C 
ATOM      5  O   UNL A   1      34.644  21.554  26.363  1.00  0.00    -0.273 OA
ATOM      6  H   UNL A   1      36.907  21.673  27.248  1.00  0.00     0.163 HD
BRANCH   4   7
ATOM      7  C   UNL A   1      35.439  22.726  24.443  1.00  0.00     0.246 C 
BRANCH   7   8
ATOM      8  N   UNL A   1      35.021  24.112  24.493  1.00  0.00    -0.237 N 
ATOM      9  C   UNL A   1      32.853  24.504  21.970  1.00  0.00     0.077 A 
ATOM     10  C   UNL A   1      32.481  25.843  22.076  1.00  0.00     0.043 A 
ATOM     11  N   UNL A   1      34.129  24.168  22.267  1.00  0.00    -0.228 NA
ATOM     12  C   UNL A   1      33.243  26.693  22.917  1.00  0.00     0.071 A 
ATOM     13  C   UNL A   1      34.456  24.752  23.434  1.00  0.00     0.159 A 
ATOM     14  C   UNL A   1      33.963  25.966  23.883  1.00  0.00     0.055 A 
ATOM     15  C   UNL A   1      34.129  25.871  25.293  1.00  0.00     0.076 A 
ATOM     16  N   UNL A   1      34.846  24.789  25.650  1.00  0.00    -0.175 NA
BRANCH   9  17
ATOM     17  C   UNL A   1      31.991  23.421  22.519  1.00  0.00     0.038 A 
ATOM     18  C   UNL A   1      31.295  22.512  25.901  1.00  0.00     0.173 C 
ATOM     19  N   UNL A   1      31.366  22.527  24.450  1.00  0.00    -0.275 N 
ATOM     20  C   UNL A   1      31.220  23.640  23.660  1.00  0.00     0.118 A 
ATOM     21  N   UNL A   1      31.928  21.497  23.790  1.00  0.00    -0.181 NA
ATOM     22  C   UNL A   1      32.372  22.059  22.658  1.00  0.00     0.145 A 
ENDBRANCH   9  17
BRANCH  12  23
ATOM     23  C   UNL A   1      33.476  28.143  22.599  1.00  0.00     0.417 C 
ATOM     24  F   UNL A   1      32.382  28.940  22.639  1.00  0.00    -0.166 F 
ATOM     25  F   UNL A   1      34.370  28.706  23.464  1.00  0.00    -0.166 F 
ATOM     26  F   UNL A   1      34.014  28.328  21.359  1.00  0.00    -0.166 F 
ENDBRANCH  12  23
BRANCH  15  27
ATOM     27  C   UNL A   1      33.384  26.618  26.401  1.00  0.00     0.041 C 
ATOM     28  C   UNL A   1      32.732  27.967  26.254  1.00  0.00     0.011 C 
ATOM     29  C   UNL A   1      31.871  26.754  26.282  1.00  0.00     0.011 C 
ENDBRANCH  15  27
ENDBRANCH   7   8
ENDBRANCH   4   7
ENDBRANCH   2   3
ENDBRANCH   1   2
BRANCH   1  30
ATOM     30  C   UNL A   1      40.206  22.330  27.020  1.00  0.00     0.118 C 
BRANCH  30  31
ATOM     31  N   UNL A   1      41.599  22.128  26.630  1.00  0.00    -0.352 N 
ATOM     32  C   UNL A   1      42.548  23.078  26.327  1.00  0.00     0.251 C 
ATOM     33  H   UNL A   1      41.898  21.192  26.577  1.00  0.00     0.163 HD
ATOM     34  O   UNL A   1      43.566  22.773  25.733  1.00  0.00    -0.269 OA
BRANCH  32  35
ATOM     35  C   UNL A   1      42.292  24.458  26.762  1.00  0.00     0.039 A 
ATOM     36  C   UNL A   1      41.625  25.364  25.940  1.00  0.00     0.014 A 
ATOM     37  C   UNL A   1      42.724  24.818  28.037  1.00  0.00     0.014 A 
ATOM     38  C   UNL A   1      41.387  26.639  26.435  1.00  0.00     0.010 A 
ATOM     39  C   UNL A   1      42.295  25.980  28.600  1.00  0.00     0.010 A 
ATOM     40  C   UNL A   1      41.734  26.927  27.765  1.00  0.00    -0.014 A 
BRANCH  40  41
ATOM     41  C   UNL A   1      41.459  28.212  28.368  1.00  0.00     0.031 A 
ATOM     42  C   UNL A   1      42.500  29.214  28.075  1.00  0.00     0.074 A 
ATOM     43  C   UNL A   1      40.280  28.503  28.954  1.00  0.00     0.049 A 
ATOM     44  N   UNL A   1      43.492  29.524  28.836  1.00  0.00    -0.248 NA
ATOM     45  C   UNL A   1      42.584  29.775  26.715  1.00  0.00     0.031 C 
ATOM     46  C   UNL A   1      39.057  27.686  29.012  1.00  0.00     0.029 A 
ATOM     47  N   UNL A   1      39.898  29.649  29.569  1.00  0.00    -0.354 N 
ATOM     48  C   UNL A   1      44.154  30.541  28.167  1.00  0.00     0.074 A 
ATOM     49  C   UNL A   1      43.720  30.476  26.794  1.00  0.00     0.031 C 
ATOM     50  C   UNL A   1      38.019  28.443  29.440  1.00  0.00     0.029 A 
ATOM     51  C   UNL A   1      38.541  29.728  29.865  1.00  0.00     0.049 A 
ATOM     52  H   UNL A   1      40.532  30.371  29.788  1.00  0.00     0.167 HD
ATOM     53  C   UNL A   1      44.721  31.564  28.860  1.00  0.00     0.031 A 
ATOM     54  C   UNL A   1      37.913  30.764  30.475  1.00  0.00     0.031 A 
ATOM     55  C   UNL A   1      44.694  31.317  30.279  1.00  0.00     0.049 A 
ATOM     56  C   UNL A   1      38.958  31.459  31.264  1.00  0.00     0.074 A 
ATOM     57  C   UNL A   1      45.403  30.542  31.170  1.00  0.00     0.029 A 
ATOM     58  N   UNL A   1      43.483  31.607  30.861  1.00  0.00    -0.354 N 
ATOM     59  N   UNL A   1      39.589  30.896  32.259  1.00  0.00    -0.248 NA
ATOM     60  C   UNL A   1      39.585  32.659  30.722  1.00  0.00     0.031 C 
ATOM     61  C   UNL A   1      44.499  30.225  32.230  1.00  0.00     0.029 A 
ATOM     62  C   UNL A   1      43.281  30.859  31.993  1.00  0.00     0.049 A 
ATOM     63  H   UNL A   1      42.841  32.266  30.510  1.00  0.00     0.167 HD
ATOM     64  C   UNL A   1      40.869  31.410  32.185  1.00  0.00     0.074 A 
ATOM     65  C   UNL A   1      40.764  32.596  31.344  1.00  0.00     0.031 C 
ATOM     66  C   UNL A   1      41.954  30.669  32.545  1.00  0.00     0.031 A 
BRANCH  53  67
ATOM     67  C   UNL A   1      44.831  32.958  28.308  1.00  0.00    -0.014 A 
ATOM     68  C   UNL A   1      46.092  33.571  28.209  1.00  0.00     0.010 A 
ATOM     69  C   UNL A   1      43.695  33.772  28.104  1.00  0.00     0.010 A 
ATOM     70  C   UNL A   1      46.207  34.931  27.890  1.00  0.00     0.020 A 
ATOM     71  C   UNL A   1      43.800  35.116  27.751  1.00  0.00     0.020 A 
ATOM     72  C   UNL A   1      45.059  35.691  27.651  1.00  0.00     0.054 A 
BRANCH  72  73
ATOM     73  S   UNL A   1      45.223  37.451  27.264  1.00  0.00     0.124 S 
ATOM     74  O   UNL A   1      46.249  37.448  26.227  1.00  0.00    -0.237 OA
ATOM     75  O   UNL A   1      43.873  37.790  26.819  1.00  0.00    -0.237 OA
ATOM     76  O   UNL A   1      45.622  38.048  28.536  1.00  0.00    -0.744 OA
ENDBRANCH  72  73
ENDBRANCH  53  67
BRANCH  54  77
ATOM     77  C   UNL A   1      36.639  31.429  30.100  1.00  0.00    -0.014 A 
ATOM     78  C   UNL A   1      35.875  32.072  31.097  1.00  0.00     0.010 A 
ATOM     79  C   UNL A   1      36.355  31.738  28.755  1.00  0.00     0.010 A 
ATOM     80  C   UNL A   1      34.959  33.082  30.769  1.00  0.00     0.020 A 
ATOM     81  C   UNL A   1      35.431  32.741  28.421  1.00  0.00     0.020 A 
ATOM     82  C   UNL A   1      34.774  33.440  29.433  1.00  0.00     0.054 A 
BRANCH  82  83
ATOM     83  S   UNL A   1      33.762  34.900  29.045  1.00  0.00     0.124 S 
ATOM     84  O   UNL A   1      32.600  34.311  28.385  1.00  0.00    -0.237 OA
ATOM     85  O   UNL A   1      33.517  35.465  30.368  1.00  0.00    -0.237 OA
ATOM     86  O   UNL A   1      34.627  35.699  28.178  1.00  0.00    -0.744 OA
ENDBRANCH  82  83
ENDBRANCH  54  77
BRANCH  66  87
ATOM     87  C   UNL A   1      41.745  29.526  33.500  1.00  0.00    -0.014 A 
ATOM     88  C   UNL A   1      41.595  28.178  33.125  1.00  0.00     0.010 A 
ATOM     89  C   UNL A   1      41.809  29.846  34.866  1.00  0.00     0.010 A 
ATOM     90  C   UNL A   1      41.522  27.173  34.108  1.00  0.00     0.020 A 
ATOM     91  C   UNL A   1      41.751  28.854  35.843  1.00  0.00     0.020 A 
ATOM     92  C   UNL A   1      41.613  27.521  35.462  1.00  0.00     0.054 A 
BRANCH  92  93
ATOM     93  S   UNL A   1      41.566  26.223  36.733  1.00  0.00     0.124 S 
ATOM     94  O   UNL A   1      40.526  26.697  37.642  1.00  0.00    -0.237 OA
ATOM     95  O   UNL A   1      41.231  25.032  35.958  1.00  0.00    -0.237 OA
ATOM     96  O   UNL A   1      42.919  26.232  37.289  1.00  0.00    -0.744 OA
ENDBRANCH  92  93
ENDBRANCH  66  87
ENDBRANCH  40  41
ENDBRANCH  32  35
ENDBRANCH  30  31
ENDBRANCH   1  30
TORSDOF 17
ENDMDL
MODEL 2
REMARK VINA RESULT:     -12.4      3.151      9.345
REMARK SMILES Cn1cc(-c2cc(C(F)(F)F)c3c(C4CC4)nn(CC(=O)NCCCNC(=O)c4ccc(-c5c6nc(c(-c7ccc(S(=O)(=O)[O-])cc7)c7ccc([nH]7)c(-c7ccc(S(=O)(=O)[O-])cc7)c7nc(c(-c8ccc(S(=O)(=O)[O-])cc8)c8ccc5[nH]8)C=C7)C=C6)cc4)c3n2)cn1
REMARK SMILES IDX 24 1 23 2 22 3 20 4 21 5 19 7 18 8 5 9 6 10 90 11 7 12 89 13
REMARK SMILES IDX 12 14 13 15 17 16 4 17 1 18 2 19 3 20 92 21 91 22 8 23 9 24
REMARK SMILES IDX 10 25 11 26 14 27 15 28 16 29 25 30 26 31 27 32 28 34 29 35
REMARK SMILES IDX 30 36 88 37 31 38 87 39 32 40 33 41 34 42 81 43 35 44 86 45
REMARK SMILES IDX 80 46 82 47 36 48 85 49 79 50 78 51 37 53 67 54 48 55 66 56
REMARK SMILES IDX 49 57 52 58 65 59 83 60 50 61 51 62 64 64 84 65 53 66 38 67
REMARK SMILES IDX 39 68 47 69 40 70 46 71 41 72 42 73 43 74 44 75 45 76 68 77
REMARK SMILES IDX 69 78 77 79 70 80 76 81 71 82 72 83 73 84 74 85 75 86 54 87
REMARK SMILES IDX 55 88 63 89 56 90 62 91 57 92 58 93 59 94 60 95 61 96
REMARK H PARENT 22 6 26 33 82 52 52 63
REMARK Flexibility Score: inf
ROOT
ATOM      1  C   UNL A   1      33.656  31.246  27.631  1.00  0.00     0.042 C 
ENDROOT
BRANCH   1   2
ATOM      2  C   UNL A   1      34.162  29.924  27.051  1.00  0.00     0.117 C 
BRANCH   2   3
ATOM      3  N   UNL A   1      33.937  29.804  25.621  1.00  0.00    -0.354 N 
ATOM      4  C   UNL A   1      33.098  28.924  24.995  1.00  0.00     0.241 C 
ATOM      5  O   UNL A   1      32.935  28.989  23.776  1.00  0.00    -0.273 OA
ATOM      6  H   UNL A   1      34.440  30.422  25.042  1.00  0.00     0.163 HD
BRANCH   4   7
ATOM      7  C   UNL A   1      32.330  27.965  25.845  1.00  0.00     0.246 C 
BRANCH   7   8
ATOM      8  N   UNL A   1      33.003  26.695  26.028  1.00  0.00    -0.237 N 
ATOM      9  C   UNL A   1      30.600  24.364  25.919  1.00  0.00     0.077 A 
ATOM     10  C   UNL A   1      31.305  23.174  26.089  1.00  0.00     0.043 A 
ATOM     11  N   UNL A   1      31.024  25.460  26.588  1.00  0.00    -0.228 NA
ATOM     12  C   UNL A   1      32.652  23.240  26.525  1.00  0.00     0.071 A 
ATOM     13  C   UNL A   1      32.355  25.566  26.421  1.00  0.00     0.159 A 
ATOM     14  C   UNL A   1      33.225  24.499  26.266  1.00  0.00     0.055 A 
ATOM     15  C   UNL A   1      34.328  25.089  25.589  1.00  0.00     0.076 A 
ATOM     16  N   UNL A   1      34.229  26.430  25.524  1.00  0.00    -0.175 NA
BRANCH   9  17
ATOM     17  C   UNL A   1      30.187  24.827  24.566  1.00  0.00     0.038 A 
ATOM     18  C   UNL A   1      32.153  25.991  21.823  1.00  0.00     0.173 C 
ATOM     19  N   UNL A   1      31.040  25.645  22.689  1.00  0.00    -0.275 N 
ATOM     20  C   UNL A   1      30.949  24.502  23.444  1.00  0.00     0.118 A 
ATOM     21  N   UNL A   1      30.168  26.592  23.081  1.00  0.00    -0.181 NA
ATOM     22  C   UNL A   1      29.712  26.130  24.252  1.00  0.00     0.145 A 
ENDBRANCH   9  17
BRANCH  12  23
ATOM     23  C   UNL A   1      33.261  22.199  27.420  1.00  0.00     0.417 C 
ATOM     24  F   UNL A   1      32.629  21.989  28.599  1.00  0.00    -0.166 F 
ATOM     25  F   UNL A   1      33.307  20.980  26.808  1.00  0.00    -0.166 F 
ATOM     26  F   UNL A   1      34.555  22.481  27.749  1.00  0.00    -0.166 F 
ENDBRANCH  12  23
BRANCH  15  27
ATOM     27  C   UNL A   1      35.387  24.419  24.712  1.00  0.00     0.041 C 
ATOM     28  C   UNL A   1      35.609  22.935  24.596  1.00  0.00     0.011 C 
ATOM     29  C   UNL A   1      34.918  23.644  23.486  1.00  0.00     0.011 C 
ENDBRANCH  15  27
ENDBRANCH   7   8
ENDBRANCH   4   7
ENDBRANCH   2   3
ENDBRANCH   1   2
BRANCH   1  30
ATOM     30  C   UNL A   1      34.808  32.106  28.081  1.00  0.00     0.118 C 
BRANCH  30  31
ATOM     31  N   UNL A   1      34.629  32.536  29.466  1.00  0.00    -0.352 N 
ATOM     32  C   UNL A   1      35.279  32.083  30.592  1.00  0.00     0.251 C 
ATOM     33  H   UNL A   1      33.958  33.240  29.612  1.00  0.00     0.163 HD
ATOM     34  O   UNL A   1      34.829  32.305  31.701  1.00  0.00    -0.269 OA
BRANCH  32  35
ATOM     35  C   UNL A   1      36.534  31.343  30.401  1.00  0.00     0.039 A 
ATOM     36  C   UNL A   1      37.760  32.002  30.329  1.00  0.00     0.014 A 
ATOM     37  C   UNL A   1      36.451  29.954  30.318  1.00  0.00     0.014 A 
ATOM     38  C   UNL A   1      38.906  31.232  30.185  1.00  0.00     0.010 A 
ATOM     39  C   UNL A   1      37.579  29.198  30.405  1.00  0.00     0.010 A 
ATOM     40  C   UNL A   1      38.792  29.832  30.221  1.00  0.00    -0.014 A 
BRANCH  40  41
ATOM     41  C   UNL A   1      39.948  28.967  30.142  1.00  0.00     0.031 A 
ATOM     42  C   UNL A   1      40.558  28.707  31.459  1.00  0.00     0.074 A 
ATOM     43  C   UNL A   1      40.291  28.314  29.013  1.00  0.00     0.049 A 
ATOM     44  N   UNL A   1      41.565  29.330  31.966  1.00  0.00    -0.248 NA
ATOM     45  C   UNL A   1      39.856  27.824  32.406  1.00  0.00     0.031 C 
ATOM     46  C   UNL A   1      39.564  28.245  27.735  1.00  0.00     0.029 A 
ATOM     47  N   UNL A   1      41.349  27.494  28.796  1.00  0.00    -0.354 N 
ATOM     48  C   UNL A   1      41.803  28.703  33.178  1.00  0.00     0.074 A 
ATOM     49  C   UNL A   1      40.599  27.981  33.506  1.00  0.00     0.031 C 
ATOM     50  C   UNL A   1      40.093  27.270  26.958  1.00  0.00     0.029 A 
ATOM     51  C   UNL A   1      41.301  26.786  27.599  1.00  0.00     0.049 A 
ATOM     52  H   UNL A   1      42.093  27.406  29.435  1.00  0.00     0.167 HD
ATOM     53  C   UNL A   1      43.074  28.538  33.630  1.00  0.00     0.031 A 
ATOM     54  C   UNL A   1      42.231  25.906  27.152  1.00  0.00     0.031 A 
ATOM     55  C   UNL A   1      44.020  29.246  32.806  1.00  0.00     0.049 A 
ATOM     56  C   UNL A   1      43.499  26.288  27.819  1.00  0.00     0.074 A 
ATOM     57  C   UNL A   1      44.423  30.554  32.649  1.00  0.00     0.029 A 
ATOM     58  N   UNL A   1      44.352  28.575  31.653  1.00  0.00    -0.354 N 
ATOM     59  N   UNL A   1      44.088  27.437  27.621  1.00  0.00    -0.248 NA
ATOM     60  C   UNL A   1      43.934  25.555  29.002  1.00  0.00     0.031 C 
ATOM     61  C   UNL A   1      44.842  30.683  31.289  1.00  0.00     0.029 A 
ATOM     62  C   UNL A   1      44.740  29.441  30.664  1.00  0.00     0.049 A 
ATOM     63  H   UNL A   1      44.315  27.596  31.550  1.00  0.00     0.167 HD
ATOM     64  C   UNL A   1      44.638  27.753  28.849  1.00  0.00     0.074 A 
ATOM     65  C   UNL A   1      44.659  26.504  29.599  1.00  0.00     0.031 C 
ATOM     66  C   UNL A   1      44.739  29.045  29.270  1.00  0.00     0.031 A 
BRANCH  53  67
ATOM     67  C   UNL A   1      43.492  27.368  34.475  1.00  0.00    -0.014 A 
ATOM     68  C   UNL A   1      43.754  27.556  35.843  1.00  0.00     0.010 A 
ATOM     69  C   UNL A   1      43.864  26.130  33.906  1.00  0.00     0.010 A 
ATOM     70  C   UNL A   1      44.335  26.536  36.611  1.00  0.00     0.020 A 
ATOM     71  C   UNL A   1      44.408  25.098  34.669  1.00  0.00     0.020 A 
ATOM     72  C   UNL A   1      44.646  25.309  36.019  1.00  0.00     0.054 A 
BRANCH  72  73
ATOM     73  S   UNL A   1      45.418  24.011  37.017  1.00  0.00     0.124 S 
ATOM     74  O   UNL A   1      44.938  22.795  36.369  1.00  0.00    -0.237 OA
ATOM     75  O   UNL A   1      46.839  24.303  36.845  1.00  0.00    -0.237 OA
ATOM     76  O   UNL A   1      44.895  24.252  38.359  1.00  0.00    -0.744 OA
ENDBRANCH  72  73
ENDBRANCH  53  67
BRANCH  54  77
ATOM     77  C   UNL A   1      42.028  24.558  26.562  1.00  0.00    -0.014 A 
ATOM     78  C   UNL A   1      43.088  23.941  25.865  1.00  0.00     0.010 A 
ATOM     79  C   UNL A   1      40.954  23.745  26.974  1.00  0.00     0.010 A 
ATOM     80  C   UNL A   1      43.138  22.549  25.705  1.00  0.00     0.020 A 
ATOM     81  C   UNL A   1      40.992  22.352  26.807  1.00  0.00     0.020 A 
ATOM     82  C   UNL A   1      42.108  21.758  26.215  1.00  0.00     0.054 A 
BRANCH  82  83
ATOM     83  S   UNL A   1      42.298  19.949  26.204  1.00  0.00     0.124 S 
ATOM     84  O   UNL A   1      43.610  19.775  25.586  1.00  0.00    -0.237 OA
ATOM     85  O   UNL A   1      42.220  19.624  27.625  1.00  0.00    -0.237 OA
ATOM     86  O   UNL A   1      41.168  19.489  25.398  1.00  0.00    -0.744 OA
ENDBRANCH  82  83
ENDBRANCH  54  77
BRANCH  66  87
ATOM     87  C   UNL A   1      44.757  30.129  28.228  1.00  0.00    -0.014 A 
ATOM     88  C   UNL A   1      43.629  30.594  27.527  1.00  0.00     0.010 A 
ATOM     89  C   UNL A   1      45.989  30.776  28.033  1.00  0.00     0.010 A 
ATOM     90  C   UNL A   1      43.739  31.695  26.657  1.00  0.00     0.020 A 
ATOM     91  C   UNL A   1      46.101  31.874  27.183  1.00  0.00     0.020 A 
ATOM     92  C   UNL A   1      44.975  32.334  26.502  1.00  0.00     0.054 A 
BRANCH  92  93
ATOM     93  S   UNL A   1      45.113  33.784  25.416  1.00  0.00     0.124 S 
ATOM     94  O   UNL A   1      44.450  33.338  24.193  1.00  0.00    -0.237 OA
ATOM     95  O   UNL A   1      44.410  34.815  26.175  1.00  0.00    -0.237 OA
ATOM     96  O   UNL A   1      46.556  33.991  25.292  1.00  0.00    -0.744 OA
ENDBRANCH  92  93
ENDBRANCH  66  87
ENDBRANCH  40  41
ENDBRANCH  32  35
ENDBRANCH  30  31
ENDBRANCH   1  30
TORSDOF 17
ENDMDL
MODEL 3
REMARK VINA RESULT:     -12.2      2.959      9.199
REMARK SMILES Cn1cc(-c2cc(C(F)(F)F)c3c(C4CC4)nn(CC(=O)NCCCNC(=O)c4ccc(-c5c6nc(c(-c7ccc(S(=O)(=O)[O-])cc7)c7ccc([nH]7)c(-c7ccc(S(=O)(=O)[O-])cc7)c7nc(c(-c8ccc(S(=O)(=O)[O-])cc8)c8ccc5[nH]8)C=C7)C=C6)cc4)c3n2)cn1
REMARK SMILES IDX 24 1 23 2 22 3 20 4 21 5 19 7 18 8 5 9 6 10 90 11 7 12 89 13
REMARK SMILES IDX 12 14 13 15 17 16 4 17 1 18 2 19 3 20 92 21 91 22 8 23 9 24
REMARK SMILES IDX 10 25 11 26 14 27 15 28 16 29 25 30 26 31 27 32 28 34 29 35
REMARK SMILES IDX 30 36 88 37 31 38 87 39 32 40 33 41 34 42 81 43 35 44 86 45
REMARK SMILES IDX 80 46 82 47 36 48 85 49 79 50 78 51 37 53 67 54 48 55 66 56
REMARK SMILES IDX 49 57 52 58 65 59 83 60 50 61 51 62 64 64 84 65 53 66 38 67
REMARK SMILES IDX 39 68 47 69 40 70 46 71 41 72 42 73 43 74 44 75 45 76 68 77
REMARK SMILES IDX 69 78 77 79 70 80 76 81 71 82 72 83 73 84 74 85 75 86 54 87
REMARK SMILES IDX 55 88 63 89 56 90 62 91 57 92 58 93 59 94 60 95 61 96
REMARK H PARENT 22 6 26 33 82 52 52 63
REMARK Flexibility Score: inf
ROOT
ATOM      1  C   UNL A   1      34.154  32.394  27.966  1.00  0.00     0.042 C 
ENDROOT
BRANCH   1   2
ATOM      2  C   UNL A   1      34.435  30.941  27.580  1.00  0.00     0.117 C 
BRANCH   2   3
ATOM      3  N   UNL A   1      33.325  30.049  27.867  1.00  0.00    -0.354 N 
ATOM      4  C   UNL A   1      33.119  28.804  27.342  1.00  0.00     0.241 C 
ATOM      5  O   UNL A   1      32.179  28.115  27.739  1.00  0.00    -0.273 OA
ATOM      6  H   UNL A   1      32.651  30.375  28.507  1.00  0.00     0.163 HD
BRANCH   4   7
ATOM      7  C   UNL A   1      34.118  28.285  26.358  1.00  0.00     0.246 C 
BRANCH   7   8
ATOM      8  N   UNL A   1      33.582  28.142  25.019  1.00  0.00    -0.237 N 
ATOM      9  C   UNL A   1      32.713  24.921  24.722  1.00  0.00     0.077 A 
ATOM     10  C   UNL A   1      32.199  24.849  23.430  1.00  0.00     0.043 A 
ATOM     11  N   UNL A   1      33.756  25.750  24.952  1.00  0.00    -0.228 NA
ATOM     12  C   UNL A   1      32.425  25.937  22.549  1.00  0.00     0.071 A 
ATOM     13  C   UNL A   1      33.477  26.941  24.390  1.00  0.00     0.159 A 
ATOM     14  C   UNL A   1      32.718  27.123  23.247  1.00  0.00     0.055 A 
ATOM     15  C   UNL A   1      32.257  28.462  23.386  1.00  0.00     0.076 A 
ATOM     16  N   UNL A   1      32.850  29.102  24.411  1.00  0.00    -0.175 NA
BRANCH   9  17
ATOM     17  C   UNL A   1      31.812  25.036  25.902  1.00  0.00     0.038 A 
ATOM     18  C   UNL A   1      29.419  22.735  27.215  1.00  0.00     0.173 C 
ATOM     19  N   UNL A   1      30.219  23.921  26.970  1.00  0.00    -0.275 N 
ATOM     20  C   UNL A   1      31.568  23.931  26.716  1.00  0.00     0.118 A 
ATOM     21  N   UNL A   1      29.624  25.080  26.630  1.00  0.00    -0.181 NA
ATOM     22  C   UNL A   1      30.564  25.717  25.920  1.00  0.00     0.145 A 
ENDBRANCH   9  17
BRANCH  12  23
ATOM     23  C   UNL A   1      32.626  25.750  21.072  1.00  0.00     0.417 C 
ATOM     24  F   UNL A   1      33.036  24.520  20.682  1.00  0.00    -0.166 F 
ATOM     25  F   UNL A   1      31.474  25.988  20.378  1.00  0.00    -0.166 F 
ATOM     26  F   UNL A   1      33.540  26.619  20.552  1.00  0.00    -0.166 F 
ENDBRANCH  12  23
BRANCH  15  27
ATOM     27  C   UNL A   1      31.030  29.126  22.757  1.00  0.00     0.041 C 
ATOM     28  C   UNL A   1      29.701  28.459  22.527  1.00  0.00     0.011 C 
ATOM     29  C   UNL A   1      29.834  29.419  23.655  1.00  0.00     0.011 C 
ENDBRANCH  15  27
ENDBRANCH   7   8
ENDBRANCH   4   7
ENDBRANCH   2   3
ENDBRANCH   1   2
BRANCH   1  30
ATOM     30  C   UNL A   1      35.299  32.967  28.758  1.00  0.00     0.118 C 
BRANCH  30  31
ATOM     31  N   UNL A   1      34.973  33.025  30.181  1.00  0.00    -0.352 N 
ATOM     32  C   UNL A   1      35.450  32.231  31.199  1.00  0.00     0.251 C 
ATOM     33  H   UNL A   1      34.331  33.721  30.445  1.00  0.00     0.163 HD
ATOM     34  O   UNL A   1      34.878  32.187  32.273  1.00  0.00    -0.269 OA
BRANCH  32  35
ATOM     35  C   UNL A   1      36.674  31.460  30.945  1.00  0.00     0.039 A 
ATOM     36  C   UNL A   1      37.933  32.056  31.008  1.00  0.00     0.014 A 
ATOM     37  C   UNL A   1      36.528  30.104  30.658  1.00  0.00     0.014 A 
ATOM     38  C   UNL A   1      39.045  31.253  30.791  1.00  0.00     0.010 A 
ATOM     39  C   UNL A   1      37.613  29.283  30.671  1.00  0.00     0.010 A 
ATOM     40  C   UNL A   1      38.862  29.871  30.620  1.00  0.00    -0.014 A 
BRANCH  40  41
ATOM     41  C   UNL A   1      39.977  28.965  30.454  1.00  0.00     0.031 A 
ATOM     42  C   UNL A   1      40.665  28.668  31.724  1.00  0.00     0.074 A 
ATOM     43  C   UNL A   1      40.218  28.314  29.298  1.00  0.00     0.049 A 
ATOM     44  N   UNL A   1      41.727  29.248  32.166  1.00  0.00    -0.248 NA
ATOM     45  C   UNL A   1      39.996  27.799  32.708  1.00  0.00     0.031 C 
ATOM     46  C   UNL A   1      39.404  28.288  28.072  1.00  0.00     0.029 A 
ATOM     47  N   UNL A   1      41.228  27.459  29.001  1.00  0.00    -0.354 N 
ATOM     48  C   UNL A   1      42.023  28.598  33.353  1.00  0.00     0.074 A 
ATOM     49  C   UNL A   1      40.818  27.916  33.756  1.00  0.00     0.031 C 
ATOM     50  C   UNL A   1      39.842  27.303  27.252  1.00  0.00     0.029 A 
ATOM     51  C   UNL A   1      41.072  26.768  27.804  1.00  0.00     0.049 A 
ATOM     52  H   UNL A   1      42.010  27.337  29.587  1.00  0.00     0.167 HD
ATOM     53  C   UNL A   1      43.315  28.381  33.715  1.00  0.00     0.031 A 
ATOM     54  C   UNL A   1      41.936  25.861  27.286  1.00  0.00     0.031 A 
ATOM     55  C   UNL A   1      44.228  29.065  32.835  1.00  0.00     0.049 A 
ATOM     56  C   UNL A   1      43.260  26.188  27.868  1.00  0.00     0.074 A 
ATOM     57  C   UNL A   1      44.668  30.359  32.664  1.00  0.00     0.029 A 
ATOM     58  N   UNL A   1      44.456  28.396  31.657  1.00  0.00    -0.354 N 
ATOM     59  N   UNL A   1      43.876  27.317  27.642  1.00  0.00    -0.248 NA
ATOM     60  C   UNL A   1      43.747  25.425  29.012  1.00  0.00     0.031 C 
ATOM     61  C   UNL A   1      44.998  30.489  31.280  1.00  0.00     0.029 A 
ATOM     62  C   UNL A   1      44.808  29.259  30.651  1.00  0.00     0.049 A 
ATOM     63  H   UNL A   1      44.376  27.420  31.547  1.00  0.00     0.167 HD
ATOM     64  C   UNL A   1      44.519  27.598  28.831  1.00  0.00     0.074 A 
ATOM     65  C   UNL A   1      44.546  26.340  29.566  1.00  0.00     0.031 C 
ATOM     66  C   UNL A   1      44.698  28.880  29.257  1.00  0.00     0.031 A 
BRANCH  53  67
ATOM     67  C   UNL A   1      43.746  27.187  34.519  1.00  0.00    -0.014 A 
ATOM     68  C   UNL A   1      44.228  27.365  35.828  1.00  0.00     0.010 A 
ATOM     69  C   UNL A   1      43.911  25.913  33.933  1.00  0.00     0.010 A 
ATOM     70  C   UNL A   1      44.821  26.304  36.526  1.00  0.00     0.020 A 
ATOM     71  C   UNL A   1      44.466  24.842  34.633  1.00  0.00     0.020 A 
ATOM     72  C   UNL A   1      44.925  25.045  35.926  1.00  0.00     0.054 A 
BRANCH  72  73
ATOM     73  S   UNL A   1      45.715  23.692  36.831  1.00  0.00     0.124 S 
ATOM     74  O   UNL A   1      45.468  24.061  38.221  1.00  0.00    -0.237 OA
ATOM     75  O   UNL A   1      44.976  22.530  36.343  1.00  0.00    -0.237 OA
ATOM     76  O   UNL A   1      47.110  23.760  36.404  1.00  0.00    -0.744 OA
ENDBRANCH  72  73
ENDBRANCH  53  67
BRANCH  54  77
ATOM     77  C   UNL A   1      41.644  24.527  26.698  1.00  0.00    -0.014 A 
ATOM     78  C   UNL A   1      42.582  23.934  25.827  1.00  0.00     0.010 A 
ATOM     79  C   UNL A   1      40.647  23.699  27.251  1.00  0.00     0.010 A 
ATOM     80  C   UNL A   1      42.606  22.547  25.623  1.00  0.00     0.020 A 
ATOM     81  C   UNL A   1      40.660  22.311  27.041  1.00  0.00     0.020 A 
ATOM     82  C   UNL A   1      41.669  21.739  26.266  1.00  0.00     0.054 A 
BRANCH  82  83
ATOM     83  S   UNL A   1      41.855  19.932  26.176  1.00  0.00     0.124 S 
ATOM     84  O   UNL A   1      42.956  19.776  25.229  1.00  0.00    -0.237 OA
ATOM     85  O   UNL A   1      42.160  19.586  27.561  1.00  0.00    -0.237 OA
ATOM     86  O   UNL A   1      40.553  19.474  25.694  1.00  0.00    -0.744 OA
ENDBRANCH  82  83
ENDBRANCH  54  77
BRANCH  66  87
ATOM     87  C   UNL A   1      44.685  29.975  28.227  1.00  0.00    -0.014 A 
ATOM     88  C   UNL A   1      43.532  30.638  27.768  1.00  0.00     0.010 A 
ATOM     89  C   UNL A   1      45.942  30.416  27.780  1.00  0.00     0.010 A 
ATOM     90  C   UNL A   1      43.645  31.730  26.887  1.00  0.00     0.020 A 
ATOM     91  C   UNL A   1      46.061  31.504  26.919  1.00  0.00     0.020 A 
ATOM     92  C   UNL A   1      44.913  32.162  26.479  1.00  0.00     0.054 A 
BRANCH  92  93
ATOM     93  S   UNL A   1      45.068  33.600  25.379  1.00  0.00     0.124 S 
ATOM     94  O   UNL A   1      46.504  33.870  25.399  1.00  0.00    -0.237 OA
ATOM     95  O   UNL A   1      44.540  33.091  24.116  1.00  0.00    -0.237 OA
ATOM     96  O   UNL A   1      44.242  34.621  26.022  1.00  0.00    -0.744 OA
ENDBRANCH  92  93
ENDBRANCH  66  87
ENDBRANCH  40  41
ENDBRANCH  32  35
ENDBRANCH  30  31
ENDBRANCH   1  30
TORSDOF 17
ENDMDL
