MODEL 1
REMARK VINA RESULT:     -11.3      0.000      0.000
REMARK SMILES O=C(NCCCNC(=O)c1cccc(N2CCCCC2)n1)c1ccc(-c2c3nc(c(-c4ccc(S(=O)(=O)[O-])cc4)c4ccc([nH]4)c(-c4ccc(S(=O)(=O)[O-])cc4)c4nc(c(-c5ccc(S(=O)(=O)[O-])cc5)c5ccc2[nH]5)C=C4)C=C3)cc1
REMARK SMILES IDX 4 1 3 2 1 3 2 4 22 6 23 7 81 8 24 9 80 10 25 11 26 12 27 13
REMARK SMILES IDX 74 14 28 15 79 16 73 17 75 18 29 19 78 20 72 21 71 22 30 24
REMARK SMILES IDX 60 25 41 26 59 27 42 28 45 29 58 30 76 31 43 32 44 33 57 35
REMARK SMILES IDX 77 36 46 37 31 38 32 39 40 40 33 41 39 42 34 43 35 44 36 45
REMARK SMILES IDX 37 46 38 47 61 48 62 49 70 50 63 51 69 52 64 53 65 54 66 55
REMARK SMILES IDX 67 56 68 57 47 58 48 59 56 60 49 61 55 62 50 63 51 64 52 65
REMARK SMILES IDX 53 66 54 67 5 68 6 69 7 70 8 71 9 73 10 74 11 75 21 76 12 77
REMARK SMILES IDX 14 78 13 79 15 80 16 81 20 82 17 83 19 84 18 85
REMARK H PARENT 3 5 75 23 45 34 7 72
REMARK Flexibility Score: inf
ROOT
ATOM      1  C   UNL A   1      34.460  32.429  29.036  1.00  0.00     0.118 C 
ENDROOT
BRANCH   1   2
ATOM      2  N   UNL A   1      33.874  31.290  28.342  1.00  0.00    -0.352 N 
ATOM      3  O   UNL A   1      33.802  29.403  27.126  1.00  0.00    -0.269 OA
ATOM      4  C   UNL A   1      34.460  30.151  27.850  1.00  0.00     0.251 C 
ATOM      5  H   UNL A   1      32.901  31.346  28.205  1.00  0.00     0.163 HD
BRANCH   4   6
ATOM      6  C   UNL A   1      35.871  29.827  28.158  1.00  0.00     0.039 A 
ATOM      7  C   UNL A   1      36.880  30.006  27.208  1.00  0.00     0.014 A 
ATOM      8  C   UNL A   1      36.195  29.377  29.440  1.00  0.00     0.014 A 
ATOM      9  C   UNL A   1      38.182  29.598  27.489  1.00  0.00     0.010 A 
ATOM     10  C   UNL A   1      37.517  29.049  29.748  1.00  0.00     0.010 A 
ATOM     11  C   UNL A   1      38.517  29.127  28.765  1.00  0.00    -0.014 A 
BRANCH  11  12
ATOM     12  C   UNL A   1      39.920  28.761  29.090  1.00  0.00     0.031 A 
ATOM     13  C   UNL A   1      40.855  29.772  29.693  1.00  0.00     0.074 A 
ATOM     14  C   UNL A   1      40.360  27.522  28.803  1.00  0.00     0.049 A 
ATOM     15  N   UNL A   1      42.133  29.662  29.952  1.00  0.00    -0.248 NA
ATOM     16  C   UNL A   1      40.282  31.082  30.038  1.00  0.00     0.031 C 
ATOM     17  C   UNL A   1      39.547  26.450  28.225  1.00  0.00     0.029 A 
ATOM     18  N   UNL A   1      41.603  26.957  28.943  1.00  0.00    -0.354 N 
ATOM     19  C   UNL A   1      42.525  30.893  30.463  1.00  0.00     0.074 A 
ATOM     20  C   UNL A   1      41.353  31.743  30.454  1.00  0.00     0.031 C 
ATOM     21  C   UNL A   1      40.308  25.358  28.067  1.00  0.00     0.029 A 
ATOM     22  C   UNL A   1      41.676  25.670  28.466  1.00  0.00     0.049 A 
ATOM     23  H   UNL A   1      42.368  27.429  29.346  1.00  0.00     0.167 HD
ATOM     24  C   UNL A   1      43.751  31.280  30.896  1.00  0.00     0.031 A 
ATOM     25  C   UNL A   1      42.729  24.842  28.324  1.00  0.00     0.031 A 
ATOM     26  C   UNL A   1      44.914  30.430  30.882  1.00  0.00     0.049 A 
ATOM     27  C   UNL A   1      44.088  25.304  28.761  1.00  0.00     0.074 A 
ATOM     28  C   UNL A   1      46.192  30.716  31.327  1.00  0.00     0.029 A 
ATOM     29  N   UNL A   1      44.943  29.134  30.385  1.00  0.00    -0.354 N 
ATOM     30  N   UNL A   1      44.436  26.460  29.273  1.00  0.00    -0.248 NA
ATOM     31  C   UNL A   1      45.196  24.351  28.610  1.00  0.00     0.031 C 
ATOM     32  C   UNL A   1      47.010  29.617  31.039  1.00  0.00     0.029 A 
ATOM     33  C   UNL A   1      46.224  28.618  30.486  1.00  0.00     0.049 A 
ATOM     34  H   UNL A   1      44.168  28.653  30.016  1.00  0.00     0.167 HD
ATOM     35  C   UNL A   1      45.797  26.364  29.535  1.00  0.00     0.074 A 
ATOM     36  C   UNL A   1      46.209  25.036  29.125  1.00  0.00     0.031 C 
ATOM     37  C   UNL A   1      46.623  27.291  30.078  1.00  0.00     0.031 A 
BRANCH  24  38
ATOM     38  C   UNL A   1      43.902  32.704  31.368  1.00  0.00    -0.014 A 
ATOM     39  C   UNL A   1      44.239  33.744  30.482  1.00  0.00     0.010 A 
ATOM     40  C   UNL A   1      43.701  33.007  32.728  1.00  0.00     0.010 A 
ATOM     41  C   UNL A   1      44.441  35.043  30.958  1.00  0.00     0.020 A 
ATOM     42  C   UNL A   1      43.869  34.312  33.203  1.00  0.00     0.020 A 
ATOM     43  C   UNL A   1      44.267  35.316  32.318  1.00  0.00     0.054 A 
BRANCH  43  44
ATOM     44  S   UNL A   1      44.570  37.001  32.916  1.00  0.00     0.124 S 
ATOM     45  O   UNL A   1      45.111  37.648  31.722  1.00  0.00    -0.237 OA
ATOM     46  O   UNL A   1      43.239  37.445  33.320  1.00  0.00    -0.237 OA
ATOM     47  O   UNL A   1      45.521  36.817  34.009  1.00  0.00    -0.744 OA
ENDBRANCH  43  44
ENDBRANCH  24  38
BRANCH  25  48
ATOM     48  C   UNL A   1      42.512  23.499  27.721  1.00  0.00    -0.014 A 
ATOM     49  C   UNL A   1      42.752  23.278  26.355  1.00  0.00     0.010 A 
ATOM     50  C   UNL A   1      42.151  22.411  28.540  1.00  0.00     0.010 A 
ATOM     51  C   UNL A   1      42.643  21.992  25.819  1.00  0.00     0.020 A 
ATOM     52  C   UNL A   1      42.069  21.120  28.013  1.00  0.00     0.020 A 
ATOM     53  C   UNL A   1      42.314  20.919  26.654  1.00  0.00     0.054 A 
BRANCH  53  54
ATOM     54  S   UNL A   1      42.280  19.246  25.953  1.00  0.00     0.124 S 
ATOM     55  O   UNL A   1      42.823  18.447  27.046  1.00  0.00    -0.237 OA
ATOM     56  O   UNL A   1      40.860  19.053  25.671  1.00  0.00    -0.237 OA
ATOM     57  O   UNL A   1      43.132  19.353  24.771  1.00  0.00    -0.744 OA
ENDBRANCH  53  54
ENDBRANCH  25  48
BRANCH  37  58
ATOM     58  C   UNL A   1      48.058  26.899  30.321  1.00  0.00    -0.014 A 
ATOM     59  C   UNL A   1      49.073  27.219  29.404  1.00  0.00     0.010 A 
ATOM     60  C   UNL A   1      48.403  26.294  31.544  1.00  0.00     0.010 A 
ATOM     61  C   UNL A   1      50.409  26.938  29.706  1.00  0.00     0.020 A 
ATOM     62  C   UNL A   1      49.737  26.035  31.861  1.00  0.00     0.020 A 
ATOM     63  C   UNL A   1      50.734  26.356  30.937  1.00  0.00     0.054 A 
BRANCH  63  64
ATOM     64  S   UNL A   1      52.481  26.090  31.344  1.00  0.00     0.124 S 
ATOM     65  O   UNL A   1      52.767  27.223  32.219  1.00  0.00    -0.237 OA
ATOM     66  O   UNL A   1      52.463  24.782  31.995  1.00  0.00    -0.237 OA
ATOM     67  O   UNL A   1      53.149  26.124  30.045  1.00  0.00    -0.744 OA
ENDBRANCH  63  64
ENDBRANCH  37  58
ENDBRANCH  11  12
ENDBRANCH   4   6
ENDBRANCH   1   2
BRANCH   1  68
ATOM     68  C   UNL A   1      35.242  33.348  28.105  1.00  0.00     0.042 C 
BRANCH  68  69
ATOM     69  C   UNL A   1      35.234  34.814  28.519  1.00  0.00     0.118 C 
BRANCH  69  70
ATOM     70  N   UNL A   1      33.940  35.446  28.309  1.00  0.00    -0.351 N 
ATOM     71  C   UNL A   1      33.061  35.986  29.223  1.00  0.00     0.269 C 
ATOM     72  H   UNL A   1      33.649  35.495  27.370  1.00  0.00     0.163 HD
ATOM     73  O   UNL A   1      31.952  36.343  28.831  1.00  0.00    -0.268 OA
BRANCH  71  74
ATOM     74  C   UNL A   1      33.470  36.184  30.645  1.00  0.00     0.130 A 
ATOM     75  C   UNL A   1      33.279  37.425  31.243  1.00  0.00     0.034 A 
ATOM     76  N   UNL A   1      33.940  35.089  31.299  1.00  0.00    -0.226 NA
ATOM     77  C   UNL A   1      33.645  37.569  32.569  1.00  0.00     0.006 A 
ATOM     78  C   UNL A   1      34.227  35.218  32.608  1.00  0.00     0.129 A 
ATOM     79  C   UNL A   1      34.113  36.453  33.254  1.00  0.00     0.047 A 
BRANCH  78  80
ATOM     80  N   UNL A   1      34.629  34.114  33.334  1.00  0.00    -0.357 N 
ATOM     81  C   UNL A   1      35.519  34.281  34.475  1.00  0.00     0.118 C 
ATOM     82  C   UNL A   1      34.477  32.788  32.748  1.00  0.00     0.118 C 
ATOM     83  C   UNL A   1      36.873  33.618  34.234  1.00  0.00     0.022 C 
ATOM     84  C   UNL A   1      35.847  32.173  32.466  1.00  0.00     0.022 C 
ATOM     85  C   UNL A   1      36.719  32.190  33.717  1.00  0.00     0.004 C 
ENDBRANCH  78  80
ENDBRANCH  71  74
ENDBRANCH  69  70
ENDBRANCH  68  69
ENDBRANCH   1  68
TORSDOF 14
ENDMDL
MODEL 2
REMARK VINA RESULT:     -11.2      2.987     12.426
REMARK SMILES O=C(NCCCNC(=O)c1cccc(N2CCCCC2)n1)c1ccc(-c2c3nc(c(-c4ccc(S(=O)(=O)[O-])cc4)c4ccc([nH]4)c(-c4ccc(S(=O)(=O)[O-])cc4)c4nc(c(-c5ccc(S(=O)(=O)[O-])cc5)c5ccc2[nH]5)C=C4)C=C3)cc1
REMARK SMILES IDX 4 1 3 2 1 3 2 4 22 6 23 7 81 8 24 9 80 10 25 11 26 12 27 13
REMARK SMILES IDX 74 14 28 15 79 16 73 17 75 18 29 19 78 20 72 21 71 22 30 24
REMARK SMILES IDX 60 25 41 26 59 27 42 28 45 29 58 30 76 31 43 32 44 33 57 35
REMARK SMILES IDX 77 36 46 37 31 38 32 39 40 40 33 41 39 42 34 43 35 44 36 45
REMARK SMILES IDX 37 46 38 47 61 48 62 49 70 50 63 51 69 52 64 53 65 54 66 55
REMARK SMILES IDX 67 56 68 57 47 58 48 59 56 60 49 61 55 62 50 63 51 64 52 65
REMARK SMILES IDX 53 66 54 67 5 68 6 69 7 70 8 71 9 73 10 74 11 75 21 76 12 77
REMARK SMILES IDX 14 78 13 79 15 80 16 81 20 82 17 83 19 84 18 85
REMARK H PARENT 3 5 75 23 45 34 7 72
REMARK Flexibility Score: inf
ROOT
ATOM      1  C   UNL A   1      40.726  21.611  26.124  1.00  0.00     0.118 C 
ENDROOT
BRANCH   1   2
ATOM      2  N   UNL A   1      39.333  21.848  25.769  1.00  0.00    -0.352 N 
ATOM      3  O   UNL A   1      37.299  22.799  25.831  1.00  0.00    -0.269 OA
ATOM      4  C   UNL A   1      38.502  22.896  26.075  1.00  0.00     0.251 C 
ATOM      5  H   UNL A   1      38.921  21.142  25.220  1.00  0.00     0.163 HD
BRANCH   4   6
ATOM      6  C   UNL A   1      39.029  24.123  26.714  1.00  0.00     0.039 A 
ATOM      7  C   UNL A   1      38.803  24.391  28.065  1.00  0.00     0.014 A 
ATOM      8  C   UNL A   1      39.804  25.000  25.951  1.00  0.00     0.014 A 
ATOM      9  C   UNL A   1      39.223  25.600  28.617  1.00  0.00     0.010 A 
ATOM     10  C   UNL A   1      40.298  26.173  26.528  1.00  0.00     0.010 A 
ATOM     11  C   UNL A   1      39.985  26.498  27.857  1.00  0.00    -0.014 A 
BRANCH  11  12
ATOM     12  C   UNL A   1      40.497  27.754  28.463  1.00  0.00     0.031 A 
ATOM     13  C   UNL A   1      41.901  27.832  28.993  1.00  0.00     0.074 A 
ATOM     14  C   UNL A   1      39.676  28.815  28.571  1.00  0.00     0.049 A 
ATOM     15  N   UNL A   1      42.487  28.808  29.639  1.00  0.00    -0.248 NA
ATOM     16  C   UNL A   1      42.757  26.654  28.779  1.00  0.00     0.031 C 
ATOM     17  C   UNL A   1      38.294  28.866  28.088  1.00  0.00     0.029 A 
ATOM     18  N   UNL A   1      39.876  30.050  29.135  1.00  0.00    -0.354 N 
ATOM     19  C   UNL A   1      43.767  28.355  29.935  1.00  0.00     0.074 A 
ATOM     20  C   UNL A   1      43.864  27.006  29.418  1.00  0.00     0.031 C 
ATOM     21  C   UNL A   1      37.775  30.069  28.368  1.00  0.00     0.029 A 
ATOM     22  C   UNL A   1      38.759  30.850  29.109  1.00  0.00     0.049 A 
ATOM     23  H   UNL A   1      40.737  30.335  29.519  1.00  0.00     0.167 HD
ATOM     24  C   UNL A   1      44.767  29.003  30.581  1.00  0.00     0.031 A 
ATOM     25  C   UNL A   1      38.530  32.060  29.656  1.00  0.00     0.031 A 
ATOM     26  C   UNL A   1      44.651  30.340  31.107  1.00  0.00     0.049 A 
ATOM     27  C   UNL A   1      39.631  32.743  30.412  1.00  0.00     0.074 A 
ATOM     28  C   UNL A   1      45.615  31.096  31.750  1.00  0.00     0.029 A 
ATOM     29  N   UNL A   1      43.499  31.112  31.064  1.00  0.00    -0.354 N 
ATOM     30  N   UNL A   1      40.847  32.314  30.654  1.00  0.00    -0.248 NA
ATOM     31  C   UNL A   1      39.338  34.073  30.961  1.00  0.00     0.031 C 
ATOM     32  C   UNL A   1      45.026  32.300  32.154  1.00  0.00     0.029 A 
ATOM     33  C   UNL A   1      43.718  32.325  31.695  1.00  0.00     0.049 A 
ATOM     34  H   UNL A   1      42.651  30.838  30.647  1.00  0.00     0.167 HD
ATOM     35  C   UNL A   1      41.475  33.335  31.358  1.00  0.00     0.074 A 
ATOM     36  C   UNL A   1      40.505  34.402  31.503  1.00  0.00     0.031 C 
ATOM     37  C   UNL A   1      42.745  33.383  31.829  1.00  0.00     0.031 A 
BRANCH  24  38
ATOM     38  C   UNL A   1      46.054  28.249  30.802  1.00  0.00    -0.014 A 
ATOM     39  C   UNL A   1      46.254  27.447  31.940  1.00  0.00     0.010 A 
ATOM     40  C   UNL A   1      47.084  28.344  29.847  1.00  0.00     0.010 A 
ATOM     41  C   UNL A   1      47.483  26.814  32.153  1.00  0.00     0.020 A 
ATOM     42  C   UNL A   1      48.303  27.686  30.040  1.00  0.00     0.020 A 
ATOM     43  C   UNL A   1      48.503  26.948  31.208  1.00  0.00     0.054 A 
BRANCH  43  44
ATOM     44  S   UNL A   1      50.098  26.147  31.527  1.00  0.00     0.124 S 
ATOM     45  O   UNL A   1      50.724  26.191  30.207  1.00  0.00    -0.237 OA
ATOM     46  O   UNL A   1      50.700  27.016  32.535  1.00  0.00    -0.237 OA
ATOM     47  O   UNL A   1      49.731  24.814  31.996  1.00  0.00    -0.744 OA
ENDBRANCH  43  44
ENDBRANCH  24  38
BRANCH  25  48
ATOM     48  C   UNL A   1      37.184  32.675  29.505  1.00  0.00    -0.014 A 
ATOM     49  C   UNL A   1      36.252  32.628  30.555  1.00  0.00     0.010 A 
ATOM     50  C   UNL A   1      36.864  33.393  28.335  1.00  0.00     0.010 A 
ATOM     51  C   UNL A   1      35.028  33.295  30.442  1.00  0.00     0.020 A 
ATOM     52  C   UNL A   1      35.655  34.083  28.230  1.00  0.00     0.020 A 
ATOM     53  C   UNL A   1      34.743  34.029  29.285  1.00  0.00     0.054 A 
BRANCH  53  54
ATOM     54  S   UNL A   1      33.192  34.967  29.207  1.00  0.00     0.124 S 
ATOM     55  O   UNL A   1      32.743  34.928  30.595  1.00  0.00    -0.237 OA
ATOM     56  O   UNL A   1      33.639  36.270  28.721  1.00  0.00    -0.237 OA
ATOM     57  O   UNL A   1      32.378  34.205  28.264  1.00  0.00    -0.744 OA
ENDBRANCH  53  54
ENDBRANCH  25  48
BRANCH  37  58
ATOM     58  C   UNL A   1      43.198  34.652  32.504  1.00  0.00    -0.014 A 
ATOM     59  C   UNL A   1      43.848  35.673  31.791  1.00  0.00     0.010 A 
ATOM     60  C   UNL A   1      42.864  34.863  33.856  1.00  0.00     0.010 A 
ATOM     61  C   UNL A   1      44.160  36.882  32.420  1.00  0.00     0.020 A 
ATOM     62  C   UNL A   1      43.151  36.078  34.480  1.00  0.00     0.020 A 
ATOM     63  C   UNL A   1      43.800  37.081  33.758  1.00  0.00     0.054 A 
BRANCH  63  64
ATOM     64  S   UNL A   1      44.130  38.693  34.522  1.00  0.00     0.124 S 
ATOM     65  O   UNL A   1      45.424  39.045  33.945  1.00  0.00    -0.237 OA
ATOM     66  O   UNL A   1      42.999  39.499  34.069  1.00  0.00    -0.237 OA
ATOM     67  O   UNL A   1      44.146  38.402  35.953  1.00  0.00    -0.744 OA
ENDBRANCH  63  64
ENDBRANCH  37  58
ENDBRANCH  11  12
ENDBRANCH   4   6
ENDBRANCH   1   2
BRANCH   1  68
ATOM     68  C   UNL A   1      40.903  21.210  27.583  1.00  0.00     0.042 C 
BRANCH  68  69
ATOM     69  C   UNL A   1      42.139  20.362  27.855  1.00  0.00     0.118 C 
BRANCH  69  70
ATOM     70  N   UNL A   1      42.076  19.060  27.208  1.00  0.00    -0.351 N 
ATOM     71  C   UNL A   1      42.822  18.552  26.167  1.00  0.00     0.269 C 
ATOM     72  H   UNL A   1      41.395  18.449  27.571  1.00  0.00     0.163 HD
ATOM     73  O   UNL A   1      42.499  17.468  25.686  1.00  0.00    -0.268 OA
BRANCH  71  74
ATOM     74  C   UNL A   1      44.032  19.277  25.676  1.00  0.00     0.130 A 
ATOM     75  C   UNL A   1      45.217  18.576  25.489  1.00  0.00     0.034 A 
ATOM     76  N   UNL A   1      43.866  20.589  25.360  1.00  0.00    -0.226 NA
ATOM     77  C   UNL A   1      46.312  19.271  25.009  1.00  0.00     0.006 A 
ATOM     78  C   UNL A   1      44.915  21.240  24.826  1.00  0.00     0.129 A 
ATOM     79  C   UNL A   1      46.153  20.609  24.667  1.00  0.00     0.047 A 
BRANCH  78  80
ATOM     80  N   UNL A   1      44.771  22.551  24.414  1.00  0.00    -0.357 N 
ATOM     81  C   UNL A   1      45.952  23.377  24.197  1.00  0.00     0.118 C 
ATOM     82  C   UNL A   1      43.475  23.200  24.561  1.00  0.00     0.118 C 
ATOM     83  C   UNL A   1      46.017  24.536  25.188  1.00  0.00     0.022 C 
ATOM     84  C   UNL A   1      43.556  24.318  25.599  1.00  0.00     0.022 C 
ATOM     85  C   UNL A   1      44.689  25.285  25.269  1.00  0.00     0.004 C 
ENDBRANCH  78  80
ENDBRANCH  71  74
ENDBRANCH  69  70
ENDBRANCH  68  69
ENDBRANCH   1  68
TORSDOF 14
ENDMDL
MODEL 3
REMARK VINA RESULT:     -11.0      4.953     11.780
REMARK SMILES O=C(NCCCNC(=O)c1cccc(N2CCCCC2)n1)c1ccc(-c2c3nc(c(-c4ccc(S(=O)(=O)[O-])cc4)c4ccc([nH]4)c(-c4ccc(S(=O)(=O)[O-])cc4)c4nc(c(-c5ccc(S(=O)(=O)[O-])cc5)c5ccc2[nH]5)C=C4)C=C3)cc1
REMARK SMILES IDX 4 1 3 2 1 3 2 4 22 6 23 7 81 8 24 9 80 10 25 11 26 12 27 13
REMARK SMILES IDX 74 14 28 15 79 16 73 17 75 18 29 19 78 20 72 21 71 22 30 24
REMARK SMILES IDX 60 25 41 26 59 27 42 28 45 29 58 30 76 31 43 32 44 33 57 35
REMARK SMILES IDX 77 36 46 37 31 38 32 39 40 40 33 41 39 42 34 43 35 44 36 45
REMARK SMILES IDX 37 46 38 47 61 48 62 49 70 50 63 51 69 52 64 53 65 54 66 55
REMARK SMILES IDX 67 56 68 57 47 58 48 59 56 60 49 61 55 62 50 63 51 64 52 65
REMARK SMILES IDX 53 66 54 67 5 68 6 69 7 70 8 71 9 73 10 74 11 75 21 76 12 77
REMARK SMILES IDX 14 78 13 79 15 80 16 81 20 82 17 83 19 84 18 85
REMARK H PARENT 3 5 75 23 45 34 7 72
REMARK Flexibility Score: inf
ROOT
ATOM      1  C   UNL A   1      36.879  23.736  25.101  1.00  0.00     0.118 C 
ENDROOT
BRANCH   1   2
ATOM      2  N   UNL A   1      37.747  22.705  25.653  1.00  0.00    -0.352 N 
ATOM      3  O   UNL A   1      39.581  21.805  26.587  1.00  0.00    -0.269 OA
ATOM      4  C   UNL A   1      38.902  22.813  26.385  1.00  0.00     0.251 C 
ATOM      5  H   UNL A   1      37.457  21.781  25.474  1.00  0.00     0.163 HD
BRANCH   4   6
ATOM      6  C   UNL A   1      39.352  24.122  26.908  1.00  0.00     0.039 A 
ATOM      7  C   UNL A   1      40.080  25.010  26.112  1.00  0.00     0.014 A 
ATOM      8  C   UNL A   1      38.999  24.485  28.210  1.00  0.00     0.014 A 
ATOM      9  C   UNL A   1      40.577  26.191  26.659  1.00  0.00     0.010 A 
ATOM     10  C   UNL A   1      39.427  25.709  28.731  1.00  0.00     0.010 A 
ATOM     11  C   UNL A   1      40.246  26.558  27.971  1.00  0.00    -0.014 A 
BRANCH  11  12
ATOM     12  C   UNL A   1      40.714  27.851  28.533  1.00  0.00     0.031 A 
ATOM     13  C   UNL A   1      42.118  27.998  29.051  1.00  0.00     0.074 A 
ATOM     14  C   UNL A   1      39.855  28.884  28.612  1.00  0.00     0.049 A 
ATOM     15  N   UNL A   1      42.670  29.016  29.661  1.00  0.00    -0.248 NA
ATOM     16  C   UNL A   1      43.015  26.846  28.869  1.00  0.00     0.031 C 
ATOM     17  C   UNL A   1      38.470  28.868  28.136  1.00  0.00     0.029 A 
ATOM     18  N   UNL A   1      40.013  30.143  29.133  1.00  0.00    -0.354 N 
ATOM     19  C   UNL A   1      43.968  28.620  29.963  1.00  0.00     0.074 A 
ATOM     20  C   UNL A   1      44.112  27.259  29.490  1.00  0.00     0.031 C 
ATOM     21  C   UNL A   1      37.908  30.060  28.380  1.00  0.00     0.029 A 
ATOM     22  C   UNL A   1      38.866  30.901  29.089  1.00  0.00     0.049 A 
ATOM     23  H   UNL A   1      40.864  30.472  29.503  1.00  0.00     0.167 HD
ATOM     24  C   UNL A   1      44.946  29.325  30.582  1.00  0.00     0.031 A 
ATOM     25  C   UNL A   1      38.595  32.118  29.598  1.00  0.00     0.031 A 
ATOM     26  C   UNL A   1      44.784  30.673  31.065  1.00  0.00     0.049 A 
ATOM     27  C   UNL A   1      39.675  32.866  30.324  1.00  0.00     0.074 A 
ATOM     28  C   UNL A   1      45.722  31.485  31.677  1.00  0.00     0.029 A 
ATOM     29  N   UNL A   1      43.603  31.400  31.004  1.00  0.00    -0.354 N 
ATOM     30  N   UNL A   1      40.907  32.490  30.573  1.00  0.00    -0.248 NA
ATOM     31  C   UNL A   1      39.335  34.201  30.832  1.00  0.00     0.031 C 
ATOM     32  C   UNL A   1      45.091  32.679  32.045  1.00  0.00     0.029 A 
ATOM     33  C   UNL A   1      43.781  32.641  31.594  1.00  0.00     0.049 A 
ATOM     34  H   UNL A   1      42.764  31.081  30.601  1.00  0.00     0.167 HD
ATOM     35  C   UNL A   1      41.500  33.556  31.239  1.00  0.00     0.074 A 
ATOM     36  C   UNL A   1      40.492  34.590  31.355  1.00  0.00     0.031 C 
ATOM     37  C   UNL A   1      42.770  33.666  31.700  1.00  0.00     0.031 A 
BRANCH  24  38
ATOM     38  C   UNL A   1      46.261  28.627  30.818  1.00  0.00    -0.014 A 
ATOM     39  C   UNL A   1      47.312  28.695  29.885  1.00  0.00     0.010 A 
ATOM     40  C   UNL A   1      46.450  27.888  32.001  1.00  0.00     0.010 A 
ATOM     41  C   UNL A   1      48.496  27.982  30.097  1.00  0.00     0.020 A 
ATOM     42  C   UNL A   1      47.645  27.199  32.233  1.00  0.00     0.020 A 
ATOM     43  C   UNL A   1      48.649  27.228  31.264  1.00  0.00     0.054 A 
BRANCH  43  44
ATOM     44  S   UNL A   1      50.179  26.283  31.497  1.00  0.00     0.124 S 
ATOM     45  O   UNL A   1      49.663  24.955  31.824  1.00  0.00    -0.237 OA
ATOM     46  O   UNL A   1      50.831  26.398  30.195  1.00  0.00    -0.237 OA
ATOM     47  O   UNL A   1      50.854  26.975  32.592  1.00  0.00    -0.744 OA
ENDBRANCH  43  44
ENDBRANCH  24  38
BRANCH  25  48
ATOM     48  C   UNL A   1      37.227  32.678  29.436  1.00  0.00    -0.014 A 
ATOM     49  C   UNL A   1      36.405  32.899  30.553  1.00  0.00     0.010 A 
ATOM     50  C   UNL A   1      36.776  33.079  28.162  1.00  0.00     0.010 A 
ATOM     51  C   UNL A   1      35.160  33.517  30.402  1.00  0.00     0.020 A 
ATOM     52  C   UNL A   1      35.546  33.723  28.012  1.00  0.00     0.020 A 
ATOM     53  C   UNL A   1      34.745  33.937  29.134  1.00  0.00     0.054 A 
BRANCH  53  54
ATOM     54  S   UNL A   1      33.172  34.828  28.982  1.00  0.00     0.124 S 
ATOM     55  O   UNL A   1      33.612  36.149  28.545  1.00  0.00    -0.237 OA
ATOM     56  O   UNL A   1      32.457  34.036  27.985  1.00  0.00    -0.237 OA
ATOM     57  O   UNL A   1      32.613  34.769  30.331  1.00  0.00    -0.744 OA
ENDBRANCH  53  54
ENDBRANCH  25  48
BRANCH  37  58
ATOM     58  C   UNL A   1      43.179  34.972  32.331  1.00  0.00    -0.014 A 
ATOM     59  C   UNL A   1      43.684  36.034  31.562  1.00  0.00     0.010 A 
ATOM     60  C   UNL A   1      42.948  35.168  33.706  1.00  0.00     0.010 A 
ATOM     61  C   UNL A   1      43.954  37.269  32.159  1.00  0.00     0.020 A 
ATOM     62  C   UNL A   1      43.192  36.407  34.300  1.00  0.00     0.020 A 
ATOM     63  C   UNL A   1      43.696  37.451  33.523  1.00  0.00     0.054 A 
BRANCH  63  64
ATOM     64  S   UNL A   1      43.964  39.091  34.252  1.00  0.00     0.124 S 
ATOM     65  O   UNL A   1      45.279  39.447  33.727  1.00  0.00    -0.237 OA
ATOM     66  O   UNL A   1      42.844  39.863  33.722  1.00  0.00    -0.237 OA
ATOM     67  O   UNL A   1      43.916  38.842  35.691  1.00  0.00    -0.744 OA
ENDBRANCH  63  64
ENDBRANCH  37  58
ENDBRANCH  11  12
ENDBRANCH   4   6
ENDBRANCH   1   2
BRANCH   1  68
ATOM     68  C   UNL A   1      35.581  23.896  25.882  1.00  0.00     0.042 C 
BRANCH  68  69
ATOM     69  C   UNL A   1      35.075  22.613  26.529  1.00  0.00     0.118 C 
BRANCH  69  70
ATOM     70  N   UNL A   1      33.760  22.773  27.131  1.00  0.00    -0.351 N 
ATOM     71  C   UNL A   1      32.509  22.549  26.598  1.00  0.00     0.269 C 
ATOM     72  H   UNL A   1      33.766  23.090  28.063  1.00  0.00     0.163 HD
ATOM     73  O   UNL A   1      31.523  22.889  27.249  1.00  0.00    -0.268 OA
BRANCH  71  74
ATOM     74  C   UNL A   1      32.357  21.857  25.284  1.00  0.00     0.130 A 
ATOM     75  C   UNL A   1      32.321  22.611  24.116  1.00  0.00     0.034 A 
ATOM     76  N   UNL A   1      32.344  20.498  25.312  1.00  0.00    -0.226 NA
ATOM     77  C   UNL A   1      32.204  21.938  22.914  1.00  0.00     0.006 A 
ATOM     78  C   UNL A   1      32.303  19.849  24.134  1.00  0.00     0.129 A 
ATOM     79  C   UNL A   1      32.205  20.548  22.927  1.00  0.00     0.047 A 
BRANCH  78  80
ATOM     80  N   UNL A   1      32.370  18.469  24.109  1.00  0.00    -0.357 N 
ATOM     81  C   UNL A   1      32.584  17.731  25.347  1.00  0.00     0.118 C 
ATOM     82  C   UNL A   1      32.603  17.796  22.838  1.00  0.00     0.118 C 
ATOM     83  C   UNL A   1      33.923  16.998  25.340  1.00  0.00     0.022 C 
ATOM     84  C   UNL A   1      33.973  17.119  22.839  1.00  0.00     0.022 C 
ATOM     85  C   UNL A   1      34.127  16.205  24.051  1.00  0.00     0.004 C 
ENDBRANCH  78  80
ENDBRANCH  71  74
ENDBRANCH  69  70
ENDBRANCH  68  69
ENDBRANCH   1  68
TORSDOF 14
ENDMDL
