MODEL 1
REMARK VINA RESULT:     -10.0      0.000      0.000
REMARK SMILES O=C(NCCCNC(=O)c1cc(Cl)c2c(c1)[C@H]1C=CC[C@H]1[C@H](c1ccc(S(=O)(=O)N3CCOCC3)cc1)N2)c1ccc(-c2c3nc(c(-c4ccc(S(=O)(=O)[O-])cc4)c4ccc([nH]4)c(-c4ccc(S(=O)(=O)[O-])cc4)c4nc(c(-c5ccc(S(=O)(=O)[O-])cc5)c5ccc2[nH]5)C=C4)C=C3)cc1
REMARK SMILES IDX 5 1 4 2 3 3 1 4 2 5 39 7 40 8 98 9 41 10 97 11 42 12 43 13
REMARK SMILES IDX 44 14 91 15 45 16 96 17 90 18 92 19 46 20 95 21 89 22 88 23
REMARK SMILES IDX 47 25 77 26 58 27 76 28 59 29 62 30 75 31 93 32 60 33 61 34
REMARK SMILES IDX 74 36 94 37 63 38 48 39 49 40 57 41 50 42 56 43 51 44 52 45
REMARK SMILES IDX 53 46 54 47 55 48 78 49 79 50 87 51 80 52 86 53 81 54 82 55
REMARK SMILES IDX 83 56 84 57 85 58 64 59 65 60 73 61 66 62 72 63 67 64 68 65
REMARK SMILES IDX 69 66 70 67 71 68 6 69 7 70 8 71 9 73 10 74 11 75 16 76
REMARK SMILES IDX 12 77 15 78 13 79 14 80 17 81 38 82 18 83 21 84 22 85 19 87
REMARK SMILES IDX 20 88 23 89 24 90 37 91 25 92 36 93 26 94 27 95 28 96 29 97
REMARK SMILES IDX 30 98 31 99 35 100 32 101 34 102 33 103
REMARK H PARENT 3 6 92 24 62 35 7 72 38 86
REMARK Flexibility Score: inf
ROOT
ATOM      1  C   UNL A   1      34.951  32.830  30.410  1.00  0.00     0.042 C 
ENDROOT
BRANCH   1   2
ATOM      2  C   UNL A   1      34.707  32.870  28.907  1.00  0.00     0.118 C 
BRANCH   2   3
ATOM      3  N   UNL A   1      33.972  31.705  28.438  1.00  0.00    -0.352 N 
ATOM      4  O   UNL A   1      33.685  29.716  27.428  1.00  0.00    -0.269 OA
ATOM      5  C   UNL A   1      34.440  30.485  28.015  1.00  0.00     0.251 C 
ATOM      6  H   UNL A   1      32.994  31.805  28.421  1.00  0.00     0.163 HD
BRANCH   5   7
ATOM      7  C   UNL A   1      35.847  30.106  28.260  1.00  0.00     0.039 A 
ATOM      8  C   UNL A   1      36.819  30.310  27.277  1.00  0.00     0.014 A 
ATOM      9  C   UNL A   1      36.206  29.589  29.508  1.00  0.00     0.014 A 
ATOM     10  C   UNL A   1      38.125  29.890  27.499  1.00  0.00     0.010 A 
ATOM     11  C   UNL A   1      37.534  29.230  29.754  1.00  0.00     0.010 A 
ATOM     12  C   UNL A   1      38.497  29.357  28.743  1.00  0.00    -0.014 A 
BRANCH  12  13
ATOM     13  C   UNL A   1      39.920  29.025  28.979  1.00  0.00     0.031 A 
ATOM     14  C   UNL A   1      40.838  29.982  29.677  1.00  0.00     0.074 A 
ATOM     15  C   UNL A   1      40.367  27.815  28.591  1.00  0.00     0.049 A 
ATOM     16  N   UNL A   1      42.066  29.785  30.083  1.00  0.00    -0.248 NA
ATOM     17  C   UNL A   1      40.321  31.331  29.955  1.00  0.00     0.031 C 
ATOM     18  C   UNL A   1      39.566  26.815  27.881  1.00  0.00     0.029 A 
ATOM     19  N   UNL A   1      41.586  27.210  28.761  1.00  0.00    -0.354 N 
ATOM     20  C   UNL A   1      42.472  30.981  30.659  1.00  0.00     0.074 A 
ATOM     21  C   UNL A   1      41.369  31.909  30.527  1.00  0.00     0.031 C 
ATOM     22  C   UNL A   1      40.299  25.703  27.718  1.00  0.00     0.029 A 
ATOM     23  C   UNL A   1      41.628  25.923  28.284  1.00  0.00     0.049 A 
ATOM     24  H   UNL A   1      42.356  27.655  29.183  1.00  0.00     0.167 HD
ATOM     25  C   UNL A   1      43.654  31.270  31.251  1.00  0.00     0.031 A 
ATOM     26  C   UNL A   1      42.617  25.010  28.304  1.00  0.00     0.031 A 
ATOM     27  C   UNL A   1      44.745  30.341  31.376  1.00  0.00     0.049 A 
ATOM     28  C   UNL A   1      43.921  25.354  28.956  1.00  0.00     0.074 A 
ATOM     29  C   UNL A   1      45.958  30.526  32.016  1.00  0.00     0.029 A 
ATOM     30  N   UNL A   1      44.763  29.062  30.841  1.00  0.00    -0.354 N 
ATOM     31  N   UNL A   1      44.261  26.465  29.563  1.00  0.00    -0.248 NA
ATOM     32  C   UNL A   1      44.973  24.330  28.934  1.00  0.00     0.031 C 
ATOM     33  C   UNL A   1      46.729  29.375  31.826  1.00  0.00     0.029 A 
ATOM     34  C   UNL A   1      45.979  28.457  31.107  1.00  0.00     0.049 A 
ATOM     35  H   UNL A   1      44.021  28.646  30.345  1.00  0.00     0.167 HD
ATOM     36  C   UNL A   1      45.563  26.273  30.005  1.00  0.00     0.074 A 
ATOM     37  C   UNL A   1      45.950  24.937  29.600  1.00  0.00     0.031 C 
ATOM     38  C   UNL A   1      46.357  27.130  30.690  1.00  0.00     0.031 A 
BRANCH  25  39
ATOM     39  C   UNL A   1      43.842  32.657  31.799  1.00  0.00    -0.014 A 
ATOM     40  C   UNL A   1      43.616  32.933  33.160  1.00  0.00     0.010 A 
ATOM     41  C   UNL A   1      44.315  33.682  30.959  1.00  0.00     0.010 A 
ATOM     42  C   UNL A   1      43.832  34.218  33.664  1.00  0.00     0.020 A 
ATOM     43  C   UNL A   1      44.550  34.964  31.464  1.00  0.00     0.020 A 
ATOM     44  C   UNL A   1      44.298  35.226  32.812  1.00  0.00     0.054 A 
BRANCH  44  45
ATOM     45  S   UNL A   1      44.572  36.880  33.503  1.00  0.00     0.124 S 
ATOM     46  O   UNL A   1      45.339  37.529  32.441  1.00  0.00    -0.237 OA
ATOM     47  O   UNL A   1      43.210  37.376  33.685  1.00  0.00    -0.237 OA
ATOM     48  O   UNL A   1      45.315  36.627  34.735  1.00  0.00    -0.744 OA
ENDBRANCH  44  45
ENDBRANCH  25  39
BRANCH  26  49
ATOM     49  C   UNL A   1      42.361  23.677  27.702  1.00  0.00    -0.014 A 
ATOM     50  C   UNL A   1      42.838  23.378  26.415  1.00  0.00     0.010 A 
ATOM     51  C   UNL A   1      41.766  22.660  28.472  1.00  0.00     0.010 A 
ATOM     52  C   UNL A   1      42.752  22.075  25.919  1.00  0.00     0.020 A 
ATOM     53  C   UNL A   1      41.693  21.353  27.984  1.00  0.00     0.020 A 
ATOM     54  C   UNL A   1      42.198  21.067  26.714  1.00  0.00     0.054 A 
BRANCH  54  55
ATOM     55  S   UNL A   1      42.214  19.363  26.090  1.00  0.00     0.124 S 
ATOM     56  O   UNL A   1      40.813  19.149  25.742  1.00  0.00    -0.237 OA
ATOM     57  O   UNL A   1      43.139  19.458  24.963  1.00  0.00    -0.237 OA
ATOM     58  O   UNL A   1      42.702  18.583  27.225  1.00  0.00    -0.744 OA
ENDBRANCH  54  55
ENDBRANCH  26  49
BRANCH  38  59
ATOM     59  C   UNL A   1      47.739  26.672  31.058  1.00  0.00    -0.014 A 
ATOM     60  C   UNL A   1      48.845  27.036  30.271  1.00  0.00     0.010 A 
ATOM     61  C   UNL A   1      47.948  26.009  32.281  1.00  0.00     0.010 A 
ATOM     62  C   UNL A   1      50.142  26.760  30.712  1.00  0.00     0.020 A 
ATOM     63  C   UNL A   1      49.244  25.746  32.732  1.00  0.00     0.020 A 
ATOM     64  C   UNL A   1      50.333  26.132  31.947  1.00  0.00     0.054 A 
BRANCH  64  65
ATOM     65  S   UNL A   1      52.030  25.885  32.540  1.00  0.00     0.124 S 
ATOM     66  O   UNL A   1      51.858  24.826  33.532  1.00  0.00    -0.237 OA
ATOM     67  O   UNL A   1      52.734  25.496  31.322  1.00  0.00    -0.237 OA
ATOM     68  O   UNL A   1      52.404  27.188  33.084  1.00  0.00    -0.744 OA
ENDBRANCH  64  65
ENDBRANCH  38  59
ENDBRANCH  12  13
ENDBRANCH   5   7
ENDBRANCH   2   3
ENDBRANCH   1   2
BRANCH   1  69
ATOM     69  C   UNL A   1      36.397  33.078  30.812  1.00  0.00     0.118 C 
BRANCH  69  70
ATOM     70  N   UNL A   1      36.513  33.938  31.982  1.00  0.00    -0.352 N 
ATOM     71  C   UNL A   1      37.110  33.684  33.189  1.00  0.00     0.251 C 
ATOM     72  H   UNL A   1      36.105  34.829  31.893  1.00  0.00     0.163 HD
ATOM     73  O   UNL A   1      36.978  34.458  34.130  1.00  0.00    -0.269 OA
BRANCH  71  74
ATOM     74  C   UNL A   1      37.903  32.454  33.359  1.00  0.00     0.041 A 
ATOM     75  C   UNL A   1      37.410  31.222  32.937  1.00  0.00     0.036 A 
ATOM     76  C   UNL A   1      39.174  32.553  33.922  1.00  0.00     0.020 A 
ATOM     77  C   UNL A   1      38.152  30.073  33.192  1.00  0.00     0.065 A 
ATOM     78  C   UNL A   1      39.941  31.399  34.138  1.00  0.00    -0.015 A 
ATOM     79  Cl  UNL A   1      37.476  28.549  32.724  1.00  0.00    -0.082 Cl
ATOM     80  C   UNL A   1      39.407  30.138  33.829  1.00  0.00     0.057 A 
ATOM     81  C   UNL A   1      41.347  31.541  34.643  1.00  0.00     0.049 C 
ATOM     82  N   UNL A   1      40.144  28.985  34.059  1.00  0.00    -0.376 N 
ATOM     83  C   UNL A   1      41.477  31.925  36.094  1.00  0.00    -0.023 C 
ATOM     84  C   UNL A   1      42.197  30.253  34.576  1.00  0.00     0.031 C 
ATOM     85  C   UNL A   1      41.319  29.019  34.915  1.00  0.00     0.114 C 
ATOM     86  H   UNL A   1      39.869  28.138  33.639  1.00  0.00     0.161 HD
ATOM     87  C   UNL A   1      42.580  31.382  36.627  1.00  0.00    -0.030 C 
ATOM     88  C   UNL A   1      43.302  30.556  35.610  1.00  0.00     0.034 C 
BRANCH  85  89
ATOM     89  C   UNL A   1      42.070  27.700  34.773  1.00  0.00    -0.025 A 
ATOM     90  C   UNL A   1      41.846  26.582  35.601  1.00  0.00     0.007 A 
ATOM     91  C   UNL A   1      43.035  27.592  33.768  1.00  0.00     0.007 A 
ATOM     92  C   UNL A   1      42.558  25.389  35.414  1.00  0.00     0.022 A 
ATOM     93  C   UNL A   1      43.707  26.396  33.555  1.00  0.00     0.022 A 
ATOM     94  C   UNL A   1      43.482  25.297  34.371  1.00  0.00     0.082 A 
BRANCH  94  95
ATOM     95  S   UNL A   1      44.342  23.765  34.097  1.00  0.00     0.243 S 
ATOM     96  O   UNL A   1      43.374  22.707  34.313  1.00  0.00    -0.207 OA
ATOM     97  O   UNL A   1      45.045  23.906  32.842  1.00  0.00    -0.207 OA
BRANCH  95  98
ATOM     98  N   UNL A   1      45.489  23.679  35.318  1.00  0.00    -0.193 NA
ATOM     99  C   UNL A   1      45.491  22.605  36.334  1.00  0.00     0.131 C 
ATOM    100  C   UNL A   1      46.520  24.718  35.487  1.00  0.00     0.131 C 
ATOM    101  C   UNL A   1      45.699  23.154  37.758  1.00  0.00     0.177 C 
ATOM    102  C   UNL A   1      46.543  25.208  36.935  1.00  0.00     0.177 C 
ATOM    103  O   UNL A   1      46.758  24.116  37.839  1.00  0.00    -0.379 OA
ENDBRANCH  95  98
ENDBRANCH  94  95
ENDBRANCH  85  89
ENDBRANCH  71  74
ENDBRANCH  69  70
ENDBRANCH   1  69
TORSDOF 16
ENDMDL
MODEL 2
REMARK VINA RESULT:      -9.8      1.026      7.765
REMARK SMILES O=C(NCCCNC(=O)c1cc(Cl)c2c(c1)[C@H]1C=CC[C@H]1[C@H](c1ccc(S(=O)(=O)N3CCOCC3)cc1)N2)c1ccc(-c2c3nc(c(-c4ccc(S(=O)(=O)[O-])cc4)c4ccc([nH]4)c(-c4ccc(S(=O)(=O)[O-])cc4)c4nc(c(-c5ccc(S(=O)(=O)[O-])cc5)c5ccc2[nH]5)C=C4)C=C3)cc1
REMARK SMILES IDX 5 1 4 2 3 3 1 4 2 5 39 7 40 8 98 9 41 10 97 11 42 12 43 13
REMARK SMILES IDX 44 14 91 15 45 16 96 17 90 18 92 19 46 20 95 21 89 22 88 23
REMARK SMILES IDX 47 25 77 26 58 27 76 28 59 29 62 30 75 31 93 32 60 33 61 34
REMARK SMILES IDX 74 36 94 37 63 38 48 39 49 40 57 41 50 42 56 43 51 44 52 45
REMARK SMILES IDX 53 46 54 47 55 48 78 49 79 50 87 51 80 52 86 53 81 54 82 55
REMARK SMILES IDX 83 56 84 57 85 58 64 59 65 60 73 61 66 62 72 63 67 64 68 65
REMARK SMILES IDX 69 66 70 67 71 68 6 69 7 70 8 71 9 73 10 74 11 75 16 76
REMARK SMILES IDX 12 77 15 78 13 79 14 80 17 81 38 82 18 83 21 84 22 85 19 87
REMARK SMILES IDX 20 88 23 89 24 90 37 91 25 92 36 93 26 94 27 95 28 96 29 97
REMARK SMILES IDX 30 98 31 99 35 100 32 101 34 102 33 103
REMARK H PARENT 3 6 92 24 62 35 7 72 38 86
REMARK Flexibility Score: inf
ROOT
ATOM      1  C   UNL A   1      35.302  32.992  30.133  1.00  0.00     0.042 C 
ENDROOT
BRANCH   1   2
ATOM      2  C   UNL A   1      35.083  32.768  28.643  1.00  0.00     0.118 C 
BRANCH   2   3
ATOM      3  N   UNL A   1      34.313  31.563  28.375  1.00  0.00    -0.352 N 
ATOM      4  O   UNL A   1      33.953  29.459  27.666  1.00  0.00    -0.269 OA
ATOM      5  C   UNL A   1      34.745  30.288  28.105  1.00  0.00     0.251 C 
ATOM      6  H   UNL A   1      33.336  31.678  28.390  1.00  0.00     0.163 HD
BRANCH   5   7
ATOM      7  C   UNL A   1      36.158  29.921  28.333  1.00  0.00     0.039 A 
ATOM      8  C   UNL A   1      37.106  30.081  27.320  1.00  0.00     0.014 A 
ATOM      9  C   UNL A   1      36.547  29.460  29.594  1.00  0.00     0.014 A 
ATOM     10  C   UNL A   1      38.418  29.672  27.529  1.00  0.00     0.010 A 
ATOM     11  C   UNL A   1      37.881  29.113  29.825  1.00  0.00     0.010 A 
ATOM     12  C   UNL A   1      38.819  29.195  28.787  1.00  0.00    -0.014 A 
BRANCH  12  13
ATOM     13  C   UNL A   1      40.248  28.874  29.005  1.00  0.00     0.031 A 
ATOM     14  C   UNL A   1      40.817  27.545  28.612  1.00  0.00     0.074 A 
ATOM     15  C   UNL A   1      41.044  29.827  29.527  1.00  0.00     0.049 A 
ATOM     16  N   UNL A   1      42.068  27.163  28.607  1.00  0.00    -0.248 NA
ATOM     17  C   UNL A   1      39.869  26.509  28.173  1.00  0.00     0.031 C 
ATOM     18  C   UNL A   1      40.590  31.148  29.968  1.00  0.00     0.029 A 
ATOM     19  N   UNL A   1      42.397  29.846  29.748  1.00  0.00    -0.354 N 
ATOM     20  C   UNL A   1      42.062  25.845  28.170  1.00  0.00     0.074 A 
ATOM     21  C   UNL A   1      40.679  25.482  27.944  1.00  0.00     0.031 C 
ATOM     22  C   UNL A   1      41.652  31.866  30.362  1.00  0.00     0.029 A 
ATOM     23  C   UNL A   1      42.855  31.048  30.230  1.00  0.00     0.049 A 
ATOM     24  H   UNL A   1      42.983  29.073  29.578  1.00  0.00     0.167 HD
ATOM     25  C   UNL A   1      43.116  25.021  27.968  1.00  0.00     0.031 A 
ATOM     26  C   UNL A   1      44.103  31.458  30.527  1.00  0.00     0.031 A 
ATOM     27  C   UNL A   1      44.487  25.391  28.196  1.00  0.00     0.049 A 
ATOM     28  C   UNL A   1      45.255  30.526  30.305  1.00  0.00     0.074 A 
ATOM     29  C   UNL A   1      45.626  24.642  27.959  1.00  0.00     0.029 A 
ATOM     30  N   UNL A   1      44.904  26.602  28.726  1.00  0.00    -0.354 N 
ATOM     31  N   UNL A   1      45.236  29.309  29.818  1.00  0.00    -0.248 NA
ATOM     32  C   UNL A   1      46.592  31.016  30.662  1.00  0.00     0.031 C 
ATOM     33  C   UNL A   1      46.730  25.383  28.391  1.00  0.00     0.029 A 
ATOM     34  C   UNL A   1      46.282  26.610  28.856  1.00  0.00     0.049 A 
ATOM     35  H   UNL A   1      44.309  27.346  28.974  1.00  0.00     0.167 HD
ATOM     36  C   UNL A   1      46.559  28.887  29.801  1.00  0.00     0.074 A 
ATOM     37  C   UNL A   1      47.353  29.981  30.323  1.00  0.00     0.031 C 
ATOM     38  C   UNL A   1      47.062  27.701  29.385  1.00  0.00     0.031 A 
BRANCH  25  39
ATOM     39  C   UNL A   1      42.832  23.625  27.487  1.00  0.00    -0.014 A 
ATOM     40  C   UNL A   1      42.843  23.317  26.115  1.00  0.00     0.010 A 
ATOM     41  C   UNL A   1      42.617  22.596  28.421  1.00  0.00     0.010 A 
ATOM     42  C   UNL A   1      42.616  22.007  25.685  1.00  0.00     0.020 A 
ATOM     43  C   UNL A   1      42.407  21.281  27.995  1.00  0.00     0.020 A 
ATOM     44  C   UNL A   1      42.400  20.997  26.628  1.00  0.00     0.054 A 
BRANCH  44  45
ATOM     45  S   UNL A   1      42.113  19.308  26.033  1.00  0.00     0.124 S 
ATOM     46  O   UNL A   1      42.920  19.275  24.815  1.00  0.00    -0.237 OA
ATOM     47  O   UNL A   1      42.613  18.495  27.138  1.00  0.00    -0.237 OA
ATOM     48  O   UNL A   1      40.669  19.252  25.820  1.00  0.00    -0.744 OA
ENDBRANCH  44  45
ENDBRANCH  25  39
BRANCH  26  49
ATOM     49  C   UNL A   1      44.290  32.840  31.037  1.00  0.00    -0.014 A 
ATOM     50  C   UNL A   1      44.215  33.934  30.161  1.00  0.00     0.010 A 
ATOM     51  C   UNL A   1      44.401  33.069  32.421  1.00  0.00     0.010 A 
ATOM     52  C   UNL A   1      44.216  35.238  30.663  1.00  0.00     0.020 A 
ATOM     53  C   UNL A   1      44.386  34.371  32.927  1.00  0.00     0.020 A 
ATOM     54  C   UNL A   1      44.282  35.447  32.044  1.00  0.00     0.054 A 
BRANCH  54  55
ATOM     55  S   UNL A   1      44.156  37.145  32.671  1.00  0.00     0.124 S 
ATOM     56  O   UNL A   1      43.870  37.902  31.455  1.00  0.00    -0.237 OA
ATOM     57  O   UNL A   1      43.055  37.040  33.625  1.00  0.00    -0.237 OA
ATOM     58  O   UNL A   1      45.468  37.392  33.265  1.00  0.00    -0.744 OA
ENDBRANCH  54  55
ENDBRANCH  26  49
BRANCH  38  59
ATOM     59  C   UNL A   1      48.547  27.495  29.466  1.00  0.00    -0.014 A 
ATOM     60  C   UNL A   1      49.367  27.765  28.358  1.00  0.00     0.010 A 
ATOM     61  C   UNL A   1      49.137  27.179  30.704  1.00  0.00     0.010 A 
ATOM     62  C   UNL A   1      50.758  27.743  28.491  1.00  0.00     0.020 A 
ATOM     63  C   UNL A   1      50.527  27.171  30.844  1.00  0.00     0.020 A 
ATOM     64  C   UNL A   1      51.328  27.463  29.738  1.00  0.00     0.054 A 
BRANCH  64  65
ATOM     65  S   UNL A   1      53.133  27.547  29.903  1.00  0.00     0.124 S 
ATOM     66  O   UNL A   1      53.570  27.556  28.509  1.00  0.00    -0.237 OA
ATOM     67  O   UNL A   1      53.324  28.799  30.629  1.00  0.00    -0.237 OA
ATOM     68  O   UNL A   1      53.473  26.338  30.650  1.00  0.00    -0.744 OA
ENDBRANCH  64  65
ENDBRANCH  38  59
ENDBRANCH  12  13
ENDBRANCH   5   7
ENDBRANCH   2   3
ENDBRANCH   1   2
BRANCH   1  69
ATOM     69  C   UNL A   1      36.663  33.578  30.481  1.00  0.00     0.118 C 
BRANCH  69  70
ATOM     70  N   UNL A   1      36.634  34.376  31.699  1.00  0.00    -0.352 N 
ATOM     71  C   UNL A   1      37.089  34.060  32.953  1.00  0.00     0.251 C 
ATOM     72  H   UNL A   1      36.229  35.269  31.610  1.00  0.00     0.163 HD
ATOM     73  O   UNL A   1      36.841  34.783  33.911  1.00  0.00    -0.269 OA
BRANCH  71  74
ATOM     74  C   UNL A   1      37.869  32.827  33.150  1.00  0.00     0.041 A 
ATOM     75  C   UNL A   1      37.293  31.576  32.938  1.00  0.00     0.036 A 
ATOM     76  C   UNL A   1      39.207  32.936  33.521  1.00  0.00     0.020 A 
ATOM     77  C   UNL A   1      38.036  30.434  33.217  1.00  0.00     0.065 A 
ATOM     78  C   UNL A   1      39.970  31.783  33.758  1.00  0.00    -0.015 A 
ATOM     79  Cl  UNL A   1      37.266  28.895  33.017  1.00  0.00    -0.082 Cl
ATOM     80  C   UNL A   1      39.369  30.517  33.667  1.00  0.00     0.057 A 
ATOM     81  C   UNL A   1      41.435  31.924  34.050  1.00  0.00     0.049 C 
ATOM     82  N   UNL A   1      40.103  29.369  33.921  1.00  0.00    -0.376 N 
ATOM     83  C   UNL A   1      41.774  32.456  35.418  1.00  0.00    -0.023 C 
ATOM     84  C   UNL A   1      42.237  30.605  34.012  1.00  0.00     0.031 C 
ATOM     85  C   UNL A   1      41.386  29.449  34.601  1.00  0.00     0.114 C 
ATOM     86  H   UNL A   1      39.753  28.493  33.640  1.00  0.00     0.161 HD
ATOM     87  C   UNL A   1      42.927  31.931  35.855  1.00  0.00    -0.030 C 
ATOM     88  C   UNL A   1      43.481  30.974  34.847  1.00  0.00     0.034 C 
BRANCH  85  89
ATOM     89  C   UNL A   1      42.079  28.094  34.508  1.00  0.00    -0.025 A 
ATOM     90  C   UNL A   1      42.975  27.745  33.479  1.00  0.00     0.007 A 
ATOM     91  C   UNL A   1      41.810  27.144  35.497  1.00  0.00     0.007 A 
ATOM     92  C   UNL A   1      43.593  26.487  33.454  1.00  0.00     0.022 A 
ATOM     93  C   UNL A   1      42.457  25.916  35.495  1.00  0.00     0.022 A 
ATOM     94  C   UNL A   1      43.341  25.577  34.481  1.00  0.00     0.082 A 
BRANCH  94  95
ATOM     95  S   UNL A   1      44.171  24.004  34.481  1.00  0.00     0.243 S 
ATOM     96  O   UNL A   1      43.169  23.013  34.821  1.00  0.00    -0.207 OA
ATOM     97  O   UNL A   1      44.919  23.933  33.246  1.00  0.00    -0.207 OA
BRANCH  95  98
ATOM     98  N   UNL A   1      45.273  24.087  35.742  1.00  0.00    -0.193 NA
ATOM     99  C   UNL A   1      46.043  25.312  36.046  1.00  0.00     0.131 C 
ATOM    100  C   UNL A   1      45.590  22.913  36.573  1.00  0.00     0.131 C 
ATOM    101  C   UNL A   1      47.535  25.015  36.291  1.00  0.00     0.177 C 
ATOM    102  C   UNL A   1      47.103  22.714  36.652  1.00  0.00     0.177 C 
ATOM    103  O   UNL A   1      47.747  23.892  37.156  1.00  0.00    -0.379 OA
ENDBRANCH  95  98
ENDBRANCH  94  95
ENDBRANCH  85  89
ENDBRANCH  71  74
ENDBRANCH  69  70
ENDBRANCH   1  69
TORSDOF 16
ENDMDL
MODEL 3
REMARK VINA RESULT:      -9.6      3.504     10.273
REMARK SMILES O=C(NCCCNC(=O)c1cc(Cl)c2c(c1)[C@H]1C=CC[C@H]1[C@H](c1ccc(S(=O)(=O)N3CCOCC3)cc1)N2)c1ccc(-c2c3nc(c(-c4ccc(S(=O)(=O)[O-])cc4)c4ccc([nH]4)c(-c4ccc(S(=O)(=O)[O-])cc4)c4nc(c(-c5ccc(S(=O)(=O)[O-])cc5)c5ccc2[nH]5)C=C4)C=C3)cc1
REMARK SMILES IDX 5 1 4 2 3 3 1 4 2 5 39 7 40 8 98 9 41 10 97 11 42 12 43 13
REMARK SMILES IDX 44 14 91 15 45 16 96 17 90 18 92 19 46 20 95 21 89 22 88 23
REMARK SMILES IDX 47 25 77 26 58 27 76 28 59 29 62 30 75 31 93 32 60 33 61 34
REMARK SMILES IDX 74 36 94 37 63 38 48 39 49 40 57 41 50 42 56 43 51 44 52 45
REMARK SMILES IDX 53 46 54 47 55 48 78 49 79 50 87 51 80 52 86 53 81 54 82 55
REMARK SMILES IDX 83 56 84 57 85 58 64 59 65 60 73 61 66 62 72 63 67 64 68 65
REMARK SMILES IDX 69 66 70 67 71 68 6 69 7 70 8 71 9 73 10 74 11 75 16 76
REMARK SMILES IDX 12 77 15 78 13 79 14 80 17 81 38 82 18 83 21 84 22 85 19 87
REMARK SMILES IDX 20 88 23 89 24 90 37 91 25 92 36 93 26 94 27 95 28 96 29 97
REMARK SMILES IDX 30 98 31 99 35 100 32 101 34 102 33 103
REMARK H PARENT 3 6 92 24 62 35 7 72 38 86
REMARK Flexibility Score: inf
ROOT
ATOM      1  C   UNL A   1      41.579  20.859  26.449  1.00  0.00     0.042 C 
ENDROOT
BRANCH   1   2
ATOM      2  C   UNL A   1      40.391  21.488  27.165  1.00  0.00     0.118 C 
BRANCH   2   3
ATOM      3  N   UNL A   1      39.343  21.891  26.240  1.00  0.00    -0.352 N 
ATOM      4  O   UNL A   1      37.663  23.163  25.451  1.00  0.00    -0.269 OA
ATOM      5  C   UNL A   1      38.684  23.091  26.130  1.00  0.00     0.251 C 
ATOM      6  H   UNL A   1      39.063  21.201  25.597  1.00  0.00     0.163 HD
BRANCH   5   7
ATOM      7  C   UNL A   1      39.198  24.285  26.831  1.00  0.00     0.039 A 
ATOM      8  C   UNL A   1      40.006  25.208  26.161  1.00  0.00     0.014 A 
ATOM      9  C   UNL A   1      38.824  24.511  28.158  1.00  0.00     0.014 A 
ATOM     10  C   UNL A   1      40.533  26.294  26.851  1.00  0.00     0.010 A 
ATOM     11  C   UNL A   1      39.300  25.639  28.832  1.00  0.00     0.010 A 
ATOM     12  C   UNL A   1      40.176  26.525  28.189  1.00  0.00    -0.014 A 
BRANCH  12  13
ATOM     13  C   UNL A   1      40.669  27.751  28.857  1.00  0.00     0.031 A 
ATOM     14  C   UNL A   1      39.777  28.938  29.063  1.00  0.00     0.074 A 
ATOM     15  C   UNL A   1      41.933  27.763  29.319  1.00  0.00     0.049 A 
ATOM     16  N   UNL A   1      40.014  30.025  29.750  1.00  0.00    -0.248 NA
ATOM     17  C   UNL A   1      38.455  28.908  28.419  1.00  0.00     0.031 C 
ATOM     18  C   UNL A   1      42.897  26.671  29.151  1.00  0.00     0.029 A 
ATOM     19  N   UNL A   1      42.616  28.704  30.046  1.00  0.00    -0.354 N 
ATOM     20  C   UNL A   1      38.877  30.812  29.619  1.00  0.00     0.074 A 
ATOM     21  C   UNL A   1      37.959  30.088  28.765  1.00  0.00     0.031 C 
ATOM     22  C   UNL A   1      44.029  26.985  29.798  1.00  0.00     0.029 A 
ATOM     23  C   UNL A   1      43.883  28.308  30.398  1.00  0.00     0.049 A 
ATOM     24  H   UNL A   1      42.235  29.578  30.290  1.00  0.00     0.167 HD
ATOM     25  C   UNL A   1      38.623  32.021  30.171  1.00  0.00     0.031 A 
ATOM     26  C   UNL A   1      44.826  28.930  31.132  1.00  0.00     0.031 A 
ATOM     27  C   UNL A   1      39.542  32.732  31.019  1.00  0.00     0.049 A 
ATOM     28  C   UNL A   1      44.528  30.272  31.726  1.00  0.00     0.074 A 
ATOM     29  C   UNL A   1      39.346  33.935  31.675  1.00  0.00     0.029 A 
ATOM     30  N   UNL A   1      40.831  32.317  31.315  1.00  0.00    -0.354 N 
ATOM     31  N   UNL A   1      43.418  30.967  31.655  1.00  0.00    -0.248 NA
ATOM     32  C   UNL A   1      45.596  30.915  32.501  1.00  0.00     0.031 C 
ATOM     33  C   UNL A   1      40.536  34.271  32.329  1.00  0.00     0.029 A 
ATOM     34  C   UNL A   1      41.456  33.256  32.118  1.00  0.00     0.049 A 
ATOM     35  H   UNL A   1      41.242  31.479  31.002  1.00  0.00     0.167 HD
ATOM     36  C   UNL A   1      43.649  32.126  32.383  1.00  0.00     0.074 A 
ATOM     37  C   UNL A   1      45.003  32.039  32.891  1.00  0.00     0.031 C 
ATOM     38  C   UNL A   1      42.808  33.162  32.610  1.00  0.00     0.031 A 
BRANCH  25  39
ATOM     39  C   UNL A   1      37.300  32.666  29.866  1.00  0.00    -0.014 A 
ATOM     40  C   UNL A   1      36.194  32.486  30.717  1.00  0.00     0.010 A 
ATOM     41  C   UNL A   1      37.178  33.517  28.753  1.00  0.00     0.010 A 
ATOM     42  C   UNL A   1      34.982  33.124  30.443  1.00  0.00     0.020 A 
ATOM     43  C   UNL A   1      35.972  34.171  28.485  1.00  0.00     0.020 A 
ATOM     44  C   UNL A   1      34.879  33.963  29.328  1.00  0.00     0.054 A 
BRANCH  44  45
ATOM     45  S   UNL A   1      33.291  34.777  29.006  1.00  0.00     0.124 S 
ATOM     46  O   UNL A   1      33.713  36.027  28.376  1.00  0.00    -0.237 OA
ATOM     47  O   UNL A   1      32.622  33.826  28.123  1.00  0.00    -0.237 OA
ATOM     48  O   UNL A   1      32.697  34.924  30.332  1.00  0.00    -0.744 OA
ENDBRANCH  44  45
ENDBRANCH  25  39
BRANCH  26  49
ATOM     49  C   UNL A   1      46.122  28.239  31.349  1.00  0.00    -0.014 A 
ATOM     50  C   UNL A   1      46.169  27.029  32.061  1.00  0.00     0.010 A 
ATOM     51  C   UNL A   1      47.288  28.718  30.723  1.00  0.00     0.010 A 
ATOM     52  C   UNL A   1      47.354  26.291  32.115  1.00  0.00     0.020 A 
ATOM     53  C   UNL A   1      48.470  27.974  30.763  1.00  0.00     0.020 A 
ATOM     54  C   UNL A   1      48.492  26.759  31.449  1.00  0.00     0.054 A 
BRANCH  54  55
ATOM     55  S   UNL A   1      49.978  25.719  31.436  1.00  0.00     0.124 S 
ATOM     56  O   UNL A   1      49.893  25.076  30.129  1.00  0.00    -0.237 OA
ATOM     57  O   UNL A   1      51.044  26.705  31.588  1.00  0.00    -0.237 OA
ATOM     58  O   UNL A   1      49.789  24.832  32.581  1.00  0.00    -0.744 OA
ENDBRANCH  54  55
ENDBRANCH  26  49
BRANCH  38  59
ATOM     59  C   UNL A   1      43.305  34.307  33.445  1.00  0.00    -0.014 A 
ATOM     60  C   UNL A   1      43.656  35.529  32.845  1.00  0.00     0.010 A 
ATOM     61  C   UNL A   1      43.269  34.209  34.848  1.00  0.00     0.010 A 
ATOM     62  C   UNL A   1      43.946  36.642  33.638  1.00  0.00     0.020 A 
ATOM     63  C   UNL A   1      43.544  35.325  35.643  1.00  0.00     0.020 A 
ATOM     64  C   UNL A   1      43.871  36.537  35.031  1.00  0.00     0.054 A 
BRANCH  64  65
ATOM     65  S   UNL A   1      44.149  38.027  36.028  1.00  0.00     0.124 S 
ATOM     66  O   UNL A   1      45.552  37.885  36.411  1.00  0.00    -0.237 OA
ATOM     67  O   UNL A   1      43.862  39.099  35.078  1.00  0.00    -0.237 OA
ATOM     68  O   UNL A   1      43.192  37.898  37.125  1.00  0.00    -0.744 OA
ENDBRANCH  64  65
ENDBRANCH  38  59
ENDBRANCH  12  13
ENDBRANCH   5   7
ENDBRANCH   2   3
ENDBRANCH   1   2
BRANCH   1  69
ATOM     69  C   UNL A   1      42.765  21.796  26.271  1.00  0.00     0.118 C 
BRANCH  69  70
ATOM     70  N   UNL A   1      43.452  21.594  25.002  1.00  0.00    -0.352 N 
ATOM     71  C   UNL A   1      44.147  22.496  24.239  1.00  0.00     0.251 C 
ATOM     72  H   UNL A   1      43.410  20.679  24.641  1.00  0.00     0.163 HD
ATOM     73  O   UNL A   1      44.528  22.202  23.112  1.00  0.00    -0.269 OA
BRANCH  71  74
ATOM     74  C   UNL A   1      44.419  23.839  24.777  1.00  0.00     0.041 A 
ATOM     75  C   UNL A   1      43.449  24.838  24.729  1.00  0.00     0.036 A 
ATOM     76  C   UNL A   1      45.658  24.084  25.365  1.00  0.00     0.020 A 
ATOM     77  C   UNL A   1      43.773  26.117  25.169  1.00  0.00     0.065 A 
ATOM     78  C   UNL A   1      45.968  25.363  25.850  1.00  0.00    -0.015 A 
ATOM     79  Cl  UNL A   1      42.570  27.355  25.026  1.00  0.00    -0.082 Cl
ATOM     80  C   UNL A   1      45.046  26.410  25.699  1.00  0.00     0.057 A 
ATOM     81  C   UNL A   1      47.265  25.573  26.576  1.00  0.00     0.049 C 
ATOM     82  N   UNL A   1      45.348  27.685  26.152  1.00  0.00    -0.376 N 
ATOM     83  C   UNL A   1      48.498  25.579  25.711  1.00  0.00    -0.023 C 
ATOM     84  C   UNL A   1      47.387  26.924  27.314  1.00  0.00     0.031 C 
ATOM     85  C   UNL A   1      46.717  28.047  26.479  1.00  0.00     0.114 C 
ATOM     86  H   UNL A   1      44.629  28.351  26.253  1.00  0.00     0.161 HD
ATOM     87  C   UNL A   1      49.425  26.403  26.217  1.00  0.00    -0.030 C 
ATOM     88  C   UNL A   1      48.917  27.061  27.461  1.00  0.00     0.034 C 
BRANCH  85  89
ATOM     89  C   UNL A   1      46.714  29.395  27.192  1.00  0.00    -0.025 A 
ATOM     90  C   UNL A   1      47.873  30.164  27.413  1.00  0.00     0.007 A 
ATOM     91  C   UNL A   1      45.494  29.897  27.653  1.00  0.00     0.007 A 
ATOM     92  C   UNL A   1      47.806  31.405  28.063  1.00  0.00     0.022 A 
ATOM     93  C   UNL A   1      45.422  31.145  28.255  1.00  0.00     0.022 A 
ATOM     94  C   UNL A   1      46.566  31.901  28.469  1.00  0.00     0.082 A 
BRANCH  94  95
ATOM     95  S   UNL A   1      46.473  33.500  29.240  1.00  0.00     0.243 S 
ATOM     96  O   UNL A   1      45.098  33.670  29.665  1.00  0.00    -0.207 OA
ATOM     97  O   UNL A   1      47.572  33.571  30.177  1.00  0.00    -0.207 OA
BRANCH  95  98
ATOM     98  N   UNL A   1      46.780  34.600  28.011  1.00  0.00    -0.193 NA
ATOM     99  C   UNL A   1      45.796  34.901  26.949  1.00  0.00     0.131 C 
ATOM    100  C   UNL A   1      48.084  35.274  27.881  1.00  0.00     0.131 C 
ATOM    101  C   UNL A   1      46.438  34.912  25.549  1.00  0.00     0.177 C 
ATOM    102  C   UNL A   1      48.615  35.126  26.456  1.00  0.00     0.177 C 
ATOM    103  O   UNL A   1      47.672  35.638  25.504  1.00  0.00    -0.379 OA
ENDBRANCH  95  98
ENDBRANCH  94  95
ENDBRANCH  85  89
ENDBRANCH  71  74
ENDBRANCH  69  70
ENDBRANCH   1  69
TORSDOF 16
ENDMDL
