MODEL 1
REMARK VINA RESULT:     -10.7      0.000      0.000
REMARK SMILES CSCC[C@@H](NC1=[NH+]S(=O)(=O)c2ccccc21)C(=O)NCCCNC(=O)c1ccc(-c2c3nc(c(-c4ccc(S(=O)(=O)[O-])cc4)c4ccc([nH]4)c(-c4ccc(S(=O)(=O)[O-])cc4)c4nc(c(-c5ccc(S(=O)(=O)[O-])cc5)c5ccc2[nH]5)C=C4)C=C3)cc1
REMARK SMILES IDX 22 1 21 2 20 3 18 4 19 5 5 7 4 8 3 9 2 10 1 11 6 12 7 13
REMARK SMILES IDX 8 15 17 16 9 17 12 19 16 20 10 21 11 22 13 23 15 24 14 25
REMARK SMILES IDX 23 26 24 27 25 28 26 30 27 31 28 32 86 33 29 34 85 35 30 36
REMARK SMILES IDX 31 37 32 38 79 39 33 40 84 41 78 42 80 43 34 44 83 45 77 46
REMARK SMILES IDX 76 47 35 49 65 50 46 51 64 52 47 53 50 54 63 55 81 56 48 57
REMARK SMILES IDX 49 58 62 60 82 61 51 62 36 63 37 64 45 65 38 66 44 67 39 68
REMARK SMILES IDX 40 69 41 70 42 71 43 72 66 73 67 74 75 75 68 76 74 77 69 78
REMARK SMILES IDX 70 79 71 80 72 81 73 82 52 83 53 84 61 85 54 86 60 87 55 88
REMARK SMILES IDX 56 89 57 90 58 91 59 92
REMARK H PARENT 20 6 6 14 8 18 24 29 80 48 50 59
REMARK Flexibility Score: inf
ROOT
ATOM      1  C   UNL A   1      34.122  28.266  25.929  1.00  0.00     0.042 C 
ENDROOT
BRANCH   1   2
ATOM      2  C   UNL A   1      33.294  28.882  24.820  1.00  0.00     0.118 C 
BRANCH   2   3
ATOM      3  N   UNL A   1      33.847  28.656  23.498  1.00  0.00    -0.352 N 
ATOM      4  C   UNL A   1      33.613  27.649  22.602  1.00  0.00     0.264 C 
ATOM      5  O   UNL A   1      34.174  27.720  21.504  1.00  0.00    -0.270 OA
ATOM      6  H   UNL A   1      34.492  29.337  23.197  1.00  0.00     0.163 HD
BRANCH   4   7
ATOM      7  C   UNL A   1      32.778  26.399  22.978  1.00  0.00     0.262 C 
BRANCH   7   8
ATOM      8  C   UNL A   1      31.487  26.446  22.140  1.00  0.00     0.071 C 
BRANCH   8   9
ATOM      9  C   UNL A   1      30.692  27.748  22.172  1.00  0.00     0.074 C 
BRANCH   9  10
ATOM     10  S   UNL A   1      29.703  28.010  23.676  1.00  0.00    -0.165 SA
ATOM     11  C   UNL A   1      28.222  28.772  22.976  1.00  0.00     0.085 C 
ENDBRANCH   9  10
ENDBRANCH   8   9
ENDBRANCH   7   8
BRANCH   7  12
ATOM     12  N   UNL A   1      33.497  25.123  22.796  1.00  0.00    -0.261 N 
ATOM     13  C   UNL A   1      33.398  24.054  23.653  1.00  0.00     0.292 C 
ATOM     14  H   UNL A   1      34.083  25.032  22.010  1.00  0.00     0.306 HD
ATOM     15  N   UNL A   1      32.381  23.822  24.429  1.00  0.00    -0.162 N 
ATOM     16  C   UNL A   1      34.564  23.158  23.849  1.00  0.00     0.087 A 
ATOM     17  S   UNL A   1      32.711  22.615  25.491  1.00  0.00     0.329 S 
ATOM     18  H   UNL A   1      31.527  24.307  24.386  1.00  0.00     0.327 HD
ATOM     19  C   UNL A   1      34.332  22.327  24.928  1.00  0.00     0.124 A 
ATOM     20  C   UNL A   1      35.811  23.196  23.247  1.00  0.00     0.018 A 
ATOM     21  O   UNL A   1      31.939  21.437  25.187  1.00  0.00    -0.179 OA
ATOM     22  O   UNL A   1      32.833  23.158  26.833  1.00  0.00    -0.179 OA
ATOM     23  C   UNL A   1      35.310  21.539  25.498  1.00  0.00     0.025 A 
ATOM     24  C   UNL A   1      36.820  22.388  23.783  1.00  0.00     0.001 A 
ATOM     25  C   UNL A   1      36.575  21.575  24.906  1.00  0.00     0.002 A 
ENDBRANCH   7  12
ENDBRANCH   4   7
ENDBRANCH   2   3
ENDBRANCH   1   2
BRANCH   1  26
ATOM     26  C   UNL A   1      33.575  28.533  27.322  1.00  0.00     0.118 C 
BRANCH  26  27
ATOM     27  N   UNL A   1      33.492  29.953  27.636  1.00  0.00    -0.352 N 
ATOM     28  C   UNL A   1      34.412  30.775  28.240  1.00  0.00     0.251 C 
ATOM     29  H   UNL A   1      32.648  30.389  27.375  1.00  0.00     0.163 HD
ATOM     30  O   UNL A   1      34.080  31.900  28.599  1.00  0.00    -0.269 OA
BRANCH  28  31
ATOM     31  C   UNL A   1      35.794  30.299  28.477  1.00  0.00     0.039 A 
ATOM     32  C   UNL A   1      36.734  30.399  27.447  1.00  0.00     0.014 A 
ATOM     33  C   UNL A   1      36.161  29.740  29.704  1.00  0.00     0.014 A 
ATOM     34  C   UNL A   1      38.054  30.000  27.672  1.00  0.00     0.010 A 
ATOM     35  C   UNL A   1      37.493  29.429  29.956  1.00  0.00     0.010 A 
ATOM     36  C   UNL A   1      38.451  29.542  28.938  1.00  0.00    -0.014 A 
BRANCH  36  37
ATOM     37  C   UNL A   1      39.851  29.137  29.218  1.00  0.00     0.031 A 
ATOM     38  C   UNL A   1      40.813  30.139  29.804  1.00  0.00     0.074 A 
ATOM     39  C   UNL A   1      40.282  27.908  28.868  1.00  0.00     0.049 A 
ATOM     40  N   UNL A   1      42.100  30.023  30.009  1.00  0.00    -0.248 NA
ATOM     41  C   UNL A   1      40.264  31.456  30.171  1.00  0.00     0.031 C 
ATOM     42  C   UNL A   1      39.467  26.869  28.232  1.00  0.00     0.029 A 
ATOM     43  N   UNL A   1      41.521  27.331  28.985  1.00  0.00    -0.354 N 
ATOM     44  C   UNL A   1      42.519  31.263  30.478  1.00  0.00     0.074 A 
ATOM     45  C   UNL A   1      41.358  32.124  30.503  1.00  0.00     0.031 C 
ATOM     46  C   UNL A   1      40.225  25.777  28.032  1.00  0.00     0.029 A 
ATOM     47  C   UNL A   1      41.581  26.047  28.499  1.00  0.00     0.049 A 
ATOM     48  H   UNL A   1      42.294  27.795  29.380  1.00  0.00     0.167 HD
ATOM     49  C   UNL A   1      43.757  31.647  30.868  1.00  0.00     0.031 A 
ATOM     50  C   UNL A   1      42.613  25.184  28.438  1.00  0.00     0.031 A 
ATOM     51  C   UNL A   1      44.897  30.772  30.907  1.00  0.00     0.049 A 
ATOM     52  C   UNL A   1      43.952  25.600  28.980  1.00  0.00     0.074 A 
ATOM     53  C   UNL A   1      46.177  31.045  31.357  1.00  0.00     0.029 A 
ATOM     54  N   UNL A   1      44.887  29.448  30.503  1.00  0.00    -0.354 N 
ATOM     55  N   UNL A   1      44.314  26.762  29.468  1.00  0.00    -0.248 NA
ATOM     56  C   UNL A   1      45.013  24.584  28.982  1.00  0.00     0.031 C 
ATOM     57  C   UNL A   1      46.946  29.885  31.215  1.00  0.00     0.029 A 
ATOM     58  C   UNL A   1      46.134  28.885  30.703  1.00  0.00     0.049 A 
ATOM     59  H   UNL A   1      44.107  28.976  30.129  1.00  0.00     0.167 HD
ATOM     60  C   UNL A   1      45.638  26.606  29.864  1.00  0.00     0.074 A 
ATOM     61  C   UNL A   1      46.008  25.238  29.566  1.00  0.00     0.031 C 
ATOM     62  C   UNL A   1      46.473  27.515  30.422  1.00  0.00     0.031 A 
BRANCH  49  63
ATOM     63  C   UNL A   1      43.940  33.075  31.299  1.00  0.00    -0.014 A 
ATOM     64  C   UNL A   1      44.394  34.051  30.395  1.00  0.00     0.010 A 
ATOM     65  C   UNL A   1      43.609  33.456  32.612  1.00  0.00     0.010 A 
ATOM     66  C   UNL A   1      44.544  35.378  30.804  1.00  0.00     0.020 A 
ATOM     67  C   UNL A   1      43.738  34.787  33.020  1.00  0.00     0.020 A 
ATOM     68  C   UNL A   1      44.219  35.737  32.116  1.00  0.00     0.054 A 
BRANCH  68  69
ATOM     69  S   UNL A   1      44.382  37.473  32.614  1.00  0.00     0.124 S 
ATOM     70  O   UNL A   1      43.889  38.172  31.429  1.00  0.00    -0.237 OA
ATOM     71  O   UNL A   1      43.523  37.556  33.793  1.00  0.00    -0.237 OA
ATOM     72  O   UNL A   1      45.811  37.623  32.878  1.00  0.00    -0.744 OA
ENDBRANCH  68  69
ENDBRANCH  49  63
BRANCH  50  73
ATOM     73  C   UNL A   1      42.418  23.824  27.869  1.00  0.00    -0.014 A 
ATOM     74  C   UNL A   1      42.018  22.760  28.695  1.00  0.00     0.010 A 
ATOM     75  C   UNL A   1      42.640  23.586  26.502  1.00  0.00     0.010 A 
ATOM     76  C   UNL A   1      41.872  21.473  28.173  1.00  0.00     0.020 A 
ATOM     77  C   UNL A   1      42.475  22.304  25.970  1.00  0.00     0.020 A 
ATOM     78  C   UNL A   1      42.107  21.252  26.813  1.00  0.00     0.054 A 
BRANCH  78  79
ATOM     79  S   UNL A   1      41.879  19.584  26.136  1.00  0.00     0.124 S 
ATOM     80  O   UNL A   1      42.758  19.607  24.971  1.00  0.00    -0.237 OA
ATOM     81  O   UNL A   1      42.310  18.727  27.238  1.00  0.00    -0.237 OA
ATOM     82  O   UNL A   1      40.448  19.532  25.844  1.00  0.00    -0.744 OA
ENDBRANCH  78  79
ENDBRANCH  50  73
BRANCH  62  83
ATOM     83  C   UNL A   1      47.848  27.045  30.798  1.00  0.00    -0.014 A 
ATOM     84  C   UNL A   1      48.075  26.348  31.996  1.00  0.00     0.010 A 
ATOM     85  C   UNL A   1      48.919  27.266  29.913  1.00  0.00     0.010 A 
ATOM     86  C   UNL A   1      49.360  25.907  32.320  1.00  0.00     0.020 A 
ATOM     87  C   UNL A   1      50.201  26.810  30.224  1.00  0.00     0.020 A 
ATOM     88  C   UNL A   1      50.416  26.146  31.434  1.00  0.00     0.054 A 
BRANCH  88  89
ATOM     89  S   UNL A   1      52.071  25.534  31.851  1.00  0.00     0.124 S 
ATOM     90  O   UNL A   1      52.814  25.813  30.626  1.00  0.00    -0.237 OA
ATOM     91  O   UNL A   1      52.439  26.346  33.008  1.00  0.00    -0.237 OA
ATOM     92  O   UNL A   1      51.850  24.118  32.139  1.00  0.00    -0.744 OA
ENDBRANCH  88  89
ENDBRANCH  62  83
ENDBRANCH  36  37
ENDBRANCH  28  31
ENDBRANCH  26  27
ENDBRANCH   1  26
TORSDOF 17
ENDMDL
MODEL 2
REMARK VINA RESULT:     -10.6      2.598      9.325
REMARK SMILES CSCC[C@@H](NC1=[NH+]S(=O)(=O)c2ccccc21)C(=O)NCCCNC(=O)c1ccc(-c2c3nc(c(-c4ccc(S(=O)(=O)[O-])cc4)c4ccc([nH]4)c(-c4ccc(S(=O)(=O)[O-])cc4)c4nc(c(-c5ccc(S(=O)(=O)[O-])cc5)c5ccc2[nH]5)C=C4)C=C3)cc1
REMARK SMILES IDX 22 1 21 2 20 3 18 4 19 5 5 7 4 8 3 9 2 10 1 11 6 12 7 13
REMARK SMILES IDX 8 15 17 16 9 17 12 19 16 20 10 21 11 22 13 23 15 24 14 25
REMARK SMILES IDX 23 26 24 27 25 28 26 30 27 31 28 32 86 33 29 34 85 35 30 36
REMARK SMILES IDX 31 37 32 38 79 39 33 40 84 41 78 42 80 43 34 44 83 45 77 46
REMARK SMILES IDX 76 47 35 49 65 50 46 51 64 52 47 53 50 54 63 55 81 56 48 57
REMARK SMILES IDX 49 58 62 60 82 61 51 62 36 63 37 64 45 65 38 66 44 67 39 68
REMARK SMILES IDX 40 69 41 70 42 71 43 72 66 73 67 74 75 75 68 76 74 77 69 78
REMARK SMILES IDX 70 79 71 80 72 81 73 82 52 83 53 84 61 85 54 86 60 87 55 88
REMARK SMILES IDX 56 89 57 90 58 91 59 92
REMARK H PARENT 20 6 6 14 8 18 24 29 80 48 50 59
REMARK Flexibility Score: inf
ROOT
ATOM      1  C   UNL A   1      35.390  23.358  26.072  1.00  0.00     0.042 C 
ENDROOT
BRANCH   1   2
ATOM      2  C   UNL A   1      34.201  24.086  25.477  1.00  0.00     0.118 C 
BRANCH   2   3
ATOM      3  N   UNL A   1      34.325  24.320  24.051  1.00  0.00    -0.352 N 
ATOM      4  C   UNL A   1      33.361  24.468  23.092  1.00  0.00     0.264 C 
ATOM      5  O   UNL A   1      33.734  24.721  21.942  1.00  0.00    -0.270 OA
ATOM      6  H   UNL A   1      35.251  24.384  23.721  1.00  0.00     0.163 HD
BRANCH   4   7
ATOM      7  C   UNL A   1      31.863  24.208  23.393  1.00  0.00     0.262 C 
BRANCH   7   8
ATOM      8  C   UNL A   1      31.758  22.785  23.976  1.00  0.00     0.071 C 
BRANCH   8   9
ATOM      9  C   UNL A   1      32.319  21.650  23.125  1.00  0.00     0.074 C 
BRANCH   9  10
ATOM     10  S   UNL A   1      32.543  20.070  24.000  1.00  0.00    -0.165 SA
ATOM     11  C   UNL A   1      34.178  20.319  24.729  1.00  0.00     0.085 C 
ENDBRANCH   9  10
ENDBRANCH   8   9
ENDBRANCH   7   8
BRANCH   7  12
ATOM     12  N   UNL A   1      31.252  25.207  24.289  1.00  0.00    -0.261 N 
ATOM     13  C   UNL A   1      31.291  26.564  24.072  1.00  0.00     0.292 C 
ATOM     14  H   UNL A   1      30.786  24.883  25.094  1.00  0.00     0.306 HD
ATOM     15  N   UNL A   1      31.432  27.119  22.905  1.00  0.00    -0.162 N 
ATOM     16  C   UNL A   1      31.325  27.494  25.227  1.00  0.00     0.087 A 
ATOM     17  S   UNL A   1      31.691  28.734  23.047  1.00  0.00     0.329 S 
ATOM     18  H   UNL A   1      31.390  26.636  22.050  1.00  0.00     0.327 HD
ATOM     19  C   UNL A   1      31.622  28.767  24.785  1.00  0.00     0.124 A 
ATOM     20  C   UNL A   1      31.285  27.211  26.582  1.00  0.00     0.018 A 
ATOM     21  O   UNL A   1      30.559  29.481  22.561  1.00  0.00    -0.179 OA
ATOM     22  O   UNL A   1      33.062  29.048  22.684  1.00  0.00    -0.179 OA
ATOM     23  C   UNL A   1      31.943  29.806  25.636  1.00  0.00     0.025 A 
ATOM     24  C   UNL A   1      31.578  28.248  27.474  1.00  0.00     0.001 A 
ATOM     25  C   UNL A   1      31.915  29.533  27.005  1.00  0.00     0.002 A 
ENDBRANCH   7  12
ENDBRANCH   4   7
ENDBRANCH   2   3
ENDBRANCH   1   2
BRANCH   1  26
ATOM     26  C   UNL A   1      36.717  23.724  25.426  1.00  0.00     0.118 C 
BRANCH  26  27
ATOM     27  N   UNL A   1      37.772  22.761  25.714  1.00  0.00    -0.352 N 
ATOM     28  C   UNL A   1      39.012  22.957  26.274  1.00  0.00     0.251 C 
ATOM     29  H   UNL A   1      37.565  21.830  25.471  1.00  0.00     0.163 HD
ATOM     30  O   UNL A   1      39.839  22.051  26.251  1.00  0.00    -0.269 OA
BRANCH  28  31
ATOM     31  C   UNL A   1      39.357  24.262  26.882  1.00  0.00     0.039 A 
ATOM     32  C   UNL A   1      38.949  24.532  28.191  1.00  0.00     0.014 A 
ATOM     33  C   UNL A   1      40.067  25.226  26.160  1.00  0.00     0.014 A 
ATOM     34  C   UNL A   1      39.310  25.738  28.796  1.00  0.00     0.010 A 
ATOM     35  C   UNL A   1      40.503  26.385  26.792  1.00  0.00     0.010 A 
ATOM     36  C   UNL A   1      40.117  26.661  28.112  1.00  0.00    -0.014 A 
BRANCH  36  37
ATOM     37  C   UNL A   1      40.541  27.940  28.735  1.00  0.00     0.031 A 
ATOM     38  C   UNL A   1      41.923  28.057  29.325  1.00  0.00     0.074 A 
ATOM     39  C   UNL A   1      39.667  28.958  28.849  1.00  0.00     0.049 A 
ATOM     40  N   UNL A   1      42.443  29.038  30.018  1.00  0.00    -0.248 NA
ATOM     41  C   UNL A   1      42.825  26.905  29.149  1.00  0.00     0.031 C 
ATOM     42  C   UNL A   1      38.278  28.947  28.378  1.00  0.00     0.029 A 
ATOM     43  N   UNL A   1      39.813  30.200  29.416  1.00  0.00    -0.354 N 
ATOM     44  C   UNL A   1      43.706  28.602  30.399  1.00  0.00     0.074 A 
ATOM     45  C   UNL A   1      43.867  27.260  29.885  1.00  0.00     0.031 C 
ATOM     46  C   UNL A   1      37.709  30.131  28.660  1.00  0.00     0.029 A 
ATOM     47  C   UNL A   1      38.679  30.973  29.352  1.00  0.00     0.049 A 
ATOM     48  H   UNL A   1      40.652  30.507  29.828  1.00  0.00     0.167 HD
ATOM     49  C   UNL A   1      44.656  29.264  31.101  1.00  0.00     0.031 A 
ATOM     50  C   UNL A   1      38.447  32.221  29.802  1.00  0.00     0.031 A 
ATOM     51  C   UNL A   1      44.523  30.622  31.553  1.00  0.00     0.049 A 
ATOM     52  C   UNL A   1      39.555  32.975  30.482  1.00  0.00     0.074 A 
ATOM     53  C   UNL A   1      45.456  31.407  32.208  1.00  0.00     0.029 A 
ATOM     54  N   UNL A   1      43.393  31.403  31.376  1.00  0.00    -0.354 N 
ATOM     55  N   UNL A   1      40.763  32.561  30.787  1.00  0.00    -0.248 NA
ATOM     56  C   UNL A   1      39.279  34.368  30.859  1.00  0.00     0.031 C 
ATOM     57  C   UNL A   1      44.885  32.664  32.435  1.00  0.00     0.029 A 
ATOM     58  C   UNL A   1      43.609  32.666  31.897  1.00  0.00     0.049 A 
ATOM     59  H   UNL A   1      42.561  31.105  30.943  1.00  0.00     0.167 HD
ATOM     60  C   UNL A   1      41.399  33.655  31.364  1.00  0.00     0.074 A 
ATOM     61  C   UNL A   1      40.448  34.747  31.358  1.00  0.00     0.031 C 
ATOM     62  C   UNL A   1      42.657  33.744  31.858  1.00  0.00     0.031 A 
BRANCH  49  63
ATOM     63  C   UNL A   1      45.931  28.531  31.412  1.00  0.00    -0.014 A 
ATOM     64  C   UNL A   1      47.037  28.605  30.548  1.00  0.00     0.010 A 
ATOM     65  C   UNL A   1      46.041  27.798  32.608  1.00  0.00     0.010 A 
ATOM     66  C   UNL A   1      48.221  27.932  30.856  1.00  0.00     0.020 A 
ATOM     67  C   UNL A   1      47.232  27.141  32.931  1.00  0.00     0.020 A 
ATOM     68  C   UNL A   1      48.309  27.200  32.045  1.00  0.00     0.054 A 
BRANCH  68  69
ATOM     69  S   UNL A   1      49.871  26.369  32.447  1.00  0.00     0.124 S 
ATOM     70  O   UNL A   1      49.400  25.128  33.058  1.00  0.00    -0.237 OA
ATOM     71  O   UNL A   1      50.506  26.222  31.140  1.00  0.00    -0.237 OA
ATOM     72  O   UNL A   1      50.533  27.300  33.356  1.00  0.00    -0.744 OA
ENDBRANCH  68  69
ENDBRANCH  49  63
BRANCH  50  73
ATOM     73  C   UNL A   1      37.118  32.856  29.598  1.00  0.00    -0.014 A 
ATOM     74  C   UNL A   1      36.796  33.447  28.364  1.00  0.00     0.010 A 
ATOM     75  C   UNL A   1      36.172  32.877  30.637  1.00  0.00     0.010 A 
ATOM     76  C   UNL A   1      35.564  34.078  28.181  1.00  0.00     0.020 A 
ATOM     77  C   UNL A   1      34.929  33.489  30.452  1.00  0.00     0.020 A 
ATOM     78  C   UNL A   1      34.639  34.100  29.229  1.00  0.00     0.054 A 
BRANCH  78  79
ATOM     79  S   UNL A   1      33.026  34.890  28.969  1.00  0.00     0.124 S 
ATOM     80  O   UNL A   1      32.407  34.000  27.994  1.00  0.00    -0.237 OA
ATOM     81  O   UNL A   1      32.439  34.871  30.307  1.00  0.00    -0.237 OA
ATOM     82  O   UNL A   1      33.379  36.219  28.475  1.00  0.00    -0.744 OA
ENDBRANCH  78  79
ENDBRANCH  50  73
BRANCH  62  83
ATOM     83  C   UNL A   1      43.096  35.082  32.379  1.00  0.00    -0.014 A 
ATOM     84  C   UNL A   1      43.804  35.982  31.565  1.00  0.00     0.010 A 
ATOM     85  C   UNL A   1      42.753  35.458  33.690  1.00  0.00     0.010 A 
ATOM     86  C   UNL A   1      44.191  37.227  32.066  1.00  0.00     0.020 A 
ATOM     87  C   UNL A   1      43.121  36.709  34.188  1.00  0.00     0.020 A 
ATOM     88  C   UNL A   1      43.852  37.580  33.376  1.00  0.00     0.054 A 
BRANCH  88  89
ATOM     89  S   UNL A   1      44.328  39.216  33.998  1.00  0.00     0.124 S 
ATOM     90  O   UNL A   1      44.773  38.905  35.354  1.00  0.00    -0.237 OA
ATOM     91  O   UNL A   1      45.379  39.626  33.070  1.00  0.00    -0.237 OA
ATOM     92  O   UNL A   1      43.092  39.990  33.909  1.00  0.00    -0.744 OA
ENDBRANCH  88  89
ENDBRANCH  62  83
ENDBRANCH  36  37
ENDBRANCH  28  31
ENDBRANCH  26  27
ENDBRANCH   1  26
TORSDOF 17
ENDMDL
MODEL 3
REMARK VINA RESULT:     -10.5      3.275      9.348
REMARK SMILES CSCC[C@@H](NC1=[NH+]S(=O)(=O)c2ccccc21)C(=O)NCCCNC(=O)c1ccc(-c2c3nc(c(-c4ccc(S(=O)(=O)[O-])cc4)c4ccc([nH]4)c(-c4ccc(S(=O)(=O)[O-])cc4)c4nc(c(-c5ccc(S(=O)(=O)[O-])cc5)c5ccc2[nH]5)C=C4)C=C3)cc1
REMARK SMILES IDX 22 1 21 2 20 3 18 4 19 5 5 7 4 8 3 9 2 10 1 11 6 12 7 13
REMARK SMILES IDX 8 15 17 16 9 17 12 19 16 20 10 21 11 22 13 23 15 24 14 25
REMARK SMILES IDX 23 26 24 27 25 28 26 30 27 31 28 32 86 33 29 34 85 35 30 36
REMARK SMILES IDX 31 37 32 38 79 39 33 40 84 41 78 42 80 43 34 44 83 45 77 46
REMARK SMILES IDX 76 47 35 49 65 50 46 51 64 52 47 53 50 54 63 55 81 56 48 57
REMARK SMILES IDX 49 58 62 60 82 61 51 62 36 63 37 64 45 65 38 66 44 67 39 68
REMARK SMILES IDX 40 69 41 70 42 71 43 72 66 73 67 74 75 75 68 76 74 77 69 78
REMARK SMILES IDX 70 79 71 80 72 81 73 82 52 83 53 84 61 85 54 86 60 87 55 88
REMARK SMILES IDX 56 89 57 90 58 91 59 92
REMARK H PARENT 20 6 6 14 8 18 24 29 80 48 50 59
REMARK Flexibility Score: inf
ROOT
ATOM      1  C   UNL A   1      37.847  20.396  25.077  1.00  0.00     0.042 C 
ENDROOT
BRANCH   1   2
ATOM      2  C   UNL A   1      36.683  21.367  25.057  1.00  0.00     0.118 C 
BRANCH   2   3
ATOM      3  N   UNL A   1      35.902  21.352  26.278  1.00  0.00    -0.352 N 
ATOM      4  C   UNL A   1      34.572  21.606  26.481  1.00  0.00     0.264 C 
ATOM      5  O   UNL A   1      34.133  21.466  27.627  1.00  0.00    -0.270 OA
ATOM      6  H   UNL A   1      36.408  21.122  27.091  1.00  0.00     0.163 HD
BRANCH   4   7
ATOM      7  C   UNL A   1      33.667  22.167  25.356  1.00  0.00     0.262 C 
BRANCH   7   8
ATOM      8  C   UNL A   1      32.520  21.158  25.151  1.00  0.00     0.071 C 
BRANCH   8   9
ATOM      9  C   UNL A   1      32.441  20.474  23.790  1.00  0.00     0.074 C 
BRANCH   9  10
ATOM     10  S   UNL A   1      32.519  18.656  23.837  1.00  0.00    -0.165 SA
ATOM     11  C   UNL A   1      34.204  18.409  24.442  1.00  0.00     0.085 C 
ENDBRANCH   9  10
ENDBRANCH   8   9
ENDBRANCH   7   8
BRANCH   7  12
ATOM     12  N   UNL A   1      33.154  23.524  25.622  1.00  0.00    -0.261 N 
ATOM     13  C   UNL A   1      32.920  24.464  24.647  1.00  0.00     0.292 C 
ATOM     14  H   UNL A   1      32.967  23.772  26.557  1.00  0.00     0.306 HD
ATOM     15  N   UNL A   1      32.668  24.188  23.402  1.00  0.00    -0.162 N 
ATOM     16  C   UNL A   1      33.099  25.904  24.956  1.00  0.00     0.087 A 
ATOM     17  S   UNL A   1      32.695  25.546  22.479  1.00  0.00     0.329 S 
ATOM     18  H   UNL A   1      32.486  23.285  23.058  1.00  0.00     0.327 HD
ATOM     19  C   UNL A   1      33.067  26.634  23.784  1.00  0.00     0.124 A 
ATOM     20  C   UNL A   1      33.452  26.508  26.151  1.00  0.00     0.018 A 
ATOM     21  O   UNL A   1      31.371  25.876  22.013  1.00  0.00    -0.179 OA
ATOM     22  O   UNL A   1      33.859  25.529  21.611  1.00  0.00    -0.179 OA
ATOM     23  C   UNL A   1      33.424  27.965  23.714  1.00  0.00     0.025 A 
ATOM     24  C   UNL A   1      33.794  27.865  26.121  1.00  0.00     0.001 A 
ATOM     25  C   UNL A   1      33.791  28.585  24.910  1.00  0.00     0.002 A 
ENDBRANCH   7  12
ENDBRANCH   4   7
ENDBRANCH   2   3
ENDBRANCH   1   2
BRANCH   1  26
ATOM     26  C   UNL A   1      39.089  20.943  25.760  1.00  0.00     0.118 C 
BRANCH  26  27
ATOM     27  N   UNL A   1      40.080  19.914  26.043  1.00  0.00    -0.352 N 
ATOM     28  C   UNL A   1      41.424  20.036  26.305  1.00  0.00     0.251 C 
ATOM     29  H   UNL A   1      39.735  18.992  26.048  1.00  0.00     0.163 HD
ATOM     30  O   UNL A   1      42.134  19.035  26.321  1.00  0.00    -0.269 OA
BRANCH  28  31
ATOM     31  C   UNL A   1      42.018  21.370  26.545  1.00  0.00     0.039 A 
ATOM     32  C   UNL A   1      42.264  22.212  25.457  1.00  0.00     0.014 A 
ATOM     33  C   UNL A   1      42.348  21.788  27.837  1.00  0.00     0.014 A 
ATOM     34  C   UNL A   1      42.777  23.493  25.672  1.00  0.00     0.010 A 
ATOM     35  C   UNL A   1      42.772  23.094  28.059  1.00  0.00     0.010 A 
ATOM     36  C   UNL A   1      43.006  23.956  26.977  1.00  0.00    -0.014 A 
BRANCH  36  37
ATOM     37  C   UNL A   1      43.524  25.321  27.242  1.00  0.00     0.031 A 
ATOM     38  C   UNL A   1      44.970  25.637  26.956  1.00  0.00     0.074 A 
ATOM     39  C   UNL A   1      42.730  26.245  27.817  1.00  0.00     0.049 A 
ATOM     40  N   UNL A   1      45.646  26.724  27.229  1.00  0.00    -0.248 NA
ATOM     41  C   UNL A   1      45.771  24.578  26.317  1.00  0.00     0.031 C 
ATOM     42  C   UNL A   1      41.330  26.044  28.204  1.00  0.00     0.029 A 
ATOM     43  N   UNL A   1      42.993  27.539  28.191  1.00  0.00    -0.354 N 
ATOM     44  C   UNL A   1      46.955  26.461  26.842  1.00  0.00     0.074 A 
ATOM     45  C   UNL A   1      46.986  25.104  26.340  1.00  0.00     0.031 C 
ATOM     46  C   UNL A   1      40.856  27.179  28.744  1.00  0.00     0.029 A 
ATOM     47  C   UNL A   1      41.920  28.177  28.766  1.00  0.00     0.049 A 
ATOM     48  H   UNL A   1      43.869  27.969  28.059  1.00  0.00     0.167 HD
ATOM     49  C   UNL A   1      48.032  27.279  26.885  1.00  0.00     0.031 A 
ATOM     50  C   UNL A   1      41.808  29.427  29.256  1.00  0.00     0.031 A 
ATOM     51  C   UNL A   1      47.987  28.648  27.320  1.00  0.00     0.049 A 
ATOM     52  C   UNL A   1      42.991  30.351  29.190  1.00  0.00     0.074 A 
ATOM     53  C   UNL A   1      49.008  29.582  27.331  1.00  0.00     0.029 A 
ATOM     54  N   UNL A   1      46.854  29.285  27.798  1.00  0.00    -0.354 N 
ATOM     55  N   UNL A   1      44.208  30.097  28.771  1.00  0.00    -0.248 NA
ATOM     56  C   UNL A   1      42.781  31.733  29.643  1.00  0.00     0.031 C 
ATOM     57  C   UNL A   1      48.493  30.785  27.826  1.00  0.00     0.029 A 
ATOM     58  C   UNL A   1      47.146  30.603  28.095  1.00  0.00     0.049 A 
ATOM     59  H   UNL A   1      45.972  28.862  27.908  1.00  0.00     0.167 HD
ATOM     60  C   UNL A   1      44.900  31.299  28.882  1.00  0.00     0.074 A 
ATOM     61  C   UNL A   1      43.966  32.277  29.398  1.00  0.00     0.031 C 
ATOM     62  C   UNL A   1      46.194  31.565  28.585  1.00  0.00     0.031 A 
BRANCH  49  63
ATOM     63  C   UNL A   1      49.352  26.717  26.435  1.00  0.00    -0.014 A 
ATOM     64  C   UNL A   1      49.827  26.938  25.131  1.00  0.00     0.010 A 
ATOM     65  C   UNL A   1      50.151  26.000  27.345  1.00  0.00     0.010 A 
ATOM     66  C   UNL A   1      51.062  26.424  24.731  1.00  0.00     0.020 A 
ATOM     67  C   UNL A   1      51.398  25.502  26.955  1.00  0.00     0.020 A 
ATOM     68  C   UNL A   1      51.839  25.705  25.646  1.00  0.00     0.054 A 
BRANCH  68  69
ATOM     69  S   UNL A   1      53.459  25.082  25.119  1.00  0.00     0.124 S 
ATOM     70  O   UNL A   1      54.355  25.740  26.067  1.00  0.00    -0.237 OA
ATOM     71  O   UNL A   1      53.321  23.638  25.285  1.00  0.00    -0.237 OA
ATOM     72  O   UNL A   1      53.569  25.538  23.735  1.00  0.00    -0.744 OA
ENDBRANCH  68  69
ENDBRANCH  49  63
BRANCH  50  73
ATOM     73  C   UNL A   1      40.516  29.894  29.824  1.00  0.00    -0.014 A 
ATOM     74  C   UNL A   1      39.472  30.300  28.975  1.00  0.00     0.010 A 
ATOM     75  C   UNL A   1      40.326  29.942  31.216  1.00  0.00     0.010 A 
ATOM     76  C   UNL A   1      38.271  30.776  29.506  1.00  0.00     0.020 A 
ATOM     77  C   UNL A   1      39.119  30.398  31.751  1.00  0.00     0.020 A 
ATOM     78  C   UNL A   1      38.104  30.828  30.892  1.00  0.00     0.054 A 
BRANCH  78  79
ATOM     79  S   UNL A   1      36.527  31.414  31.572  1.00  0.00     0.124 S 
ATOM     80  O   UNL A   1      36.952  32.540  32.396  1.00  0.00    -0.237 OA
ATOM     81  O   UNL A   1      35.767  31.758  30.372  1.00  0.00    -0.237 OA
ATOM     82  O   UNL A   1      36.024  30.252  32.303  1.00  0.00    -0.744 OA
ENDBRANCH  78  79
ENDBRANCH  50  73
BRANCH  62  83
ATOM     83  C   UNL A   1      46.660  32.982  28.757  1.00  0.00    -0.014 A 
ATOM     84  C   UNL A   1      46.551  33.914  27.712  1.00  0.00     0.010 A 
ATOM     85  C   UNL A   1      47.172  33.394  30.001  1.00  0.00     0.010 A 
ATOM     86  C   UNL A   1      46.977  35.231  27.898  1.00  0.00     0.020 A 
ATOM     87  C   UNL A   1      47.582  34.714  30.196  1.00  0.00     0.020 A 
ATOM     88  C   UNL A   1      47.496  35.621  29.137  1.00  0.00     0.054 A 
BRANCH  88  89
ATOM     89  S   UNL A   1      48.010  37.344  29.375  1.00  0.00     0.124 S 
ATOM     90  O   UNL A   1      47.022  37.823  30.338  1.00  0.00    -0.237 OA
ATOM     91  O   UNL A   1      49.372  37.212  29.884  1.00  0.00    -0.237 OA
ATOM     92  O   UNL A   1      47.907  37.920  28.036  1.00  0.00    -0.744 OA
ENDBRANCH  88  89
ENDBRANCH  62  83
ENDBRANCH  36  37
ENDBRANCH  28  31
ENDBRANCH  26  27
ENDBRANCH   1  26
TORSDOF 17
ENDMDL
