MODEL 1
REMARK VINA RESULT:     -12.2      0.000      0.000
REMARK SMILES CC[NH2+][C@]1(C(=O)NCCCNC(=O)c2ccc(-c3c4nc(c(-c5ccc(S(=O)(=O)[O-])cc5)c5ccc([nH]5)c(-c5ccc(S(=O)(=O)[O-])cc5)c5nc(c(-c6ccc(S(=O)(=O)[O-])cc6)c6ccc3[nH]6)C=C5)C=C4)cc2)CCC[C@H]1CC[N@H+]1CCC[C@@H](CC)C1
REMARK SMILES IDX 8 1 7 2 5 3 6 4 4 6 74 7 77 8 75 9 76 10 3 11 2 14 1 15
REMARK SMILES IDX 78 16 79 17 80 18 81 19 87 20 82 22 84 23 83 24 85 25 86 26
REMARK SMILES IDX 9 27 10 28 11 29 12 30 13 32 14 33 15 34 73 35 16 36 72 37
REMARK SMILES IDX 17 38 18 39 19 40 66 41 20 42 71 43 65 44 67 45 21 46 70 47
REMARK SMILES IDX 64 48 63 49 22 51 52 52 33 53 51 54 34 55 37 56 50 57 68 58
REMARK SMILES IDX 35 59 36 60 49 62 69 63 38 64 23 65 24 66 32 67 25 68 31 69
REMARK SMILES IDX 26 70 27 71 28 72 29 73 30 74 53 75 54 76 62 77 55 78 61 79
REMARK SMILES IDX 56 80 57 81 58 82 59 83 60 84 39 85 40 86 48 87 41 88 47 89
REMARK SMILES IDX 42 90 43 91 44 92 45 93 46 94
REMARK H PARENT 7 5 3 12 3 13 80 21 11 31 67 50 37 61
REMARK Flexibility Score: inf
ROOT
ATOM      1  C   UNL A   1      35.508  23.386  23.053  1.00  0.00     0.118 C 
ENDROOT
BRANCH   1   2
ATOM      2  N   UNL A   1      33.913  22.989  22.900  1.00  0.00    -0.351 N 
ATOM      3  C   UNL A   1      32.878  22.185  23.499  1.00  0.00     0.281 C 
ATOM      4  O   UNL A   1      32.054  21.559  22.822  1.00  0.00    -0.268 OA
ATOM      5  H   UNL A   1      33.536  23.472  22.129  1.00  0.00     0.163 HD
BRANCH   3   6
ATOM      6  C   UNL A   1      32.717  22.269  24.993  1.00  0.00     0.178 C 
ATOM      7  C   UNL A   1      32.955  23.468  25.952  1.00  0.00     0.079 C 
ATOM      8  C   UNL A   1      31.200  22.416  24.934  1.00  0.00     0.066 C 
ATOM      9  C   UNL A   1      31.924  23.218  27.082  1.00  0.00     0.008 C 
ATOM     10  C   UNL A   1      30.710  22.678  26.354  1.00  0.00     0.011 C 
BRANCH   6  11
ATOM     11  N   UNL A   1      33.540  21.162  25.571  1.00  0.00    -0.334 N 
ATOM     12  H   UNL A   1      34.503  21.493  25.624  1.00  0.00     0.347 HD
ATOM     13  H   UNL A   1      33.101  20.954  26.468  1.00  0.00     0.347 HD
BRANCH  11  14
ATOM     14  C   UNL A   1      33.553  19.872  24.849  1.00  0.00     0.257 C 
ATOM     15  C   UNL A   1      32.765  18.756  25.518  1.00  0.00     0.071 C 
ENDBRANCH  11  14
ENDBRANCH   6  11
BRANCH   8  16
ATOM     16  C   UNL A   1      30.787  23.557  23.690  1.00  0.00     0.072 C 
BRANCH  16  17
ATOM     17  C   UNL A   1      30.751  25.398  23.767  1.00  0.00     0.262 C 
BRANCH  17  18
ATOM     18  N   UNL A   1      31.875  26.644  23.630  1.00  0.00    -0.335 N 
ATOM     19  C   UNL A   1      32.218  27.599  22.499  1.00  0.00     0.262 C 
ATOM     20  C   UNL A   1      32.221  27.323  24.903  1.00  0.00     0.265 C 
ATOM     21  H   UNL A   1      32.350  25.857  23.188  1.00  0.00     0.348 HD
ATOM     22  C   UNL A   1      33.682  27.979  22.389  1.00  0.00     0.062 C 
ATOM     23  C   UNL A   1      33.542  28.197  24.877  1.00  0.00     0.044 C 
ATOM     24  C   UNL A   1      33.918  28.896  23.553  1.00  0.00     0.015 C 
BRANCH  23  25
ATOM     25  C   UNL A   1      33.642  29.289  25.966  1.00  0.00     0.006 C 
ATOM     26  C   UNL A   1      34.401  28.930  27.225  1.00  0.00     0.004 C 
ENDBRANCH  23  25
ENDBRANCH  17  18
ENDBRANCH  16  17
ENDBRANCH   8  16
ENDBRANCH   3   6
ENDBRANCH   1   2
BRANCH   1  27
ATOM     27  C   UNL A   1      36.470  23.738  24.468  1.00  0.00     0.042 C 
BRANCH  27  28
ATOM     28  C   UNL A   1      36.852  23.145  25.972  1.00  0.00     0.118 C 
BRANCH  28  29
ATOM     29  N   UNL A   1      38.142  22.525  26.333  1.00  0.00    -0.352 N 
ATOM     30  C   UNL A   1      39.405  22.969  26.605  1.00  0.00     0.251 C 
ATOM     31  H   UNL A   1      38.076  21.544  26.394  1.00  0.00     0.163 HD
ATOM     32  O   UNL A   1      40.419  22.259  26.525  1.00  0.00    -0.269 OA
BRANCH  30  33
ATOM     33  C   UNL A   1      39.536  24.279  27.142  1.00  0.00     0.039 A 
ATOM     34  C   UNL A   1      39.107  24.601  28.426  1.00  0.00     0.014 A 
ATOM     35  C   UNL A   1      40.176  25.153  26.271  1.00  0.00     0.014 A 
ATOM     36  C   UNL A   1      39.423  25.859  28.893  1.00  0.00     0.010 A 
ATOM     37  C   UNL A   1      40.555  26.362  26.763  1.00  0.00     0.010 A 
ATOM     38  C   UNL A   1      40.179  26.709  28.070  1.00  0.00    -0.014 A 
BRANCH  38  39
ATOM     39  C   UNL A   1      40.648  28.009  28.530  1.00  0.00     0.031 A 
ATOM     40  C   UNL A   1      42.039  28.095  29.061  1.00  0.00     0.074 A 
ATOM     41  C   UNL A   1      39.731  28.983  28.646  1.00  0.00     0.049 A 
ATOM     42  N   UNL A   1      42.604  29.071  29.709  1.00  0.00    -0.248 NA
ATOM     43  C   UNL A   1      42.880  26.891  28.912  1.00  0.00     0.031 C 
ATOM     44  C   UNL A   1      38.326  28.881  28.234  1.00  0.00     0.029 A 
ATOM     45  N   UNL A   1      39.836  30.232  29.177  1.00  0.00    -0.354 N 
ATOM     46  C   UNL A   1      43.850  28.587  30.079  1.00  0.00     0.074 A 
ATOM     47  C   UNL A   1      43.930  27.210  29.650  1.00  0.00     0.031 C 
ATOM     48  C   UNL A   1      37.705  30.038  28.505  1.00  0.00     0.029 A 
ATOM     49  C   UNL A   1      38.657  30.934  29.148  1.00  0.00     0.049 A 
ATOM     50  H   UNL A   1      40.673  30.596  29.544  1.00  0.00     0.167 HD
ATOM     51  C   UNL A   1      44.839  29.257  30.709  1.00  0.00     0.031 A 
ATOM     52  C   UNL A   1      38.390  32.167  29.608  1.00  0.00     0.031 A 
ATOM     53  C   UNL A   1      44.694  30.630  31.106  1.00  0.00     0.049 A 
ATOM     54  C   UNL A   1      39.526  32.922  30.231  1.00  0.00     0.074 A 
ATOM     55  C   UNL A   1      45.633  31.474  31.662  1.00  0.00     0.029 A 
ATOM     56  N   UNL A   1      43.514  31.357  30.983  1.00  0.00    -0.354 N 
ATOM     57  N   UNL A   1      40.748  32.505  30.480  1.00  0.00    -0.248 NA
ATOM     58  C   UNL A   1      39.265  34.310  30.611  1.00  0.00     0.031 C 
ATOM     59  C   UNL A   1      45.001  32.694  31.932  1.00  0.00     0.029 A 
ATOM     60  C   UNL A   1      43.689  32.633  31.480  1.00  0.00     0.049 A 
ATOM     61  H   UNL A   1      42.676  31.012  30.597  1.00  0.00     0.167 HD
ATOM     62  C   UNL A   1      41.411  33.585  31.042  1.00  0.00     0.074 A 
ATOM     63  C   UNL A   1      40.456  34.681  31.064  1.00  0.00     0.031 C 
ATOM     64  C   UNL A   1      42.686  33.674  31.500  1.00  0.00     0.031 A 
BRANCH  51  65
ATOM     65  C   UNL A   1      46.108  28.502  31.004  1.00  0.00    -0.014 A 
ATOM     66  C   UNL A   1      46.290  27.812  32.219  1.00  0.00     0.010 A 
ATOM     67  C   UNL A   1      47.155  28.510  30.066  1.00  0.00     0.010 A 
ATOM     68  C   UNL A   1      47.513  27.204  32.517  1.00  0.00     0.020 A 
ATOM     69  C   UNL A   1      48.367  27.870  30.344  1.00  0.00     0.020 A 
ATOM     70  C   UNL A   1      48.546  27.241  31.578  1.00  0.00     0.054 A 
BRANCH  70  71
ATOM     71  S   UNL A   1      50.121  26.440  31.989  1.00  0.00     0.124 S 
ATOM     72  O   UNL A   1      51.004  26.961  30.949  1.00  0.00    -0.237 OA
ATOM     73  O   UNL A   1      50.384  26.929  33.340  1.00  0.00    -0.237 OA
ATOM     74  O   UNL A   1      49.820  25.014  31.893  1.00  0.00    -0.744 OA
ENDBRANCH  70  71
ENDBRANCH  51  65
BRANCH  52  75
ATOM     75  C   UNL A   1      37.028  32.732  29.433  1.00  0.00    -0.014 A 
ATOM     76  C   UNL A   1      36.167  32.872  30.535  1.00  0.00     0.010 A 
ATOM     77  C   UNL A   1      36.625  33.238  28.183  1.00  0.00     0.010 A 
ATOM     78  C   UNL A   1      34.932  33.512  30.393  1.00  0.00     0.020 A 
ATOM     79  C   UNL A   1      35.402  33.901  28.042  1.00  0.00     0.020 A 
ATOM     80  C   UNL A   1      34.561  34.031  29.149  1.00  0.00     0.054 A 
BRANCH  80  81
ATOM     81  S   UNL A   1      32.998  34.942  29.013  1.00  0.00     0.124 S 
ATOM     82  O   UNL A   1      33.450  36.264  28.592  1.00  0.00    -0.237 OA
ATOM     83  O   UNL A   1      32.273  34.170  28.006  1.00  0.00    -0.237 OA
ATOM     84  O   UNL A   1      32.439  34.869  30.362  1.00  0.00    -0.744 OA
ENDBRANCH  80  81
ENDBRANCH  52  75
BRANCH  64  85
ATOM     85  C   UNL A   1      43.100  35.005  32.060  1.00  0.00    -0.014 A 
ATOM     86  C   UNL A   1      43.783  35.942  31.266  1.00  0.00     0.010 A 
ATOM     87  C   UNL A   1      42.761  35.331  33.385  1.00  0.00     0.010 A 
ATOM     88  C   UNL A   1      44.160  37.171  31.804  1.00  0.00     0.020 A 
ATOM     89  C   UNL A   1      43.103  36.575  33.914  1.00  0.00     0.020 A 
ATOM     90  C   UNL A   1      43.819  37.478  33.126  1.00  0.00     0.054 A 
BRANCH  90  91
ATOM     91  S   UNL A   1      44.299  39.092  33.792  1.00  0.00     0.124 S 
ATOM     92  O   UNL A   1      44.919  38.721  35.061  1.00  0.00    -0.237 OA
ATOM     93  O   UNL A   1      45.211  39.600  32.770  1.00  0.00    -0.237 OA
ATOM     94  O   UNL A   1      43.032  39.812  33.903  1.00  0.00    -0.744 OA
ENDBRANCH  90  91
ENDBRANCH  64  85
ENDBRANCH  38  39
ENDBRANCH  30  33
ENDBRANCH  28  29
ENDBRANCH  27  28
ENDBRANCH   1  27
TORSDOF 19
ENDMDL
MODEL 2
REMARK VINA RESULT:     -12.0      2.633      8.901
REMARK SMILES CC[NH2+][C@]1(C(=O)NCCCNC(=O)c2ccc(-c3c4nc(c(-c5ccc(S(=O)(=O)[O-])cc5)c5ccc([nH]5)c(-c5ccc(S(=O)(=O)[O-])cc5)c5nc(c(-c6ccc(S(=O)(=O)[O-])cc6)c6ccc3[nH]6)C=C5)C=C4)cc2)CCC[C@H]1CC[N@H+]1CCC[C@@H](CC)C1
REMARK SMILES IDX 8 1 7 2 5 3 6 4 4 6 74 7 77 8 75 9 76 10 3 11 2 14 1 15
REMARK SMILES IDX 78 16 79 17 80 18 81 19 87 20 82 22 84 23 83 24 85 25 86 26
REMARK SMILES IDX 9 27 10 28 11 29 12 30 13 32 14 33 15 34 73 35 16 36 72 37
REMARK SMILES IDX 17 38 18 39 19 40 66 41 20 42 71 43 65 44 67 45 21 46 70 47
REMARK SMILES IDX 64 48 63 49 22 51 52 52 33 53 51 54 34 55 37 56 50 57 68 58
REMARK SMILES IDX 35 59 36 60 49 62 69 63 38 64 23 65 24 66 32 67 25 68 31 69
REMARK SMILES IDX 26 70 27 71 28 72 29 73 30 74 53 75 54 76 62 77 55 78 61 79
REMARK SMILES IDX 56 80 57 81 58 82 59 83 60 84 39 85 40 86 48 87 41 88 47 89
REMARK SMILES IDX 42 90 43 91 44 92 45 93 46 94
REMARK H PARENT 7 5 3 12 3 13 80 21 11 31 67 50 37 61
REMARK Flexibility Score: inf
ROOT
ATOM      1  C   UNL A   1      31.864  26.145  26.519  1.00  0.00     0.118 C 
ENDROOT
BRANCH   1   2
ATOM      2  N   UNL A   1      31.424  24.571  26.750  1.00  0.00    -0.351 N 
ATOM      3  C   UNL A   1      31.337  23.302  26.073  1.00  0.00     0.281 C 
ATOM      4  O   UNL A   1      30.381  22.534  26.229  1.00  0.00    -0.268 OA
ATOM      5  H   UNL A   1      31.110  24.460  27.677  1.00  0.00     0.163 HD
BRANCH   3   6
ATOM      6  C   UNL A   1      32.544  22.853  25.294  1.00  0.00     0.178 C 
ATOM      7  C   UNL A   1      32.710  21.648  24.326  1.00  0.00     0.079 C 
ATOM      8  C   UNL A   1      32.371  23.905  24.204  1.00  0.00     0.066 C 
ATOM      9  C   UNL A   1      33.765  22.160  23.313  1.00  0.00     0.008 C 
ATOM     10  C   UNL A   1      33.409  23.621  23.124  1.00  0.00     0.011 C 
BRANCH   6  11
ATOM     11  N   UNL A   1      33.652  22.688  26.284  1.00  0.00    -0.334 N 
ATOM     12  H   UNL A   1      33.227  22.608  27.208  1.00  0.00     0.347 HD
ATOM     13  H   UNL A   1      34.164  21.864  25.967  1.00  0.00     0.347 HD
BRANCH  11  14
ATOM     14  C   UNL A   1      34.669  23.759  26.355  1.00  0.00     0.257 C 
ATOM     15  C   UNL A   1      36.063  23.349  25.906  1.00  0.00     0.071 C 
ENDBRANCH  11  14
ENDBRANCH   6  11
BRANCH   8  16
ATOM     16  C   UNL A   1      30.695  23.979  23.746  1.00  0.00     0.072 C 
BRANCH  16  17
ATOM     17  C   UNL A   1      29.620  25.457  23.508  1.00  0.00     0.262 C 
BRANCH  17  18
ATOM     18  N   UNL A   1      29.818  27.127  23.562  1.00  0.00    -0.335 N 
ATOM     19  C   UNL A   1      31.043  28.021  23.461  1.00  0.00     0.262 C 
ATOM     20  C   UNL A   1      28.655  27.916  23.086  1.00  0.00     0.265 C 
ATOM     21  H   UNL A   1      30.034  26.840  24.517  1.00  0.00     0.348 HD
ATOM     22  C   UNL A   1      31.007  29.275  24.315  1.00  0.00     0.062 C 
ATOM     23  C   UNL A   1      28.648  29.445  23.497  1.00  0.00     0.044 C 
ATOM     24  C   UNL A   1      30.009  30.162  23.629  1.00  0.00     0.015 C 
BRANCH  23  25
ATOM     25  C   UNL A   1      27.776  30.370  22.619  1.00  0.00     0.006 C 
ATOM     26  C   UNL A   1      27.778  31.843  22.965  1.00  0.00     0.004 C 
ENDBRANCH  23  25
ENDBRANCH  17  18
ENDBRANCH  16  17
ENDBRANCH   8  16
ENDBRANCH   3   6
ENDBRANCH   1   2
BRANCH   1  27
ATOM     27  C   UNL A   1      33.336  26.841  25.886  1.00  0.00     0.042 C 
BRANCH  27  28
ATOM     28  C   UNL A   1      34.543  27.919  26.265  1.00  0.00     0.118 C 
BRANCH  28  29
ATOM     29  N   UNL A   1      34.349  29.369  26.463  1.00  0.00    -0.352 N 
ATOM     30  C   UNL A   1      34.740  30.297  27.386  1.00  0.00     0.251 C 
ATOM     31  H   UNL A   1      33.798  29.768  25.750  1.00  0.00     0.163 HD
ATOM     32  O   UNL A   1      34.166  31.381  27.561  1.00  0.00    -0.269 OA
BRANCH  30  33
ATOM     33  C   UNL A   1      35.957  30.055  28.080  1.00  0.00     0.039 A 
ATOM     34  C   UNL A   1      35.984  29.592  29.392  1.00  0.00     0.014 A 
ATOM     35  C   UNL A   1      37.078  30.276  27.289  1.00  0.00     0.014 A 
ATOM     36  C   UNL A   1      37.215  29.248  29.909  1.00  0.00     0.010 A 
ATOM     37  C   UNL A   1      38.278  29.861  27.772  1.00  0.00     0.010 A 
ATOM     38  C   UNL A   1      38.342  29.348  29.077  1.00  0.00    -0.014 A 
BRANCH  38  39
ATOM     39  C   UNL A   1      39.660  28.901  29.509  1.00  0.00     0.031 A 
ATOM     40  C   UNL A   1      40.552  29.903  30.159  1.00  0.00     0.074 A 
ATOM     41  C   UNL A   1      40.057  27.686  29.098  1.00  0.00     0.049 A 
ATOM     42  N   UNL A   1      41.820  29.807  30.434  1.00  0.00    -0.248 NA
ATOM     43  C   UNL A   1      39.958  31.219  30.467  1.00  0.00     0.031 C 
ATOM     44  C   UNL A   1      39.229  26.727  28.356  1.00  0.00     0.029 A 
ATOM     45  N   UNL A   1      41.264  27.069  29.214  1.00  0.00    -0.354 N 
ATOM     46  C   UNL A   1      42.183  31.058  30.911  1.00  0.00     0.074 A 
ATOM     47  C   UNL A   1      41.025  31.915  30.818  1.00  0.00     0.031 C 
ATOM     48  C   UNL A   1      39.953  25.626  28.108  1.00  0.00     0.029 A 
ATOM     49  C   UNL A   1      41.297  25.827  28.631  1.00  0.00     0.049 A 
ATOM     50  H   UNL A   1      42.037  27.472  29.672  1.00  0.00     0.167 HD
ATOM     51  C   UNL A   1      43.385  31.435  31.398  1.00  0.00     0.031 A 
ATOM     52  C   UNL A   1      42.319  24.961  28.530  1.00  0.00     0.031 A 
ATOM     53  C   UNL A   1      44.497  30.527  31.467  1.00  0.00     0.049 A 
ATOM     54  C   UNL A   1      43.621  25.370  29.150  1.00  0.00     0.074 A 
ATOM     55  C   UNL A   1      45.744  30.726  32.020  1.00  0.00     0.029 A 
ATOM     56  N   UNL A   1      44.481  29.235  30.951  1.00  0.00    -0.354 N 
ATOM     57  N   UNL A   1      43.938  26.517  29.709  1.00  0.00    -0.248 NA
ATOM     58  C   UNL A   1      44.692  24.373  29.153  1.00  0.00     0.031 C 
ATOM     59  C   UNL A   1      46.503  29.574  31.785  1.00  0.00     0.029 A 
ATOM     60  C   UNL A   1      45.707  28.631  31.146  1.00  0.00     0.049 A 
ATOM     61  H   UNL A   1      43.708  28.812  30.511  1.00  0.00     0.167 HD
ATOM     62  C   UNL A   1      45.248  26.381  30.141  1.00  0.00     0.074 A 
ATOM     63  C   UNL A   1      45.648  25.025  29.803  1.00  0.00     0.031 C 
ATOM     64  C   UNL A   1      46.054  27.283  30.759  1.00  0.00     0.031 A 
BRANCH  51  65
ATOM     65  C   UNL A   1      43.530  32.862  31.856  1.00  0.00    -0.014 A 
ATOM     66  C   UNL A   1      44.012  33.867  30.994  1.00  0.00     0.010 A 
ATOM     67  C   UNL A   1      43.211  33.202  33.182  1.00  0.00     0.010 A 
ATOM     68  C   UNL A   1      44.236  35.163  31.466  1.00  0.00     0.020 A 
ATOM     69  C   UNL A   1      43.398  34.507  33.649  1.00  0.00     0.020 A 
ATOM     70  C   UNL A   1      43.932  35.474  32.793  1.00  0.00     0.054 A 
BRANCH  70  71
ATOM     71  S   UNL A   1      44.228  37.165  33.378  1.00  0.00     0.124 S 
ATOM     72  O   UNL A   1      43.820  37.960  32.223  1.00  0.00    -0.237 OA
ATOM     73  O   UNL A   1      43.354  37.257  34.544  1.00  0.00    -0.237 OA
ATOM     74  O   UNL A   1      45.659  37.184  33.673  1.00  0.00    -0.744 OA
ENDBRANCH  70  71
ENDBRANCH  51  65
BRANCH  52  75
ATOM     75  C   UNL A   1      42.100  23.649  27.871  1.00  0.00    -0.014 A 
ATOM     76  C   UNL A   1      42.582  23.414  26.572  1.00  0.00     0.010 A 
ATOM     77  C   UNL A   1      41.508  22.587  28.582  1.00  0.00     0.010 A 
ATOM     78  C   UNL A   1      42.481  22.143  25.997  1.00  0.00     0.020 A 
ATOM     79  C   UNL A   1      41.429  21.309  28.021  1.00  0.00     0.020 A 
ATOM     80  C   UNL A   1      41.914  21.096  26.730  1.00  0.00     0.054 A 
BRANCH  80  81
ATOM     81  S   UNL A   1      41.884  19.435  26.000  1.00  0.00     0.124 S 
ATOM     82  O   UNL A   1      42.401  18.614  27.090  1.00  0.00    -0.237 OA
ATOM     83  O   UNL A   1      40.467  19.256  25.689  1.00  0.00    -0.237 OA
ATOM     84  O   UNL A   1      42.758  19.556  24.835  1.00  0.00    -0.744 OA
ENDBRANCH  80  81
ENDBRANCH  52  75
BRANCH  64  85
ATOM     85  C   UNL A   1      47.440  26.814  31.097  1.00  0.00    -0.014 A 
ATOM     86  C   UNL A   1      47.722  26.235  32.346  1.00  0.00     0.010 A 
ATOM     87  C   UNL A   1      48.458  26.919  30.132  1.00  0.00     0.010 A 
ATOM     88  C   UNL A   1      49.016  25.807  32.641  1.00  0.00     0.020 A 
ATOM     89  C   UNL A   1      49.743  26.457  30.411  1.00  0.00     0.020 A 
ATOM     90  C   UNL A   1      50.018  25.923  31.672  1.00  0.00     0.054 A 
BRANCH  90  91
ATOM     91  S   UNL A   1      51.684  25.336  32.073  1.00  0.00     0.124 S 
ATOM     92  O   UNL A   1      51.897  25.918  33.395  1.00  0.00    -0.237 OA
ATOM     93  O   UNL A   1      51.525  23.884  32.042  1.00  0.00    -0.237 OA
ATOM     94  O   UNL A   1      52.513  25.891  31.006  1.00  0.00    -0.744 OA
ENDBRANCH  90  91
ENDBRANCH  64  85
ENDBRANCH  38  39
ENDBRANCH  30  33
ENDBRANCH  28  29
ENDBRANCH  27  28
ENDBRANCH   1  27
TORSDOF 19
ENDMDL
MODEL 3
REMARK VINA RESULT:     -11.8      3.714     10.156
REMARK SMILES CC[NH2+][C@]1(C(=O)NCCCNC(=O)c2ccc(-c3c4nc(c(-c5ccc(S(=O)(=O)[O-])cc5)c5ccc([nH]5)c(-c5ccc(S(=O)(=O)[O-])cc5)c5nc(c(-c6ccc(S(=O)(=O)[O-])cc6)c6ccc3[nH]6)C=C5)C=C4)cc2)CCC[C@H]1CC[N@H+]1CCC[C@@H](CC)C1
REMARK SMILES IDX 8 1 7 2 5 3 6 4 4 6 74 7 77 8 75 9 76 10 3 11 2 14 1 15
REMARK SMILES IDX 78 16 79 17 80 18 81 19 87 20 82 22 84 23 83 24 85 25 86 26
REMARK SMILES IDX 9 27 10 28 11 29 12 30 13 32 14 33 15 34 73 35 16 36 72 37
REMARK SMILES IDX 17 38 18 39 19 40 66 41 20 42 71 43 65 44 67 45 21 46 70 47
REMARK SMILES IDX 64 48 63 49 22 51 52 52 33 53 51 54 34 55 37 56 50 57 68 58
REMARK SMILES IDX 35 59 36 60 49 62 69 63 38 64 23 65 24 66 32 67 25 68 31 69
REMARK SMILES IDX 26 70 27 71 28 72 29 73 30 74 53 75 54 76 62 77 55 78 61 79
REMARK SMILES IDX 56 80 57 81 58 82 59 83 60 84 39 85 40 86 48 87 41 88 47 89
REMARK SMILES IDX 42 90 43 91 44 92 45 93 46 94
REMARK H PARENT 7 5 3 12 3 13 80 21 11 31 67 50 37 61
REMARK Flexibility Score: inf
ROOT
ATOM      1  C   UNL A   1      32.161  28.271  27.561  1.00  0.00     0.118 C 
ENDROOT
BRANCH   1   2
ATOM      2  N   UNL A   1      31.310  26.997  26.951  1.00  0.00    -0.351 N 
ATOM      3  C   UNL A   1      30.727  26.496  25.731  1.00  0.00     0.281 C 
ATOM      4  O   UNL A   1      29.624  25.939  25.707  1.00  0.00    -0.268 OA
ATOM      5  H   UNL A   1      31.141  26.350  27.673  1.00  0.00     0.163 HD
BRANCH   3   6
ATOM      6  C   UNL A   1      31.588  26.517  24.497  1.00  0.00     0.178 C 
ATOM      7  C   UNL A   1      33.085  26.900  24.336  1.00  0.00     0.079 C 
ATOM      8  C   UNL A   1      31.812  25.008  24.492  1.00  0.00     0.066 C 
ATOM      9  C   UNL A   1      33.548  26.004  23.159  1.00  0.00     0.008 C 
ATOM     10  C   UNL A   1      32.815  24.697  23.386  1.00  0.00     0.011 C 
BRANCH   6  11
ATOM     11  N   UNL A   1      30.877  27.371  23.497  1.00  0.00    -0.334 N 
ATOM     12  H   UNL A   1      31.405  27.326  22.626  1.00  0.00     0.347 HD
ATOM     13  H   UNL A   1      29.932  26.988  23.453  1.00  0.00     0.347 HD
BRANCH  11  14
ATOM     14  C   UNL A   1      30.689  28.799  23.829  1.00  0.00     0.257 C 
ATOM     15  C   UNL A   1      29.825  29.577  22.850  1.00  0.00     0.071 C 
ENDBRANCH  11  14
ENDBRANCH   6  11
BRANCH   8  16
ATOM     16  C   UNL A   1      32.172  24.482  26.110  1.00  0.00     0.072 C 
BRANCH  16  17
ATOM     17  C   UNL A   1      32.941  22.906  26.675  1.00  0.00     0.262 C 
BRANCH  17  18
ATOM     18  N   UNL A   1      33.978  21.754  26.019  1.00  0.00    -0.335 N 
ATOM     19  C   UNL A   1      35.461  21.479  26.207  1.00  0.00     0.262 C 
ATOM     20  C   UNL A   1      33.336  20.472  25.637  1.00  0.00     0.265 C 
ATOM     21  H   UNL A   1      34.144  22.572  25.432  1.00  0.00     0.348 HD
ATOM     22  C   UNL A   1      36.195  20.991  24.972  1.00  0.00     0.062 C 
ATOM     23  C   UNL A   1      34.176  19.546  24.665  1.00  0.00     0.044 C 
ATOM     24  C   UNL A   1      35.715  19.581  24.786  1.00  0.00     0.015 C 
BRANCH  23  25
ATOM     25  C   UNL A   1      33.793  18.048  24.672  1.00  0.00     0.006 C 
ATOM     26  C   UNL A   1      33.468  17.420  23.335  1.00  0.00     0.004 C 
ENDBRANCH  23  25
ENDBRANCH  17  18
ENDBRANCH  16  17
ENDBRANCH   8  16
ENDBRANCH   3   6
ENDBRANCH   1   2
BRANCH   1  27
ATOM     27  C   UNL A   1      33.589  29.084  26.968  1.00  0.00     0.042 C 
BRANCH  27  28
ATOM     28  C   UNL A   1      35.017  29.763  27.479  1.00  0.00     0.118 C 
BRANCH  28  29
ATOM     29  N   UNL A   1      35.292  30.214  28.857  1.00  0.00    -0.352 N 
ATOM     30  C   UNL A   1      36.200  29.907  29.831  1.00  0.00     0.251 C 
ATOM     31  H   UNL A   1      34.663  30.914  29.148  1.00  0.00     0.163 HD
ATOM     32  O   UNL A   1      36.026  30.141  31.035  1.00  0.00    -0.269 OA
BRANCH  30  33
ATOM     33  C   UNL A   1      37.468  29.419  29.411  1.00  0.00     0.039 A 
ATOM     34  C   UNL A   1      37.996  29.709  28.156  1.00  0.00     0.014 A 
ATOM     35  C   UNL A   1      38.116  28.689  30.401  1.00  0.00     0.014 A 
ATOM     36  C   UNL A   1      39.295  29.311  27.918  1.00  0.00     0.010 A 
ATOM     37  C   UNL A   1      39.420  28.371  30.192  1.00  0.00     0.010 A 
ATOM     38  C   UNL A   1      40.004  28.683  28.954  1.00  0.00    -0.014 A 
BRANCH  38  39
ATOM     39  C   UNL A   1      41.412  28.333  28.822  1.00  0.00     0.031 A 
ATOM     40  C   UNL A   1      42.410  29.438  28.893  1.00  0.00     0.074 A 
ATOM     41  C   UNL A   1      41.695  27.081  28.429  1.00  0.00     0.049 A 
ATOM     42  N   UNL A   1      43.677  29.412  28.600  1.00  0.00    -0.248 NA
ATOM     43  C   UNL A   1      41.897  30.771  29.267  1.00  0.00     0.031 C 
ATOM     44  C   UNL A   1      40.712  26.006  28.242  1.00  0.00     0.029 A 
ATOM     45  N   UNL A   1      42.883  26.514  28.084  1.00  0.00    -0.354 N 
ATOM     46  C   UNL A   1      44.104  30.726  28.717  1.00  0.00     0.074 A 
ATOM     47  C   UNL A   1      42.950  31.535  29.033  1.00  0.00     0.031 C 
ATOM     48  C   UNL A   1      41.349  24.897  27.840  1.00  0.00     0.029 A 
ATOM     49  C   UNL A   1      42.766  25.201  27.699  1.00  0.00     0.049 A 
ATOM     50  H   UNL A   1      43.741  26.996  28.108  1.00  0.00     0.167 HD
ATOM     51  C   UNL A   1      45.363  31.196  28.584  1.00  0.00     0.031 A 
ATOM     52  C   UNL A   1      43.715  24.353  27.270  1.00  0.00     0.031 A 
ATOM     53  C   UNL A   1      46.469  30.333  28.272  1.00  0.00     0.049 A 
ATOM     54  C   UNL A   1      45.118  24.877  27.209  1.00  0.00     0.074 A 
ATOM     55  C   UNL A   1      47.812  30.638  28.201  1.00  0.00     0.029 A 
ATOM     56  N   UNL A   1      46.341  28.980  27.975  1.00  0.00    -0.354 N 
ATOM     57  N   UNL A   1      45.547  26.100  27.431  1.00  0.00    -0.248 NA
ATOM     58  C   UNL A   1      46.166  23.915  26.867  1.00  0.00     0.031 C 
ATOM     59  C   UNL A   1      48.490  29.481  27.801  1.00  0.00     0.029 A 
ATOM     60  C   UNL A   1      47.579  28.438  27.690  1.00  0.00     0.049 A 
ATOM     61  H   UNL A   1      45.493  28.481  27.969  1.00  0.00     0.167 HD
ATOM     62  C   UNL A   1      46.923  26.057  27.265  1.00  0.00     0.074 A 
ATOM     63  C   UNL A   1      47.251  24.675  26.953  1.00  0.00     0.031 C 
ATOM     64  C   UNL A   1      47.838  27.056  27.357  1.00  0.00     0.031 A 
BRANCH  51  65
ATOM     65  C   UNL A   1      45.571  32.678  28.757  1.00  0.00    -0.014 A 
ATOM     66  C   UNL A   1      45.365  33.580  27.695  1.00  0.00     0.010 A 
ATOM     67  C   UNL A   1      46.014  33.178  29.994  1.00  0.00     0.010 A 
ATOM     68  C   UNL A   1      45.661  34.938  27.845  1.00  0.00     0.020 A 
ATOM     69  C   UNL A   1      46.275  34.541  30.161  1.00  0.00     0.020 A 
ATOM     70  C   UNL A   1      46.119  35.409  29.077  1.00  0.00     0.054 A 
BRANCH  70  71
ATOM     71  S   UNL A   1      46.491  37.176  29.246  1.00  0.00     0.124 S 
ATOM     72  O   UNL A   1      46.332  37.382  30.683  1.00  0.00    -0.237 OA
ATOM     73  O   UNL A   1      47.861  37.262  28.746  1.00  0.00    -0.237 OA
ATOM     74  O   UNL A   1      45.484  37.824  28.409  1.00  0.00    -0.744 OA
ENDBRANCH  70  71
ENDBRANCH  51  65
BRANCH  52  75
ATOM     75  C   UNL A   1      43.345  22.955  26.935  1.00  0.00    -0.014 A 
ATOM     76  C   UNL A   1      43.657  22.417  25.675  1.00  0.00     0.010 A 
ATOM     77  C   UNL A   1      42.782  22.116  27.916  1.00  0.00     0.010 A 
ATOM     78  C   UNL A   1      43.416  21.066  25.402  1.00  0.00     0.020 A 
ATOM     79  C   UNL A   1      42.564  20.760  27.655  1.00  0.00     0.020 A 
ATOM     80  C   UNL A   1      42.881  20.244  26.397  1.00  0.00     0.054 A 
BRANCH  80  81
ATOM     81  S   UNL A   1      42.669  18.476  26.050  1.00  0.00     0.124 S 
ATOM     82  O   UNL A   1      43.624  18.261  24.967  1.00  0.00    -0.237 OA
ATOM     83  O   UNL A   1      43.015  17.861  27.330  1.00  0.00    -0.237 OA
ATOM     84  O   UNL A   1      41.260  18.365  25.676  1.00  0.00    -0.744 OA
ENDBRANCH  80  81
ENDBRANCH  52  75
BRANCH  64  85
ATOM     85  C   UNL A   1      49.269  26.672  27.114  1.00  0.00    -0.014 A 
ATOM     86  C   UNL A   1      49.824  26.733  25.823  1.00  0.00     0.010 A 
ATOM     87  C   UNL A   1      50.074  26.288  28.200  1.00  0.00     0.010 A 
ATOM     88  C   UNL A   1      51.154  26.371  25.617  1.00  0.00     0.020 A 
ATOM     89  C   UNL A   1      51.415  25.962  28.003  1.00  0.00     0.020 A 
ATOM     90  C   UNL A   1      51.940  25.986  26.708  1.00  0.00     0.054 A 
BRANCH  90  91
ATOM     91  S   UNL A   1      53.672  25.545  26.416  1.00  0.00     0.124 S 
ATOM     92  O   UNL A   1      54.091  26.580  25.476  1.00  0.00    -0.237 OA
ATOM     93  O   UNL A   1      54.253  25.637  27.754  1.00  0.00    -0.237 OA
ATOM     94  O   UNL A   1      53.598  24.194  25.866  1.00  0.00    -0.744 OA
ENDBRANCH  90  91
ENDBRANCH  64  85
ENDBRANCH  38  39
ENDBRANCH  30  33
ENDBRANCH  28  29
ENDBRANCH  27  28
ENDBRANCH   1  27
TORSDOF 19
ENDMDL
