MODEL 1
REMARK VINA RESULT:     -13.6      0.000      0.000
REMARK SMILES Cc1oc2c(C)c3oc(=O)c(CCC(=O)N[C@H](Cc4ccc(Cl)cc4)C(=O)NCCCNC(=O)c4ccc(-c5c6nc(c(-c7ccc(S(=O)(=O)[O-])cc7)c7ccc([nH]7)c(-c7ccc(S(=O)(=O)[O-])cc7)c7nc(c(-c8ccc(S(=O)(=O)[O-])cc8)c8ccc5[nH]8)C=C7)C=C6)cc4)c(C)c3cc2c1C
REMARK SMILES IDX 29 1 28 2 26 3 27 4 17 6 16 7 14 8 15 9 13 11 12 12 11 13
REMARK SMILES IDX 1 14 2 15 3 16 100 17 4 18 99 19 101 20 5 21 98 22 6 23 7 24
REMARK SMILES IDX 97 25 8 26 95 27 9 28 96 29 10 30 18 31 19 32 20 33 25 34
REMARK SMILES IDX 21 35 24 36 22 37 23 38 30 39 31 40 32 41 33 42 34 44 35 45
REMARK SMILES IDX 36 46 94 47 37 48 93 49 38 50 39 51 40 52 87 53 41 54 92 55
REMARK SMILES IDX 86 56 88 57 42 58 91 59 85 60 84 61 43 63 73 64 54 65 72 66
REMARK SMILES IDX 55 67 58 68 71 69 89 70 56 71 57 72 70 74 90 75 59 76 44 77
REMARK SMILES IDX 45 78 53 79 46 80 52 81 47 82 48 83 49 84 50 85 51 86 74 87
REMARK SMILES IDX 75 88 83 89 76 90 82 91 77 92 78 93 79 94 80 95 81 96 60 97
REMARK SMILES IDX 61 98 69 99 62 100 68 101 63 102 64 103 65 104 66 105 67 106
REMARK H PARENT 28 5 16 10 32 43 88 62 58 73
REMARK Flexibility Score: inf
ROOT
ATOM      1  C   UNL A   1      33.084  29.594  26.593  1.00  0.00     0.117 C 
ENDROOT
BRANCH   1   2
ATOM      2  N   UNL A   1      33.370  29.256  25.202  1.00  0.00    -0.354 N 
ATOM      3  C   UNL A   1      32.688  28.992  24.071  1.00  0.00     0.242 C 
ATOM      4  O   UNL A   1      33.361  29.357  23.084  1.00  0.00    -0.273 OA
ATOM      5  H   UNL A   1      34.340  29.204  25.047  1.00  0.00     0.163 HD
BRANCH   3   6
ATOM      6  C   UNL A   1      31.297  28.316  23.747  1.00  0.00     0.175 C 
BRANCH   6   7
ATOM      7  N   UNL A   1      31.446  27.638  22.425  1.00  0.00    -0.344 N 
ATOM      8  C   UNL A   1      31.838  26.343  22.175  1.00  0.00     0.220 C 
ATOM      9  O   UNL A   1      32.596  26.148  21.221  1.00  0.00    -0.275 OA
ATOM     10  H   UNL A   1      31.237  28.185  21.634  1.00  0.00     0.164 HD
BRANCH   8  11
ATOM     11  C   UNL A   1      31.231  25.152  22.923  1.00  0.00     0.105 C 
BRANCH  11  12
ATOM     12  C   UNL A   1      31.343  25.134  24.462  1.00  0.00     0.053 C 
BRANCH  12  13
ATOM     13  C   UNL A   1      32.345  24.102  24.930  1.00  0.00     0.042 A 
ATOM     14  C   UNL A   1      35.054  16.282  24.172  1.00  0.00     0.088 C 
ATOM     15  C   UNL A   1      34.526  17.603  24.580  1.00  0.00     0.105 A 
ATOM     16  O   UNL A   1      35.409  18.643  24.515  1.00  0.00    -0.461 OA
ATOM     17  C   UNL A   1      33.287  18.052  25.003  1.00  0.00    -0.002 A 
ATOM     18  C   UNL A   1      34.734  19.778  24.852  1.00  0.00     0.141 A 
ATOM     19  C   UNL A   1      33.413  19.462  25.118  1.00  0.00     0.025 A 
ATOM     20  C   UNL A   1      32.038  17.297  25.269  1.00  0.00     0.049 C 
ATOM     21  C   UNL A   1      35.260  21.073  24.889  1.00  0.00     0.036 A 
ATOM     22  C   UNL A   1      32.509  20.492  25.407  1.00  0.00     0.024 A 
ATOM     23  C   UNL A   1      36.710  21.343  24.638  1.00  0.00     0.052 C 
ATOM     24  C   UNL A   1      34.289  22.079  25.114  1.00  0.00     0.145 A 
ATOM     25  C   UNL A   1      32.940  21.822  25.395  1.00  0.00     0.022 A 
ATOM     26  O   UNL A   1      34.707  23.421  24.968  1.00  0.00    -0.422 OA
ATOM     27  C   UNL A   1      31.973  22.928  25.473  1.00  0.00    -0.030 A 
ATOM     28  C   UNL A   1      33.788  24.444  24.783  1.00  0.00     0.339 A 
ATOM     29  C   UNL A   1      30.557  22.692  25.934  1.00  0.00     0.046 C 
ATOM     30  O   UNL A   1      34.152  25.589  24.539  1.00  0.00    -0.246 OA
ENDBRANCH  12  13
ENDBRANCH  11  12
ENDBRANCH   8  11
ENDBRANCH   6   7
BRANCH   6  31
ATOM     31  C   UNL A   1      29.866  28.804  24.016  1.00  0.00     0.070 C 
BRANCH  31  32
ATOM     32  C   UNL A   1      29.213  29.863  23.179  1.00  0.00    -0.045 A 
ATOM     33  C   UNL A   1      29.033  31.150  23.717  1.00  0.00     0.005 A 
ATOM     34  C   UNL A   1      28.724  29.589  21.898  1.00  0.00     0.005 A 
ATOM     35  C   UNL A   1      28.475  32.174  22.948  1.00  0.00     0.021 A 
ATOM     36  C   UNL A   1      28.187  30.620  21.118  1.00  0.00     0.021 A 
ATOM     37  C   UNL A   1      28.095  31.912  21.634  1.00  0.00     0.041 A 
ATOM     38  Cl  UNL A   1      27.618  33.210  20.612  1.00  0.00    -0.084 Cl
ENDBRANCH  31  32
ENDBRANCH   6  31
ENDBRANCH   3   6
ENDBRANCH   1   2
BRANCH   1  39
ATOM     39  C   UNL A   1      32.864  31.080  26.860  1.00  0.00     0.042 C 
BRANCH  39  40
ATOM     40  C   UNL A   1      33.429  31.850  28.065  1.00  0.00     0.118 C 
BRANCH  40  41
ATOM     41  N   UNL A   1      33.930  33.184  27.880  1.00  0.00    -0.352 N 
ATOM     42  C   UNL A   1      35.022  33.720  28.538  1.00  0.00     0.251 C 
ATOM     43  H   UNL A   1      33.459  33.761  27.236  1.00  0.00     0.163 HD
ATOM     44  O   UNL A   1      35.190  34.928  28.572  1.00  0.00    -0.269 OA
BRANCH  42  45
ATOM     45  C   UNL A   1      36.013  32.813  29.170  1.00  0.00     0.039 A 
ATOM     46  C   UNL A   1      36.170  32.808  30.557  1.00  0.00     0.014 A 
ATOM     47  C   UNL A   1      36.881  32.071  28.357  1.00  0.00     0.014 A 
ATOM     48  C   UNL A   1      37.197  32.053  31.129  1.00  0.00     0.010 A 
ATOM     49  C   UNL A   1      37.903  31.310  28.933  1.00  0.00     0.010 A 
ATOM     50  C   UNL A   1      38.071  31.305  30.322  1.00  0.00    -0.014 A 
BRANCH  50  51
ATOM     51  C   UNL A   1      39.162  30.579  31.009  1.00  0.00     0.031 A 
ATOM     52  C   UNL A   1      39.372  29.157  30.544  1.00  0.00     0.074 A 
ATOM     53  C   UNL A   1      40.251  31.298  31.361  1.00  0.00     0.049 A 
ATOM     54  N   UNL A   1      40.029  28.788  29.481  1.00  0.00    -0.248 NA
ATOM     55  C   UNL A   1      38.638  28.056  31.177  1.00  0.00     0.031 C 
ATOM     56  C   UNL A   1      40.950  32.263  30.506  1.00  0.00     0.029 A 
ATOM     57  N   UNL A   1      41.021  31.236  32.502  1.00  0.00    -0.354 N 
ATOM     58  C   UNL A   1      39.820  27.419  29.311  1.00  0.00     0.074 A 
ATOM     59  C   UNL A   1      38.926  27.020  30.373  1.00  0.00     0.031 C 
ATOM     60  C   UNL A   1      42.127  32.584  31.078  1.00  0.00     0.029 A 
ATOM     61  C   UNL A   1      42.237  31.909  32.370  1.00  0.00     0.049 A 
ATOM     62  H   UNL A   1      40.744  30.767  33.323  1.00  0.00     0.167 HD
ATOM     63  C   UNL A   1      40.423  26.680  28.337  1.00  0.00     0.031 A 
ATOM     64  C   UNL A   1      43.402  31.482  32.938  1.00  0.00     0.031 A 
ATOM     65  C   UNL A   1      41.365  27.416  27.548  1.00  0.00     0.049 A 
ATOM     66  C   UNL A   1      43.821  30.435  31.929  1.00  0.00     0.074 A 
ATOM     67  C   UNL A   1      41.408  28.033  26.320  1.00  0.00     0.029 A 
ATOM     68  N   UNL A   1      42.594  27.658  28.110  1.00  0.00    -0.354 N 
ATOM     69  N   UNL A   1      44.341  30.672  30.753  1.00  0.00    -0.248 NA
ATOM     70  C   UNL A   1      43.241  29.095  32.072  1.00  0.00     0.031 C 
ATOM     71  C   UNL A   1      42.473  28.982  26.415  1.00  0.00     0.029 A 
ATOM     72  C   UNL A   1      42.998  28.901  27.706  1.00  0.00     0.049 A 
ATOM     73  H   UNL A   1      43.096  27.047  28.697  1.00  0.00     0.167 HD
ATOM     74  C   UNL A   1      43.840  29.671  29.916  1.00  0.00     0.074 A 
ATOM     75  C   UNL A   1      43.207  28.709  30.802  1.00  0.00     0.031 C 
ATOM     76  C   UNL A   1      43.778  29.780  28.555  1.00  0.00     0.031 A 
BRANCH  63  77
ATOM     77  C   UNL A   1      40.349  25.203  28.154  1.00  0.00    -0.014 A 
ATOM     78  C   UNL A   1      41.519  24.454  28.390  1.00  0.00     0.010 A 
ATOM     79  C   UNL A   1      39.266  24.575  27.516  1.00  0.00     0.010 A 
ATOM     80  C   UNL A   1      41.637  23.135  27.946  1.00  0.00     0.020 A 
ATOM     81  C   UNL A   1      39.375  23.242  27.079  1.00  0.00     0.020 A 
ATOM     82  C   UNL A   1      40.569  22.541  27.274  1.00  0.00     0.054 A 
BRANCH  82  83
ATOM     83  S   UNL A   1      40.808  20.867  26.611  1.00  0.00     0.124 S 
ATOM     84  O   UNL A   1      41.967  21.039  25.738  1.00  0.00    -0.237 OA
ATOM     85  O   UNL A   1      41.045  20.085  27.822  1.00  0.00    -0.237 OA
ATOM     86  O   UNL A   1      39.550  20.583  25.925  1.00  0.00    -0.744 OA
ENDBRANCH  82  83
ENDBRANCH  63  77
BRANCH  64  87
ATOM     87  C   UNL A   1      43.332  31.262  34.418  1.00  0.00    -0.014 A 
ATOM     88  C   UNL A   1      44.470  30.688  35.030  1.00  0.00     0.010 A 
ATOM     89  C   UNL A   1      42.268  31.640  35.252  1.00  0.00     0.010 A 
ATOM     90  C   UNL A   1      44.626  30.678  36.417  1.00  0.00     0.020 A 
ATOM     91  C   UNL A   1      42.422  31.650  36.648  1.00  0.00     0.020 A 
ATOM     92  C   UNL A   1      43.622  31.218  37.215  1.00  0.00     0.054 A 
BRANCH  92  93
ATOM     93  S   UNL A   1      43.961  31.437  38.982  1.00  0.00     0.124 S 
ATOM     94  O   UNL A   1      44.740  32.672  39.004  1.00  0.00    -0.237 OA
ATOM     95  O   UNL A   1      42.611  31.532  39.535  1.00  0.00    -0.237 OA
ATOM     96  O   UNL A   1      44.695  30.228  39.345  1.00  0.00    -0.744 OA
ENDBRANCH  92  93
ENDBRANCH  64  87
BRANCH  76  97
ATOM     97  C   UNL A   1      44.371  31.017  27.949  1.00  0.00    -0.014 A 
ATOM     98  C   UNL A   1      45.692  31.016  27.486  1.00  0.00     0.010 A 
ATOM     99  C   UNL A   1      43.579  32.168  27.756  1.00  0.00     0.010 A 
ATOM    100  C   UNL A   1      46.198  32.120  26.794  1.00  0.00     0.020 A 
ATOM    101  C   UNL A   1      44.070  33.265  27.048  1.00  0.00     0.020 A 
ATOM    102  C   UNL A   1      45.376  33.227  26.559  1.00  0.00     0.054 A 
BRANCH 102 103
ATOM    103  S   UNL A   1      46.024  34.586  25.549  1.00  0.00     0.124 S 
ATOM    104  O   UNL A   1      45.269  34.443  24.307  1.00  0.00    -0.237 OA
ATOM    105  O   UNL A   1      45.694  35.761  26.353  1.00  0.00    -0.237 OA
ATOM    106  O   UNL A   1      47.452  34.294  25.445  1.00  0.00    -0.744 OA
ENDBRANCH 102 103
ENDBRANCH  76  97
ENDBRANCH  50  51
ENDBRANCH  42  45
ENDBRANCH  40  41
ENDBRANCH  39  40
ENDBRANCH   1  39
TORSDOF 19
ENDMDL
MODEL 2
REMARK VINA RESULT:     -12.8      2.299      3.870
REMARK SMILES Cc1oc2c(C)c3oc(=O)c(CCC(=O)N[C@H](Cc4ccc(Cl)cc4)C(=O)NCCCNC(=O)c4ccc(-c5c6nc(c(-c7ccc(S(=O)(=O)[O-])cc7)c7ccc([nH]7)c(-c7ccc(S(=O)(=O)[O-])cc7)c7nc(c(-c8ccc(S(=O)(=O)[O-])cc8)c8ccc5[nH]8)C=C7)C=C6)cc4)c(C)c3cc2c1C
REMARK SMILES IDX 29 1 28 2 26 3 27 4 17 6 16 7 14 8 15 9 13 11 12 12 11 13
REMARK SMILES IDX 1 14 2 15 3 16 100 17 4 18 99 19 101 20 5 21 98 22 6 23 7 24
REMARK SMILES IDX 97 25 8 26 95 27 9 28 96 29 10 30 18 31 19 32 20 33 25 34
REMARK SMILES IDX 21 35 24 36 22 37 23 38 30 39 31 40 32 41 33 42 34 44 35 45
REMARK SMILES IDX 36 46 94 47 37 48 93 49 38 50 39 51 40 52 87 53 41 54 92 55
REMARK SMILES IDX 86 56 88 57 42 58 91 59 85 60 84 61 43 63 73 64 54 65 72 66
REMARK SMILES IDX 55 67 58 68 71 69 89 70 56 71 57 72 70 74 90 75 59 76 44 77
REMARK SMILES IDX 45 78 53 79 46 80 52 81 47 82 48 83 49 84 50 85 51 86 74 87
REMARK SMILES IDX 75 88 83 89 76 90 82 91 77 92 78 93 79 94 80 95 81 96 60 97
REMARK SMILES IDX 61 98 69 99 62 100 68 101 63 102 64 103 65 104 66 105 67 106
REMARK H PARENT 28 5 16 10 32 43 88 62 58 73
REMARK Flexibility Score: inf
ROOT
ATOM      1  C   UNL A   1      33.258  28.896  24.822  1.00  0.00     0.117 C 
ENDROOT
BRANCH   1   2
ATOM      2  N   UNL A   1      33.534  27.913  23.779  1.00  0.00    -0.354 N 
ATOM      3  C   UNL A   1      32.858  27.004  23.051  1.00  0.00     0.242 C 
ATOM      4  O   UNL A   1      33.404  26.875  21.935  1.00  0.00    -0.273 OA
ATOM      5  H   UNL A   1      34.489  27.915  23.540  1.00  0.00     0.163 HD
BRANCH   3   6
ATOM      6  C   UNL A   1      31.601  26.083  23.315  1.00  0.00     0.175 C 
BRANCH   6   7
ATOM      7  N   UNL A   1      31.758  24.880  22.444  1.00  0.00    -0.344 N 
ATOM      8  C   UNL A   1      32.210  23.629  22.798  1.00  0.00     0.220 C 
ATOM      9  O   UNL A   1      32.958  23.046  22.009  1.00  0.00    -0.275 OA
ATOM     10  H   UNL A   1      31.508  24.996  21.500  1.00  0.00     0.164 HD
BRANCH   8  11
ATOM     11  C   UNL A   1      31.677  22.893  24.032  1.00  0.00     0.105 C 
BRANCH  11  12
ATOM     12  C   UNL A   1      32.532  22.925  25.316  1.00  0.00     0.053 C 
BRANCH  12  13
ATOM     13  C   UNL A   1      33.985  22.625  25.019  1.00  0.00     0.042 A 
ATOM     14  C   UNL A   1      41.755  22.562  27.964  1.00  0.00     0.088 C 
ATOM     15  C   UNL A   1      40.476  22.755  27.245  1.00  0.00     0.105 A 
ATOM     16  O   UNL A   1      39.970  21.649  26.624  1.00  0.00    -0.461 OA
ATOM     17  C   UNL A   1      39.626  23.833  27.070  1.00  0.00    -0.002 A 
ATOM     18  C   UNL A   1      38.767  21.993  26.085  1.00  0.00     0.141 A 
ATOM     19  C   UNL A   1      38.499  23.319  26.375  1.00  0.00     0.025 A 
ATOM     20  C   UNL A   1      39.768  25.241  27.513  1.00  0.00     0.049 C 
ATOM     21  C   UNL A   1      37.903  21.147  25.382  1.00  0.00     0.036 A 
ATOM     22  C   UNL A   1      37.271  23.869  25.986  1.00  0.00     0.024 A 
ATOM     23  C   UNL A   1      38.273  19.734  25.058  1.00  0.00     0.052 C 
ATOM     24  C   UNL A   1      36.651  21.733  25.078  1.00  0.00     0.145 A 
ATOM     25  C   UNL A   1      36.323  23.070  25.340  1.00  0.00     0.022 A 
ATOM     26  O   UNL A   1      35.654  20.882  24.548  1.00  0.00    -0.422 OA
ATOM     27  C   UNL A   1      34.951  23.556  25.124  1.00  0.00    -0.030 A 
ATOM     28  C   UNL A   1      34.314  21.240  24.579  1.00  0.00     0.339 A 
ATOM     29  C   UNL A   1      34.617  25.021  25.242  1.00  0.00     0.046 C 
ATOM     30  O   UNL A   1      33.438  20.455  24.228  1.00  0.00    -0.246 OA
ENDBRANCH  12  13
ENDBRANCH  11  12
ENDBRANCH   8  11
ENDBRANCH   6   7
BRANCH   6  31
ATOM     31  C   UNL A   1      30.133  26.452  23.574  1.00  0.00     0.070 C 
BRANCH  31  32
ATOM     32  C   UNL A   1      29.532  27.732  23.078  1.00  0.00    -0.045 A 
ATOM     33  C   UNL A   1      28.165  27.978  23.294  1.00  0.00     0.005 A 
ATOM     34  C   UNL A   1      30.282  28.663  22.353  1.00  0.00     0.005 A 
ATOM     35  C   UNL A   1      27.583  29.182  22.891  1.00  0.00     0.021 A 
ATOM     36  C   UNL A   1      29.707  29.880  21.969  1.00  0.00     0.021 A 
ATOM     37  C   UNL A   1      28.371  30.147  22.268  1.00  0.00     0.041 A 
ATOM     38  Cl  UNL A   1      27.723  31.712  21.970  1.00  0.00    -0.084 Cl
ENDBRANCH  31  32
ENDBRANCH   6  31
ENDBRANCH   3   6
ENDBRANCH   1   2
BRANCH   1  39
ATOM     39  C   UNL A   1      33.660  28.468  26.230  1.00  0.00     0.042 C 
BRANCH  39  40
ATOM     40  C   UNL A   1      34.275  29.397  27.290  1.00  0.00     0.118 C 
BRANCH  40  41
ATOM     41  N   UNL A   1      34.132  30.821  27.150  1.00  0.00    -0.352 N 
ATOM     42  C   UNL A   1      34.777  31.763  27.931  1.00  0.00     0.251 C 
ATOM     43  H   UNL A   1      33.528  31.150  26.446  1.00  0.00     0.163 HD
ATOM     44  O   UNL A   1      34.373  32.913  27.971  1.00  0.00    -0.269 OA
BRANCH  42  45
ATOM     45  C   UNL A   1      35.992  31.375  28.691  1.00  0.00     0.039 A 
ATOM     46  C   UNL A   1      36.037  31.555  30.075  1.00  0.00     0.014 A 
ATOM     47  C   UNL A   1      37.136  30.962  27.995  1.00  0.00     0.014 A 
ATOM     48  C   UNL A   1      37.231  31.315  30.760  1.00  0.00     0.010 A 
ATOM     49  C   UNL A   1      38.327  30.715  28.684  1.00  0.00     0.010 A 
ATOM     50  C   UNL A   1      38.382  30.900  30.069  1.00  0.00    -0.014 A 
BRANCH  50  51
ATOM     51  C   UNL A   1      39.615  30.722  30.868  1.00  0.00     0.031 A 
ATOM     52  C   UNL A   1      40.577  29.688  30.332  1.00  0.00     0.074 A 
ATOM     53  C   UNL A   1      40.133  31.826  31.452  1.00  0.00     0.049 A 
ATOM     54  N   UNL A   1      41.433  29.865  29.368  1.00  0.00    -0.248 NA
ATOM     55  C   UNL A   1      40.458  28.285  30.746  1.00  0.00     0.031 C 
ATOM     56  C   UNL A   1      40.314  33.129  30.804  1.00  0.00     0.029 A 
ATOM     57  N   UNL A   1      40.703  31.983  32.696  1.00  0.00    -0.354 N 
ATOM     58  C   UNL A   1      41.982  28.620  29.057  1.00  0.00     0.074 A 
ATOM     59  C   UNL A   1      41.320  27.669  29.921  1.00  0.00     0.031 C 
ATOM     60  C   UNL A   1      41.089  33.904  31.588  1.00  0.00     0.029 A 
ATOM     61  C   UNL A   1      41.401  33.185  32.822  1.00  0.00     0.049 A 
ATOM     62  H   UNL A   1      40.627  31.319  33.419  1.00  0.00     0.167 HD
ATOM     63  C   UNL A   1      42.975  28.442  28.141  1.00  0.00     0.031 A 
ATOM     64  C   UNL A   1      42.555  33.318  33.539  1.00  0.00     0.031 A 
ATOM     65  C   UNL A   1      43.475  29.661  27.580  1.00  0.00     0.049 A 
ATOM     66  C   UNL A   1      43.554  32.790  32.534  1.00  0.00     0.074 A 
ATOM     67  C   UNL A   1      43.316  30.397  26.429  1.00  0.00     0.029 A 
ATOM     68  N   UNL A   1      44.337  30.396  28.355  1.00  0.00    -0.354 N 
ATOM     69  N   UNL A   1      43.993  33.433  31.482  1.00  0.00    -0.248 NA
ATOM     70  C   UNL A   1      43.741  31.337  32.472  1.00  0.00     0.031 C 
ATOM     71  C   UNL A   1      43.721  31.724  26.775  1.00  0.00     0.029 A 
ATOM     72  C   UNL A   1      44.078  31.720  28.124  1.00  0.00     0.049 A 
ATOM     73  H   UNL A   1      45.020  30.036  28.967  1.00  0.00     0.167 HD
ATOM     74  C   UNL A   1      44.171  32.458  30.498  1.00  0.00     0.074 A 
ATOM     75  C   UNL A   1      44.040  31.185  31.186  1.00  0.00     0.031 C 
ATOM     76  C   UNL A   1      44.199  32.728  29.158  1.00  0.00     0.031 A 
BRANCH  63  77
ATOM     77  C   UNL A   1      43.695  27.174  27.831  1.00  0.00    -0.014 A 
ATOM     78  C   UNL A   1      45.032  27.058  28.260  1.00  0.00     0.010 A 
ATOM     79  C   UNL A   1      43.196  26.225  26.922  1.00  0.00     0.010 A 
ATOM     80  C   UNL A   1      45.873  26.066  27.751  1.00  0.00     0.020 A 
ATOM     81  C   UNL A   1      44.036  25.216  26.418  1.00  0.00     0.020 A 
ATOM     82  C   UNL A   1      45.375  25.160  26.816  1.00  0.00     0.054 A 
BRANCH  82  83
ATOM     83  S   UNL A   1      46.533  23.962  26.093  1.00  0.00     0.124 S 
ATOM     84  O   UNL A   1      47.787  24.293  26.766  1.00  0.00    -0.237 OA
ATOM     85  O   UNL A   1      45.935  22.684  26.474  1.00  0.00    -0.237 OA
ATOM     86  O   UNL A   1      46.496  24.263  24.664  1.00  0.00    -0.744 OA
ENDBRANCH  82  83
ENDBRANCH  63  77
BRANCH  64  87
ATOM     87  C   UNL A   1      42.459  32.868  34.965  1.00  0.00    -0.014 A 
ATOM     88  C   UNL A   1      43.379  31.880  35.383  1.00  0.00     0.010 A 
ATOM     89  C   UNL A   1      41.586  33.392  35.931  1.00  0.00     0.010 A 
ATOM     90  C   UNL A   1      43.561  31.577  36.733  1.00  0.00     0.020 A 
ATOM     91  C   UNL A   1      41.771  33.105  37.293  1.00  0.00     0.020 A 
ATOM     92  C   UNL A   1      42.793  32.240  37.686  1.00  0.00     0.054 A 
BRANCH  92  93
ATOM     93  S   UNL A   1      43.229  32.029  39.433  1.00  0.00     0.124 S 
ATOM     94  O   UNL A   1      41.932  31.778  40.054  1.00  0.00    -0.237 OA
ATOM     95  O   UNL A   1      44.136  30.884  39.377  1.00  0.00    -0.237 OA
ATOM     96  O   UNL A   1      43.857  33.299  39.787  1.00  0.00    -0.744 OA
ENDBRANCH  92  93
ENDBRANCH  64  87
BRANCH  76  97
ATOM     97  C   UNL A   1      44.124  34.172  28.759  1.00  0.00    -0.014 A 
ATOM     98  C   UNL A   1      42.885  34.782  28.530  1.00  0.00     0.010 A 
ATOM     99  C   UNL A   1      45.295  34.957  28.697  1.00  0.00     0.010 A 
ATOM    100  C   UNL A   1      42.807  36.158  28.300  1.00  0.00     0.020 A 
ATOM    101  C   UNL A   1      45.222  36.335  28.489  1.00  0.00     0.020 A 
ATOM    102  C   UNL A   1      43.974  36.929  28.304  1.00  0.00     0.054 A 
BRANCH 102 103
ATOM    103  S   UNL A   1      43.822  38.726  28.129  1.00  0.00     0.124 S 
ATOM    104  O   UNL A   1      43.555  39.155  29.500  1.00  0.00    -0.237 OA
ATOM    105  O   UNL A   1      45.132  39.102  27.598  1.00  0.00    -0.237 OA
ATOM    106  O   UNL A   1      42.710  38.895  27.197  1.00  0.00    -0.744 OA
ENDBRANCH 102 103
ENDBRANCH  76  97
ENDBRANCH  50  51
ENDBRANCH  42  45
ENDBRANCH  40  41
ENDBRANCH  39  40
ENDBRANCH   1  39
TORSDOF 19
ENDMDL
MODEL 3
REMARK VINA RESULT:     -12.2      4.266     10.631
REMARK SMILES Cc1oc2c(C)c3oc(=O)c(CCC(=O)N[C@H](Cc4ccc(Cl)cc4)C(=O)NCCCNC(=O)c4ccc(-c5c6nc(c(-c7ccc(S(=O)(=O)[O-])cc7)c7ccc([nH]7)c(-c7ccc(S(=O)(=O)[O-])cc7)c7nc(c(-c8ccc(S(=O)(=O)[O-])cc8)c8ccc5[nH]8)C=C7)C=C6)cc4)c(C)c3cc2c1C
REMARK SMILES IDX 29 1 28 2 26 3 27 4 17 6 16 7 14 8 15 9 13 11 12 12 11 13
REMARK SMILES IDX 1 14 2 15 3 16 100 17 4 18 99 19 101 20 5 21 98 22 6 23 7 24
REMARK SMILES IDX 97 25 8 26 95 27 9 28 96 29 10 30 18 31 19 32 20 33 25 34
REMARK SMILES IDX 21 35 24 36 22 37 23 38 30 39 31 40 32 41 33 42 34 44 35 45
REMARK SMILES IDX 36 46 94 47 37 48 93 49 38 50 39 51 40 52 87 53 41 54 92 55
REMARK SMILES IDX 86 56 88 57 42 58 91 59 85 60 84 61 43 63 73 64 54 65 72 66
REMARK SMILES IDX 55 67 58 68 71 69 89 70 56 71 57 72 70 74 90 75 59 76 44 77
REMARK SMILES IDX 45 78 53 79 46 80 52 81 47 82 48 83 49 84 50 85 51 86 74 87
REMARK SMILES IDX 75 88 83 89 76 90 82 91 77 92 78 93 79 94 80 95 81 96 60 97
REMARK SMILES IDX 61 98 69 99 62 100 68 101 63 102 64 103 65 104 66 105 67 106
REMARK H PARENT 28 5 16 10 32 43 88 62 58 73
REMARK Flexibility Score: inf
ROOT
ATOM      1  C   UNL A   1      44.237  27.131  32.284  1.00  0.00     0.117 C 
ENDROOT
BRANCH   1   2
ATOM      2  N   UNL A   1      45.026  27.305  31.070  1.00  0.00    -0.354 N 
ATOM      3  C   UNL A   1      44.817  27.453  29.748  1.00  0.00     0.242 C 
ATOM      4  O   UNL A   1      45.733  28.146  29.255  1.00  0.00    -0.273 OA
ATOM      5  H   UNL A   1      45.989  27.317  31.276  1.00  0.00     0.163 HD
BRANCH   3   6
ATOM      6  C   UNL A   1      43.728  26.926  28.731  1.00  0.00     0.175 C 
BRANCH   6   7
ATOM      7  N   UNL A   1      44.296  25.706  28.083  1.00  0.00    -0.344 N 
ATOM      8  C   UNL A   1      43.862  24.406  28.195  1.00  0.00     0.220 C 
ATOM      9  O   UNL A   1      44.719  23.522  28.286  1.00  0.00    -0.275 OA
ATOM     10  H   UNL A   1      45.079  25.851  27.505  1.00  0.00     0.164 HD
BRANCH   8  11
ATOM     11  C   UNL A   1      42.387  24.026  28.035  1.00  0.00     0.105 C 
BRANCH  11  12
ATOM     12  C   UNL A   1      41.798  24.006  26.609  1.00  0.00     0.053 C 
BRANCH  12  13
ATOM     13  C   UNL A   1      40.491  23.244  26.562  1.00  0.00     0.042 A 
ATOM     14  C   UNL A   1      33.044  22.538  22.944  1.00  0.00     0.088 C 
ATOM     15  C   UNL A   1      34.219  22.703  23.828  1.00  0.00     0.105 A 
ATOM     16  O   UNL A   1      35.022  21.607  23.962  1.00  0.00    -0.461 OA
ATOM     17  C   UNL A   1      34.729  23.763  24.558  1.00  0.00    -0.002 A 
ATOM     18  C   UNL A   1      36.080  21.964  24.743  1.00  0.00     0.141 A 
ATOM     19  C   UNL A   1      35.959  23.296  25.095  1.00  0.00     0.025 A 
ATOM     20  C   UNL A   1      34.190  25.130  24.759  1.00  0.00     0.049 C 
ATOM     21  C   UNL A   1      37.153  21.144  25.108  1.00  0.00     0.036 A 
ATOM     22  C   UNL A   1      36.982  23.904  25.833  1.00  0.00     0.024 A 
ATOM     23  C   UNL A   1      37.202  19.696  24.736  1.00  0.00     0.052 C 
ATOM     24  C   UNL A   1      38.189  21.827  25.790  1.00  0.00     0.145 A 
ATOM     25  C   UNL A   1      38.121  23.172  26.179  1.00  0.00     0.022 A 
ATOM     26  O   UNL A   1      39.389  21.115  26.016  1.00  0.00    -0.422 OA
ATOM     27  C   UNL A   1      39.300  23.840  26.754  1.00  0.00    -0.030 A 
ATOM     28  C   UNL A   1      40.572  21.777  26.311  1.00  0.00     0.339 A 
ATOM     29  C   UNL A   1      39.203  25.230  27.329  1.00  0.00     0.046 C 
ATOM     30  O   UNL A   1      41.636  21.172  26.391  1.00  0.00    -0.246 OA
ENDBRANCH  12  13
ENDBRANCH  11  12
ENDBRANCH   8  11
ENDBRANCH   6   7
BRANCH   6  31
ATOM     31  C   UNL A   1      42.760  27.697  27.820  1.00  0.00     0.070 C 
BRANCH  31  32
ATOM     32  C   UNL A   1      41.342  27.974  28.215  1.00  0.00    -0.045 A 
ATOM     33  C   UNL A   1      40.841  27.427  29.410  1.00  0.00     0.005 A 
ATOM     34  C   UNL A   1      40.483  28.715  27.397  1.00  0.00     0.005 A 
ATOM     35  C   UNL A   1      39.540  27.707  29.835  1.00  0.00     0.021 A 
ATOM     36  C   UNL A   1      39.187  29.016  27.833  1.00  0.00     0.021 A 
ATOM     37  C   UNL A   1      38.734  28.539  29.062  1.00  0.00     0.041 A 
ATOM     38  Cl  UNL A   1      37.219  29.068  29.681  1.00  0.00    -0.084 Cl
ENDBRANCH  31  32
ENDBRANCH   6  31
ENDBRANCH   3   6
ENDBRANCH   1   2
BRANCH   1  39
ATOM     39  C   UNL A   1      44.407  25.780  32.973  1.00  0.00     0.042 C 
BRANCH  39  40
ATOM     40  C   UNL A   1      44.385  25.560  34.494  1.00  0.00     0.118 C 
BRANCH  40  41
ATOM     41  N   UNL A   1      43.284  24.854  35.090  1.00  0.00    -0.352 N 
ATOM     42  C   UNL A   1      42.104  25.438  35.514  1.00  0.00     0.251 C 
ATOM     43  H   UNL A   1      43.377  23.881  35.207  1.00  0.00     0.163 HD
ATOM     44  O   UNL A   1      41.365  24.847  36.284  1.00  0.00    -0.269 OA
BRANCH  42  45
ATOM     45  C   UNL A   1      41.721  26.774  34.993  1.00  0.00     0.039 A 
ATOM     46  C   UNL A   1      41.909  27.911  35.781  1.00  0.00     0.014 A 
ATOM     47  C   UNL A   1      41.042  26.866  33.770  1.00  0.00     0.014 A 
ATOM     48  C   UNL A   1      41.421  29.142  35.337  1.00  0.00     0.010 A 
ATOM     49  C   UNL A   1      40.562  28.101  33.325  1.00  0.00     0.010 A 
ATOM     50  C   UNL A   1      40.740  29.244  34.112  1.00  0.00    -0.014 A 
BRANCH  50  51
ATOM     51  C   UNL A   1      40.211  30.576  33.747  1.00  0.00     0.031 A 
ATOM     52  C   UNL A   1      40.656  31.706  34.646  1.00  0.00     0.074 A 
ATOM     53  C   UNL A   1      40.061  30.838  32.429  1.00  0.00     0.049 A 
ATOM     54  N   UNL A   1      41.796  32.332  34.582  1.00  0.00    -0.248 NA
ATOM     55  C   UNL A   1      39.877  32.049  35.841  1.00  0.00     0.031 C 
ATOM     56  C   UNL A   1      41.048  30.548  31.383  1.00  0.00     0.029 A 
ATOM     57  N   UNL A   1      39.055  31.509  31.769  1.00  0.00    -0.354 N 
ATOM     58  C   UNL A   1      41.885  33.161  35.701  1.00  0.00     0.074 A 
ATOM     59  C   UNL A   1      40.681  32.925  36.465  1.00  0.00     0.031 C 
ATOM     60  C   UNL A   1      40.681  31.175  30.248  1.00  0.00     0.029 A 
ATOM     61  C   UNL A   1      39.402  31.849  30.460  1.00  0.00     0.049 A 
ATOM     62  H   UNL A   1      38.186  31.728  32.177  1.00  0.00     0.167 HD
ATOM     63  C   UNL A   1      42.917  34.024  35.919  1.00  0.00     0.031 A 
ATOM     64  C   UNL A   1      39.012  33.007  29.852  1.00  0.00     0.031 A 
ATOM     65  C   UNL A   1      43.870  34.074  34.852  1.00  0.00     0.049 A 
ATOM     66  C   UNL A   1      40.038  33.963  30.418  1.00  0.00     0.074 A 
ATOM     67  C   UNL A   1      45.109  33.552  34.563  1.00  0.00     0.029 A 
ATOM     68  N   UNL A   1      43.519  34.793  33.736  1.00  0.00    -0.354 N 
ATOM     69  N   UNL A   1      41.290  34.048  30.048  1.00  0.00    -0.248 NA
ATOM     70  C   UNL A   1      39.760  34.543  31.737  1.00  0.00     0.031 C 
ATOM     71  C   UNL A   1      45.217  33.609  33.138  1.00  0.00     0.029 A 
ATOM     72  C   UNL A   1      44.023  34.139  32.645  1.00  0.00     0.049 A 
ATOM     73  H   UNL A   1      42.998  35.629  33.722  1.00  0.00     0.167 HD
ATOM     74  C   UNL A   1      42.002  34.354  31.211  1.00  0.00     0.074 A 
ATOM     75  C   UNL A   1      40.995  34.688  32.204  1.00  0.00     0.031 C 
ATOM     76  C   UNL A   1      43.339  34.114  31.367  1.00  0.00     0.031 A 
BRANCH  63  77
ATOM     77  C   UNL A   1      43.036  35.022  37.020  1.00  0.00    -0.014 A 
ATOM     78  C   UNL A   1      43.440  34.556  38.286  1.00  0.00     0.010 A 
ATOM     79  C   UNL A   1      42.521  36.325  36.917  1.00  0.00     0.010 A 
ATOM     80  C   UNL A   1      43.275  35.336  39.433  1.00  0.00     0.020 A 
ATOM     81  C   UNL A   1      42.366  37.121  38.067  1.00  0.00     0.020 A 
ATOM     82  C   UNL A   1      42.720  36.610  39.319  1.00  0.00     0.054 A 
BRANCH  82  83
ATOM     83  S   UNL A   1      42.415  37.544  40.848  1.00  0.00     0.124 S 
ATOM     84  O   UNL A   1      42.958  36.654  41.871  1.00  0.00    -0.237 OA
ATOM     85  O   UNL A   1      43.173  38.771  40.617  1.00  0.00    -0.237 OA
ATOM     86  O   UNL A   1      40.964  37.706  40.871  1.00  0.00    -0.744 OA
ENDBRANCH  82  83
ENDBRANCH  63  77
BRANCH  64  87
ATOM     87  C   UNL A   1      37.533  33.245  29.850  1.00  0.00    -0.014 A 
ATOM     88  C   UNL A   1      36.966  33.734  31.049  1.00  0.00     0.010 A 
ATOM     89  C   UNL A   1      36.681  33.091  28.745  1.00  0.00     0.010 A 
ATOM     90  C   UNL A   1      35.665  34.238  31.089  1.00  0.00     0.020 A 
ATOM     91  C   UNL A   1      35.376  33.609  28.771  1.00  0.00     0.020 A 
ATOM     92  C   UNL A   1      34.899  34.227  29.927  1.00  0.00     0.054 A 
BRANCH  92  93
ATOM     93  S   UNL A   1      33.323  35.123  29.935  1.00  0.00     0.124 S 
ATOM     94  O   UNL A   1      33.718  36.461  29.505  1.00  0.00    -0.237 OA
ATOM     95  O   UNL A   1      32.538  34.354  28.971  1.00  0.00    -0.237 OA
ATOM     96  O   UNL A   1      32.874  35.018  31.321  1.00  0.00    -0.744 OA
ENDBRANCH  92  93
ENDBRANCH  64  87
BRANCH  76  97
ATOM     97  C   UNL A   1      44.073  33.578  30.174  1.00  0.00    -0.014 A 
ATOM     98  C   UNL A   1      44.220  32.197  29.993  1.00  0.00     0.010 A 
ATOM     99  C   UNL A   1      44.545  34.453  29.174  1.00  0.00     0.010 A 
ATOM    100  C   UNL A   1      44.776  31.696  28.814  1.00  0.00     0.020 A 
ATOM    101  C   UNL A   1      45.082  33.958  27.984  1.00  0.00     0.020 A 
ATOM    102  C   UNL A   1      45.181  32.578  27.808  1.00  0.00     0.054 A 
BRANCH 102 103
ATOM    103  S   UNL A   1      45.779  31.889  26.242  1.00  0.00     0.124 S 
ATOM    104  O   UNL A   1      45.339  30.498  26.322  1.00  0.00    -0.237 OA
ATOM    105  O   UNL A   1      45.086  32.710  25.251  1.00  0.00    -0.237 OA
ATOM    106  O   UNL A   1      47.226  32.087  26.301  1.00  0.00    -0.744 OA
ENDBRANCH 102 103
ENDBRANCH  76  97
ENDBRANCH  50  51
ENDBRANCH  42  45
ENDBRANCH  40  41
ENDBRANCH  39  40
ENDBRANCH   1  39
TORSDOF 19
ENDMDL
