MODEL 1
REMARK VINA RESULT:      -9.3      0.000      0.000
REMARK SMILES O=C(CCCC[C@H](O)c1ccc(Cl)s1)NCCCNC(=O)c1ccc(-c2c3nc(c(-c4ccc(S(=O)(=O)[O-])cc4)c4ccc([nH]4)c(-c4ccc(S(=O)(=O)[O-])cc4)c4nc(c(-c5ccc(S(=O)(=O)[O-])cc5)c5ccc2[nH]5)C=C4)C=C3)cc1
REMARK SMILES IDX 16 1 15 2 1 3 2 4 3 6 4 7 5 8 6 9 7 10 9 11 10 12 14 13
REMARK SMILES IDX 11 14 12 15 13 16 8 17 17 19 18 20 19 21 20 22 21 24 22 25
REMARK SMILES IDX 23 26 81 27 24 28 80 29 25 30 26 31 27 32 74 33 28 34 79 35
REMARK SMILES IDX 73 36 75 37 29 38 78 39 72 40 71 41 30 43 60 44 41 45 59 46
REMARK SMILES IDX 42 47 45 48 58 49 76 50 43 51 44 52 57 54 77 55 46 56 31 57
REMARK SMILES IDX 32 58 40 59 33 60 39 61 34 62 35 63 36 64 37 65 38 66 61 67
REMARK SMILES IDX 62 68 70 69 63 70 69 71 64 72 65 73 66 74 67 75 68 76 47 77
REMARK SMILES IDX 48 78 56 79 49 80 55 81 50 82 51 83 52 84 53 85 54 86
REMARK H PARENT 15 5 8 18 19 23 75 42 45 53
REMARK Flexibility Score: inf
ROOT
ATOM      1  C   UNL A   1      34.317  35.047  28.569  1.00  0.00     0.117 C 
ENDROOT
BRANCH   1   2
ATOM      2  N   UNL A   1      34.181  35.254  29.995  1.00  0.00    -0.356 N 
ATOM      3  O   UNL A   1      32.198  36.411  29.906  1.00  0.00    -0.275 OA
ATOM      4  C   UNL A   1      33.094  35.881  30.556  1.00  0.00     0.219 C 
ATOM      5  H   UNL A   1      34.897  34.931  30.590  1.00  0.00     0.163 HD
BRANCH   4   6
ATOM      6  C   UNL A   1      33.079  35.848  32.071  1.00  0.00     0.100 C 
BRANCH   6   7
ATOM      7  C   UNL A   1      33.904  34.690  32.636  1.00  0.00     0.010 C 
BRANCH   7   8
ATOM      8  C   UNL A   1      35.098  35.063  33.530  1.00  0.00     0.004 C 
BRANCH   8   9
ATOM      9  C   UNL A   1      36.457  34.429  33.190  1.00  0.00     0.037 C 
BRANCH   9  10
ATOM     10  C   UNL A   1      36.401  33.357  32.095  1.00  0.00     0.154 C 
BRANCH  10  11
ATOM     11  C   UNL A   1      37.366  33.643  30.978  1.00  0.00     0.035 A 
ATOM     12  C   UNL A   1      37.293  33.258  29.648  1.00  0.00     0.020 A 
ATOM     13  S   UNL A   1      38.762  34.601  31.268  1.00  0.00    -0.126 S 
ATOM     14  C   UNL A   1      38.384  33.752  28.875  1.00  0.00     0.033 A 
ATOM     15  C   UNL A   1      39.235  34.499  29.647  1.00  0.00     0.093 A 
ATOM     16  Cl  UNL A   1      40.655  35.306  29.120  1.00  0.00    -0.072 Cl
ENDBRANCH  10  11
BRANCH  10  17
ATOM     17  O   UNL A   1      36.782  32.092  32.620  1.00  0.00    -0.388 OA
ATOM     18  H   UNL A   1      37.356  31.638  31.984  1.00  0.00     0.211 HD
ENDBRANCH  10  17
ENDBRANCH   9  10
ENDBRANCH   8   9
ENDBRANCH   7   8
ENDBRANCH   6   7
ENDBRANCH   4   6
ENDBRANCH   1   2
BRANCH   1  19
ATOM     19  C   UNL A   1      33.739  33.713  28.114  1.00  0.00     0.042 C 
BRANCH  19  20
ATOM     20  C   UNL A   1      34.426  32.476  28.686  1.00  0.00     0.118 C 
BRANCH  20  21
ATOM     21  N   UNL A   1      33.839  31.223  28.236  1.00  0.00    -0.352 N 
ATOM     22  C   UNL A   1      34.437  30.014  27.979  1.00  0.00     0.251 C 
ATOM     23  H   UNL A   1      32.866  31.246  28.094  1.00  0.00     0.163 HD
ATOM     24  O   UNL A   1      33.762  29.109  27.483  1.00  0.00    -0.269 OA
BRANCH  22  25
ATOM     25  C   UNL A   1      35.875  29.790  28.258  1.00  0.00     0.039 A 
ATOM     26  C   UNL A   1      36.249  29.382  29.542  1.00  0.00     0.014 A 
ATOM     27  C   UNL A   1      36.858  29.998  27.286  1.00  0.00     0.014 A 
ATOM     28  C   UNL A   1      37.593  29.129  29.831  1.00  0.00     0.010 A 
ATOM     29  C   UNL A   1      38.189  29.669  27.554  1.00  0.00     0.010 A 
ATOM     30  C   UNL A   1      38.573  29.235  28.831  1.00  0.00    -0.014 A 
BRANCH  30  31
ATOM     31  C   UNL A   1      39.991  28.880  29.118  1.00  0.00     0.031 A 
ATOM     32  C   UNL A   1      40.915  29.864  29.788  1.00  0.00     0.074 A 
ATOM     33  C   UNL A   1      40.461  27.671  28.746  1.00  0.00     0.049 A 
ATOM     34  N   UNL A   1      42.168  29.710  30.138  1.00  0.00    -0.248 NA
ATOM     35  C   UNL A   1      40.372  31.199  30.083  1.00  0.00     0.031 C 
ATOM     36  C   UNL A   1      39.690  26.644  28.041  1.00  0.00     0.029 A 
ATOM     37  N   UNL A   1      41.697  27.097  28.916  1.00  0.00    -0.354 N 
ATOM     38  C   UNL A   1      42.563  30.926  30.686  1.00  0.00     0.074 A 
ATOM     39  C   UNL A   1      41.434  31.825  30.570  1.00  0.00     0.031 C 
ATOM     40  C   UNL A   1      40.454  25.553  27.878  1.00  0.00     0.029 A 
ATOM     41  C   UNL A   1      41.780  25.812  28.432  1.00  0.00     0.049 A 
ATOM     42  H   UNL A   1      42.451  27.561  29.345  1.00  0.00     0.167 HD
ATOM     43  C   UNL A   1      43.747  31.261  31.256  1.00  0.00     0.031 A 
ATOM     44  C   UNL A   1      42.802  24.934  28.437  1.00  0.00     0.031 A 
ATOM     45  C   UNL A   1      44.869  30.366  31.376  1.00  0.00     0.049 A 
ATOM     46  C   UNL A   1      44.104  25.326  29.080  1.00  0.00     0.074 A 
ATOM     47  C   UNL A   1      46.091  30.596  31.986  1.00  0.00     0.029 A 
ATOM     48  N   UNL A   1      44.911  29.074  30.876  1.00  0.00    -0.354 N 
ATOM     49  N   UNL A   1      44.431  26.457  29.660  1.00  0.00    -0.248 NA
ATOM     50  C   UNL A   1      45.170  24.314  29.085  1.00  0.00     0.031 C 
ATOM     51  C   UNL A   1      46.891  29.462  31.807  1.00  0.00     0.029 A 
ATOM     52  C   UNL A   1      46.145  28.502  31.143  1.00  0.00     0.049 A 
ATOM     53  H   UNL A   1      44.173  28.628  30.402  1.00  0.00     0.167 HD
ATOM     54  C   UNL A   1      45.730  26.282  30.124  1.00  0.00     0.074 A 
ATOM     55  C   UNL A   1      46.120  24.931  29.775  1.00  0.00     0.031 C 
ATOM     56  C   UNL A   1      46.528  27.161  30.782  1.00  0.00     0.031 A 
BRANCH  43  57
ATOM     57  C   UNL A   1      43.891  32.663  31.793  1.00  0.00    -0.014 A 
ATOM     58  C   UNL A   1      43.586  32.962  33.133  1.00  0.00     0.010 A 
ATOM     59  C   UNL A   1      44.381  33.686  30.961  1.00  0.00     0.010 A 
ATOM     60  C   UNL A   1      43.725  34.266  33.619  1.00  0.00     0.020 A 
ATOM     61  C   UNL A   1      44.552  34.984  31.451  1.00  0.00     0.020 A 
ATOM     62  C   UNL A   1      44.206  35.269  32.773  1.00  0.00     0.054 A 
BRANCH  62  63
ATOM     63  S   UNL A   1      44.397  36.947  33.437  1.00  0.00     0.124 S 
ATOM     64  O   UNL A   1      43.897  37.765  32.335  1.00  0.00    -0.237 OA
ATOM     65  O   UNL A   1      43.554  36.917  34.630  1.00  0.00    -0.237 OA
ATOM     66  O   UNL A   1      45.831  37.057  33.695  1.00  0.00    -0.744 OA
ENDBRANCH  62  63
ENDBRANCH  43  57
BRANCH  44  67
ATOM     67  C   UNL A   1      42.625  23.584  27.837  1.00  0.00    -0.014 A 
ATOM     68  C   UNL A   1      42.919  23.360  26.479  1.00  0.00     0.010 A 
ATOM     69  C   UNL A   1      42.169  22.510  28.622  1.00  0.00     0.010 A 
ATOM     70  C   UNL A   1      42.738  22.094  25.913  1.00  0.00     0.020 A 
ATOM     71  C   UNL A   1      42.016  21.235  28.068  1.00  0.00     0.020 A 
ATOM     72  C   UNL A   1      42.291  21.038  26.713  1.00  0.00     0.054 A 
BRANCH  72  73
ATOM     73  S   UNL A   1      42.111  19.392  25.971  1.00  0.00     0.124 S 
ATOM     74  O   UNL A   1      42.613  18.525  27.032  1.00  0.00    -0.237 OA
ATOM     75  O   UNL A   1      40.675  19.317  25.716  1.00  0.00    -0.237 OA
ATOM     76  O   UNL A   1      42.945  19.466  24.774  1.00  0.00    -0.744 OA
ENDBRANCH  72  73
ENDBRANCH  44  67
BRANCH  56  77
ATOM     77  C   UNL A   1      47.894  26.674  31.196  1.00  0.00    -0.014 A 
ATOM     78  C   UNL A   1      48.111  26.081  32.452  1.00  0.00     0.010 A 
ATOM     79  C   UNL A   1      48.974  26.798  30.302  1.00  0.00     0.010 A 
ATOM     80  C   UNL A   1      49.393  25.670  32.827  1.00  0.00     0.020 A 
ATOM     81  C   UNL A   1      50.251  26.359  30.660  1.00  0.00     0.020 A 
ATOM     82  C   UNL A   1      50.456  25.818  31.931  1.00  0.00     0.054 A 
BRANCH  82  83
ATOM     83  S   UNL A   1      52.110  25.271  32.438  1.00  0.00     0.124 S 
ATOM     84  O   UNL A   1      52.236  25.875  33.761  1.00  0.00    -0.237 OA
ATOM     85  O   UNL A   1      51.987  23.816  32.420  1.00  0.00    -0.237 OA
ATOM     86  O   UNL A   1      52.988  25.828  31.412  1.00  0.00    -0.744 OA
ENDBRANCH  82  83
ENDBRANCH  56  77
ENDBRANCH  30  31
ENDBRANCH  22  25
ENDBRANCH  20  21
ENDBRANCH  19  20
ENDBRANCH   1  19
TORSDOF 19
ENDMDL
MODEL 2
REMARK VINA RESULT:      -9.1      1.471      2.061
REMARK SMILES O=C(CCCC[C@H](O)c1ccc(Cl)s1)NCCCNC(=O)c1ccc(-c2c3nc(c(-c4ccc(S(=O)(=O)[O-])cc4)c4ccc([nH]4)c(-c4ccc(S(=O)(=O)[O-])cc4)c4nc(c(-c5ccc(S(=O)(=O)[O-])cc5)c5ccc2[nH]5)C=C4)C=C3)cc1
REMARK SMILES IDX 16 1 15 2 1 3 2 4 3 6 4 7 5 8 6 9 7 10 9 11 10 12 14 13
REMARK SMILES IDX 11 14 12 15 13 16 8 17 17 19 18 20 19 21 20 22 21 24 22 25
REMARK SMILES IDX 23 26 81 27 24 28 80 29 25 30 26 31 27 32 74 33 28 34 79 35
REMARK SMILES IDX 73 36 75 37 29 38 78 39 72 40 71 41 30 43 60 44 41 45 59 46
REMARK SMILES IDX 42 47 45 48 58 49 76 50 43 51 44 52 57 54 77 55 46 56 31 57
REMARK SMILES IDX 32 58 40 59 33 60 39 61 34 62 35 63 36 64 37 65 38 66 61 67
REMARK SMILES IDX 62 68 70 69 63 70 69 71 64 72 65 73 66 74 67 75 68 76 47 77
REMARK SMILES IDX 48 78 56 79 49 80 55 81 50 82 51 83 52 84 53 85 54 86
REMARK H PARENT 15 5 8 18 19 23 75 42 45 53
REMARK Flexibility Score: inf
ROOT
ATOM      1  C   UNL A   1      33.490  34.858  28.939  1.00  0.00     0.117 C 
ENDROOT
BRANCH   1   2
ATOM      2  N   UNL A   1      34.380  34.852  30.081  1.00  0.00    -0.356 N 
ATOM      3  O   UNL A   1      32.766  35.205  31.677  1.00  0.00    -0.275 OA
ATOM      4  C   UNL A   1      33.932  34.976  31.374  1.00  0.00     0.219 C 
ATOM      5  H   UNL A   1      35.347  34.753  29.924  1.00  0.00     0.163 HD
BRANCH   4   6
ATOM      6  C   UNL A   1      35.012  34.783  32.420  1.00  0.00     0.100 C 
BRANCH   6   7
ATOM      7  C   UNL A   1      36.266  34.119  31.845  1.00  0.00     0.010 C 
BRANCH   7   8
ATOM      8  C   UNL A   1      37.595  34.413  32.562  1.00  0.00     0.004 C 
BRANCH   8   9
ATOM      9  C   UNL A   1      37.648  34.157  34.078  1.00  0.00     0.037 C 
BRANCH   9  10
ATOM     10  C   UNL A   1      37.280  32.728  34.492  1.00  0.00     0.154 C 
BRANCH  10  11
ATOM     11  C   UNL A   1      38.348  31.739  34.116  1.00  0.00     0.035 A 
ATOM     12  C   UNL A   1      39.715  31.811  34.339  1.00  0.00     0.020 A 
ATOM     13  S   UNL A   1      37.927  30.269  33.335  1.00  0.00    -0.126 S 
ATOM     14  C   UNL A   1      40.407  30.657  33.867  1.00  0.00     0.033 A 
ATOM     15  C   UNL A   1      39.538  29.754  33.315  1.00  0.00     0.093 A 
ATOM     16  Cl  UNL A   1      39.935  28.221  32.655  1.00  0.00    -0.072 Cl
ENDBRANCH  10  11
BRANCH  10  17
ATOM     17  O   UNL A   1      37.152  32.639  35.906  1.00  0.00    -0.388 OA
ATOM     18  H   UNL A   1      38.033  32.635  36.310  1.00  0.00     0.211 HD
ENDBRANCH  10  17
ENDBRANCH   9  10
ENDBRANCH   8   9
ENDBRANCH   7   8
ENDBRANCH   6   7
ENDBRANCH   4   6
ENDBRANCH   1   2
BRANCH   1  19
ATOM     19  C   UNL A   1      33.726  33.677  28.006  1.00  0.00     0.042 C 
BRANCH  19  20
ATOM     20  C   UNL A   1      34.305  32.429  28.670  1.00  0.00     0.118 C 
BRANCH  20  21
ATOM     21  N   UNL A   1      33.752  31.186  28.153  1.00  0.00    -0.352 N 
ATOM     22  C   UNL A   1      34.379  30.000  27.857  1.00  0.00     0.251 C 
ATOM     23  H   UNL A   1      32.782  31.197  27.992  1.00  0.00     0.163 HD
ATOM     24  O   UNL A   1      33.733  29.105  27.309  1.00  0.00    -0.269 OA
BRANCH  22  25
ATOM     25  C   UNL A   1      35.815  29.792  28.158  1.00  0.00     0.039 A 
ATOM     26  C   UNL A   1      36.172  29.361  29.439  1.00  0.00     0.014 A 
ATOM     27  C   UNL A   1      36.813  30.036  27.209  1.00  0.00     0.014 A 
ATOM     28  C   UNL A   1      37.515  29.122  29.748  1.00  0.00     0.010 A 
ATOM     29  C   UNL A   1      38.143  29.721  27.494  1.00  0.00     0.010 A 
ATOM     30  C   UNL A   1      38.511  29.264  28.768  1.00  0.00    -0.014 A 
BRANCH  30  31
ATOM     31  C   UNL A   1      39.929  28.925  29.073  1.00  0.00     0.031 A 
ATOM     32  C   UNL A   1      40.835  29.921  29.749  1.00  0.00     0.074 A 
ATOM     33  C   UNL A   1      40.414  27.719  28.713  1.00  0.00     0.049 A 
ATOM     34  N   UNL A   1      42.085  29.781  30.115  1.00  0.00    -0.248 NA
ATOM     35  C   UNL A   1      40.276  31.252  30.031  1.00  0.00     0.031 C 
ATOM     36  C   UNL A   1      39.662  26.682  28.004  1.00  0.00     0.029 A 
ATOM     37  N   UNL A   1      41.654  27.157  28.899  1.00  0.00    -0.354 N 
ATOM     38  C   UNL A   1      42.462  31.003  30.662  1.00  0.00     0.074 A 
ATOM     39  C   UNL A   1      41.327  31.890  30.528  1.00  0.00     0.031 C 
ATOM     40  C   UNL A   1      40.438  25.597  27.854  1.00  0.00     0.029 A 
ATOM     41  C   UNL A   1      41.755  25.871  28.422  1.00  0.00     0.049 A 
ATOM     42  H   UNL A   1      42.398  27.630  29.335  1.00  0.00     0.167 HD
ATOM     43  C   UNL A   1      43.636  31.351  31.244  1.00  0.00     0.031 A 
ATOM     44  C   UNL A   1      42.785  25.003  28.444  1.00  0.00     0.031 A 
ATOM     45  C   UNL A   1      44.766  30.468  31.381  1.00  0.00     0.049 A 
ATOM     46  C   UNL A   1      44.075  25.411  29.100  1.00  0.00     0.074 A 
ATOM     47  C   UNL A   1      45.978  30.712  32.004  1.00  0.00     0.029 A 
ATOM     48  N   UNL A   1      44.826  29.174  30.888  1.00  0.00    -0.354 N 
ATOM     49  N   UNL A   1      44.384  26.547  29.678  1.00  0.00    -0.248 NA
ATOM     50  C   UNL A   1      45.151  24.409  29.122  1.00  0.00     0.031 C 
ATOM     51  C   UNL A   1      46.791  29.586  31.840  1.00  0.00     0.029 A 
ATOM     52  C   UNL A   1      46.062  28.615  31.172  1.00  0.00     0.049 A 
ATOM     53  H   UNL A   1      44.098  28.719  30.407  1.00  0.00     0.167 HD
ATOM     54  C   UNL A   1      45.680  26.386  30.158  1.00  0.00     0.074 A 
ATOM     55  C   UNL A   1      46.087  25.038  29.820  1.00  0.00     0.031 C 
ATOM     56  C   UNL A   1      46.462  27.276  30.821  1.00  0.00     0.031 A 
BRANCH  43  57
ATOM     57  C   UNL A   1      43.761  32.758  31.776  1.00  0.00    -0.014 A 
ATOM     58  C   UNL A   1      43.428  33.061  33.108  1.00  0.00     0.010 A 
ATOM     59  C   UNL A   1      44.260  33.779  30.947  1.00  0.00     0.010 A 
ATOM     60  C   UNL A   1      43.549  34.368  33.590  1.00  0.00     0.020 A 
ATOM     61  C   UNL A   1      44.413  35.081  31.434  1.00  0.00     0.020 A 
ATOM     62  C   UNL A   1      44.039  35.371  32.748  1.00  0.00     0.054 A 
BRANCH  62  63
ATOM     63  S   UNL A   1      44.207  37.053  33.406  1.00  0.00     0.124 S 
ATOM     64  O   UNL A   1      45.212  36.868  34.450  1.00  0.00    -0.237 OA
ATOM     65  O   UNL A   1      44.646  37.811  32.238  1.00  0.00    -0.237 OA
ATOM     66  O   UNL A   1      42.864  37.374  33.885  1.00  0.00    -0.744 OA
ENDBRANCH  62  63
ENDBRANCH  43  57
BRANCH  44  67
ATOM     67  C   UNL A   1      42.628  23.648  27.847  1.00  0.00    -0.014 A 
ATOM     68  C   UNL A   1      42.160  22.574  28.625  1.00  0.00     0.010 A 
ATOM     69  C   UNL A   1      42.938  23.426  26.494  1.00  0.00     0.010 A 
ATOM     70  C   UNL A   1      42.026  21.299  28.066  1.00  0.00     0.020 A 
ATOM     71  C   UNL A   1      42.777  22.160  25.923  1.00  0.00     0.020 A 
ATOM     72  C   UNL A   1      42.333  21.101  26.717  1.00  0.00     0.054 A 
BRANCH  72  73
ATOM     73  S   UNL A   1      42.104  19.450  26.000  1.00  0.00     0.124 S 
ATOM     74  O   UNL A   1      40.663  19.418  25.766  1.00  0.00    -0.237 OA
ATOM     75  O   UNL A   1      42.940  19.509  24.802  1.00  0.00    -0.237 OA
ATOM     76  O   UNL A   1      42.591  18.554  27.045  1.00  0.00    -0.744 OA
ENDBRANCH  72  73
ENDBRANCH  44  67
BRANCH  56  77
ATOM     77  C   UNL A   1      47.827  26.804  31.253  1.00  0.00    -0.014 A 
ATOM     78  C   UNL A   1      48.952  26.956  30.423  1.00  0.00     0.010 A 
ATOM     79  C   UNL A   1      47.987  26.215  32.521  1.00  0.00     0.010 A 
ATOM     80  C   UNL A   1      50.201  26.478  30.830  1.00  0.00     0.020 A 
ATOM     81  C   UNL A   1      49.240  25.765  32.945  1.00  0.00     0.020 A 
ATOM     82  C   UNL A   1      50.335  25.879  32.087  1.00  0.00     0.054 A 
BRANCH  82  83
ATOM     83  S   UNL A   1      51.967  25.273  32.596  1.00  0.00     0.124 S 
ATOM     84  O   UNL A   1      52.071  25.792  33.958  1.00  0.00    -0.237 OA
ATOM     85  O   UNL A   1      51.821  23.824  32.485  1.00  0.00    -0.237 OA
ATOM     86  O   UNL A   1      52.879  25.878  31.628  1.00  0.00    -0.744 OA
ENDBRANCH  82  83
ENDBRANCH  56  77
ENDBRANCH  30  31
ENDBRANCH  22  25
ENDBRANCH  20  21
ENDBRANCH  19  20
ENDBRANCH   1  19
TORSDOF 19
ENDMDL
MODEL 3
REMARK VINA RESULT:      -9.0      3.336     11.948
REMARK SMILES O=C(CCCC[C@H](O)c1ccc(Cl)s1)NCCCNC(=O)c1ccc(-c2c3nc(c(-c4ccc(S(=O)(=O)[O-])cc4)c4ccc([nH]4)c(-c4ccc(S(=O)(=O)[O-])cc4)c4nc(c(-c5ccc(S(=O)(=O)[O-])cc5)c5ccc2[nH]5)C=C4)C=C3)cc1
REMARK SMILES IDX 16 1 15 2 1 3 2 4 3 6 4 7 5 8 6 9 7 10 9 11 10 12 14 13
REMARK SMILES IDX 11 14 12 15 13 16 8 17 17 19 18 20 19 21 20 22 21 24 22 25
REMARK SMILES IDX 23 26 81 27 24 28 80 29 25 30 26 31 27 32 74 33 28 34 79 35
REMARK SMILES IDX 73 36 75 37 29 38 78 39 72 40 71 41 30 43 60 44 41 45 59 46
REMARK SMILES IDX 42 47 45 48 58 49 76 50 43 51 44 52 57 54 77 55 46 56 31 57
REMARK SMILES IDX 32 58 40 59 33 60 39 61 34 62 35 63 36 64 37 65 38 66 61 67
REMARK SMILES IDX 62 68 70 69 63 70 69 71 64 72 65 73 66 74 67 75 68 76 47 77
REMARK SMILES IDX 48 78 56 79 49 80 55 81 50 82 51 83 52 84 53 85 54 86
REMARK H PARENT 15 5 8 18 19 23 75 42 45 53
REMARK Flexibility Score: inf
ROOT
ATOM      1  C   UNL A   1      42.104  19.717  26.278  1.00  0.00     0.117 C 
ENDROOT
BRANCH   1   2
ATOM      2  N   UNL A   1      43.548  19.643  26.201  1.00  0.00    -0.356 N 
ATOM      3  O   UNL A   1      43.643  18.049  24.550  1.00  0.00    -0.275 OA
ATOM      4  C   UNL A   1      44.205  18.843  25.297  1.00  0.00     0.219 C 
ATOM      5  H   UNL A   1      44.082  20.191  26.822  1.00  0.00     0.163 HD
BRANCH   4   6
ATOM      6  C   UNL A   1      45.708  19.040  25.280  1.00  0.00     0.100 C 
BRANCH   6   7
ATOM      7  C   UNL A   1      46.100  20.510  25.120  1.00  0.00     0.010 C 
BRANCH   7   8
ATOM      8  C   UNL A   1      45.560  21.239  23.878  1.00  0.00     0.004 C 
BRANCH   8   9
ATOM      9  C   UNL A   1      44.662  22.464  24.116  1.00  0.00     0.037 C 
BRANCH   9  10
ATOM     10  C   UNL A   1      45.422  23.752  24.452  1.00  0.00     0.154 C 
BRANCH  10  11
ATOM     11  C   UNL A   1      45.649  23.902  25.931  1.00  0.00     0.035 A 
ATOM     12  C   UNL A   1      46.720  24.485  26.590  1.00  0.00     0.020 A 
ATOM     13  S   UNL A   1      44.465  23.346  27.045  1.00  0.00    -0.126 S 
ATOM     14  C   UNL A   1      46.562  24.471  28.007  1.00  0.00     0.033 A 
ATOM     15  C   UNL A   1      45.375  23.888  28.365  1.00  0.00     0.093 A 
ATOM     16  Cl  UNL A   1      44.768  23.691  29.957  1.00  0.00    -0.072 Cl
ENDBRANCH  10  11
BRANCH  10  17
ATOM     17  O   UNL A   1      46.716  23.732  23.863  1.00  0.00    -0.388 OA
ATOM     18  H   UNL A   1      46.646  23.457  22.936  1.00  0.00     0.211 HD
ENDBRANCH  10  17
ENDBRANCH   9  10
ENDBRANCH   8   9
ENDBRANCH   7   8
ENDBRANCH   6   7
ENDBRANCH   4   6
ENDBRANCH   1   2
BRANCH   1  19
ATOM     19  C   UNL A   1      41.586  21.147  26.185  1.00  0.00     0.042 C 
BRANCH  19  20
ATOM     20  C   UNL A   1      40.463  21.497  27.159  1.00  0.00     0.118 C 
BRANCH  20  21
ATOM     21  N   UNL A   1      39.188  21.756  26.509  1.00  0.00    -0.352 N 
ATOM     22  C   UNL A   1      38.502  22.936  26.354  1.00  0.00     0.251 C 
ATOM     23  H   UNL A   1      38.750  20.965  26.120  1.00  0.00     0.163 HD
ATOM     24  O   UNL A   1      37.367  22.907  25.872  1.00  0.00    -0.269 OA
BRANCH  22  25
ATOM     25  C   UNL A   1      39.086  24.229  26.781  1.00  0.00     0.039 A 
ATOM     26  C   UNL A   1      38.923  24.628  28.111  1.00  0.00     0.014 A 
ATOM     27  C   UNL A   1      39.769  25.062  25.889  1.00  0.00     0.014 A 
ATOM     28  C   UNL A   1      39.490  25.825  28.556  1.00  0.00     0.010 A 
ATOM     29  C   UNL A   1      40.401  26.217  26.355  1.00  0.00     0.010 A 
ATOM     30  C   UNL A   1      40.266  26.616  27.692  1.00  0.00    -0.014 A 
BRANCH  30  31
ATOM     31  C   UNL A   1      40.941  27.846  28.191  1.00  0.00     0.031 A 
ATOM     32  C   UNL A   1      42.439  27.993  28.112  1.00  0.00     0.074 A 
ATOM     33  C   UNL A   1      40.203  28.829  28.745  1.00  0.00     0.049 A 
ATOM     34  N   UNL A   1      43.187  29.007  28.471  1.00  0.00    -0.248 NA
ATOM     35  C   UNL A   1      43.198  26.849  27.585  1.00  0.00     0.031 C 
ATOM     36  C   UNL A   1      38.751  28.793  28.933  1.00  0.00     0.029 A 
ATOM     37  N   UNL A   1      40.569  30.054  29.246  1.00  0.00    -0.354 N 
ATOM     38  C   UNL A   1      44.499  28.621  28.220  1.00  0.00     0.074 A 
ATOM     39  C   UNL A   1      44.450  27.259  27.732  1.00  0.00     0.031 C 
ATOM     40  C   UNL A   1      38.346  29.956  29.467  1.00  0.00     0.029 A 
ATOM     41  C   UNL A   1      39.510  30.808  29.694  1.00  0.00     0.049 A 
ATOM     42  H   UNL A   1      41.503  30.363  29.281  1.00  0.00     0.167 HD
ATOM     43  C   UNL A   1      45.641  29.338  28.360  1.00  0.00     0.031 A 
ATOM     44  C   UNL A   1      39.472  32.048  30.220  1.00  0.00     0.031 A 
ATOM     45  C   UNL A   1      45.691  30.695  28.841  1.00  0.00     0.049 A 
ATOM     46  C   UNL A   1      40.750  32.826  30.360  1.00  0.00     0.074 A 
ATOM     47  C   UNL A   1      46.794  31.523  28.966  1.00  0.00     0.029 A 
ATOM     48  N   UNL A   1      44.596  31.422  29.280  1.00  0.00    -0.354 N 
ATOM     49  N   UNL A   1      41.973  32.468  30.046  1.00  0.00    -0.248 NA
ATOM     50  C   UNL A   1      40.641  34.185  30.909  1.00  0.00     0.031 C 
ATOM     51  C   UNL A   1      46.373  32.732  29.531  1.00  0.00     0.029 A 
ATOM     52  C   UNL A   1      44.999  32.681  29.698  1.00  0.00     0.049 A 
ATOM     53  H   UNL A   1      43.668  31.094  29.293  1.00  0.00     0.167 HD
ATOM     54  C   UNL A   1      42.774  33.569  30.332  1.00  0.00     0.074 A 
ATOM     55  C   UNL A   1      41.894  34.609  30.825  1.00  0.00     0.031 C 
ATOM     56  C   UNL A   1      44.117  33.706  30.198  1.00  0.00     0.031 A 
BRANCH  43  57
ATOM     57  C   UNL A   1      46.938  28.664  27.988  1.00  0.00    -0.014 A 
ATOM     58  C   UNL A   1      47.706  27.986  28.951  1.00  0.00     0.010 A 
ATOM     59  C   UNL A   1      47.372  28.669  26.649  1.00  0.00     0.010 A 
ATOM     60  C   UNL A   1      48.906  27.364  28.593  1.00  0.00     0.020 A 
ATOM     61  C   UNL A   1      48.555  28.021  26.281  1.00  0.00     0.020 A 
ATOM     62  C   UNL A   1      49.324  27.387  27.259  1.00  0.00     0.054 A 
BRANCH  62  63
ATOM     63  S   UNL A   1      50.873  26.553  26.819  1.00  0.00     0.124 S 
ATOM     64  O   UNL A   1      50.932  26.770  25.376  1.00  0.00    -0.237 OA
ATOM     65  O   UNL A   1      51.864  27.283  27.606  1.00  0.00    -0.237 OA
ATOM     66  O   UNL A   1      50.651  25.169  27.232  1.00  0.00    -0.744 OA
ENDBRANCH  62  63
ENDBRANCH  43  57
BRANCH  44  67
ATOM     67  C   UNL A   1      38.169  32.642  30.629  1.00  0.00    -0.014 A 
ATOM     68  C   UNL A   1      37.704  32.507  31.950  1.00  0.00     0.010 A 
ATOM     69  C   UNL A   1      37.389  33.354  29.701  1.00  0.00     0.010 A 
ATOM     70  C   UNL A   1      36.474  33.054  32.329  1.00  0.00     0.020 A 
ATOM     71  C   UNL A   1      36.172  33.928  30.083  1.00  0.00     0.020 A 
ATOM     72  C   UNL A   1      35.717  33.763  31.393  1.00  0.00     0.054 A 
BRANCH  72  73
ATOM     73  S   UNL A   1      34.148  34.507  31.918  1.00  0.00     0.124 S 
ATOM     74  O   UNL A   1      34.593  35.758  32.525  1.00  0.00    -0.237 OA
ATOM     75  O   UNL A   1      33.424  34.638  30.656  1.00  0.00    -0.237 OA
ATOM     76  O   UNL A   1      33.597  33.522  32.844  1.00  0.00    -0.744 OA
ENDBRANCH  72  73
ENDBRANCH  44  67
BRANCH  56  77
ATOM     77  C   UNL A   1      44.713  35.043  30.560  1.00  0.00    -0.014 A 
ATOM     78  C   UNL A   1      45.276  35.276  31.827  1.00  0.00     0.010 A 
ATOM     79  C   UNL A   1      44.723  36.078  29.606  1.00  0.00     0.010 A 
ATOM     80  C   UNL A   1      45.790  36.534  32.152  1.00  0.00     0.020 A 
ATOM     81  C   UNL A   1      45.264  37.328  29.916  1.00  0.00     0.020 A 
ATOM     82  C   UNL A   1      45.774  37.554  31.196  1.00  0.00     0.054 A 
BRANCH  82  83
ATOM     83  S   UNL A   1      46.452  39.178  31.638  1.00  0.00     0.124 S 
ATOM     84  O   UNL A   1      45.668  40.074  30.794  1.00  0.00    -0.237 OA
ATOM     85  O   UNL A   1      46.178  39.262  33.070  1.00  0.00    -0.237 OA
ATOM     86  O   UNL A   1      47.866  39.069  31.287  1.00  0.00    -0.744 OA
ENDBRANCH  82  83
ENDBRANCH  56  77
ENDBRANCH  30  31
ENDBRANCH  22  25
ENDBRANCH  20  21
ENDBRANCH  19  20
ENDBRANCH   1  19
TORSDOF 19
ENDMDL
