MODEL 1
REMARK VINA RESULT:     -10.5      0.000      0.000
REMARK SMILES CC(C)[C@@](C)(CC(=O)N[C@H]1CCCC1(C)C)C(=O)NCCCNC(=O)c1ccc(-c2c3nc(c(-c4ccc(S(=O)(=O)[O-])cc4)c4ccc([nH]4)c(-c4ccc(S(=O)(=O)[O-])cc4)c4nc(c(-c5ccc(S(=O)(=O)[O-])cc5)c5ccc2[nH]5)C=C4)C=C3)cc1
REMARK SMILES IDX 21 1 20 2 19 3 17 4 18 5 4 7 5 8 2 9 1 10 3 11 6 12 7 13
REMARK SMILES IDX 8 14 9 15 10 17 11 18 14 19 12 20 13 21 15 22 16 23 22 24
REMARK SMILES IDX 23 25 24 26 25 28 26 29 27 30 85 31 28 32 84 33 29 34 30 35
REMARK SMILES IDX 31 36 78 37 32 38 83 39 77 40 79 41 33 42 82 43 76 44 75 45
REMARK SMILES IDX 34 47 64 48 45 49 63 50 46 51 49 52 62 53 80 54 47 55 48 56
REMARK SMILES IDX 61 58 81 59 50 60 35 61 36 62 44 63 37 64 43 65 38 66 39 67
REMARK SMILES IDX 40 68 41 69 42 70 65 71 66 72 74 73 67 74 73 75 68 76 69 77
REMARK SMILES IDX 70 78 71 79 72 80 51 81 52 82 60 83 53 84 59 85 54 86 55 87
REMARK SMILES IDX 56 88 57 89 58 90
REMARK H PARENT 19 6 9 16 23 27 79 46 49 57
REMARK Flexibility Score: inf
ROOT
ATOM      1  C   UNL A   1      32.112  27.886  27.343  1.00  0.00     0.042 C 
ENDROOT
BRANCH   1   2
ATOM      2  C   UNL A   1      32.019  26.479  26.759  1.00  0.00     0.117 C 
BRANCH   2   3
ATOM      3  N   UNL A   1      30.838  26.269  25.931  1.00  0.00    -0.356 N 
ATOM      4  C   UNL A   1      30.589  26.375  24.596  1.00  0.00     0.226 C 
ATOM      5  O   UNL A   1      29.409  26.206  24.276  1.00  0.00    -0.274 OA
ATOM      6  H   UNL A   1      30.047  25.992  26.449  1.00  0.00     0.163 HD
BRANCH   4   7
ATOM      7  C   UNL A   1      31.685  26.730  23.543  1.00  0.00     0.057 C 
ATOM      8  C   UNL A   1      30.968  26.910  22.140  1.00  0.00     0.022 C 
BRANCH   7   9
ATOM      9  C   UNL A   1      32.141  28.297  23.846  1.00  0.00    -0.002 C 
ATOM     10  C   UNL A   1      33.134  28.855  22.767  1.00  0.00     0.008 C 
ATOM     11  C   UNL A   1      31.144  29.468  23.994  1.00  0.00     0.008 C 
ENDBRANCH   7   9
BRANCH   7  12
ATOM     12  C   UNL A   1      32.584  25.355  23.342  1.00  0.00     0.116 C 
BRANCH  12  13
ATOM     13  C   UNL A   1      32.889  23.845  23.706  1.00  0.00     0.221 C 
ATOM     14  O   UNL A   1      32.060  23.005  23.302  1.00  0.00    -0.275 OA
ATOM     15  N   UNL A   1      34.020  23.241  24.159  1.00  0.00    -0.353 N 
ATOM     16  H   UNL A   1      34.167  22.374  23.717  1.00  0.00     0.163 HD
BRANCH  15  17
ATOM     17  C   UNL A   1      35.096  23.533  25.140  1.00  0.00     0.087 C 
ATOM     18  C   UNL A   1      34.681  23.197  26.556  1.00  0.00     0.025 C 
ATOM     19  C   UNL A   1      36.337  22.702  24.871  1.00  0.00    -0.015 C 
ATOM     20  C   UNL A   1      34.821  21.689  26.587  1.00  0.00     0.003 C 
ATOM     21  C   UNL A   1      35.848  21.349  25.480  1.00  0.00     0.008 C 
ATOM     22  C   UNL A   1      36.655  23.011  23.386  1.00  0.00     0.013 C 
ATOM     23  C   UNL A   1      37.624  23.025  25.646  1.00  0.00     0.013 C 
ENDBRANCH  15  17
ENDBRANCH  12  13
ENDBRANCH   7  12
ENDBRANCH   4   7
ENDBRANCH   2   3
ENDBRANCH   1   2
BRANCH   1  24
ATOM     24  C   UNL A   1      33.512  28.473  27.318  1.00  0.00     0.118 C 
BRANCH  24  25
ATOM     25  N   UNL A   1      33.502  29.910  27.562  1.00  0.00    -0.352 N 
ATOM     26  C   UNL A   1      34.448  30.696  28.158  1.00  0.00     0.251 C 
ATOM     27  H   UNL A   1      32.697  30.384  27.251  1.00  0.00     0.163 HD
ATOM     28  O   UNL A   1      34.149  31.846  28.515  1.00  0.00    -0.269 OA
BRANCH  26  29
ATOM     29  C   UNL A   1      35.807  30.177  28.393  1.00  0.00     0.039 A 
ATOM     30  C   UNL A   1      36.740  30.201  27.355  1.00  0.00     0.014 A 
ATOM     31  C   UNL A   1      36.160  29.667  29.645  1.00  0.00     0.014 A 
ATOM     32  C   UNL A   1      38.047  29.774  27.593  1.00  0.00     0.010 A 
ATOM     33  C   UNL A   1      37.483  29.331  29.905  1.00  0.00     0.010 A 
ATOM     34  C   UNL A   1      38.440  29.373  28.880  1.00  0.00    -0.014 A 
BRANCH  34  35
ATOM     35  C   UNL A   1      39.841  28.990  29.184  1.00  0.00     0.031 A 
ATOM     36  C   UNL A   1      40.785  30.005  29.772  1.00  0.00     0.074 A 
ATOM     37  C   UNL A   1      40.283  27.761  28.852  1.00  0.00     0.049 A 
ATOM     38  N   UNL A   1      42.064  29.894  30.020  1.00  0.00    -0.248 NA
ATOM     39  C   UNL A   1      40.225  31.329  30.096  1.00  0.00     0.031 C 
ATOM     40  C   UNL A   1      39.474  26.707  28.233  1.00  0.00     0.029 A 
ATOM     41  N   UNL A   1      41.526  27.193  28.975  1.00  0.00    -0.354 N 
ATOM     42  C   UNL A   1      42.466  31.135  30.498  1.00  0.00     0.074 A 
ATOM     43  C   UNL A   1      41.307  31.998  30.467  1.00  0.00     0.031 C 
ATOM     44  C   UNL A   1      40.236  25.616  28.051  1.00  0.00     0.029 A 
ATOM     45  C   UNL A   1      41.596  25.906  28.494  1.00  0.00     0.049 A 
ATOM     46  H   UNL A   1      42.296  27.663  29.368  1.00  0.00     0.167 HD
ATOM     47  C   UNL A   1      43.688  31.516  30.938  1.00  0.00     0.031 A 
ATOM     48  C   UNL A   1      42.640  25.059  28.404  1.00  0.00     0.031 A 
ATOM     49  C   UNL A   1      44.831  30.644  30.989  1.00  0.00     0.049 A 
ATOM     50  C   UNL A   1      43.988  25.510  28.899  1.00  0.00     0.074 A 
ATOM     51  C   UNL A   1      46.091  30.909  31.495  1.00  0.00     0.029 A 
ATOM     52  N   UNL A   1      44.854  29.342  30.513  1.00  0.00    -0.354 N 
ATOM     53  N   UNL A   1      44.327  26.660  29.431  1.00  0.00    -0.248 NA
ATOM     54  C   UNL A   1      45.093  24.548  28.785  1.00  0.00     0.031 C 
ATOM     55  C   UNL A   1      46.893  29.787  31.270  1.00  0.00     0.029 A 
ATOM     56  C   UNL A   1      46.116  28.802  30.683  1.00  0.00     0.049 A 
ATOM     57  H   UNL A   1      44.086  28.873  30.115  1.00  0.00     0.167 HD
ATOM     58  C   UNL A   1      45.679  26.549  29.739  1.00  0.00     0.074 A 
ATOM     59  C   UNL A   1      46.089  25.216  29.351  1.00  0.00     0.031 C 
ATOM     60  C   UNL A   1      46.505  27.469  30.294  1.00  0.00     0.031 A 
BRANCH  47  61
ATOM     61  C   UNL A   1      43.858  32.942  31.394  1.00  0.00    -0.014 A 
ATOM     62  C   UNL A   1      43.648  33.310  32.735  1.00  0.00     0.010 A 
ATOM     63  C   UNL A   1      44.288  33.919  30.477  1.00  0.00     0.010 A 
ATOM     64  C   UNL A   1      43.832  34.635  33.143  1.00  0.00     0.020 A 
ATOM     65  C   UNL A   1      44.501  35.238  30.886  1.00  0.00     0.020 A 
ATOM     66  C   UNL A   1      44.257  35.591  32.215  1.00  0.00     0.054 A 
BRANCH  66  67
ATOM     67  S   UNL A   1      44.522  37.293  32.782  1.00  0.00     0.124 S 
ATOM     68  O   UNL A   1      44.778  37.993  31.526  1.00  0.00    -0.237 OA
ATOM     69  O   UNL A   1      43.253  37.614  33.432  1.00  0.00    -0.237 OA
ATOM     70  O   UNL A   1      45.668  37.186  33.681  1.00  0.00    -0.744 OA
ENDBRANCH  66  67
ENDBRANCH  47  61
BRANCH  48  71
ATOM     71  C   UNL A   1      42.454  23.700  27.824  1.00  0.00    -0.014 A 
ATOM     72  C   UNL A   1      42.157  22.604  28.653  1.00  0.00     0.010 A 
ATOM     73  C   UNL A   1      42.576  23.494  26.437  1.00  0.00     0.010 A 
ATOM     74  C   UNL A   1      42.014  21.324  28.110  1.00  0.00     0.020 A 
ATOM     75  C   UNL A   1      42.402  22.221  25.888  1.00  0.00     0.020 A 
ATOM     76  C   UNL A   1      42.138  21.140  26.730  1.00  0.00     0.054 A 
BRANCH  76  77
ATOM     77  S   UNL A   1      41.912  19.475  26.044  1.00  0.00     0.124 S 
ATOM     78  O   UNL A   1      40.473  19.439  25.803  1.00  0.00    -0.237 OA
ATOM     79  O   UNL A   1      42.753  19.509  24.851  1.00  0.00    -0.237 OA
ATOM     80  O   UNL A   1      42.391  18.598  27.110  1.00  0.00    -0.744 OA
ENDBRANCH  76  77
ENDBRANCH  48  71
BRANCH  60  81
ATOM     81  C   UNL A   1      47.932  27.060  30.548  1.00  0.00    -0.014 A 
ATOM     82  C   UNL A   1      48.947  27.354  29.621  1.00  0.00     0.010 A 
ATOM     83  C   UNL A   1      48.269  26.443  31.766  1.00  0.00     0.010 A 
ATOM     84  C   UNL A   1      50.274  27.016  29.901  1.00  0.00     0.020 A 
ATOM     85  C   UNL A   1      49.598  26.130  32.061  1.00  0.00     0.020 A 
ATOM     86  C   UNL A   1      50.591  26.410  31.122  1.00  0.00     0.054 A 
BRANCH  86  87
ATOM     87  S   UNL A   1      52.330  26.041  31.486  1.00  0.00     0.124 S 
ATOM     88  O   UNL A   1      52.239  24.712  32.083  1.00  0.00    -0.237 OA
ATOM     89  O   UNL A   1      52.952  26.097  30.166  1.00  0.00    -0.237 OA
ATOM     90  O   UNL A   1      52.726  27.110  32.401  1.00  0.00    -0.744 OA
ENDBRANCH  86  87
ENDBRANCH  60  81
ENDBRANCH  34  35
ENDBRANCH  26  29
ENDBRANCH  24  25
ENDBRANCH   1  24
TORSDOF 17
ENDMDL
MODEL 2
REMARK VINA RESULT:     -10.3      2.772      8.972
REMARK SMILES CC(C)[C@@](C)(CC(=O)N[C@H]1CCCC1(C)C)C(=O)NCCCNC(=O)c1ccc(-c2c3nc(c(-c4ccc(S(=O)(=O)[O-])cc4)c4ccc([nH]4)c(-c4ccc(S(=O)(=O)[O-])cc4)c4nc(c(-c5ccc(S(=O)(=O)[O-])cc5)c5ccc2[nH]5)C=C4)C=C3)cc1
REMARK SMILES IDX 21 1 20 2 19 3 17 4 18 5 4 7 5 8 2 9 1 10 3 11 6 12 7 13
REMARK SMILES IDX 8 14 9 15 10 17 11 18 14 19 12 20 13 21 15 22 16 23 22 24
REMARK SMILES IDX 23 25 24 26 25 28 26 29 27 30 85 31 28 32 84 33 29 34 30 35
REMARK SMILES IDX 31 36 78 37 32 38 83 39 77 40 79 41 33 42 82 43 76 44 75 45
REMARK SMILES IDX 34 47 64 48 45 49 63 50 46 51 49 52 62 53 80 54 47 55 48 56
REMARK SMILES IDX 61 58 81 59 50 60 35 61 36 62 44 63 37 64 43 65 38 66 39 67
REMARK SMILES IDX 40 68 41 69 42 70 65 71 66 72 74 73 67 74 73 75 68 76 69 77
REMARK SMILES IDX 70 78 71 79 72 80 51 81 52 82 60 83 53 84 59 85 54 86 55 87
REMARK SMILES IDX 56 88 57 89 58 90
REMARK H PARENT 19 6 9 16 23 27 79 46 49 57
REMARK Flexibility Score: inf
ROOT
ATOM      1  C   UNL A   1      35.793  23.927  25.747  1.00  0.00     0.042 C 
ENDROOT
BRANCH   1   2
ATOM      2  C   UNL A   1      34.610  24.570  25.030  1.00  0.00     0.117 C 
BRANCH   2   3
ATOM      3  N   UNL A   1      33.958  25.618  25.806  1.00  0.00    -0.356 N 
ATOM      4  C   UNL A   1      32.658  25.934  26.061  1.00  0.00     0.226 C 
ATOM      5  O   UNL A   1      32.496  26.978  26.699  1.00  0.00    -0.274 OA
ATOM      6  H   UNL A   1      34.595  26.231  26.240  1.00  0.00     0.163 HD
BRANCH   4   7
ATOM      7  C   UNL A   1      31.450  25.085  25.552  1.00  0.00     0.057 C 
ATOM      8  C   UNL A   1      30.124  25.732  26.134  1.00  0.00     0.022 C 
BRANCH   7   9
ATOM      9  C   UNL A   1      31.270  25.440  23.940  1.00  0.00    -0.002 C 
ATOM     10  C   UNL A   1      30.620  24.262  23.133  1.00  0.00     0.008 C 
ATOM     11  C   UNL A   1      30.481  26.659  23.412  1.00  0.00     0.008 C 
ENDBRANCH   7   9
BRANCH   7  12
ATOM     12  C   UNL A   1      31.551  23.635  26.342  1.00  0.00     0.116 C 
BRANCH  12  13
ATOM     13  C   UNL A   1      32.367  22.340  26.743  1.00  0.00     0.221 C 
ATOM     14  O   UNL A   1      32.962  22.383  27.838  1.00  0.00    -0.275 OA
ATOM     15  N   UNL A   1      32.346  21.075  26.243  1.00  0.00    -0.353 N 
ATOM     16  H   UNL A   1      32.391  20.404  26.962  1.00  0.00     0.163 HD
BRANCH  15  17
ATOM     17  C   UNL A   1      32.275  20.428  24.909  1.00  0.00     0.087 C 
ATOM     18  C   UNL A   1      32.778  21.337  23.808  1.00  0.00     0.025 C 
ATOM     19  C   UNL A   1      33.144  19.186  24.842  1.00  0.00    -0.015 C 
ATOM     20  C   UNL A   1      34.281  21.239  23.968  1.00  0.00     0.003 C 
ATOM     21  C   UNL A   1      34.532  19.883  24.672  1.00  0.00     0.008 C 
ATOM     22  C   UNL A   1      32.650  18.344  26.044  1.00  0.00     0.013 C 
ATOM     23  C   UNL A   1      33.026  18.268  23.616  1.00  0.00     0.013 C 
ENDBRANCH  15  17
ENDBRANCH  12  13
ENDBRANCH   7  12
ENDBRANCH   4   7
ENDBRANCH   2   3
ENDBRANCH   1   2
BRANCH   1  24
ATOM     24  C   UNL A   1      37.051  23.836  24.904  1.00  0.00     0.118 C 
BRANCH  24  25
ATOM     25  N   UNL A   1      37.963  22.811  25.398  1.00  0.00    -0.352 N 
ATOM     26  C   UNL A   1      39.100  22.947  26.144  1.00  0.00     0.251 C 
ATOM     27  H   UNL A   1      37.725  21.886  25.160  1.00  0.00     0.163 HD
ATOM     28  O   UNL A   1      39.884  21.990  26.241  1.00  0.00    -0.269 OA
BRANCH  26  29
ATOM     29  C   UNL A   1      39.402  24.223  26.815  1.00  0.00     0.039 A 
ATOM     30  C   UNL A   1      38.918  24.453  28.104  1.00  0.00     0.014 A 
ATOM     31  C   UNL A   1      40.167  25.197  26.167  1.00  0.00     0.014 A 
ATOM     32  C   UNL A   1      39.260  25.632  28.769  1.00  0.00     0.010 A 
ATOM     33  C   UNL A   1      40.582  26.325  26.864  1.00  0.00     0.010 A 
ATOM     34  C   UNL A   1      40.127  26.559  28.169  1.00  0.00    -0.014 A 
BRANCH  34  35
ATOM     35  C   UNL A   1      40.573  27.783  28.880  1.00  0.00     0.031 A 
ATOM     36  C   UNL A   1      41.915  27.808  29.561  1.00  0.00     0.074 A 
ATOM     37  C   UNL A   1      39.737  28.835  28.984  1.00  0.00     0.049 A 
ATOM     38  N   UNL A   1      42.443  28.742  30.308  1.00  0.00    -0.248 NA
ATOM     39  C   UNL A   1      42.764  26.614  29.408  1.00  0.00     0.031 C 
ATOM     40  C   UNL A   1      38.392  28.910  28.408  1.00  0.00     0.029 A 
ATOM     41  N   UNL A   1      39.887  30.038  29.626  1.00  0.00    -0.354 N 
ATOM     42  C   UNL A   1      43.666  28.239  30.737  1.00  0.00     0.074 A 
ATOM     43  C   UNL A   1      43.785  26.902  30.201  1.00  0.00     0.031 C 
ATOM     44  C   UNL A   1      37.851  30.103  28.703  1.00  0.00     0.029 A 
ATOM     45  C   UNL A   1      38.788  30.859  29.529  1.00  0.00     0.049 A 
ATOM     46  H   UNL A   1      40.705  30.291  30.112  1.00  0.00     0.167 HD
ATOM     47  C   UNL A   1      44.611  28.844  31.494  1.00  0.00     0.031 A 
ATOM     48  C   UNL A   1      38.552  32.076  30.057  1.00  0.00     0.031 A 
ATOM     49  C   UNL A   1      44.495  30.185  32.002  1.00  0.00     0.049 A 
ATOM     50  C   UNL A   1      39.619  32.724  30.898  1.00  0.00     0.074 A 
ATOM     51  C   UNL A   1      45.430  30.918  32.709  1.00  0.00     0.029 A 
ATOM     52  N   UNL A   1      43.374  30.990  31.862  1.00  0.00    -0.354 N 
ATOM     53  N   UNL A   1      40.806  32.267  31.217  1.00  0.00    -0.248 NA
ATOM     54  C   UNL A   1      39.316  34.053  31.446  1.00  0.00     0.031 C 
ATOM     55  C   UNL A   1      44.853  32.145  33.048  1.00  0.00     0.029 A 
ATOM     56  C   UNL A   1      43.583  32.200  32.499  1.00  0.00     0.049 A 
ATOM     57  H   UNL A   1      42.554  30.737  31.381  1.00  0.00     0.167 HD
ATOM     58  C   UNL A   1      41.402  33.265  31.981  1.00  0.00     0.074 A 
ATOM     59  C   UNL A   1      40.452  34.354  32.061  1.00  0.00     0.031 C 
ATOM     60  C   UNL A   1      42.625  33.277  32.564  1.00  0.00     0.031 A 
BRANCH  47  61
ATOM     61  C   UNL A   1      45.852  28.059  31.828  1.00  0.00    -0.014 A 
ATOM     62  C   UNL A   1      46.986  28.097  30.997  1.00  0.00     0.010 A 
ATOM     63  C   UNL A   1      45.905  27.316  33.022  1.00  0.00     0.010 A 
ATOM     64  C   UNL A   1      48.137  27.379  31.335  1.00  0.00     0.020 A 
ATOM     65  C   UNL A   1      47.063  26.619  33.378  1.00  0.00     0.020 A 
ATOM     66  C   UNL A   1      48.167  26.644  32.525  1.00  0.00     0.054 A 
BRANCH  66  67
ATOM     67  S   UNL A   1      49.687  25.752  32.955  1.00  0.00     0.124 S 
ATOM     68  O   UNL A   1      49.845  24.856  31.812  1.00  0.00    -0.237 OA
ATOM     69  O   UNL A   1      50.672  26.827  33.051  1.00  0.00    -0.237 OA
ATOM     70  O   UNL A   1      49.360  25.097  34.218  1.00  0.00    -0.744 OA
ENDBRANCH  66  67
ENDBRANCH  47  61
BRANCH  48  71
ATOM     71  C   UNL A   1      37.254  32.762  29.808  1.00  0.00    -0.014 A 
ATOM     72  C   UNL A   1      36.206  32.670  30.740  1.00  0.00     0.010 A 
ATOM     73  C   UNL A   1      37.058  33.512  28.633  1.00  0.00     0.010 A 
ATOM     74  C   UNL A   1      34.978  33.289  30.490  1.00  0.00     0.020 A 
ATOM     75  C   UNL A   1      35.842  34.158  28.394  1.00  0.00     0.020 A 
ATOM     76  C   UNL A   1      34.803  34.030  29.318  1.00  0.00     0.054 A 
BRANCH  76  77
ATOM     77  S   UNL A   1      33.213  34.854  29.031  1.00  0.00     0.124 S 
ATOM     78  O   UNL A   1      32.597  33.985  28.033  1.00  0.00    -0.237 OA
ATOM     79  O   UNL A   1      32.600  34.829  30.356  1.00  0.00    -0.237 OA
ATOM     80  O   UNL A   1      33.596  36.182  28.555  1.00  0.00    -0.744 OA
ENDBRANCH  76  77
ENDBRANCH  48  71
BRANCH  60  81
ATOM     81  C   UNL A   1      43.027  34.518  33.315  1.00  0.00    -0.014 A 
ATOM     82  C   UNL A   1      43.008  34.555  34.720  1.00  0.00     0.010 A 
ATOM     83  C   UNL A   1      43.502  35.635  32.603  1.00  0.00     0.010 A 
ATOM     84  C   UNL A   1      43.439  35.698  35.399  1.00  0.00     0.020 A 
ATOM     85  C   UNL A   1      43.959  36.767  33.280  1.00  0.00     0.020 A 
ATOM     86  C   UNL A   1      43.915  36.796  34.674  1.00  0.00     0.054 A 
BRANCH  86  87
ATOM     87  S   UNL A   1      44.528  38.241  35.583  1.00  0.00     0.124 S 
ATOM     88  O   UNL A   1      44.113  39.342  34.719  1.00  0.00    -0.237 OA
ATOM     89  O   UNL A   1      43.820  38.141  36.857  1.00  0.00    -0.237 OA
ATOM     90  O   UNL A   1      45.970  38.018  35.658  1.00  0.00    -0.744 OA
ENDBRANCH  86  87
ENDBRANCH  60  81
ENDBRANCH  34  35
ENDBRANCH  26  29
ENDBRANCH  24  25
ENDBRANCH   1  24
TORSDOF 17
ENDMDL
MODEL 3
REMARK VINA RESULT:     -10.2      1.787      4.091
REMARK SMILES CC(C)[C@@](C)(CC(=O)N[C@H]1CCCC1(C)C)C(=O)NCCCNC(=O)c1ccc(-c2c3nc(c(-c4ccc(S(=O)(=O)[O-])cc4)c4ccc([nH]4)c(-c4ccc(S(=O)(=O)[O-])cc4)c4nc(c(-c5ccc(S(=O)(=O)[O-])cc5)c5ccc2[nH]5)C=C4)C=C3)cc1
REMARK SMILES IDX 21 1 20 2 19 3 17 4 18 5 4 7 5 8 2 9 1 10 3 11 6 12 7 13
REMARK SMILES IDX 8 14 9 15 10 17 11 18 14 19 12 20 13 21 15 22 16 23 22 24
REMARK SMILES IDX 23 25 24 26 25 28 26 29 27 30 85 31 28 32 84 33 29 34 30 35
REMARK SMILES IDX 31 36 78 37 32 38 83 39 77 40 79 41 33 42 82 43 76 44 75 45
REMARK SMILES IDX 34 47 64 48 45 49 63 50 46 51 49 52 62 53 80 54 47 55 48 56
REMARK SMILES IDX 61 58 81 59 50 60 35 61 36 62 44 63 37 64 43 65 38 66 39 67
REMARK SMILES IDX 40 68 41 69 42 70 65 71 66 72 74 73 67 74 73 75 68 76 69 77
REMARK SMILES IDX 70 78 71 79 72 80 51 81 52 82 60 83 53 84 59 85 54 86 55 87
REMARK SMILES IDX 56 88 57 89 58 90
REMARK H PARENT 19 6 9 16 23 27 79 46 49 57
REMARK Flexibility Score: inf
ROOT
ATOM      1  C   UNL A   1      33.908  28.690  24.544  1.00  0.00     0.042 C 
ENDROOT
BRANCH   1   2
ATOM      2  C   UNL A   1      33.973  27.328  23.857  1.00  0.00     0.117 C 
BRANCH   2   3
ATOM      3  N   UNL A   1      33.008  27.175  22.776  1.00  0.00    -0.356 N 
ATOM      4  C   UNL A   1      31.685  26.857  22.728  1.00  0.00     0.226 C 
ATOM      5  O   UNL A   1      31.226  26.725  21.590  1.00  0.00    -0.274 OA
ATOM      6  H   UNL A   1      33.398  27.333  21.885  1.00  0.00     0.163 HD
BRANCH   4   7
ATOM      7  C   UNL A   1      30.810  26.625  24.000  1.00  0.00     0.057 C 
ATOM      8  C   UNL A   1      29.438  25.981  23.533  1.00  0.00     0.022 C 
BRANCH   7   9
ATOM      9  C   UNL A   1      31.481  25.339  24.806  1.00  0.00    -0.002 C 
ATOM     10  C   UNL A   1      31.522  25.556  26.360  1.00  0.00     0.008 C 
ATOM     11  C   UNL A   1      30.954  23.890  24.703  1.00  0.00     0.008 C 
ENDBRANCH   7   9
BRANCH   7  12
ATOM     12  C   UNL A   1      30.369  28.131  24.528  1.00  0.00     0.116 C 
BRANCH  12  13
ATOM     13  C   UNL A   1      30.488  29.706  24.448  1.00  0.00     0.221 C 
ATOM     14  O   UNL A   1      31.037  30.265  25.418  1.00  0.00    -0.275 OA
ATOM     15  N   UNL A   1      30.339  30.566  23.404  1.00  0.00    -0.353 N 
ATOM     16  H   UNL A   1      31.025  31.272  23.419  1.00  0.00     0.163 HD
BRANCH  15  17
ATOM     17  C   UNL A   1      29.423  30.731  22.247  1.00  0.00     0.087 C 
ATOM     18  C   UNL A   1      28.538  29.520  22.045  1.00  0.00     0.025 C 
ATOM     19  C   UNL A   1      28.476  31.900  22.446  1.00  0.00    -0.015 C 
ATOM     20  C   UNL A   1      27.490  29.700  23.123  1.00  0.00     0.003 C 
ATOM     21  C   UNL A   1      27.469  31.218  23.426  1.00  0.00     0.008 C 
ATOM     22  C   UNL A   1      29.432  33.082  22.744  1.00  0.00     0.013 C 
ATOM     23  C   UNL A   1      27.608  32.356  21.263  1.00  0.00     0.013 C 
ENDBRANCH  15  17
ENDBRANCH  12  13
ENDBRANCH   7  12
ENDBRANCH   4   7
ENDBRANCH   2   3
ENDBRANCH   1   2
BRANCH   1  24
ATOM     24  C   UNL A   1      33.990  28.622  26.058  1.00  0.00     0.118 C 
BRANCH  24  25
ATOM     25  N   UNL A   1      33.813  29.934  26.670  1.00  0.00    -0.352 N 
ATOM     26  C   UNL A   1      34.565  30.553  27.629  1.00  0.00     0.251 C 
ATOM     27  H   UNL A   1      33.041  30.450  26.344  1.00  0.00     0.163 HD
ATOM     28  O   UNL A   1      34.109  31.548  28.213  1.00  0.00    -0.269 OA
BRANCH  26  29
ATOM     29  C   UNL A   1      35.898  30.034  27.980  1.00  0.00     0.039 A 
ATOM     30  C   UNL A   1      36.935  30.117  27.049  1.00  0.00     0.014 A 
ATOM     31  C   UNL A   1      36.124  29.463  29.236  1.00  0.00     0.014 A 
ATOM     32  C   UNL A   1      38.216  29.689  27.403  1.00  0.00     0.010 A 
ATOM     33  C   UNL A   1      37.417  29.124  29.617  1.00  0.00     0.010 A 
ATOM     34  C   UNL A   1      38.475  29.226  28.703  1.00  0.00    -0.014 A 
BRANCH  34  35
ATOM     35  C   UNL A   1      39.841  28.839  29.135  1.00  0.00     0.031 A 
ATOM     36  C   UNL A   1      40.716  29.840  29.842  1.00  0.00     0.074 A 
ATOM     37  C   UNL A   1      40.321  27.621  28.814  1.00  0.00     0.049 A 
ATOM     38  N   UNL A   1      41.964  29.725  30.213  1.00  0.00    -0.248 NA
ATOM     39  C   UNL A   1      40.119  31.152  30.145  1.00  0.00     0.031 C 
ATOM     40  C   UNL A   1      39.584  26.582  28.088  1.00  0.00     0.029 A 
ATOM     41  N   UNL A   1      41.549  27.053  29.044  1.00  0.00    -0.354 N 
ATOM     42  C   UNL A   1      42.310  30.953  30.763  1.00  0.00     0.074 A 
ATOM     43  C   UNL A   1      41.154  31.814  30.641  1.00  0.00     0.031 C 
ATOM     44  C   UNL A   1      40.366  25.500  27.953  1.00  0.00     0.029 A 
ATOM     45  C   UNL A   1      41.674  25.781  28.537  1.00  0.00     0.049 A 
ATOM     46  H   UNL A   1      42.273  27.514  29.526  1.00  0.00     0.167 HD
ATOM     47  C   UNL A   1      43.480  31.326  31.334  1.00  0.00     0.031 A 
ATOM     48  C   UNL A   1      42.727  24.940  28.528  1.00  0.00     0.031 A 
ATOM     49  C   UNL A   1      44.616  30.456  31.475  1.00  0.00     0.049 A 
ATOM     50  C   UNL A   1      44.016  25.381  29.167  1.00  0.00     0.074 A 
ATOM     51  C   UNL A   1      45.818  30.710  32.111  1.00  0.00     0.029 A 
ATOM     52  N   UNL A   1      44.694  29.167  30.967  1.00  0.00    -0.354 N 
ATOM     53  N   UNL A   1      44.294  26.516  29.763  1.00  0.00    -0.248 NA
ATOM     54  C   UNL A   1      45.133  24.426  29.138  1.00  0.00     0.031 C 
ATOM     55  C   UNL A   1      46.645  29.597  31.936  1.00  0.00     0.029 A 
ATOM     56  C   UNL A   1      45.937  28.627  31.247  1.00  0.00     0.049 A 
ATOM     57  H   UNL A   1      43.973  28.707  30.481  1.00  0.00     0.167 HD
ATOM     58  C   UNL A   1      45.609  26.401  30.201  1.00  0.00     0.074 A 
ATOM     59  C   UNL A   1      46.063  25.080  29.818  1.00  0.00     0.031 C 
ATOM     60  C   UNL A   1      46.370  27.307  30.862  1.00  0.00     0.031 A 
BRANCH  47  61
ATOM     61  C   UNL A   1      43.595  32.738  31.844  1.00  0.00    -0.014 A 
ATOM     62  C   UNL A   1      44.026  33.784  31.009  1.00  0.00     0.010 A 
ATOM     63  C   UNL A   1      43.211  33.034  33.166  1.00  0.00     0.010 A 
ATOM     64  C   UNL A   1      44.106  35.092  31.496  1.00  0.00     0.020 A 
ATOM     65  C   UNL A   1      43.261  34.345  33.648  1.00  0.00     0.020 A 
ATOM     66  C   UNL A   1      43.722  35.364  32.813  1.00  0.00     0.054 A 
BRANCH  66  67
ATOM     67  S   UNL A   1      43.802  37.077  33.404  1.00  0.00     0.124 S 
ATOM     68  O   UNL A   1      42.581  37.179  34.199  1.00  0.00    -0.237 OA
ATOM     69  O   UNL A   1      45.049  37.095  34.163  1.00  0.00    -0.237 OA
ATOM     70  O   UNL A   1      43.813  37.868  32.176  1.00  0.00    -0.744 OA
ENDBRANCH  66  67
ENDBRANCH  47  61
BRANCH  48  71
ATOM     71  C   UNL A   1      42.608  23.597  27.895  1.00  0.00    -0.014 A 
ATOM     72  C   UNL A   1      42.175  22.489  28.644  1.00  0.00     0.010 A 
ATOM     73  C   UNL A   1      42.930  23.419  26.537  1.00  0.00     0.010 A 
ATOM     74  C   UNL A   1      42.094  21.224  28.056  1.00  0.00     0.020 A 
ATOM     75  C   UNL A   1      42.819  22.161  25.937  1.00  0.00     0.020 A 
ATOM     76  C   UNL A   1      42.417  21.067  26.705  1.00  0.00     0.054 A 
BRANCH  76  77
ATOM     77  S   UNL A   1      42.270  19.422  25.954  1.00  0.00     0.124 S 
ATOM     78  O   UNL A   1      40.841  19.347  25.667  1.00  0.00    -0.237 OA
ATOM     79  O   UNL A   1      43.145  19.527  24.790  1.00  0.00    -0.237 OA
ATOM     80  O   UNL A   1      42.746  18.523  27.002  1.00  0.00    -0.744 OA
ENDBRANCH  76  77
ENDBRANCH  48  71
BRANCH  60  81
ATOM     81  C   UNL A   1      47.767  26.895  31.244  1.00  0.00    -0.014 A 
ATOM     82  C   UNL A   1      48.014  26.167  32.421  1.00  0.00     0.010 A 
ATOM     83  C   UNL A   1      48.835  27.177  30.373  1.00  0.00     0.010 A 
ATOM     84  C   UNL A   1      49.310  25.746  32.729  1.00  0.00     0.020 A 
ATOM     85  C   UNL A   1      50.126  26.733  30.664  1.00  0.00     0.020 A 
ATOM     86  C   UNL A   1      50.358  26.029  31.846  1.00  0.00     0.054 A 
BRANCH  86  87
ATOM     87  S   UNL A   1      52.019  25.415  32.239  1.00  0.00     0.124 S 
ATOM     88  O   UNL A   1      52.343  26.169  33.447  1.00  0.00    -0.237 OA
ATOM     89  O   UNL A   1      51.793  23.985  32.433  1.00  0.00    -0.237 OA
ATOM     90  O   UNL A   1      52.805  25.762  31.058  1.00  0.00    -0.744 OA
ENDBRANCH  86  87
ENDBRANCH  60  81
ENDBRANCH  34  35
ENDBRANCH  26  29
ENDBRANCH  24  25
ENDBRANCH   1  24
TORSDOF 17
ENDMDL
