MODEL 1
REMARK VINA RESULT:     -10.8      0.000      0.000
REMARK SMILES CC(=C/C(=O)NCCCNC(=O)c1ccc(-c2c3nc(c(-c4ccc(S(=O)(=O)[O-])cc4)c4ccc([nH]4)c(-c4ccc(S(=O)(=O)[O-])cc4)c4nc(c(-c5ccc(S(=O)(=O)[O-])cc5)c5ccc2[nH]5)C=C4)C=C3)cc1)/C=C/c1ccc2ccccc2c1
REMARK SMILES IDX 8 1 7 2 6 3 4 4 5 5 3 7 1 8 2 9 73 10 74 11 75 12 76 13
REMARK SMILES IDX 84 14 77 15 83 16 78 17 82 18 79 19 81 20 80 21 9 22 10 23
REMARK SMILES IDX 11 24 12 26 13 27 14 28 72 29 15 30 71 31 16 32 17 33 18 34
REMARK SMILES IDX 65 35 19 36 70 37 64 38 66 39 20 40 69 41 63 42 62 43 21 45
REMARK SMILES IDX 51 46 32 47 50 48 33 49 36 50 49 51 67 52 34 53 35 54 48 56
REMARK SMILES IDX 68 57 37 58 22 59 23 60 31 61 24 62 30 63 25 64 26 65 27 66
REMARK SMILES IDX 28 67 29 68 52 69 53 70 61 71 54 72 60 73 55 74 56 75 57 76
REMARK SMILES IDX 58 77 59 78 38 79 39 80 47 81 40 82 46 83 41 84 42 85 43 86
REMARK SMILES IDX 44 87 45 88
REMARK H PARENT 6 6 10 25 66 44 36 55
REMARK Flexibility Score: inf
ROOT
ATOM      1  C   UNL A   1      34.177  33.499  28.857  1.00  0.00     0.042 C 
ENDROOT
BRANCH   1   2
ATOM      2  C   UNL A   1      33.069  34.411  28.393  1.00  0.00     0.118 C 
BRANCH   2   3
ATOM      3  N   UNL A   1      33.345  35.826  28.368  1.00  0.00    -0.352 N 
ATOM      4  C   UNL A   1      33.135  36.751  29.343  1.00  0.00     0.244 C 
ATOM      5  O   UNL A   1      33.478  37.916  29.129  1.00  0.00    -0.270 OA
ATOM      6  H   UNL A   1      33.738  36.168  27.533  1.00  0.00     0.163 HD
BRANCH   4   7
ATOM      7  C   UNL A   1      32.390  36.469  30.610  1.00  0.00     0.074 C 
ATOM      8  C   UNL A   1      31.509  35.747  32.795  1.00  0.00     0.044 C 
ATOM      9  C   UNL A   1      32.646  35.895  31.807  1.00  0.00    -0.046 C 
BRANCH   9  10
ATOM     10  C   UNL A   1      33.931  35.329  32.218  1.00  0.00     0.004 C 
ATOM     11  C   UNL A   1      33.986  34.269  33.049  1.00  0.00     0.008 C 
BRANCH  11  12
ATOM     12  C   UNL A   1      35.091  33.300  33.203  1.00  0.00    -0.025 A 
ATOM     13  C   UNL A   1      35.185  32.301  32.221  1.00  0.00     0.009 A 
ATOM     14  C   UNL A   1      36.066  33.332  34.209  1.00  0.00     0.016 A 
ATOM     15  C   UNL A   1      36.217  31.361  32.233  1.00  0.00     0.009 A 
ATOM     16  C   UNL A   1      37.115  32.378  34.242  1.00  0.00    -0.018 A 
ATOM     17  C   UNL A   1      37.183  31.383  33.240  1.00  0.00    -0.018 A 
ATOM     18  C   UNL A   1      38.100  32.381  35.246  1.00  0.00     0.009 A 
ATOM     19  C   UNL A   1      38.211  30.427  33.264  1.00  0.00     0.009 A 
ATOM     20  C   UNL A   1      39.113  31.416  35.265  1.00  0.00     0.001 A 
ATOM     21  C   UNL A   1      39.167  30.439  34.277  1.00  0.00     0.001 A 
ENDBRANCH  11  12
ENDBRANCH   9  10
ENDBRANCH   4   7
ENDBRANCH   2   3
ENDBRANCH   1   2
BRANCH   1  22
ATOM     22  C   UNL A   1      34.799  32.620  27.792  1.00  0.00     0.118 C 
BRANCH  22  23
ATOM     23  N   UNL A   1      34.158  31.320  27.624  1.00  0.00    -0.352 N 
ATOM     24  C   UNL A   1      34.626  30.028  27.762  1.00  0.00     0.251 C 
ATOM     25  H   UNL A   1      33.211  31.374  27.362  1.00  0.00     0.163 HD
ATOM     26  O   UNL A   1      33.876  29.094  27.517  1.00  0.00    -0.269 OA
BRANCH  24  27
ATOM     27  C   UNL A   1      36.025  29.765  28.175  1.00  0.00     0.039 A 
ATOM     28  C   UNL A   1      36.278  29.266  29.459  1.00  0.00     0.014 A 
ATOM     29  C   UNL A   1      37.093  30.012  27.316  1.00  0.00     0.014 A 
ATOM     30  C   UNL A   1      37.584  28.925  29.831  1.00  0.00     0.010 A 
ATOM     31  C   UNL A   1      38.361  29.546  27.630  1.00  0.00     0.010 A 
ATOM     32  C   UNL A   1      38.628  29.014  28.899  1.00  0.00    -0.014 A 
BRANCH  32  33
ATOM     33  C   UNL A   1      40.023  28.620  29.220  1.00  0.00     0.031 A 
ATOM     34  C   UNL A   1      40.935  29.615  29.894  1.00  0.00     0.074 A 
ATOM     35  C   UNL A   1      40.496  27.419  28.830  1.00  0.00     0.049 A 
ATOM     36  N   UNL A   1      42.217  29.531  30.137  1.00  0.00    -0.248 NA
ATOM     37  C   UNL A   1      40.329  30.892  30.313  1.00  0.00     0.031 C 
ATOM     38  C   UNL A   1      39.724  26.384  28.135  1.00  0.00     0.029 A 
ATOM     39  N   UNL A   1      41.748  26.870  28.951  1.00  0.00    -0.354 N 
ATOM     40  C   UNL A   1      42.571  30.747  30.711  1.00  0.00     0.074 A 
ATOM     41  C   UNL A   1      41.387  31.576  30.717  1.00  0.00     0.031 C 
ATOM     42  C   UNL A   1      40.512  25.316  27.921  1.00  0.00     0.029 A 
ATOM     43  C   UNL A   1      41.852  25.605  28.419  1.00  0.00     0.049 A 
ATOM     44  H   UNL A   1      42.501  27.337  29.379  1.00  0.00     0.167 HD
ATOM     45  C   UNL A   1      43.765  31.132  31.220  1.00  0.00     0.031 A 
ATOM     46  C   UNL A   1      42.913  24.779  28.336  1.00  0.00     0.031 A 
ATOM     47  C   UNL A   1      44.932  30.295  31.234  1.00  0.00     0.049 A 
ATOM     48  C   UNL A   1      44.235  25.232  28.897  1.00  0.00     0.074 A 
ATOM     49  C   UNL A   1      46.181  30.567  31.761  1.00  0.00     0.029 A 
ATOM     50  N   UNL A   1      44.988  29.013  30.707  1.00  0.00    -0.354 N 
ATOM     51  N   UNL A   1      44.537  26.369  29.478  1.00  0.00    -0.248 NA
ATOM     52  C   UNL A   1      45.355  24.286  28.801  1.00  0.00     0.031 C 
ATOM     53  C   UNL A   1      47.006  29.465  31.514  1.00  0.00     0.029 A 
ATOM     54  C   UNL A   1      46.253  28.486  30.883  1.00  0.00     0.049 A 
ATOM     55  H   UNL A   1      44.237  28.549  30.270  1.00  0.00     0.167 HD
ATOM     56  C   UNL A   1      45.874  26.260  29.847  1.00  0.00     0.074 A 
ATOM     57  C   UNL A   1      46.317  24.945  29.434  1.00  0.00     0.031 C 
ATOM     58  C   UNL A   1      46.665  27.167  30.473  1.00  0.00     0.031 A 
BRANCH  45  59
ATOM     59  C   UNL A   1      43.853  32.516  31.808  1.00  0.00    -0.014 A 
ATOM     60  C   UNL A   1      43.591  32.739  33.172  1.00  0.00     0.010 A 
ATOM     61  C   UNL A   1      44.217  33.604  30.996  1.00  0.00     0.010 A 
ATOM     62  C   UNL A   1      43.641  34.031  33.702  1.00  0.00     0.020 A 
ATOM     63  C   UNL A   1      44.300  34.895  31.528  1.00  0.00     0.020 A 
ATOM     64  C   UNL A   1      43.992  35.101  32.875  1.00  0.00     0.054 A 
BRANCH  64  65
ATOM     65  S   UNL A   1      44.065  36.765  33.594  1.00  0.00     0.124 S 
ATOM     66  O   UNL A   1      45.103  36.609  34.610  1.00  0.00    -0.237 OA
ATOM     67  O   UNL A   1      44.426  37.594  32.448  1.00  0.00    -0.237 OA
ATOM     68  O   UNL A   1      42.715  36.977  34.112  1.00  0.00    -0.744 OA
ENDBRANCH  64  65
ENDBRANCH  45  59
BRANCH  46  69
ATOM     69  C   UNL A   1      42.769  23.428  27.722  1.00  0.00    -0.014 A 
ATOM     70  C   UNL A   1      42.246  22.359  28.471  1.00  0.00     0.010 A 
ATOM     71  C   UNL A   1      43.159  23.200  26.390  1.00  0.00     0.010 A 
ATOM     72  C   UNL A   1      42.142  21.082  27.911  1.00  0.00     0.020 A 
ATOM     73  C   UNL A   1      43.030  21.931  25.817  1.00  0.00     0.020 A 
ATOM     74  C   UNL A   1      42.537  20.875  26.587  1.00  0.00     0.054 A 
BRANCH  74  75
ATOM     75  S   UNL A   1      42.363  19.217  25.869  1.00  0.00     0.124 S 
ATOM     76  O   UNL A   1      40.924  19.134  25.644  1.00  0.00    -0.237 OA
ATOM     77  O   UNL A   1      43.189  19.306  24.668  1.00  0.00    -0.237 OA
ATOM     78  O   UNL A   1      42.887  18.338  26.913  1.00  0.00    -0.744 OA
ENDBRANCH  74  75
ENDBRANCH  46  69
BRANCH  58  79
ATOM     79  C   UNL A   1      48.074  26.752  30.794  1.00  0.00    -0.014 A 
ATOM     80  C   UNL A   1      49.122  26.958  29.881  1.00  0.00     0.010 A 
ATOM     81  C   UNL A   1      48.361  26.206  32.059  1.00  0.00     0.010 A 
ATOM     82  C   UNL A   1      50.430  26.601  30.217  1.00  0.00     0.020 A 
ATOM     83  C   UNL A   1      49.670  25.874  32.410  1.00  0.00     0.020 A 
ATOM     84  C   UNL A   1      50.696  26.061  31.480  1.00  0.00     0.054 A 
BRANCH  84  85
ATOM     85  S   UNL A   1      52.409  25.655  31.913  1.00  0.00     0.124 S 
ATOM     86  O   UNL A   1      52.315  24.230  32.221  1.00  0.00    -0.237 OA
ATOM     87  O   UNL A   1      53.136  25.985  30.689  1.00  0.00    -0.237 OA
ATOM     88  O   UNL A   1      52.695  26.522  33.053  1.00  0.00    -0.744 OA
ENDBRANCH  84  85
ENDBRANCH  58  79
ENDBRANCH  32  33
ENDBRANCH  24  27
ENDBRANCH  22  23
ENDBRANCH   1  22
TORSDOF 15
ENDMDL
MODEL 2
REMARK VINA RESULT:     -10.7      3.019     11.156
REMARK SMILES CC(=C/C(=O)NCCCNC(=O)c1ccc(-c2c3nc(c(-c4ccc(S(=O)(=O)[O-])cc4)c4ccc([nH]4)c(-c4ccc(S(=O)(=O)[O-])cc4)c4nc(c(-c5ccc(S(=O)(=O)[O-])cc5)c5ccc2[nH]5)C=C4)C=C3)cc1)/C=C/c1ccc2ccccc2c1
REMARK SMILES IDX 8 1 7 2 6 3 4 4 5 5 3 7 1 8 2 9 73 10 74 11 75 12 76 13
REMARK SMILES IDX 84 14 77 15 83 16 78 17 82 18 79 19 81 20 80 21 9 22 10 23
REMARK SMILES IDX 11 24 12 26 13 27 14 28 72 29 15 30 71 31 16 32 17 33 18 34
REMARK SMILES IDX 65 35 19 36 70 37 64 38 66 39 20 40 69 41 63 42 62 43 21 45
REMARK SMILES IDX 51 46 32 47 50 48 33 49 36 50 49 51 67 52 34 53 35 54 48 56
REMARK SMILES IDX 68 57 37 58 22 59 23 60 31 61 24 62 30 63 25 64 26 65 27 66
REMARK SMILES IDX 28 67 29 68 52 69 53 70 61 71 54 72 60 73 55 74 56 75 57 76
REMARK SMILES IDX 58 77 59 78 38 79 39 80 47 81 40 82 46 83 41 84 42 85 43 86
REMARK SMILES IDX 44 87 45 88
REMARK H PARENT 6 6 10 25 66 44 36 55
REMARK Flexibility Score: inf
ROOT
ATOM      1  C   UNL A   1      41.752  21.574  27.705  1.00  0.00     0.042 C 
ENDROOT
BRANCH   1   2
ATOM      2  C   UNL A   1      42.284  22.657  28.611  1.00  0.00     0.118 C 
BRANCH   2   3
ATOM      3  N   UNL A   1      43.716  22.805  28.691  1.00  0.00    -0.352 N 
ATOM      4  C   UNL A   1      44.537  23.568  27.920  1.00  0.00     0.244 C 
ATOM      5  O   UNL A   1      45.743  23.580  28.181  1.00  0.00    -0.270 OA
ATOM      6  H   UNL A   1      44.159  22.285  29.400  1.00  0.00     0.163 HD
BRANCH   4   7
ATOM      7  C   UNL A   1      44.087  24.288  26.687  1.00  0.00     0.074 C 
ATOM      8  C   UNL A   1      43.452  25.840  24.882  1.00  0.00     0.044 C 
ATOM      9  C   UNL A   1      44.160  25.541  26.186  1.00  0.00    -0.046 C 
BRANCH   9  10
ATOM     10  C   UNL A   1      44.815  26.677  26.835  1.00  0.00     0.004 C 
ATOM     11  C   UNL A   1      44.610  27.936  26.400  1.00  0.00     0.008 C 
BRANCH  11  12
ATOM     12  C   UNL A   1      44.782  29.192  27.159  1.00  0.00    -0.025 A 
ATOM     13  C   UNL A   1      43.645  30.007  27.278  1.00  0.00     0.009 A 
ATOM     14  C   UNL A   1      45.958  29.601  27.801  1.00  0.00     0.016 A 
ATOM     15  C   UNL A   1      43.671  31.193  28.015  1.00  0.00     0.009 A 
ATOM     16  C   UNL A   1      46.005  30.808  28.543  1.00  0.00    -0.018 A 
ATOM     17  C   UNL A   1      44.845  31.609  28.645  1.00  0.00    -0.018 A 
ATOM     18  C   UNL A   1      47.176  31.246  29.188  1.00  0.00     0.009 A 
ATOM     19  C   UNL A   1      44.878  32.810  29.371  1.00  0.00     0.009 A 
ATOM     20  C   UNL A   1      47.199  32.451  29.899  1.00  0.00     0.001 A 
ATOM     21  C   UNL A   1      46.053  33.233  29.989  1.00  0.00     0.001 A 
ENDBRANCH  11  12
ENDBRANCH   9  10
ENDBRANCH   4   7
ENDBRANCH   2   3
ENDBRANCH   1   2
BRANCH   1  22
ATOM     22  C   UNL A   1      41.469  21.988  26.277  1.00  0.00     0.118 C 
BRANCH  22  23
ATOM     23  N   UNL A   1      40.055  22.017  25.918  1.00  0.00    -0.352 N 
ATOM     24  C   UNL A   1      39.061  22.952  26.130  1.00  0.00     0.251 C 
ATOM     25  H   UNL A   1      39.751  21.216  25.434  1.00  0.00     0.163 HD
ATOM     26  O   UNL A   1      37.924  22.707  25.754  1.00  0.00    -0.269 OA
BRANCH  24  27
ATOM     27  C   UNL A   1      39.353  24.229  26.824  1.00  0.00     0.039 A 
ATOM     28  C   UNL A   1      38.904  24.412  28.138  1.00  0.00     0.014 A 
ATOM     29  C   UNL A   1      40.056  25.252  26.194  1.00  0.00     0.014 A 
ATOM     30  C   UNL A   1      39.251  25.574  28.839  1.00  0.00     0.010 A 
ATOM     31  C   UNL A   1      40.518  26.335  26.928  1.00  0.00     0.010 A 
ATOM     32  C   UNL A   1      40.105  26.520  28.254  1.00  0.00    -0.014 A 
BRANCH  32  33
ATOM     33  C   UNL A   1      40.548  27.746  28.966  1.00  0.00     0.031 A 
ATOM     34  C   UNL A   1      41.907  27.769  29.620  1.00  0.00     0.074 A 
ATOM     35  C   UNL A   1      39.708  28.792  29.105  1.00  0.00     0.049 A 
ATOM     36  N   UNL A   1      42.434  28.675  30.403  1.00  0.00    -0.248 NA
ATOM     37  C   UNL A   1      42.773  26.598  29.394  1.00  0.00     0.031 C 
ATOM     38  C   UNL A   1      38.353  28.875  28.552  1.00  0.00     0.029 A 
ATOM     39  N   UNL A   1      39.867  29.984  29.766  1.00  0.00    -0.354 N 
ATOM     40  C   UNL A   1      43.674  28.170  30.779  1.00  0.00     0.074 A 
ATOM     41  C   UNL A   1      43.793  26.853  30.197  1.00  0.00     0.031 C 
ATOM     42  C   UNL A   1      37.818  30.066  28.872  1.00  0.00     0.029 A 
ATOM     43  C   UNL A   1      38.770  30.811  29.689  1.00  0.00     0.049 A 
ATOM     44  H   UNL A   1      40.689  30.224  30.252  1.00  0.00     0.167 HD
ATOM     45  C   UNL A   1      44.644  28.761  31.516  1.00  0.00     0.031 A 
ATOM     46  C   UNL A   1      38.556  32.028  30.225  1.00  0.00     0.031 A 
ATOM     47  C   UNL A   1      44.531  30.080  32.072  1.00  0.00     0.049 A 
ATOM     48  C   UNL A   1      39.644  32.661  31.052  1.00  0.00     0.074 A 
ATOM     49  C   UNL A   1      45.467  30.792  32.800  1.00  0.00     0.029 A 
ATOM     50  N   UNL A   1      43.413  30.892  31.950  1.00  0.00    -0.354 N 
ATOM     51  N   UNL A   1      40.829  32.186  31.357  1.00  0.00    -0.248 NA
ATOM     52  C   UNL A   1      39.371  33.998  31.597  1.00  0.00     0.031 C 
ATOM     53  C   UNL A   1      44.899  32.020  33.154  1.00  0.00     0.029 A 
ATOM     54  C   UNL A   1      43.630  32.093  32.599  1.00  0.00     0.049 A 
ATOM     55  H   UNL A   1      42.587  30.649  31.473  1.00  0.00     0.167 HD
ATOM     56  C   UNL A   1      41.454  33.181  32.101  1.00  0.00     0.074 A 
ATOM     57  C   UNL A   1      40.522  34.286  32.189  1.00  0.00     0.031 C 
ATOM     58  C   UNL A   1      42.689  33.183  32.661  1.00  0.00     0.031 A 
BRANCH  45  59
ATOM     59  C   UNL A   1      45.910  27.978  31.748  1.00  0.00    -0.014 A 
ATOM     60  C   UNL A   1      47.026  28.143  30.907  1.00  0.00     0.010 A 
ATOM     61  C   UNL A   1      45.995  27.079  32.826  1.00  0.00     0.010 A 
ATOM     62  C   UNL A   1      48.184  27.389  31.108  1.00  0.00     0.020 A 
ATOM     63  C   UNL A   1      47.164  26.344  33.050  1.00  0.00     0.020 A 
ATOM     64  C   UNL A   1      48.243  26.490  32.178  1.00  0.00     0.054 A 
BRANCH  64  65
ATOM     65  S   UNL A   1      49.766  25.535  32.423  1.00  0.00     0.124 S 
ATOM     66  O   UNL A   1      49.937  24.902  31.118  1.00  0.00    -0.237 OA
ATOM     67  O   UNL A   1      50.743  26.569  32.753  1.00  0.00    -0.237 OA
ATOM     68  O   UNL A   1      49.431  24.626  33.517  1.00  0.00    -0.744 OA
ENDBRANCH  64  65
ENDBRANCH  45  59
BRANCH  46  69
ATOM     69  C   UNL A   1      37.272  32.744  29.979  1.00  0.00    -0.014 A 
ATOM     70  C   UNL A   1      37.084  33.478  28.793  1.00  0.00     0.010 A 
ATOM     71  C   UNL A   1      36.235  32.705  30.928  1.00  0.00     0.010 A 
ATOM     72  C   UNL A   1      35.895  34.181  28.574  1.00  0.00     0.020 A 
ATOM     73  C   UNL A   1      35.034  33.384  30.699  1.00  0.00     0.020 A 
ATOM     74  C   UNL A   1      34.878  34.131  29.530  1.00  0.00     0.054 A 
BRANCH  74  75
ATOM     75  S   UNL A   1      33.330  35.024  29.209  1.00  0.00     0.124 S 
ATOM     76  O   UNL A   1      32.700  34.184  28.196  1.00  0.00    -0.237 OA
ATOM     77  O   UNL A   1      32.689  35.024  30.521  1.00  0.00    -0.237 OA
ATOM     78  O   UNL A   1      33.783  36.335  28.746  1.00  0.00    -0.744 OA
ENDBRANCH  74  75
ENDBRANCH  46  69
BRANCH  58  79
ATOM     79  C   UNL A   1      43.124  34.433  33.375  1.00  0.00    -0.014 A 
ATOM     80  C   UNL A   1      43.578  35.558  32.666  1.00  0.00     0.010 A 
ATOM     81  C   UNL A   1      43.013  34.501  34.777  1.00  0.00     0.010 A 
ATOM     82  C   UNL A   1      43.939  36.722  33.350  1.00  0.00     0.020 A 
ATOM     83  C   UNL A   1      43.346  35.671  35.460  1.00  0.00     0.020 A 
ATOM     84  C   UNL A   1      43.819  36.771  34.742  1.00  0.00     0.054 A 
BRANCH  84  85
ATOM     85  S   UNL A   1      44.244  38.311  35.601  1.00  0.00     0.124 S 
ATOM     86  O   UNL A   1      45.703  38.269  35.596  1.00  0.00    -0.237 OA
ATOM     87  O   UNL A   1      43.642  39.331  34.745  1.00  0.00    -0.237 OA
ATOM     88  O   UNL A   1      43.619  38.160  36.913  1.00  0.00    -0.744 OA
ENDBRANCH  84  85
ENDBRANCH  58  79
ENDBRANCH  32  33
ENDBRANCH  24  27
ENDBRANCH  22  23
ENDBRANCH   1  22
TORSDOF 15
ENDMDL
MODEL 3
REMARK VINA RESULT:     -10.7      3.313      5.921
REMARK SMILES CC(=C/C(=O)NCCCNC(=O)c1ccc(-c2c3nc(c(-c4ccc(S(=O)(=O)[O-])cc4)c4ccc([nH]4)c(-c4ccc(S(=O)(=O)[O-])cc4)c4nc(c(-c5ccc(S(=O)(=O)[O-])cc5)c5ccc2[nH]5)C=C4)C=C3)cc1)/C=C/c1ccc2ccccc2c1
REMARK SMILES IDX 8 1 7 2 6 3 4 4 5 5 3 7 1 8 2 9 73 10 74 11 75 12 76 13
REMARK SMILES IDX 84 14 77 15 83 16 78 17 82 18 79 19 81 20 80 21 9 22 10 23
REMARK SMILES IDX 11 24 12 26 13 27 14 28 72 29 15 30 71 31 16 32 17 33 18 34
REMARK SMILES IDX 65 35 19 36 70 37 64 38 66 39 20 40 69 41 63 42 62 43 21 45
REMARK SMILES IDX 51 46 32 47 50 48 33 49 36 50 49 51 67 52 34 53 35 54 48 56
REMARK SMILES IDX 68 57 37 58 22 59 23 60 31 61 24 62 30 63 25 64 26 65 27 66
REMARK SMILES IDX 28 67 29 68 52 69 53 70 61 71 54 72 60 73 55 74 56 75 57 76
REMARK SMILES IDX 58 77 59 78 38 79 39 80 47 81 40 82 46 83 41 84 42 85 43 86
REMARK SMILES IDX 44 87 45 88
REMARK H PARENT 6 6 10 25 66 44 36 55
REMARK Flexibility Score: inf
ROOT
ATOM      1  C   UNL A   1      32.576  28.207  25.877  1.00  0.00     0.042 C 
ENDROOT
BRANCH   1   2
ATOM      2  C   UNL A   1      31.628  29.236  25.314  1.00  0.00     0.118 C 
BRANCH   2   3
ATOM      3  N   UNL A   1      31.613  29.409  23.883  1.00  0.00    -0.352 N 
ATOM      4  C   UNL A   1      30.659  29.032  22.990  1.00  0.00     0.244 C 
ATOM      5  O   UNL A   1      30.828  29.309  21.800  1.00  0.00    -0.270 OA
ATOM      6  H   UNL A   1      32.401  29.860  23.501  1.00  0.00     0.163 HD
BRANCH   4   7
ATOM      7  C   UNL A   1      29.479  28.182  23.344  1.00  0.00     0.074 C 
ATOM      8  C   UNL A   1      27.832  26.456  23.956  1.00  0.00     0.044 C 
ATOM      9  C   UNL A   1      29.259  26.948  23.847  1.00  0.00    -0.046 C 
BRANCH   9  10
ATOM     10  C   UNL A   1      30.297  25.995  24.240  1.00  0.00     0.004 C 
ATOM     11  C   UNL A   1      30.981  25.294  23.314  1.00  0.00     0.008 C 
BRANCH  11  12
ATOM     12  C   UNL A   1      32.314  24.672  23.454  1.00  0.00    -0.025 A 
ATOM     13  C   UNL A   1      32.742  23.871  22.384  1.00  0.00     0.009 A 
ATOM     14  C   UNL A   1      33.190  24.860  24.532  1.00  0.00     0.016 A 
ATOM     15  C   UNL A   1      34.004  23.273  22.380  1.00  0.00     0.009 A 
ATOM     16  C   UNL A   1      34.470  24.251  24.549  1.00  0.00    -0.018 A 
ATOM     17  C   UNL A   1      34.874  23.448  23.458  1.00  0.00    -0.018 A 
ATOM     18  C   UNL A   1      35.363  24.414  25.623  1.00  0.00     0.009 A 
ATOM     19  C   UNL A   1      36.136  22.833  23.464  1.00  0.00     0.009 A 
ATOM     20  C   UNL A   1      36.614  23.786  25.622  1.00  0.00     0.001 A 
ATOM     21  C   UNL A   1      36.999  22.995  24.545  1.00  0.00     0.001 A 
ENDBRANCH  11  12
ENDBRANCH   9  10
ENDBRANCH   4   7
ENDBRANCH   2   3
ENDBRANCH   1   2
BRANCH   1  22
ATOM     22  C   UNL A   1      33.205  28.547  27.211  1.00  0.00     0.118 C 
BRANCH  22  23
ATOM     23  N   UNL A   1      33.239  29.972  27.524  1.00  0.00    -0.352 N 
ATOM     24  C   UNL A   1      34.236  30.792  28.015  1.00  0.00     0.251 C 
ATOM     25  H   UNL A   1      32.389  30.437  27.351  1.00  0.00     0.163 HD
ATOM     26  O   UNL A   1      33.986  31.969  28.229  1.00  0.00    -0.269 OA
BRANCH  24  27
ATOM     27  C   UNL A   1      35.588  30.257  28.306  1.00  0.00     0.039 A 
ATOM     28  C   UNL A   1      36.562  30.272  27.300  1.00  0.00     0.014 A 
ATOM     29  C   UNL A   1      35.905  29.734  29.557  1.00  0.00     0.014 A 
ATOM     30  C   UNL A   1      37.868  29.857  27.587  1.00  0.00     0.010 A 
ATOM     31  C   UNL A   1      37.225  29.456  29.880  1.00  0.00     0.010 A 
ATOM     32  C   UNL A   1      38.221  29.495  28.895  1.00  0.00    -0.014 A 
BRANCH  32  33
ATOM     33  C   UNL A   1      39.601  29.095  29.270  1.00  0.00     0.031 A 
ATOM     34  C   UNL A   1      40.493  30.089  29.972  1.00  0.00     0.074 A 
ATOM     35  C   UNL A   1      40.081  27.889  28.905  1.00  0.00     0.049 A 
ATOM     36  N   UNL A   1      41.764  29.999  30.263  1.00  0.00    -0.248 NA
ATOM     37  C   UNL A   1      39.880  31.372  30.360  1.00  0.00     0.031 C 
ATOM     38  C   UNL A   1      39.329  26.854  28.189  1.00  0.00     0.029 A 
ATOM     39  N   UNL A   1      41.324  27.333  29.077  1.00  0.00    -0.354 N 
ATOM     40  C   UNL A   1      42.104  31.217  30.842  1.00  0.00     0.074 A 
ATOM     41  C   UNL A   1      40.926  32.053  30.799  1.00  0.00     0.031 C 
ATOM     42  C   UNL A   1      40.118  25.780  28.011  1.00  0.00     0.029 A 
ATOM     43  C   UNL A   1      41.440  26.065  28.557  1.00  0.00     0.049 A 
ATOM     44  H   UNL A   1      42.064  27.799  29.530  1.00  0.00     0.167 HD
ATOM     45  C   UNL A   1      43.281  31.598  31.393  1.00  0.00     0.031 A 
ATOM     46  C   UNL A   1      42.498  25.232  28.519  1.00  0.00     0.031 A 
ATOM     47  C   UNL A   1      44.441  30.754  31.456  1.00  0.00     0.049 A 
ATOM     48  C   UNL A   1      43.801  25.681  29.126  1.00  0.00     0.074 A 
ATOM     49  C   UNL A   1      45.672  31.023  32.027  1.00  0.00     0.029 A 
ATOM     50  N   UNL A   1      44.509  29.469  30.938  1.00  0.00    -0.354 N 
ATOM     51  N   UNL A   1      44.089  26.819  29.711  1.00  0.00    -0.248 NA
ATOM     52  C   UNL A   1      44.919  24.728  29.077  1.00  0.00     0.031 C 
ATOM     53  C   UNL A   1      46.498  29.914  31.817  1.00  0.00     0.029 A 
ATOM     54  C   UNL A   1      45.764  28.935  31.165  1.00  0.00     0.049 A 
ATOM     55  H   UNL A   1      43.772  29.006  30.477  1.00  0.00     0.167 HD
ATOM     56  C   UNL A   1      45.410  26.706  30.130  1.00  0.00     0.074 A 
ATOM     57  C   UNL A   1      45.860  25.385  29.742  1.00  0.00     0.031 C 
ATOM     58  C   UNL A   1      46.183  27.612  30.779  1.00  0.00     0.031 A 
BRANCH  45  59
ATOM     59  C   UNL A   1      43.356  32.985  31.976  1.00  0.00    -0.014 A 
ATOM     60  C   UNL A   1      42.937  33.238  33.294  1.00  0.00     0.010 A 
ATOM     61  C   UNL A   1      43.864  34.046  31.205  1.00  0.00     0.010 A 
ATOM     62  C   UNL A   1      42.977  34.534  33.815  1.00  0.00     0.020 A 
ATOM     63  C   UNL A   1      43.936  35.340  31.733  1.00  0.00     0.020 A 
ATOM     64  C   UNL A   1      43.473  35.577  33.028  1.00  0.00     0.054 A 
BRANCH  64  65
ATOM     65  S   UNL A   1      43.528  37.246  33.737  1.00  0.00     0.124 S 
ATOM     66  O   UNL A   1      44.836  37.255  34.387  1.00  0.00    -0.237 OA
ATOM     67  O   UNL A   1      43.407  38.099  32.557  1.00  0.00    -0.237 OA
ATOM     68  O   UNL A   1      42.382  37.275  34.643  1.00  0.00    -0.744 OA
ENDBRANCH  64  65
ENDBRANCH  45  59
BRANCH  46  69
ATOM     69  C   UNL A   1      42.369  23.878  27.908  1.00  0.00    -0.014 A 
ATOM     70  C   UNL A   1      42.156  22.749  28.719  1.00  0.00     0.010 A 
ATOM     71  C   UNL A   1      42.465  23.707  26.514  1.00  0.00     0.010 A 
ATOM     72  C   UNL A   1      42.070  21.473  28.154  1.00  0.00     0.020 A 
ATOM     73  C   UNL A   1      42.352  22.436  25.943  1.00  0.00     0.020 A 
ATOM     74  C   UNL A   1      42.171  21.324  26.769  1.00  0.00     0.054 A 
BRANCH  74  75
ATOM     75  S   UNL A   1      42.023  19.662  26.054  1.00  0.00     0.124 S 
ATOM     76  O   UNL A   1      40.623  19.633  25.643  1.00  0.00    -0.237 OA
ATOM     77  O   UNL A   1      43.001  19.698  24.970  1.00  0.00    -0.237 OA
ATOM     78  O   UNL A   1      42.370  18.780  27.167  1.00  0.00    -0.744 OA
ENDBRANCH  74  75
ENDBRANCH  46  69
BRANCH  58  79
ATOM     79  C   UNL A   1      47.576  27.190  31.155  1.00  0.00    -0.014 A 
ATOM     80  C   UNL A   1      48.684  27.544  30.366  1.00  0.00     0.010 A 
ATOM     81  C   UNL A   1      47.784  26.484  32.354  1.00  0.00     0.010 A 
ATOM     82  C   UNL A   1      49.974  27.176  30.757  1.00  0.00     0.020 A 
ATOM     83  C   UNL A   1      49.073  26.139  32.763  1.00  0.00     0.020 A 
ATOM     84  C   UNL A   1      50.160  26.476  31.953  1.00  0.00     0.054 A 
BRANCH  84  85
ATOM     85  S   UNL A   1      51.848  26.055  32.465  1.00  0.00     0.124 S 
ATOM     86  O   UNL A   1      51.681  25.819  33.896  1.00  0.00    -0.237 OA
ATOM     87  O   UNL A   1      52.139  24.869  31.662  1.00  0.00    -0.237 OA
ATOM     88  O   UNL A   1      52.623  27.243  32.115  1.00  0.00    -0.744 OA
ENDBRANCH  84  85
ENDBRANCH  58  79
ENDBRANCH  32  33
ENDBRANCH  24  27
ENDBRANCH  22  23
ENDBRANCH   1  22
TORSDOF 15
ENDMDL
