MODEL 1
REMARK VINA RESULT:     -12.0      0.000      0.000
REMARK SMILES O=C(NCCCNC(=O)[C@H]1CCCCN1c1ccnc2ccccc12)c1ccc(-c2c3nc(c(-c4ccc(S(=O)(=O)[O-])cc4)c4ccc([nH]4)c(-c4ccc(S(=O)(=O)[O-])cc4)c4nc(c(-c5ccc(S(=O)(=O)[O-])cc5)c5ccc2[nH]5)C=C4)C=C3)cc1
REMARK SMILES IDX 4 1 3 2 1 3 2 4 26 6 27 7 85 8 28 9 84 10 29 11 30 12 31 13
REMARK SMILES IDX 78 14 32 15 83 16 77 17 79 18 33 19 82 20 76 21 75 22 34 24
REMARK SMILES IDX 64 25 45 26 63 27 46 28 49 29 62 30 80 31 47 32 48 33 61 35
REMARK SMILES IDX 81 36 50 37 35 38 36 39 44 40 37 41 43 42 38 43 39 44 40 45
REMARK SMILES IDX 41 46 42 47 65 48 66 49 74 50 67 51 73 52 68 53 69 54 70 55
REMARK SMILES IDX 71 56 72 57 51 58 52 59 60 60 53 61 59 62 54 63 55 64 56 65
REMARK SMILES IDX 57 66 58 67 5 68 6 69 7 70 8 71 9 73 10 74 11 75 15 76 12 77
REMARK SMILES IDX 14 78 13 79 16 80 17 81 25 82 18 83 20 84 24 85 19 86 21 87
REMARK SMILES IDX 23 88 22 89
REMARK H PARENT 3 5 79 23 49 34 7 72
REMARK Flexibility Score: inf
ROOT
ATOM      1  C   UNL A   1      33.638  28.525  27.533  1.00  0.00     0.118 C 
ENDROOT
BRANCH   1   2
ATOM      2  N   UNL A   1      33.645  29.977  27.690  1.00  0.00    -0.352 N 
ATOM      3  O   UNL A   1      34.294  31.948  28.572  1.00  0.00    -0.269 OA
ATOM      4  C   UNL A   1      34.590  30.795  28.264  1.00  0.00     0.251 C 
ATOM      5  H   UNL A   1      32.854  30.441  27.331  1.00  0.00     0.163 HD
BRANCH   4   6
ATOM      6  C   UNL A   1      35.948  30.276  28.512  1.00  0.00     0.039 A 
ATOM      7  C   UNL A   1      36.918  30.398  27.520  1.00  0.00     0.014 A 
ATOM      8  C   UNL A   1      36.275  29.695  29.741  1.00  0.00     0.014 A 
ATOM      9  C   UNL A   1      38.142  29.771  27.665  1.00  0.00     0.010 A 
ATOM     10  C   UNL A   1      37.568  29.206  29.950  1.00  0.00     0.010 A 
ATOM     11  C   UNL A   1      38.506  29.233  28.906  1.00  0.00    -0.014 A 
BRANCH  11  12
ATOM     12  C   UNL A   1      39.929  28.877  29.107  1.00  0.00     0.031 A 
ATOM     13  C   UNL A   1      40.486  27.562  28.651  1.00  0.00     0.074 A 
ATOM     14  C   UNL A   1      40.720  29.806  29.686  1.00  0.00     0.049 A 
ATOM     15  N   UNL A   1      41.712  27.122  28.753  1.00  0.00    -0.248 NA
ATOM     16  C   UNL A   1      39.559  26.616  28.008  1.00  0.00     0.031 C 
ATOM     17  C   UNL A   1      40.264  31.117  30.172  1.00  0.00     0.029 A 
ATOM     18  N   UNL A   1      42.065  29.818  29.941  1.00  0.00    -0.354 N 
ATOM     19  C   UNL A   1      41.702  25.838  28.223  1.00  0.00     0.074 A 
ATOM     20  C   UNL A   1      40.346  25.568  27.797  1.00  0.00     0.031 C 
ATOM     21  C   UNL A   1      41.315  31.822  30.604  1.00  0.00     0.029 A 
ATOM     22  C   UNL A   1      42.500  30.983  30.528  1.00  0.00     0.049 A 
ATOM     23  H   UNL A   1      42.662  29.065  29.725  1.00  0.00     0.167 HD
ATOM     24  C   UNL A   1      42.737  24.972  28.116  1.00  0.00     0.031 A 
ATOM     25  C   UNL A   1      43.710  31.327  31.003  1.00  0.00     0.031 A 
ATOM     26  C   UNL A   1      44.082  25.274  28.536  1.00  0.00     0.049 A 
ATOM     27  C   UNL A   1      44.821  30.326  30.899  1.00  0.00     0.074 A 
ATOM     28  C   UNL A   1      45.213  24.485  28.417  1.00  0.00     0.029 A 
ATOM     29  N   UNL A   1      44.475  26.445  29.167  1.00  0.00    -0.354 N 
ATOM     30  N   UNL A   1      44.803  29.139  30.340  1.00  0.00    -0.248 NA
ATOM     31  C   UNL A   1      46.105  30.700  31.500  1.00  0.00     0.031 C 
ATOM     32  C   UNL A   1      46.275  25.150  29.037  1.00  0.00     0.029 A 
ATOM     33  C   UNL A   1      45.820  26.380  29.486  1.00  0.00     0.049 A 
ATOM     34  H   UNL A   1      43.884  27.208  29.359  1.00  0.00     0.167 HD
ATOM     35  C   UNL A   1      46.076  28.621  30.526  1.00  0.00     0.074 A 
ATOM     36  C   UNL A   1      46.848  29.641  31.210  1.00  0.00     0.031 C 
ATOM     37  C   UNL A   1      46.561  27.406  30.175  1.00  0.00     0.031 A 
BRANCH  24  38
ATOM     38  C   UNL A   1      42.469  23.598  27.562  1.00  0.00    -0.014 A 
ATOM     39  C   UNL A   1      42.670  23.302  26.203  1.00  0.00     0.010 A 
ATOM     40  C   UNL A   1      42.126  22.557  28.445  1.00  0.00     0.010 A 
ATOM     41  C   UNL A   1      42.527  21.991  25.736  1.00  0.00     0.020 A 
ATOM     42  C   UNL A   1      42.002  21.243  27.988  1.00  0.00     0.020 A 
ATOM     43  C   UNL A   1      42.200  20.968  26.633  1.00  0.00     0.054 A 
BRANCH  43  44
ATOM     44  S   UNL A   1      42.098  19.265  26.014  1.00  0.00     0.124 S 
ATOM     45  O   UNL A   1      42.588  18.499  27.156  1.00  0.00    -0.237 OA
ATOM     46  O   UNL A   1      40.674  19.118  25.723  1.00  0.00    -0.237 OA
ATOM     47  O   UNL A   1      42.973  19.267  24.844  1.00  0.00    -0.744 OA
ENDBRANCH  43  44
ENDBRANCH  24  38
BRANCH  25  48
ATOM     48  C   UNL A   1      43.896  32.630  31.695  1.00  0.00    -0.014 A 
ATOM     49  C   UNL A   1      44.279  33.780  30.986  1.00  0.00     0.010 A 
ATOM     50  C   UNL A   1      43.689  32.721  33.085  1.00  0.00     0.010 A 
ATOM     51  C   UNL A   1      44.484  34.989  31.660  1.00  0.00     0.020 A 
ATOM     52  C   UNL A   1      43.854  33.934  33.756  1.00  0.00     0.020 A 
ATOM     53  C   UNL A   1      44.274  35.055  33.041  1.00  0.00     0.054 A 
BRANCH  53  54
ATOM     54  S   UNL A   1      44.536  36.633  33.896  1.00  0.00     0.124 S 
ATOM     55  O   UNL A   1      43.558  37.495  33.241  1.00  0.00    -0.237 OA
ATOM     56  O   UNL A   1      44.249  36.291  35.286  1.00  0.00    -0.237 OA
ATOM     57  O   UNL A   1      45.934  36.945  33.615  1.00  0.00    -0.744 OA
ENDBRANCH  53  54
ENDBRANCH  25  48
BRANCH  37  58
ATOM     58  C   UNL A   1      47.992  27.122  30.527  1.00  0.00    -0.014 A 
ATOM     59  C   UNL A   1      48.320  26.438  31.711  1.00  0.00     0.010 A 
ATOM     60  C   UNL A   1      49.017  27.501  29.642  1.00  0.00     0.010 A 
ATOM     61  C   UNL A   1      49.654  26.162  32.017  1.00  0.00     0.020 A 
ATOM     62  C   UNL A   1      50.349  27.199  29.930  1.00  0.00     0.020 A 
ATOM     63  C   UNL A   1      50.659  26.541  31.123  1.00  0.00     0.054 A 
BRANCH  63  64
ATOM     64  S   UNL A   1      52.377  26.121  31.519  1.00  0.00     0.124 S 
ATOM     65  O   UNL A   1      52.723  27.147  32.497  1.00  0.00    -0.237 OA
ATOM     66  O   UNL A   1      52.261  24.763  32.044  1.00  0.00    -0.237 OA
ATOM     67  O   UNL A   1      53.064  26.228  30.234  1.00  0.00    -0.744 OA
ENDBRANCH  63  64
ENDBRANCH  37  58
ENDBRANCH  11  12
ENDBRANCH   4   6
ENDBRANCH   1   2
BRANCH   1  68
ATOM     68  C   UNL A   1      33.921  28.115  26.101  1.00  0.00     0.042 C 
BRANCH  68  69
ATOM     69  C   UNL A   1      33.369  29.118  25.111  1.00  0.00     0.117 C 
BRANCH  69  70
ATOM     70  N   UNL A   1      33.819  28.848  23.759  1.00  0.00    -0.354 N 
ATOM     71  C   UNL A   1      33.459  27.979  22.787  1.00  0.00     0.242 C 
ATOM     72  H   UNL A   1      34.560  29.435  23.486  1.00  0.00     0.163 HD
ATOM     73  O   UNL A   1      34.122  28.099  21.743  1.00  0.00    -0.273 OA
BRANCH  71  74
ATOM     74  C   UNL A   1      32.331  26.903  22.879  1.00  0.00     0.171 C 
ATOM     75  C   UNL A   1      31.646  26.367  21.619  1.00  0.00     0.035 C 
ATOM     76  N   UNL A   1      32.867  25.737  23.622  1.00  0.00    -0.359 N 
ATOM     77  C   UNL A   1      32.554  25.449  20.792  1.00  0.00     0.004 C 
ATOM     78  C   UNL A   1      33.806  24.874  22.902  1.00  0.00     0.117 C 
ATOM     79  C   UNL A   1      33.130  24.324  21.647  1.00  0.00     0.022 C 
BRANCH  76  80
ATOM     80  C   UNL A   1      32.231  25.242  24.757  1.00  0.00     0.048 A 
ATOM     81  C   UNL A   1      30.901  25.575  25.022  1.00  0.00     0.046 A 
ATOM     82  C   UNL A   1      32.886  24.365  25.663  1.00  0.00     0.024 A 
ATOM     83  C   UNL A   1      30.257  24.996  26.099  1.00  0.00     0.114 A 
ATOM     84  C   UNL A   1      32.126  23.819  26.724  1.00  0.00     0.072 A 
ATOM     85  C   UNL A   1      34.261  24.038  25.580  1.00  0.00     0.012 A 
ATOM     86  N   UNL A   1      30.836  24.116  26.934  1.00  0.00    -0.256 NA
ATOM     87  C   UNL A   1      32.739  22.937  27.604  1.00  0.00     0.029 A 
ATOM     88  C   UNL A   1      34.856  23.155  26.481  1.00  0.00     0.001 A 
ATOM     89  C   UNL A   1      34.088  22.593  27.490  1.00  0.00     0.002 A 
ENDBRANCH  76  80
ENDBRANCH  71  74
ENDBRANCH  69  70
ENDBRANCH  68  69
ENDBRANCH   1  68
TORSDOF 14
ENDMDL
MODEL 2
REMARK VINA RESULT:     -11.9      1.363      2.321
REMARK SMILES O=C(NCCCNC(=O)[C@H]1CCCCN1c1ccnc2ccccc12)c1ccc(-c2c3nc(c(-c4ccc(S(=O)(=O)[O-])cc4)c4ccc([nH]4)c(-c4ccc(S(=O)(=O)[O-])cc4)c4nc(c(-c5ccc(S(=O)(=O)[O-])cc5)c5ccc2[nH]5)C=C4)C=C3)cc1
REMARK SMILES IDX 4 1 3 2 1 3 2 4 26 6 27 7 85 8 28 9 84 10 29 11 30 12 31 13
REMARK SMILES IDX 78 14 32 15 83 16 77 17 79 18 33 19 82 20 76 21 75 22 34 24
REMARK SMILES IDX 64 25 45 26 63 27 46 28 49 29 62 30 80 31 47 32 48 33 61 35
REMARK SMILES IDX 81 36 50 37 35 38 36 39 44 40 37 41 43 42 38 43 39 44 40 45
REMARK SMILES IDX 41 46 42 47 65 48 66 49 74 50 67 51 73 52 68 53 69 54 70 55
REMARK SMILES IDX 71 56 72 57 51 58 52 59 60 60 53 61 59 62 54 63 55 64 56 65
REMARK SMILES IDX 57 66 58 67 5 68 6 69 7 70 8 71 9 73 10 74 11 75 15 76 12 77
REMARK SMILES IDX 14 78 13 79 16 80 17 81 25 82 18 83 20 84 24 85 19 86 21 87
REMARK SMILES IDX 23 88 22 89
REMARK H PARENT 3 5 79 23 49 34 7 72
REMARK Flexibility Score: inf
ROOT
ATOM      1  C   UNL A   1      33.634  28.554  27.247  1.00  0.00     0.118 C 
ENDROOT
BRANCH   1   2
ATOM      2  N   UNL A   1      33.604  29.985  27.541  1.00  0.00    -0.352 N 
ATOM      3  O   UNL A   1      34.176  31.873  28.633  1.00  0.00    -0.269 OA
ATOM      4  C   UNL A   1      34.508  30.760  28.230  1.00  0.00     0.251 C 
ATOM      5  H   UNL A   1      32.821  30.468  27.192  1.00  0.00     0.163 HD
BRANCH   4   6
ATOM      6  C   UNL A   1      35.865  30.242  28.488  1.00  0.00     0.039 A 
ATOM      7  C   UNL A   1      36.844  30.370  27.505  1.00  0.00     0.014 A 
ATOM      8  C   UNL A   1      36.182  29.654  29.716  1.00  0.00     0.014 A 
ATOM      9  C   UNL A   1      38.066  29.745  27.658  1.00  0.00     0.010 A 
ATOM     10  C   UNL A   1      37.473  29.166  29.935  1.00  0.00     0.010 A 
ATOM     11  C   UNL A   1      38.421  29.200  28.899  1.00  0.00    -0.014 A 
BRANCH  11  12
ATOM     12  C   UNL A   1      39.842  28.845  29.111  1.00  0.00     0.031 A 
ATOM     13  C   UNL A   1      40.406  27.536  28.648  1.00  0.00     0.074 A 
ATOM     14  C   UNL A   1      40.625  29.770  29.707  1.00  0.00     0.049 A 
ATOM     15  N   UNL A   1      41.633  27.097  28.758  1.00  0.00    -0.248 NA
ATOM     16  C   UNL A   1      39.489  26.594  27.986  1.00  0.00     0.031 C 
ATOM     17  C   UNL A   1      40.161  31.075  30.202  1.00  0.00     0.029 A 
ATOM     18  N   UNL A   1      41.967  29.782  29.976  1.00  0.00    -0.354 N 
ATOM     19  C   UNL A   1      41.631  25.819  28.215  1.00  0.00     0.074 A 
ATOM     20  C   UNL A   1      40.280  25.550  27.773  1.00  0.00     0.031 C 
ATOM     21  C   UNL A   1      41.206  31.779  30.651  1.00  0.00     0.029 A 
ATOM     22  C   UNL A   1      42.394  30.943  30.579  1.00  0.00     0.049 A 
ATOM     23  H   UNL A   1      42.568  29.033  29.758  1.00  0.00     0.167 HD
ATOM     24  C   UNL A   1      42.669  24.957  28.110  1.00  0.00     0.031 A 
ATOM     25  C   UNL A   1      43.598  31.284  31.069  1.00  0.00     0.031 A 
ATOM     26  C   UNL A   1      44.009  25.257  28.547  1.00  0.00     0.049 A 
ATOM     27  C   UNL A   1      44.712  30.287  30.967  1.00  0.00     0.074 A 
ATOM     28  C   UNL A   1      45.143  24.472  28.431  1.00  0.00     0.029 A 
ATOM     29  N   UNL A   1      44.392  26.423  29.193  1.00  0.00    -0.354 N 
ATOM     30  N   UNL A   1      44.702  29.106  30.396  1.00  0.00    -0.248 NA
ATOM     31  C   UNL A   1      45.990  30.657  31.585  1.00  0.00     0.031 C 
ATOM     32  C   UNL A   1      46.196  25.133  29.068  1.00  0.00     0.029 A 
ATOM     33  C   UNL A   1      45.735  26.358  29.525  1.00  0.00     0.049 A 
ATOM     34  H   UNL A   1      43.798  27.183  29.386  1.00  0.00     0.167 HD
ATOM     35  C   UNL A   1      45.974  28.589  30.590  1.00  0.00     0.074 A 
ATOM     36  C   UNL A   1      46.737  29.603  31.292  1.00  0.00     0.031 C 
ATOM     37  C   UNL A   1      46.466  27.378  30.232  1.00  0.00     0.031 A 
BRANCH  24  38
ATOM     38  C   UNL A   1      42.410  23.588  27.539  1.00  0.00    -0.014 A 
ATOM     39  C   UNL A   1      42.748  23.268  26.213  1.00  0.00     0.010 A 
ATOM     40  C   UNL A   1      41.930  22.571  28.386  1.00  0.00     0.010 A 
ATOM     41  C   UNL A   1      42.605  21.959  25.743  1.00  0.00     0.020 A 
ATOM     42  C   UNL A   1      41.805  21.257  27.928  1.00  0.00     0.020 A 
ATOM     43  C   UNL A   1      42.142  20.959  26.606  1.00  0.00     0.054 A 
BRANCH  43  44
ATOM     44  S   UNL A   1      42.041  19.255  25.991  1.00  0.00     0.124 S 
ATOM     45  O   UNL A   1      42.561  18.495  27.124  1.00  0.00    -0.237 OA
ATOM     46  O   UNL A   1      40.612  19.094  25.730  1.00  0.00    -0.237 OA
ATOM     47  O   UNL A   1      42.892  19.262  24.804  1.00  0.00    -0.744 OA
ENDBRANCH  43  44
ENDBRANCH  24  38
BRANCH  25  48
ATOM     48  C   UNL A   1      43.774  32.581  31.776  1.00  0.00    -0.014 A 
ATOM     49  C   UNL A   1      43.548  32.690  33.158  1.00  0.00     0.010 A 
ATOM     50  C   UNL A   1      44.172  33.724  31.056  1.00  0.00     0.010 A 
ATOM     51  C   UNL A   1      43.685  33.926  33.799  1.00  0.00     0.020 A 
ATOM     52  C   UNL A   1      44.348  34.950  31.698  1.00  0.00     0.020 A 
ATOM     53  C   UNL A   1      44.080  35.048  33.063  1.00  0.00     0.054 A 
BRANCH  53  54
ATOM     54  S   UNL A   1      44.260  36.639  33.914  1.00  0.00     0.124 S 
ATOM     55  O   UNL A   1      43.694  36.344  35.225  1.00  0.00    -0.237 OA
ATOM     56  O   UNL A   1      45.704  36.855  33.880  1.00  0.00    -0.237 OA
ATOM     57  O   UNL A   1      43.481  37.558  33.087  1.00  0.00    -0.744 OA
ENDBRANCH  53  54
ENDBRANCH  25  48
BRANCH  37  58
ATOM     58  C   UNL A   1      47.895  27.093  30.596  1.00  0.00    -0.014 A 
ATOM     59  C   UNL A   1      48.948  27.542  29.779  1.00  0.00     0.010 A 
ATOM     60  C   UNL A   1      48.188  26.411  31.790  1.00  0.00     0.010 A 
ATOM     61  C   UNL A   1      50.273  27.288  30.139  1.00  0.00     0.020 A 
ATOM     62  C   UNL A   1      49.512  26.184  32.168  1.00  0.00     0.020 A 
ATOM     63  C   UNL A   1      50.546  26.614  31.333  1.00  0.00     0.054 A 
BRANCH  63  64
ATOM     64  S   UNL A   1      52.276  26.347  31.803  1.00  0.00     0.124 S 
ATOM     65  O   UNL A   1      52.967  26.516  30.528  1.00  0.00    -0.237 OA
ATOM     66  O   UNL A   1      52.506  27.401  32.788  1.00  0.00    -0.237 OA
ATOM     67  O   UNL A   1      52.283  24.988  32.339  1.00  0.00    -0.744 OA
ENDBRANCH  63  64
ENDBRANCH  37  58
ENDBRANCH  11  12
ENDBRANCH   4   6
ENDBRANCH   1   2
BRANCH   1  68
ATOM     68  C   UNL A   1      34.096  28.283  25.828  1.00  0.00     0.042 C 
BRANCH  68  69
ATOM     69  C   UNL A   1      32.958  27.810  24.949  1.00  0.00     0.117 C 
BRANCH  69  70
ATOM     70  N   UNL A   1      33.416  26.912  23.908  1.00  0.00    -0.354 N 
ATOM     71  C   UNL A   1      33.758  25.603  23.856  1.00  0.00     0.242 C 
ATOM     72  H   UNL A   1      33.499  27.358  23.035  1.00  0.00     0.163 HD
ATOM     73  O   UNL A   1      34.095  25.223  22.722  1.00  0.00    -0.273 OA
BRANCH  71  74
ATOM     74  C   UNL A   1      33.753  24.597  25.049  1.00  0.00     0.171 C 
ATOM     75  C   UNL A   1      32.783  24.766  26.222  1.00  0.00     0.035 C 
ATOM     76  N   UNL A   1      33.549  23.234  24.501  1.00  0.00    -0.359 N 
ATOM     77  C   UNL A   1      31.332  24.443  25.847  1.00  0.00     0.004 C 
ATOM     78  C   UNL A   1      32.196  22.902  24.050  1.00  0.00     0.117 C 
ATOM     79  C   UNL A   1      31.221  23.058  25.215  1.00  0.00     0.022 C 
BRANCH  76  80
ATOM     80  C   UNL A   1      34.444  22.202  24.768  1.00  0.00     0.048 A 
ATOM     81  C   UNL A   1      34.054  20.871  24.608  1.00  0.00     0.046 A 
ATOM     82  C   UNL A   1      35.782  22.453  25.177  1.00  0.00     0.024 A 
ATOM     83  C   UNL A   1      34.983  19.864  24.782  1.00  0.00     0.114 A 
ATOM     84  C   UNL A   1      36.654  21.347  25.312  1.00  0.00     0.072 A 
ATOM     85  C   UNL A   1      36.276  23.742  25.489  1.00  0.00     0.012 A 
ATOM     86  N   UNL A   1      36.269  20.079  25.107  1.00  0.00    -0.256 NA
ATOM     87  C   UNL A   1      37.972  21.573  25.682  1.00  0.00     0.029 A 
ATOM     88  C   UNL A   1      37.603  23.943  25.867  1.00  0.00     0.001 A 
ATOM     89  C   UNL A   1      38.458  22.854  25.952  1.00  0.00     0.002 A 
ENDBRANCH  76  80
ENDBRANCH  71  74
ENDBRANCH  69  70
ENDBRANCH  68  69
ENDBRANCH   1  68
TORSDOF 14
ENDMDL
MODEL 3
REMARK VINA RESULT:     -11.7      2.732      9.101
REMARK SMILES O=C(NCCCNC(=O)[C@H]1CCCCN1c1ccnc2ccccc12)c1ccc(-c2c3nc(c(-c4ccc(S(=O)(=O)[O-])cc4)c4ccc([nH]4)c(-c4ccc(S(=O)(=O)[O-])cc4)c4nc(c(-c5ccc(S(=O)(=O)[O-])cc5)c5ccc2[nH]5)C=C4)C=C3)cc1
REMARK SMILES IDX 4 1 3 2 1 3 2 4 26 6 27 7 85 8 28 9 84 10 29 11 30 12 31 13
REMARK SMILES IDX 78 14 32 15 83 16 77 17 79 18 33 19 82 20 76 21 75 22 34 24
REMARK SMILES IDX 64 25 45 26 63 27 46 28 49 29 62 30 80 31 47 32 48 33 61 35
REMARK SMILES IDX 81 36 50 37 35 38 36 39 44 40 37 41 43 42 38 43 39 44 40 45
REMARK SMILES IDX 41 46 42 47 65 48 66 49 74 50 67 51 73 52 68 53 69 54 70 55
REMARK SMILES IDX 71 56 72 57 51 58 52 59 60 60 53 61 59 62 54 63 55 64 56 65
REMARK SMILES IDX 57 66 58 67 5 68 6 69 7 70 8 71 9 73 10 74 11 75 15 76 12 77
REMARK SMILES IDX 14 78 13 79 16 80 17 81 25 82 18 83 20 84 24 85 19 86 21 87
REMARK SMILES IDX 23 88 22 89
REMARK H PARENT 3 5 79 23 49 34 7 72
REMARK Flexibility Score: inf
ROOT
ATOM      1  C   UNL A   1      37.265  23.719  24.993  1.00  0.00     0.118 C 
ENDROOT
BRANCH   1   2
ATOM      2  N   UNL A   1      38.219  22.711  25.450  1.00  0.00    -0.352 N 
ATOM      3  O   UNL A   1      40.215  21.941  26.159  1.00  0.00    -0.269 OA
ATOM      4  C   UNL A   1      39.408  22.868  26.122  1.00  0.00     0.251 C 
ATOM      5  H   UNL A   1      37.973  21.780  25.247  1.00  0.00     0.163 HD
BRANCH   4   6
ATOM      6  C   UNL A   1      39.708  24.152  26.784  1.00  0.00     0.039 A 
ATOM      7  C   UNL A   1      39.319  24.346  28.107  1.00  0.00     0.014 A 
ATOM      8  C   UNL A   1      40.403  25.158  26.106  1.00  0.00     0.014 A 
ATOM      9  C   UNL A   1      39.437  25.593  28.690  1.00  0.00     0.010 A 
ATOM     10  C   UNL A   1      40.670  26.368  26.753  1.00  0.00     0.010 A 
ATOM     11  C   UNL A   1      40.178  26.595  28.048  1.00  0.00    -0.014 A 
BRANCH  11  12
ATOM     12  C   UNL A   1      40.555  27.785  28.844  1.00  0.00     0.031 A 
ATOM     13  C   UNL A   1      39.597  28.914  29.078  1.00  0.00     0.074 A 
ATOM     14  C   UNL A   1      41.790  27.794  29.388  1.00  0.00     0.049 A 
ATOM     15  N   UNL A   1      39.789  30.011  29.761  1.00  0.00    -0.248 NA
ATOM     16  C   UNL A   1      38.261  28.813  28.467  1.00  0.00     0.031 C 
ATOM     17  C   UNL A   1      42.800  26.740  29.208  1.00  0.00     0.029 A 
ATOM     18  N   UNL A   1      42.407  28.691  30.219  1.00  0.00    -0.354 N 
ATOM     19  C   UNL A   1      38.618  30.748  29.637  1.00  0.00     0.074 A 
ATOM     20  C   UNL A   1      37.717  29.973  28.812  1.00  0.00     0.031 C 
ATOM     21  C   UNL A   1      43.874  27.019  29.954  1.00  0.00     0.029 A 
ATOM     22  C   UNL A   1      43.681  28.318  30.579  1.00  0.00     0.049 A 
ATOM     23  H   UNL A   1      41.979  29.522  30.529  1.00  0.00     0.167 HD
ATOM     24  C   UNL A   1      38.339  31.964  30.163  1.00  0.00     0.031 A 
ATOM     25  C   UNL A   1      44.616  28.968  31.293  1.00  0.00     0.031 A 
ATOM     26  C   UNL A   1      39.251  32.708  30.993  1.00  0.00     0.049 A 
ATOM     27  C   UNL A   1      44.281  30.328  31.826  1.00  0.00     0.074 A 
ATOM     28  C   UNL A   1      39.040  33.923  31.622  1.00  0.00     0.029 A 
ATOM     29  N   UNL A   1      40.547  32.319  31.298  1.00  0.00    -0.354 N 
ATOM     30  N   UNL A   1      43.145  30.980  31.745  1.00  0.00    -0.248 NA
ATOM     31  C   UNL A   1      45.350  31.044  32.528  1.00  0.00     0.031 C 
ATOM     32  C   UNL A   1      40.230  34.301  32.249  1.00  0.00     0.029 A 
ATOM     33  C   UNL A   1      41.164  33.293  32.065  1.00  0.00     0.049 A 
ATOM     34  H   UNL A   1      40.966  31.476  31.010  1.00  0.00     0.167 HD
ATOM     35  C   UNL A   1      43.366  32.190  32.387  1.00  0.00     0.074 A 
ATOM     36  C   UNL A   1      44.728  32.159  32.885  1.00  0.00     0.031 C 
ATOM     37  C   UNL A   1      42.523  33.240  32.539  1.00  0.00     0.031 A 
BRANCH  24  38
ATOM     38  C   UNL A   1      37.014  32.600  29.835  1.00  0.00    -0.014 A 
ATOM     39  C   UNL A   1      35.914  32.495  30.702  1.00  0.00     0.010 A 
ATOM     40  C   UNL A   1      36.910  33.418  28.694  1.00  0.00     0.010 A 
ATOM     41  C   UNL A   1      34.732  33.192  30.432  1.00  0.00     0.020 A 
ATOM     42  C   UNL A   1      35.738  34.133  28.430  1.00  0.00     0.020 A 
ATOM     43  C   UNL A   1      34.654  34.013  29.301  1.00  0.00     0.054 A 
BRANCH  43  44
ATOM     44  S   UNL A   1      33.135  34.965  29.018  1.00  0.00     0.124 S 
ATOM     45  O   UNL A   1      32.533  34.974  30.348  1.00  0.00    -0.237 OA
ATOM     46  O   UNL A   1      33.648  36.252  28.552  1.00  0.00    -0.237 OA
ATOM     47  O   UNL A   1      32.416  34.184  28.015  1.00  0.00    -0.744 OA
ENDBRANCH  43  44
ENDBRANCH  24  38
BRANCH  25  48
ATOM     48  C   UNL A   1      45.972  28.379  31.455  1.00  0.00    -0.014 A 
ATOM     49  C   UNL A   1      46.993  28.641  30.527  1.00  0.00     0.010 A 
ATOM     50  C   UNL A   1      46.246  27.542  32.554  1.00  0.00     0.010 A 
ATOM     51  C   UNL A   1      48.252  28.050  30.677  1.00  0.00     0.020 A 
ATOM     52  C   UNL A   1      47.512  26.981  32.729  1.00  0.00     0.020 A 
ATOM     53  C   UNL A   1      48.501  27.221  31.775  1.00  0.00     0.054 A 
BRANCH  53  54
ATOM     54  S   UNL A   1      50.141  26.471  31.958  1.00  0.00     0.124 S 
ATOM     55  O   UNL A   1      50.949  27.297  31.067  1.00  0.00    -0.237 OA
ATOM     56  O   UNL A   1      50.406  26.631  33.385  1.00  0.00    -0.237 OA
ATOM     57  O   UNL A   1      49.936  25.092  31.521  1.00  0.00    -0.744 OA
ENDBRANCH  53  54
ENDBRANCH  25  48
BRANCH  37  58
ATOM     58  C   UNL A   1      43.056  34.434  33.276  1.00  0.00    -0.014 A 
ATOM     59  C   UNL A   1      43.028  34.485  34.681  1.00  0.00     0.010 A 
ATOM     60  C   UNL A   1      43.634  35.496  32.557  1.00  0.00     0.010 A 
ATOM     61  C   UNL A   1      43.546  35.592  35.354  1.00  0.00     0.020 A 
ATOM     62  C   UNL A   1      44.181  36.590  33.230  1.00  0.00     0.020 A 
ATOM     63  C   UNL A   1      44.122  36.636  34.625  1.00  0.00     0.054 A 
BRANCH  63  64
ATOM     64  S   UNL A   1      44.836  38.036  35.528  1.00  0.00     0.124 S 
ATOM     65  O   UNL A   1      43.963  38.122  36.694  1.00  0.00    -0.237 OA
ATOM     66  O   UNL A   1      46.199  37.583  35.793  1.00  0.00    -0.237 OA
ATOM     67  O   UNL A   1      44.728  39.147  34.585  1.00  0.00    -0.744 OA
ENDBRANCH  63  64
ENDBRANCH  37  58
ENDBRANCH  11  12
ENDBRANCH   4   6
ENDBRANCH   1   2
BRANCH   1  68
ATOM     68  C   UNL A   1      36.003  23.719  25.834  1.00  0.00     0.042 C 
BRANCH  68  69
ATOM     69  C   UNL A   1      35.603  22.318  26.244  1.00  0.00     0.117 C 
BRANCH  69  70
ATOM     70  N   UNL A   1      34.560  22.327  27.252  1.00  0.00    -0.354 N 
ATOM     71  C   UNL A   1      33.213  22.454  27.233  1.00  0.00     0.242 C 
ATOM     72  H   UNL A   1      34.916  22.214  28.162  1.00  0.00     0.163 HD
ATOM     73  O   UNL A   1      32.693  22.392  28.359  1.00  0.00    -0.273 OA
BRANCH  71  74
ATOM     74  C   UNL A   1      32.321  22.655  25.968  1.00  0.00     0.171 C 
ATOM     75  C   UNL A   1      30.843  22.257  25.972  1.00  0.00     0.035 C 
ATOM     76  N   UNL A   1      32.392  24.084  25.577  1.00  0.00    -0.359 N 
ATOM     77  C   UNL A   1      29.975  23.193  26.823  1.00  0.00     0.004 C 
ATOM     78  C   UNL A   1      31.647  25.031  26.409  1.00  0.00     0.117 C 
ATOM     79  C   UNL A   1      30.168  24.650  26.413  1.00  0.00     0.022 C 
BRANCH  76  80
ATOM     80  C   UNL A   1      32.778  24.470  24.296  1.00  0.00     0.048 A 
ATOM     81  C   UNL A   1      32.747  23.553  23.244  1.00  0.00     0.046 A 
ATOM     82  C   UNL A   1      33.180  25.800  24.001  1.00  0.00     0.024 A 
ATOM     83  C   UNL A   1      33.038  23.978  21.962  1.00  0.00     0.114 A 
ATOM     84  C   UNL A   1      33.442  26.131  22.651  1.00  0.00     0.072 A 
ATOM     85  C   UNL A   1      33.368  26.798  24.988  1.00  0.00     0.012 A 
ATOM     86  N   UNL A   1      33.361  25.245  21.648  1.00  0.00    -0.256 NA
ATOM     87  C   UNL A   1      33.808  27.432  22.337  1.00  0.00     0.029 A 
ATOM     88  C   UNL A   1      33.745  28.097  24.648  1.00  0.00     0.001 A 
ATOM     89  C   UNL A   1      33.955  28.418  23.316  1.00  0.00     0.002 A 
ENDBRANCH  76  80
ENDBRANCH  71  74
ENDBRANCH  69  70
ENDBRANCH  68  69
ENDBRANCH   1  68
TORSDOF 14
ENDMDL
