MODEL 1
REMARK VINA RESULT:     -11.4      0.000      0.000
REMARK SMILES CC[C@H](C(=O)NCCCNC(=O)c1ccc(-c2c3nc(c(-c4ccc(S(=O)(=O)[O-])cc4)c4ccc([nH]4)c(-c4ccc(S(=O)(=O)[O-])cc4)c4nc(c(-c5ccc(S(=O)(=O)[O-])cc5)c5ccc2[nH]5)C=C4)C=C3)cc1)N1C(=O)c2ccc([N+](=O)[O-])cc2C1=O
REMARK SMILES IDX 8 1 7 2 6 3 4 4 5 5 3 7 2 8 1 9 73 10 74 11 85 12 75 13
REMARK SMILES IDX 76 14 84 15 86 16 77 17 83 18 78 19 79 20 80 21 81 22 82 23
REMARK SMILES IDX 9 24 10 25 11 26 12 28 13 29 14 30 72 31 15 32 71 33 16 34
REMARK SMILES IDX 17 35 18 36 65 37 19 38 70 39 64 40 66 41 20 42 69 43 63 44
REMARK SMILES IDX 62 45 21 47 51 48 32 49 50 50 33 51 36 52 49 53 67 54 34 55
REMARK SMILES IDX 35 56 48 58 68 59 37 60 22 61 23 62 31 63 24 64 30 65 25 66
REMARK SMILES IDX 26 67 27 68 28 69 29 70 52 71 53 72 61 73 54 74 60 75 55 76
REMARK SMILES IDX 56 77 57 78 58 79 59 80 38 81 39 82 47 83 40 84 46 85 41 86
REMARK SMILES IDX 42 87 43 88 44 89 45 90
REMARK H PARENT 6 6 10 27 66 46 36 57
REMARK Flexibility Score: inf
ROOT
ATOM      1  C   UNL A   1      33.336  27.838  26.841  1.00  0.00     0.042 C 
ENDROOT
BRANCH   1   2
ATOM      2  C   UNL A   1      33.431  26.545  26.052  1.00  0.00     0.117 C 
BRANCH   2   3
ATOM      3  N   UNL A   1      32.179  25.805  26.039  1.00  0.00    -0.354 N 
ATOM      4  C   UNL A   1      31.376  25.455  24.992  1.00  0.00     0.243 C 
ATOM      5  O   UNL A   1      30.544  24.564  25.194  1.00  0.00    -0.273 OA
ATOM      6  H   UNL A   1      31.861  25.510  26.923  1.00  0.00     0.163 HD
BRANCH   4   7
ATOM      7  C   UNL A   1      31.553  26.041  23.573  1.00  0.00     0.183 C 
BRANCH   7   8
ATOM      8  C   UNL A   1      31.662  25.079  22.378  1.00  0.00     0.032 C 
ATOM      9  C   UNL A   1      32.949  24.262  22.348  1.00  0.00     0.006 C 
ENDBRANCH   7   8
BRANCH   7  10
ATOM     10  N   UNL A   1      30.644  27.176  23.347  1.00  0.00    -0.262 N 
ATOM     11  C   UNL A   1      29.284  27.160  23.460  1.00  0.00     0.262 C 
ATOM     12  C   UNL A   1      31.073  28.382  22.851  1.00  0.00     0.262 C 
ATOM     13  O   UNL A   1      28.505  26.286  23.791  1.00  0.00    -0.269 OA
ATOM     14  C   UNL A   1      28.799  28.478  23.093  1.00  0.00     0.053 A 
ATOM     15  C   UNL A   1      29.886  29.227  22.694  1.00  0.00     0.060 A 
ATOM     16  O   UNL A   1      32.192  28.740  22.547  1.00  0.00    -0.269 OA
ATOM     17  C   UNL A   1      27.506  28.970  23.097  1.00  0.00     0.022 A 
ATOM     18  C   UNL A   1      29.742  30.522  22.236  1.00  0.00     0.100 A 
ATOM     19  C   UNL A   1      27.324  30.281  22.657  1.00  0.00     0.086 A 
ATOM     20  C   UNL A   1      28.435  31.044  22.219  1.00  0.00     0.270 A 
BRANCH  20  21
ATOM     21  N   UNL A   1      28.208  32.408  21.728  1.00  0.00     0.062 N 
ATOM     22  O   UNL A   1      27.917  32.547  20.532  1.00  0.00    -0.258 OA
ATOM     23  O   UNL A   1      28.324  33.335  22.539  1.00  0.00    -0.258 OA
ENDBRANCH  20  21
ENDBRANCH   7  10
ENDBRANCH   4   7
ENDBRANCH   2   3
ENDBRANCH   1   2
BRANCH   1  24
ATOM     24  C   UNL A   1      33.975  29.004  26.100  1.00  0.00     0.118 C 
BRANCH  24  25
ATOM     25  N   UNL A   1      33.810  30.265  26.817  1.00  0.00    -0.352 N 
ATOM     26  C   UNL A   1      34.575  30.821  27.813  1.00  0.00     0.251 C 
ATOM     27  H   UNL A   1      33.030  30.800  26.545  1.00  0.00     0.163 HD
ATOM     28  O   UNL A   1      34.146  31.779  28.450  1.00  0.00    -0.269 OA
BRANCH  26  29
ATOM     29  C   UNL A   1      35.903  30.255  28.125  1.00  0.00     0.039 A 
ATOM     30  C   UNL A   1      36.917  30.324  27.167  1.00  0.00     0.014 A 
ATOM     31  C   UNL A   1      36.146  29.652  29.361  1.00  0.00     0.014 A 
ATOM     32  C   UNL A   1      38.194  29.854  27.480  1.00  0.00     0.010 A 
ATOM     33  C   UNL A   1      37.437  29.276  29.706  1.00  0.00     0.010 A 
ATOM     34  C   UNL A   1      38.474  29.363  28.766  1.00  0.00    -0.014 A 
BRANCH  34  35
ATOM     35  C   UNL A   1      39.840  28.928  29.152  1.00  0.00     0.031 A 
ATOM     36  C   UNL A   1      40.765  29.890  29.848  1.00  0.00     0.074 A 
ATOM     37  C   UNL A   1      40.271  27.699  28.806  1.00  0.00     0.049 A 
ATOM     38  N   UNL A   1      42.017  29.727  30.189  1.00  0.00    -0.248 NA
ATOM     39  C   UNL A   1      40.223  31.221  30.175  1.00  0.00     0.031 C 
ATOM     40  C   UNL A   1      39.485  26.695  28.084  1.00  0.00     0.029 A 
ATOM     41  N   UNL A   1      41.481  27.087  29.009  1.00  0.00    -0.354 N 
ATOM     42  C   UNL A   1      42.418  30.937  30.745  1.00  0.00     0.074 A 
ATOM     43  C   UNL A   1      41.294  31.840  30.648  1.00  0.00     0.031 C 
ATOM     44  C   UNL A   1      40.223  25.584  27.933  1.00  0.00     0.029 A 
ATOM     45  C   UNL A   1      41.546  25.809  28.506  1.00  0.00     0.049 A 
ATOM     46  H   UNL A   1      42.235  27.522  29.471  1.00  0.00     0.167 HD
ATOM     47  C   UNL A   1      43.608  31.260  31.305  1.00  0.00     0.031 A 
ATOM     48  C   UNL A   1      42.557  24.920  28.502  1.00  0.00     0.031 A 
ATOM     49  C   UNL A   1      44.715  30.350  31.420  1.00  0.00     0.049 A 
ATOM     50  C   UNL A   1      43.865  25.299  29.139  1.00  0.00     0.074 A 
ATOM     51  C   UNL A   1      45.939  30.558  32.030  1.00  0.00     0.029 A 
ATOM     52  N   UNL A   1      44.731  29.058  30.918  1.00  0.00    -0.354 N 
ATOM     53  N   UNL A   1      44.203  26.426  29.719  1.00  0.00    -0.248 NA
ATOM     54  C   UNL A   1      44.925  24.281  29.131  1.00  0.00     0.031 C 
ATOM     55  C   UNL A   1      46.714  29.406  31.857  1.00  0.00     0.029 A 
ATOM     56  C   UNL A   1      45.952  28.463  31.184  1.00  0.00     0.049 A 
ATOM     57  H   UNL A   1      43.984  28.628  30.443  1.00  0.00     0.167 HD
ATOM     58  C   UNL A   1      45.508  26.246  30.163  1.00  0.00     0.074 A 
ATOM     59  C   UNL A   1      45.890  24.896  29.801  1.00  0.00     0.031 C 
ATOM     60  C   UNL A   1      46.316  27.120  30.813  1.00  0.00     0.031 A 
BRANCH  47  61
ATOM     61  C   UNL A   1      43.768  32.661  31.836  1.00  0.00    -0.014 A 
ATOM     62  C   UNL A   1      44.189  33.711  31.000  1.00  0.00     0.010 A 
ATOM     63  C   UNL A   1      43.466  32.938  33.182  1.00  0.00     0.010 A 
ATOM     64  C   UNL A   1      44.349  35.002  31.510  1.00  0.00     0.020 A 
ATOM     65  C   UNL A   1      43.597  34.234  33.689  1.00  0.00     0.020 A 
ATOM     66  C   UNL A   1      44.056  35.254  32.852  1.00  0.00     0.054 A 
BRANCH  66  67
ATOM     67  S   UNL A   1      44.254  36.944  33.483  1.00  0.00     0.124 S 
ATOM     68  O   UNL A   1      42.911  37.239  33.977  1.00  0.00    -0.237 OA
ATOM     69  O   UNL A   1      45.279  36.785  34.511  1.00  0.00    -0.237 OA
ATOM     70  O   UNL A   1      44.667  37.707  32.308  1.00  0.00    -0.744 OA
ENDBRANCH  66  67
ENDBRANCH  47  61
BRANCH  48  71
ATOM     71  C   UNL A   1      42.363  23.578  27.888  1.00  0.00    -0.014 A 
ATOM     72  C   UNL A   1      42.588  23.386  26.513  1.00  0.00     0.010 A 
ATOM     73  C   UNL A   1      41.974  22.481  28.677  1.00  0.00     0.010 A 
ATOM     74  C   UNL A   1      42.412  22.125  25.937  1.00  0.00     0.020 A 
ATOM     75  C   UNL A   1      41.823  21.213  28.110  1.00  0.00     0.020 A 
ATOM     76  C   UNL A   1      42.033  21.045  26.740  1.00  0.00     0.054 A 
BRANCH  76  77
ATOM     77  S   UNL A   1      41.867  19.405  25.981  1.00  0.00     0.124 S 
ATOM     78  O   UNL A   1      40.436  19.344  25.700  1.00  0.00    -0.237 OA
ATOM     79  O   UNL A   1      42.738  19.507  24.813  1.00  0.00    -0.237 OA
ATOM     80  O   UNL A   1      42.341  18.497  27.024  1.00  0.00    -0.744 OA
ENDBRANCH  76  77
ENDBRANCH  48  71
BRANCH  60  81
ATOM     81  C   UNL A   1      47.688  26.636  31.195  1.00  0.00    -0.014 A 
ATOM     82  C   UNL A   1      48.781  26.792  30.325  1.00  0.00     0.010 A 
ATOM     83  C   UNL A   1      47.894  26.064  32.464  1.00  0.00     0.010 A 
ATOM     84  C   UNL A   1      50.053  26.359  30.708  1.00  0.00     0.020 A 
ATOM     85  C   UNL A   1      49.169  25.655  32.860  1.00  0.00     0.020 A 
ATOM     86  C   UNL A   1      50.239  25.792  31.973  1.00  0.00     0.054 A 
BRANCH  86  87
ATOM     87  S   UNL A   1      51.907  25.278  32.463  1.00  0.00     0.124 S 
ATOM     88  O   UNL A   1      52.739  25.973  31.484  1.00  0.00    -0.237 OA
ATOM     89  O   UNL A   1      52.005  25.771  33.835  1.00  0.00    -0.237 OA
ATOM     90  O   UNL A   1      51.874  23.822  32.331  1.00  0.00    -0.744 OA
ENDBRANCH  86  87
ENDBRANCH  60  81
ENDBRANCH  34  35
ENDBRANCH  26  29
ENDBRANCH  24  25
ENDBRANCH   1  24
TORSDOF 16
ENDMDL
MODEL 2
REMARK VINA RESULT:     -11.3      2.458      2.997
REMARK SMILES CC[C@H](C(=O)NCCCNC(=O)c1ccc(-c2c3nc(c(-c4ccc(S(=O)(=O)[O-])cc4)c4ccc([nH]4)c(-c4ccc(S(=O)(=O)[O-])cc4)c4nc(c(-c5ccc(S(=O)(=O)[O-])cc5)c5ccc2[nH]5)C=C4)C=C3)cc1)N1C(=O)c2ccc([N+](=O)[O-])cc2C1=O
REMARK SMILES IDX 8 1 7 2 6 3 4 4 5 5 3 7 2 8 1 9 73 10 74 11 85 12 75 13
REMARK SMILES IDX 76 14 84 15 86 16 77 17 83 18 78 19 79 20 80 21 81 22 82 23
REMARK SMILES IDX 9 24 10 25 11 26 12 28 13 29 14 30 72 31 15 32 71 33 16 34
REMARK SMILES IDX 17 35 18 36 65 37 19 38 70 39 64 40 66 41 20 42 69 43 63 44
REMARK SMILES IDX 62 45 21 47 51 48 32 49 50 50 33 51 36 52 49 53 67 54 34 55
REMARK SMILES IDX 35 56 48 58 68 59 37 60 22 61 23 62 31 63 24 64 30 65 25 66
REMARK SMILES IDX 26 67 27 68 28 69 29 70 52 71 53 72 61 73 54 74 60 75 55 76
REMARK SMILES IDX 56 77 57 78 58 79 59 80 38 81 39 82 47 83 40 84 46 85 41 86
REMARK SMILES IDX 42 87 43 88 44 89 45 90
REMARK H PARENT 6 6 10 27 66 46 36 57
REMARK Flexibility Score: inf
ROOT
ATOM      1  C   UNL A   1      32.864  28.307  26.720  1.00  0.00     0.042 C 
ENDROOT
BRANCH   1   2
ATOM      2  C   UNL A   1      33.163  26.891  26.262  1.00  0.00     0.117 C 
BRANCH   2   3
ATOM      3  N   UNL A   1      31.970  26.061  26.197  1.00  0.00    -0.354 N 
ATOM      4  C   UNL A   1      31.240  25.657  25.117  1.00  0.00     0.243 C 
ATOM      5  O   UNL A   1      30.468  24.706  25.284  1.00  0.00    -0.273 OA
ATOM      6  H   UNL A   1      31.638  25.741  27.066  1.00  0.00     0.163 HD
BRANCH   4   7
ATOM      7  C   UNL A   1      31.432  26.258  23.707  1.00  0.00     0.183 C 
BRANCH   7   8
ATOM      8  C   UNL A   1      31.513  25.312  22.497  1.00  0.00     0.032 C 
ATOM      9  C   UNL A   1      32.724  24.386  22.508  1.00  0.00     0.006 C 
ENDBRANCH   7   8
BRANCH   7  10
ATOM     10  N   UNL A   1      30.556  27.422  23.498  1.00  0.00    -0.262 N 
ATOM     11  C   UNL A   1      29.192  27.411  23.447  1.00  0.00     0.262 C 
ATOM     12  C   UNL A   1      31.040  28.669  23.191  1.00  0.00     0.262 C 
ATOM     13  O   UNL A   1      28.380  26.516  23.587  1.00  0.00    -0.269 OA
ATOM     14  C   UNL A   1      28.753  28.766  23.170  1.00  0.00     0.053 A 
ATOM     15  C   UNL A   1      29.880  29.540  22.986  1.00  0.00     0.060 A 
ATOM     16  O   UNL A   1      32.188  29.044  23.061  1.00  0.00    -0.269 OA
ATOM     17  C   UNL A   1      27.469  29.270  23.074  1.00  0.00     0.022 A 
ATOM     18  C   UNL A   1      29.791  30.879  22.656  1.00  0.00     0.100 A 
ATOM     19  C   UNL A   1      27.339  30.623  22.759  1.00  0.00     0.086 A 
ATOM     20  C   UNL A   1      28.495  31.415  22.541  1.00  0.00     0.270 A 
BRANCH  20  21
ATOM     21  N   UNL A   1      28.327  32.827  22.176  1.00  0.00     0.062 N 
ATOM     22  O   UNL A   1      27.760  33.079  21.105  1.00  0.00    -0.258 OA
ATOM     23  O   UNL A   1      28.764  33.677  22.963  1.00  0.00    -0.258 OA
ENDBRANCH  20  21
ENDBRANCH   7  10
ENDBRANCH   4   7
ENDBRANCH   2   3
ENDBRANCH   1   2
BRANCH   1  24
ATOM     24  C   UNL A   1      33.868  29.307  26.163  1.00  0.00     0.118 C 
BRANCH  24  25
ATOM     25  N   UNL A   1      33.633  30.657  26.668  1.00  0.00    -0.352 N 
ATOM     26  C   UNL A   1      34.261  31.344  27.677  1.00  0.00     0.251 C 
ATOM     27  H   UNL A   1      32.913  31.152  26.213  1.00  0.00     0.163 HD
ATOM     28  O   UNL A   1      33.769  32.384  28.106  1.00  0.00    -0.269 OA
BRANCH  26  29
ATOM     29  C   UNL A   1      35.517  30.822  28.254  1.00  0.00     0.039 A 
ATOM     30  C   UNL A   1      36.722  31.461  27.957  1.00  0.00     0.014 A 
ATOM     31  C   UNL A   1      35.504  29.699  29.084  1.00  0.00     0.014 A 
ATOM     32  C   UNL A   1      37.903  31.017  28.554  1.00  0.00     0.010 A 
ATOM     33  C   UNL A   1      36.661  29.320  29.752  1.00  0.00     0.010 A 
ATOM     34  C   UNL A   1      37.875  29.967  29.488  1.00  0.00    -0.014 A 
BRANCH  34  35
ATOM     35  C   UNL A   1      39.102  29.524  30.196  1.00  0.00     0.031 A 
ATOM     36  C   UNL A   1      39.542  30.230  31.450  1.00  0.00     0.074 A 
ATOM     37  C   UNL A   1      39.859  28.542  29.667  1.00  0.00     0.049 A 
ATOM     38  N   UNL A   1      40.623  30.046  32.162  1.00  0.00    -0.248 NA
ATOM     39  C   UNL A   1      38.668  31.305  31.953  1.00  0.00     0.031 C 
ATOM     40  C   UNL A   1      39.565  27.817  28.428  1.00  0.00     0.029 A 
ATOM     41  N   UNL A   1      41.036  27.989  30.102  1.00  0.00    -0.354 N 
ATOM     42  C   UNL A   1      40.573  30.995  33.178  1.00  0.00     0.074 A 
ATOM     43  C   UNL A   1      39.382  31.785  32.960  1.00  0.00     0.031 C 
ATOM     44  C   UNL A   1      40.520  26.896  28.221  1.00  0.00     0.029 A 
ATOM     45  C   UNL A   1      41.515  26.992  29.284  1.00  0.00     0.049 A 
ATOM     46  H   UNL A   1      41.498  28.279  30.923  1.00  0.00     0.167 HD
ATOM     47  C   UNL A   1      41.428  31.178  34.211  1.00  0.00     0.031 A 
ATOM     48  C   UNL A   1      42.629  26.244  29.377  1.00  0.00     0.031 A 
ATOM     49  C   UNL A   1      42.598  30.373  34.437  1.00  0.00     0.049 A 
ATOM     50  C   UNL A   1      43.559  26.458  30.539  1.00  0.00     0.074 A 
ATOM     51  C   UNL A   1      43.493  30.433  35.491  1.00  0.00     0.029 A 
ATOM     52  N   UNL A   1      43.034  29.359  33.598  1.00  0.00    -0.354 N 
ATOM     53  N   UNL A   1      43.459  27.317  31.526  1.00  0.00    -0.248 NA
ATOM     54  C   UNL A   1      44.747  25.595  30.606  1.00  0.00     0.031 C 
ATOM     55  C   UNL A   1      44.496  29.485  35.265  1.00  0.00     0.029 A 
ATOM     56  C   UNL A   1      44.197  28.800  34.097  1.00  0.00     0.049 A 
ATOM     57  H   UNL A   1      42.582  29.079  32.770  1.00  0.00     0.167 HD
ATOM     58  C   UNL A   1      44.559  27.084  32.342  1.00  0.00     0.074 A 
ATOM     59  C   UNL A   1      45.300  25.992  31.744  1.00  0.00     0.031 C 
ATOM     60  C   UNL A   1      44.923  27.716  33.485  1.00  0.00     0.031 A 
BRANCH  47  61
ATOM     61  C   UNL A   1      41.125  32.294  35.176  1.00  0.00    -0.014 A 
ATOM     62  C   UNL A   1      41.647  33.586  34.979  1.00  0.00     0.010 A 
ATOM     63  C   UNL A   1      40.282  32.059  36.278  1.00  0.00     0.010 A 
ATOM     64  C   UNL A   1      41.371  34.608  35.890  1.00  0.00     0.020 A 
ATOM     65  C   UNL A   1      39.979  33.086  37.175  1.00  0.00     0.020 A 
ATOM     66  C   UNL A   1      40.542  34.351  36.985  1.00  0.00     0.054 A 
BRANCH  66  67
ATOM     67  S   UNL A   1      40.184  35.702  38.142  1.00  0.00     0.124 S 
ATOM     68  O   UNL A   1      39.843  36.793  37.233  1.00  0.00    -0.237 OA
ATOM     69  O   UNL A   1      39.072  35.168  38.925  1.00  0.00    -0.237 OA
ATOM     70  O   UNL A   1      41.435  35.871  38.876  1.00  0.00    -0.744 OA
ENDBRANCH  66  67
ENDBRANCH  47  61
BRANCH  48  71
ATOM     71  C   UNL A   1      42.917  25.209  28.346  1.00  0.00    -0.014 A 
ATOM     72  C   UNL A   1      43.624  25.546  27.178  1.00  0.00     0.010 A 
ATOM     73  C   UNL A   1      42.504  23.878  28.536  1.00  0.00     0.010 A 
ATOM     74  C   UNL A   1      43.900  24.574  26.213  1.00  0.00     0.020 A 
ATOM     75  C   UNL A   1      42.802  22.898  27.585  1.00  0.00     0.020 A 
ATOM     76  C   UNL A   1      43.488  23.255  26.424  1.00  0.00     0.054 A 
BRANCH  76  77
ATOM     77  S   UNL A   1      43.908  21.998  25.184  1.00  0.00     0.124 S 
ATOM     78  O   UNL A   1      45.261  21.621  25.579  1.00  0.00    -0.237 OA
ATOM     79  O   UNL A   1      42.879  20.983  25.401  1.00  0.00    -0.237 OA
ATOM     80  O   UNL A   1      43.801  22.719  23.917  1.00  0.00    -0.744 OA
ENDBRANCH  76  77
ENDBRANCH  48  71
BRANCH  60  81
ATOM     81  C   UNL A   1      46.167  27.229  34.177  1.00  0.00    -0.014 A 
ATOM     82  C   UNL A   1      47.421  27.799  33.901  1.00  0.00     0.010 A 
ATOM     83  C   UNL A   1      46.068  26.222  35.155  1.00  0.00     0.010 A 
ATOM     84  C   UNL A   1      48.562  27.351  34.572  1.00  0.00     0.020 A 
ATOM     85  C   UNL A   1      47.202  25.790  35.846  1.00  0.00     0.020 A 
ATOM     86  C   UNL A   1      48.444  26.348  35.539  1.00  0.00     0.054 A 
BRANCH  86  87
ATOM     87  S   UNL A   1      49.932  25.813  36.428  1.00  0.00     0.124 S 
ATOM     88  O   UNL A   1      50.932  25.798  35.363  1.00  0.00    -0.237 OA
ATOM     89  O   UNL A   1      50.100  26.859  37.433  1.00  0.00    -0.237 OA
ATOM     90  O   UNL A   1      49.567  24.501  36.958  1.00  0.00    -0.744 OA
ENDBRANCH  86  87
ENDBRANCH  60  81
ENDBRANCH  34  35
ENDBRANCH  26  29
ENDBRANCH  24  25
ENDBRANCH   1  24
TORSDOF 16
ENDMDL
MODEL 3
REMARK VINA RESULT:     -11.3      3.701      7.575
REMARK SMILES CC[C@H](C(=O)NCCCNC(=O)c1ccc(-c2c3nc(c(-c4ccc(S(=O)(=O)[O-])cc4)c4ccc([nH]4)c(-c4ccc(S(=O)(=O)[O-])cc4)c4nc(c(-c5ccc(S(=O)(=O)[O-])cc5)c5ccc2[nH]5)C=C4)C=C3)cc1)N1C(=O)c2ccc([N+](=O)[O-])cc2C1=O
REMARK SMILES IDX 8 1 7 2 6 3 4 4 5 5 3 7 2 8 1 9 73 10 74 11 85 12 75 13
REMARK SMILES IDX 76 14 84 15 86 16 77 17 83 18 78 19 79 20 80 21 81 22 82 23
REMARK SMILES IDX 9 24 10 25 11 26 12 28 13 29 14 30 72 31 15 32 71 33 16 34
REMARK SMILES IDX 17 35 18 36 65 37 19 38 70 39 64 40 66 41 20 42 69 43 63 44
REMARK SMILES IDX 62 45 21 47 51 48 32 49 50 50 33 51 36 52 49 53 67 54 34 55
REMARK SMILES IDX 35 56 48 58 68 59 37 60 22 61 23 62 31 63 24 64 30 65 25 66
REMARK SMILES IDX 26 67 27 68 28 69 29 70 52 71 53 72 61 73 54 74 60 75 55 76
REMARK SMILES IDX 56 77 57 78 58 79 59 80 38 81 39 82 47 83 40 84 46 85 41 86
REMARK SMILES IDX 42 87 43 88 44 89 45 90
REMARK H PARENT 6 6 10 27 66 46 36 57
REMARK Flexibility Score: inf
ROOT
ATOM      1  C   UNL A   1      34.559  33.537  29.816  1.00  0.00     0.042 C 
ENDROOT
BRANCH   1   2
ATOM      2  C   UNL A   1      35.568  33.113  30.867  1.00  0.00     0.117 C 
BRANCH   2   3
ATOM      3  N   UNL A   1      36.585  34.125  31.106  1.00  0.00    -0.354 N 
ATOM      4  C   UNL A   1      37.469  34.256  32.138  1.00  0.00     0.243 C 
ATOM      5  O   UNL A   1      38.436  35.005  31.959  1.00  0.00    -0.273 OA
ATOM      6  H   UNL A   1      36.646  34.825  30.416  1.00  0.00     0.163 HD
BRANCH   4   7
ATOM      7  C   UNL A   1      37.362  33.429  33.438  1.00  0.00     0.183 C 
BRANCH   7   8
ATOM      8  C   UNL A   1      35.987  33.266  34.107  1.00  0.00     0.032 C 
ATOM      9  C   UNL A   1      35.201  34.565  34.245  1.00  0.00     0.006 C 
ENDBRANCH   7   8
BRANCH   7  10
ATOM     10  N   UNL A   1      38.131  32.179  33.341  1.00  0.00    -0.262 N 
ATOM     11  C   UNL A   1      37.649  30.956  32.971  1.00  0.00     0.262 C 
ATOM     12  C   UNL A   1      39.437  32.077  33.753  1.00  0.00     0.262 C 
ATOM     13  O   UNL A   1      36.545  30.593  32.610  1.00  0.00    -0.269 OA
ATOM     14  C   UNL A   1      38.742  30.006  33.069  1.00  0.00     0.053 A 
ATOM     15  C   UNL A   1      39.836  30.679  33.572  1.00  0.00     0.060 A 
ATOM     16  O   UNL A   1      40.170  32.925  34.219  1.00  0.00    -0.269 OA
ATOM     17  C   UNL A   1      38.764  28.660  32.755  1.00  0.00     0.022 A 
ATOM     18  C   UNL A   1      41.029  30.029  33.827  1.00  0.00     0.100 A 
ATOM     19  C   UNL A   1      39.958  27.974  32.983  1.00  0.00     0.086 A 
ATOM     20  C   UNL A   1      41.075  28.656  33.526  1.00  0.00     0.270 A 
BRANCH  20  21
ATOM     21  N   UNL A   1      42.306  27.900  33.788  1.00  0.00     0.062 N 
ATOM     22  O   UNL A   1      42.202  26.827  34.398  1.00  0.00    -0.258 OA
ATOM     23  O   UNL A   1      43.371  28.384  33.386  1.00  0.00    -0.258 OA
ENDBRANCH  20  21
ENDBRANCH   7  10
ENDBRANCH   4   7
ENDBRANCH   2   3
ENDBRANCH   1   2
BRANCH   1  24
ATOM     24  C   UNL A   1      34.915  32.999  28.438  1.00  0.00     0.118 C 
BRANCH  24  25
ATOM     25  N   UNL A   1      34.053  31.886  28.045  1.00  0.00    -0.352 N 
ATOM     26  C   UNL A   1      34.374  30.585  27.748  1.00  0.00     0.251 C 
ATOM     27  H   UNL A   1      33.095  32.103  27.985  1.00  0.00     0.163 HD
ATOM     28  O   UNL A   1      33.540  29.857  27.216  1.00  0.00    -0.269 OA
BRANCH  26  29
ATOM     29  C   UNL A   1      35.724  30.069  28.053  1.00  0.00     0.039 A 
ATOM     30  C   UNL A   1      36.702  30.087  27.057  1.00  0.00     0.014 A 
ATOM     31  C   UNL A   1      36.021  29.564  29.320  1.00  0.00     0.014 A 
ATOM     32  C   UNL A   1      37.999  29.667  27.357  1.00  0.00     0.010 A 
ATOM     33  C   UNL A   1      37.332  29.239  29.645  1.00  0.00     0.010 A 
ATOM     34  C   UNL A   1      38.334  29.277  28.665  1.00  0.00    -0.014 A 
BRANCH  34  35
ATOM     35  C   UNL A   1      39.721  28.899  29.033  1.00  0.00     0.031 A 
ATOM     36  C   UNL A   1      40.625  29.906  29.692  1.00  0.00     0.074 A 
ATOM     37  C   UNL A   1      40.190  27.679  28.702  1.00  0.00     0.049 A 
ATOM     38  N   UNL A   1      41.888  29.795  30.011  1.00  0.00    -0.248 NA
ATOM     39  C   UNL A   1      40.041  31.223  30.004  1.00  0.00     0.031 C 
ATOM     40  C   UNL A   1      39.427  26.634  28.014  1.00  0.00     0.029 A 
ATOM     41  N   UNL A   1      41.425  27.115  28.893  1.00  0.00    -0.354 N 
ATOM     42  C   UNL A   1      42.256  31.028  30.536  1.00  0.00     0.074 A 
ATOM     43  C   UNL A   1      41.099  31.890  30.445  1.00  0.00     0.031 C 
ATOM     44  C   UNL A   1      40.201  25.547  27.870  1.00  0.00     0.029 A 
ATOM     45  C   UNL A   1      41.526  25.830  28.413  1.00  0.00     0.049 A 
ATOM     46  H   UNL A   1      42.171  27.585  29.332  1.00  0.00     0.167 HD
ATOM     47  C   UNL A   1      43.443  31.405  31.067  1.00  0.00     0.031 A 
ATOM     48  C   UNL A   1      42.568  24.977  28.406  1.00  0.00     0.031 A 
ATOM     49  C   UNL A   1      44.584  30.537  31.178  1.00  0.00     0.049 A 
ATOM     50  C   UNL A   1      43.873  25.414  29.011  1.00  0.00     0.074 A 
ATOM     51  C   UNL A   1      45.811  30.800  31.760  1.00  0.00     0.029 A 
ATOM     52  N   UNL A   1      44.637  29.237  30.700  1.00  0.00    -0.354 N 
ATOM     53  N   UNL A   1      44.181  26.564  29.562  1.00  0.00    -0.248 NA
ATOM     54  C   UNL A   1      44.969  24.435  29.002  1.00  0.00     0.031 C 
ATOM     55  C   UNL A   1      46.623  29.673  31.594  1.00  0.00     0.029 A 
ATOM     56  C   UNL A   1      45.883  28.691  30.954  1.00  0.00     0.049 A 
ATOM     57  H   UNL A   1      43.898  28.771  30.248  1.00  0.00     0.167 HD
ATOM     58  C   UNL A   1      45.500  26.439  29.985  1.00  0.00     0.074 A 
ATOM     59  C   UNL A   1      45.923  25.097  29.641  1.00  0.00     0.031 C 
ATOM     60  C   UNL A   1      46.288  27.354  30.601  1.00  0.00     0.031 A 
BRANCH  47  61
ATOM     61  C   UNL A   1      43.563  32.820  31.568  1.00  0.00    -0.014 A 
ATOM     62  C   UNL A   1      43.749  33.893  30.677  1.00  0.00     0.010 A 
ATOM     63  C   UNL A   1      43.460  33.087  32.946  1.00  0.00     0.010 A 
ATOM     64  C   UNL A   1      43.875  35.199  31.157  1.00  0.00     0.020 A 
ATOM     65  C   UNL A   1      43.556  34.395  33.428  1.00  0.00     0.020 A 
ATOM     66  C   UNL A   1      43.782  35.441  32.530  1.00  0.00     0.054 A 
BRANCH  66  67
ATOM     67  S   UNL A   1      43.929  37.149  33.124  1.00  0.00     0.124 S 
ATOM     68  O   UNL A   1      45.158  37.088  33.911  1.00  0.00    -0.237 OA
ATOM     69  O   UNL A   1      44.018  37.914  31.883  1.00  0.00    -0.237 OA
ATOM     70  O   UNL A   1      42.706  37.356  33.894  1.00  0.00    -0.744 OA
ENDBRANCH  66  67
ENDBRANCH  47  61
BRANCH  48  71
ATOM     71  C   UNL A   1      42.410  23.617  27.822  1.00  0.00    -0.014 A 
ATOM     72  C   UNL A   1      42.793  23.366  26.492  1.00  0.00     0.010 A 
ATOM     73  C   UNL A   1      41.898  22.562  28.597  1.00  0.00     0.010 A 
ATOM     74  C   UNL A   1      42.652  22.088  25.944  1.00  0.00     0.020 A 
ATOM     75  C   UNL A   1      41.780  21.277  28.061  1.00  0.00     0.020 A 
ATOM     76  C   UNL A   1      42.148  21.051  26.734  1.00  0.00     0.054 A 
BRANCH  76  77
ATOM     77  S   UNL A   1      42.027  19.386  26.020  1.00  0.00     0.124 S 
ATOM     78  O   UNL A   1      42.578  18.557  27.087  1.00  0.00    -0.237 OA
ATOM     79  O   UNL A   1      40.592  19.246  25.785  1.00  0.00    -0.237 OA
ATOM     80  O   UNL A   1      42.841  19.475  24.809  1.00  0.00    -0.744 OA
ENDBRANCH  76  77
ENDBRANCH  48  71
BRANCH  60  81
ATOM     81  C   UNL A   1      47.684  26.927  30.966  1.00  0.00    -0.014 A 
ATOM     82  C   UNL A   1      48.761  27.144  30.090  1.00  0.00     0.010 A 
ATOM     83  C   UNL A   1      47.926  26.347  32.225  1.00  0.00     0.010 A 
ATOM     84  C   UNL A   1      50.055  26.763  30.457  1.00  0.00     0.020 A 
ATOM     85  C   UNL A   1      49.221  25.989  32.605  1.00  0.00     0.020 A 
ATOM     86  C   UNL A   1      50.276  26.187  31.712  1.00  0.00     0.054 A 
BRANCH  86  87
ATOM     87  S   UNL A   1      51.970  25.741  32.182  1.00  0.00     0.124 S 
ATOM     88  O   UNL A   1      51.964  24.292  31.998  1.00  0.00    -0.237 OA
ATOM     89  O   UNL A   1      52.777  26.493  31.224  1.00  0.00    -0.237 OA
ATOM     90  O   UNL A   1      52.075  26.194  33.568  1.00  0.00    -0.744 OA
ENDBRANCH  86  87
ENDBRANCH  60  81
ENDBRANCH  34  35
ENDBRANCH  26  29
ENDBRANCH  24  25
ENDBRANCH   1  24
TORSDOF 16
ENDMDL
