MODEL 1
REMARK VINA RESULT:     -10.3      0.000      0.000
REMARK SMILES O=C(CNC(=O)CNC(=O)OCc1ccccc1)NCCCNC(=O)c1ccc(-c2c3nc(c(-c4ccc(S(=O)(=O)[O-])cc4)c4ccc([nH]4)c(-c4ccc(S(=O)(=O)[O-])cc4)c4nc(c(-c5ccc(S(=O)(=O)[O-])cc5)c5ccc2[nH]5)C=C4)C=C3)cc1
REMARK SMILES IDX 1 1 2 2 19 3 3 5 4 6 5 7 6 9 7 10 8 11 9 12 10 14 11 15
REMARK SMILES IDX 12 16 13 17 14 18 18 19 15 20 17 21 16 22 20 23 21 24 22 25
REMARK SMILES IDX 23 26 24 27 25 29 26 30 27 31 85 32 28 33 84 34 29 35 30 36
REMARK SMILES IDX 31 37 78 38 32 39 83 40 77 41 79 42 33 43 82 44 76 45 75 46
REMARK SMILES IDX 34 48 64 49 45 50 63 51 46 52 49 53 62 54 80 55 47 56 48 57
REMARK SMILES IDX 61 59 81 60 50 61 35 62 36 63 44 64 37 65 43 66 38 67 39 68
REMARK SMILES IDX 40 69 41 70 42 71 65 72 66 73 74 74 67 75 73 76 68 77 69 78
REMARK SMILES IDX 70 79 71 80 72 81 51 82 52 83 60 84 53 85 59 86 54 87 55 88
REMARK SMILES IDX 56 89 57 90 58 91
REMARK H PARENT 19 4 4 8 8 13 23 28 79 47 49 58
REMARK Flexibility Score: inf
ROOT
ATOM      1  O   UNL A   1      38.932  21.024  25.787  1.00  0.00    -0.273 OA
ATOM      2  C   UNL A   1      38.930  22.190  26.171  1.00  0.00     0.239 C 
ATOM      3  N   UNL A   1      39.994  22.777  26.821  1.00  0.00    -0.355 N 
ATOM      4  H   UNL A   1      39.963  23.743  27.004  1.00  0.00     0.163 HD
ENDROOT
BRANCH   2   5
ATOM      5  C   UNL A   1      37.755  23.128  25.859  1.00  0.00     0.216 C 
BRANCH   5   6
ATOM      6  N   UNL A   1      37.448  23.243  24.438  1.00  0.00    -0.346 N 
ATOM      7  C   UNL A   1      36.407  22.724  23.726  1.00  0.00     0.239 C 
ATOM      8  H   UNL A   1      38.089  23.777  23.913  1.00  0.00     0.164 HD
ATOM      9  O   UNL A   1      36.321  23.013  22.531  1.00  0.00    -0.273 OA
BRANCH   7  10
ATOM     10  C   UNL A   1      35.400  21.792  24.397  1.00  0.00     0.219 C 
BRANCH  10  11
ATOM     11  N   UNL A   1      34.124  22.474  24.480  1.00  0.00    -0.312 N 
ATOM     12  C   UNL A   1      32.931  22.019  24.018  1.00  0.00     0.407 C 
ATOM     13  H   UNL A   1      34.123  23.359  24.914  1.00  0.00     0.167 HD
ATOM     14  O   UNL A   1      31.976  22.778  23.912  1.00  0.00    -0.225 OA
BRANCH  12  15
ATOM     15  O   UNL A   1      32.953  20.711  23.671  1.00  0.00    -0.445 OA
BRANCH  15  16
ATOM     16  C   UNL A   1      32.225  19.830  24.539  1.00  0.00     0.270 C 
BRANCH  16  17
ATOM     17  C   UNL A   1      32.836  18.452  24.586  1.00  0.00    -0.011 A 
ATOM     18  C   UNL A   1      33.555  17.967  23.483  1.00  0.00     0.007 A 
ATOM     19  C   UNL A   1      32.657  17.619  25.698  1.00  0.00     0.007 A 
ATOM     20  C   UNL A   1      34.074  16.675  23.484  1.00  0.00     0.000 A 
ATOM     21  C   UNL A   1      33.187  16.328  25.702  1.00  0.00     0.000 A 
ATOM     22  C   UNL A   1      33.890  15.855  24.594  1.00  0.00     0.000 A 
ENDBRANCH  16  17
ENDBRANCH  15  16
ENDBRANCH  12  15
ENDBRANCH  10  11
ENDBRANCH   7  10
ENDBRANCH   5   6
ENDBRANCH   2   5
BRANCH   3  23
ATOM     23  C   UNL A   1      41.161  22.026  27.251  1.00  0.00     0.117 C 
BRANCH  23  24
ATOM     24  C   UNL A   1      42.145  22.837  28.090  1.00  0.00     0.042 C 
BRANCH  24  25
ATOM     25  C   UNL A   1      43.190  23.612  27.289  1.00  0.00     0.118 C 
BRANCH  25  26
ATOM     26  N   UNL A   1      42.622  24.473  26.260  1.00  0.00    -0.352 N 
ATOM     27  C   UNL A   1      41.981  25.684  26.350  1.00  0.00     0.251 C 
ATOM     28  H   UNL A   1      42.713  24.126  25.342  1.00  0.00     0.163 HD
ATOM     29  O   UNL A   1      41.521  26.189  25.327  1.00  0.00    -0.269 OA
BRANCH  27  30
ATOM     30  C   UNL A   1      41.796  26.369  27.650  1.00  0.00     0.039 A 
ATOM     31  C   UNL A   1      42.742  27.326  28.033  1.00  0.00     0.014 A 
ATOM     32  C   UNL A   1      40.729  26.074  28.502  1.00  0.00     0.014 A 
ATOM     33  C   UNL A   1      42.571  28.048  29.218  1.00  0.00     0.010 A 
ATOM     34  C   UNL A   1      40.525  26.837  29.654  1.00  0.00     0.010 A 
ATOM     35  C   UNL A   1      41.434  27.844  30.015  1.00  0.00    -0.014 A 
BRANCH  35  36
ATOM     36  C   UNL A   1      41.152  28.706  31.194  1.00  0.00     0.031 A 
ATOM     37  C   UNL A   1      40.043  29.722  31.156  1.00  0.00     0.074 A 
ATOM     38  C   UNL A   1      41.949  28.626  32.279  1.00  0.00     0.049 A 
ATOM     39  N   UNL A   1      39.717  30.619  32.052  1.00  0.00    -0.248 NA
ATOM     40  C   UNL A   1      39.204  29.746  29.948  1.00  0.00     0.031 C 
ATOM     41  C   UNL A   1      43.076  27.703  32.435  1.00  0.00     0.029 A 
ATOM     42  N   UNL A   1      41.945  29.342  33.450  1.00  0.00    -0.354 N 
ATOM     43  C   UNL A   1      38.647  31.325  31.512  1.00  0.00     0.074 A 
ATOM     44  C   UNL A   1      38.403  30.773  30.196  1.00  0.00     0.031 C 
ATOM     45  C   UNL A   1      43.644  27.898  33.636  1.00  0.00     0.029 A 
ATOM     46  C   UNL A   1      42.954  28.989  34.316  1.00  0.00     0.049 A 
ATOM     47  H   UNL A   1      41.282  30.041  33.653  1.00  0.00     0.167 HD
ATOM     48  C   UNL A   1      37.928  32.332  32.065  1.00  0.00     0.031 A 
ATOM     49  C   UNL A   1      43.303  29.496  35.516  1.00  0.00     0.031 A 
ATOM     50  C   UNL A   1      38.169  32.876  33.376  1.00  0.00     0.049 A 
ATOM     51  C   UNL A   1      42.509  30.635  36.094  1.00  0.00     0.074 A 
ATOM     52  C   UNL A   1      37.458  33.861  34.041  1.00  0.00     0.029 A 
ATOM     53  N   UNL A   1      39.200  32.492  34.219  1.00  0.00    -0.354 N 
ATOM     54  N   UNL A   1      41.466  31.249  35.591  1.00  0.00    -0.248 NA
ATOM     55  C   UNL A   1      42.938  31.145  37.404  1.00  0.00     0.031 C 
ATOM     56  C   UNL A   1      38.091  34.108  35.264  1.00  0.00     0.029 A 
ATOM     57  C   UNL A   1      39.163  33.239  35.385  1.00  0.00     0.049 A 
ATOM     58  H   UNL A   1      39.862  31.791  34.018  1.00  0.00     0.167 HD
ATOM     59  C   UNL A   1      41.101  32.205  36.532  1.00  0.00     0.074 A 
ATOM     60  C   UNL A   1      42.025  32.078  37.641  1.00  0.00     0.031 C 
ATOM     61  C   UNL A   1      40.090  33.107  36.480  1.00  0.00     0.031 A 
BRANCH  48  62
ATOM     62  C   UNL A   1      36.813  32.922  31.243  1.00  0.00    -0.014 A 
ATOM     63  C   UNL A   1      35.466  32.671  31.560  1.00  0.00     0.010 A 
ATOM     64  C   UNL A   1      37.115  33.777  30.167  1.00  0.00     0.010 A 
ATOM     65  C   UNL A   1      34.442  33.228  30.789  1.00  0.00     0.020 A 
ATOM     66  C   UNL A   1      36.094  34.357  29.409  1.00  0.00     0.020 A 
ATOM     67  C   UNL A   1      34.763  34.063  29.714  1.00  0.00     0.054 A 
BRANCH  67  68
ATOM     68  S   UNL A   1      33.414  34.785  28.740  1.00  0.00     0.124 S 
ATOM     69  O   UNL A   1      34.075  35.925  28.109  1.00  0.00    -0.237 OA
ATOM     70  O   UNL A   1      33.049  33.694  27.838  1.00  0.00    -0.237 OA
ATOM     71  O   UNL A   1      32.405  35.125  29.740  1.00  0.00    -0.744 OA
ENDBRANCH  67  68
ENDBRANCH  48  62
BRANCH  49  72
ATOM     72  C   UNL A   1      44.466  28.929  36.250  1.00  0.00    -0.014 A 
ATOM     73  C   UNL A   1      44.268  28.045  37.325  1.00  0.00     0.010 A 
ATOM     74  C   UNL A   1      45.779  29.259  35.868  1.00  0.00     0.010 A 
ATOM     75  C   UNL A   1      45.361  27.513  38.014  1.00  0.00     0.020 A 
ATOM     76  C   UNL A   1      46.875  28.708  36.538  1.00  0.00     0.020 A 
ATOM     77  C   UNL A   1      46.659  27.845  37.615  1.00  0.00     0.054 A 
BRANCH  77  78
ATOM     78  S   UNL A   1      48.062  27.100  38.489  1.00  0.00     0.124 S 
ATOM     79  O   UNL A   1      47.510  26.884  39.823  1.00  0.00    -0.237 OA
ATOM     80  O   UNL A   1      48.318  25.893  37.707  1.00  0.00    -0.237 OA
ATOM     81  O   UNL A   1      49.103  28.121  38.399  1.00  0.00    -0.744 OA
ENDBRANCH  77  78
ENDBRANCH  49  72
BRANCH  61  82
ATOM     82  C   UNL A   1      39.911  34.018  37.666  1.00  0.00    -0.014 A 
ATOM     83  C   UNL A   1      39.073  33.661  38.736  1.00  0.00     0.010 A 
ATOM     84  C   UNL A   1      40.641  35.219  37.737  1.00  0.00     0.010 A 
ATOM     85  C   UNL A   1      38.950  34.498  39.848  1.00  0.00     0.020 A 
ATOM     86  C   UNL A   1      40.541  36.047  38.859  1.00  0.00     0.020 A 
ATOM     87  C   UNL A   1      39.688  35.686  39.903  1.00  0.00     0.054 A 
BRANCH  87  88
ATOM     88  S   UNL A   1      39.557  36.728  41.383  1.00  0.00     0.124 S 
ATOM     89  O   UNL A   1      38.974  37.953  40.841  1.00  0.00    -0.237 OA
ATOM     90  O   UNL A   1      38.681  35.945  42.251  1.00  0.00    -0.237 OA
ATOM     91  O   UNL A   1      40.937  36.847  41.846  1.00  0.00    -0.744 OA
ENDBRANCH  87  88
ENDBRANCH  61  82
ENDBRANCH  35  36
ENDBRANCH  27  30
ENDBRANCH  25  26
ENDBRANCH  24  25
ENDBRANCH  23  24
ENDBRANCH   3  23
TORSDOF 19
ENDMDL
MODEL 2
REMARK VINA RESULT:     -10.0      1.280      2.511
REMARK SMILES O=C(CNC(=O)CNC(=O)OCc1ccccc1)NCCCNC(=O)c1ccc(-c2c3nc(c(-c4ccc(S(=O)(=O)[O-])cc4)c4ccc([nH]4)c(-c4ccc(S(=O)(=O)[O-])cc4)c4nc(c(-c5ccc(S(=O)(=O)[O-])cc5)c5ccc2[nH]5)C=C4)C=C3)cc1
REMARK SMILES IDX 1 1 2 2 19 3 3 5 4 6 5 7 6 9 7 10 8 11 9 12 10 14 11 15
REMARK SMILES IDX 12 16 13 17 14 18 18 19 15 20 17 21 16 22 20 23 21 24 22 25
REMARK SMILES IDX 23 26 24 27 25 29 26 30 27 31 85 32 28 33 84 34 29 35 30 36
REMARK SMILES IDX 31 37 78 38 32 39 83 40 77 41 79 42 33 43 82 44 76 45 75 46
REMARK SMILES IDX 34 48 64 49 45 50 63 51 46 52 49 53 62 54 80 55 47 56 48 57
REMARK SMILES IDX 61 59 81 60 50 61 35 62 36 63 44 64 37 65 43 66 38 67 39 68
REMARK SMILES IDX 40 69 41 70 42 71 65 72 66 73 74 74 67 75 73 76 68 77 69 78
REMARK SMILES IDX 70 79 71 80 72 81 51 82 52 83 60 84 53 85 59 86 54 87 55 88
REMARK SMILES IDX 56 89 57 90 58 91
REMARK H PARENT 19 4 4 8 8 13 23 28 79 47 49 58
REMARK Flexibility Score: inf
ROOT
ATOM      1  O   UNL A   1      39.734  19.871  26.025  1.00  0.00    -0.273 OA
ATOM      2  C   UNL A   1      39.451  21.061  25.912  1.00  0.00     0.239 C 
ATOM      3  N   UNL A   1      40.394  22.065  25.867  1.00  0.00    -0.355 N 
ATOM      4  H   UNL A   1      40.099  22.982  25.668  1.00  0.00     0.163 HD
ENDROOT
BRANCH   2   5
ATOM      5  C   UNL A   1      37.999  21.516  25.709  1.00  0.00     0.216 C 
BRANCH   5   6
ATOM      6  N   UNL A   1      37.748  22.141  24.415  1.00  0.00    -0.346 N 
ATOM      7  C   UNL A   1      36.612  22.726  23.935  1.00  0.00     0.239 C 
ATOM      8  H   UNL A   1      38.513  22.143  23.794  1.00  0.00     0.164 HD
ATOM      9  O   UNL A   1      36.657  23.251  22.821  1.00  0.00    -0.273 OA
BRANCH   7  10
ATOM     10  C   UNL A   1      35.323  22.700  24.755  1.00  0.00     0.219 C 
BRANCH  10  11
ATOM     11  N   UNL A   1      34.547  21.542  24.358  1.00  0.00    -0.312 N 
ATOM     12  C   UNL A   1      33.395  21.105  24.930  1.00  0.00     0.407 C 
ATOM     13  H   UNL A   1      34.891  21.019  23.597  1.00  0.00     0.167 HD
ATOM     14  O   UNL A   1      32.967  19.985  24.683  1.00  0.00    -0.225 OA
BRANCH  12  15
ATOM     15  O   UNL A   1      32.850  21.997  25.787  1.00  0.00    -0.445 OA
BRANCH  15  16
ATOM     16  C   UNL A   1      31.415  22.057  25.786  1.00  0.00     0.270 C 
BRANCH  16  17
ATOM     17  C   UNL A   1      30.906  23.388  25.291  1.00  0.00    -0.011 A 
ATOM     18  C   UNL A   1      30.824  23.637  23.913  1.00  0.00     0.007 A 
ATOM     19  C   UNL A   1      30.555  24.405  26.187  1.00  0.00     0.007 A 
ATOM     20  C   UNL A   1      30.414  24.880  23.438  1.00  0.00     0.000 A 
ATOM     21  C   UNL A   1      30.133  25.648  25.709  1.00  0.00     0.000 A 
ATOM     22  C   UNL A   1      30.068  25.886  24.337  1.00  0.00     0.000 A 
ENDBRANCH  16  17
ENDBRANCH  15  16
ENDBRANCH  12  15
ENDBRANCH  10  11
ENDBRANCH   7  10
ENDBRANCH   5   6
ENDBRANCH   2   5
BRANCH   3  23
ATOM     23  C   UNL A   1      41.807  21.825  26.103  1.00  0.00     0.117 C 
BRANCH  23  24
ATOM     24  C   UNL A   1      42.371  22.579  27.304  1.00  0.00     0.042 C 
BRANCH  24  25
ATOM     25  C   UNL A   1      43.195  23.818  26.958  1.00  0.00     0.118 C 
BRANCH  25  26
ATOM     26  N   UNL A   1      42.574  24.677  25.958  1.00  0.00    -0.352 N 
ATOM     27  C   UNL A   1      41.894  25.863  26.085  1.00  0.00     0.251 C 
ATOM     28  H   UNL A   1      42.656  24.350  25.032  1.00  0.00     0.163 HD
ATOM     29  O   UNL A   1      41.394  26.370  25.083  1.00  0.00    -0.269 OA
BRANCH  27  30
ATOM     30  C   UNL A   1      41.715  26.518  27.402  1.00  0.00     0.039 A 
ATOM     31  C   UNL A   1      42.627  27.511  27.776  1.00  0.00     0.014 A 
ATOM     32  C   UNL A   1      40.686  26.160  28.277  1.00  0.00     0.014 A 
ATOM     33  C   UNL A   1      42.456  28.205  28.977  1.00  0.00     0.010 A 
ATOM     34  C   UNL A   1      40.480  26.894  29.447  1.00  0.00     0.010 A 
ATOM     35  C   UNL A   1      41.352  27.936  29.802  1.00  0.00    -0.014 A 
BRANCH  35  36
ATOM     36  C   UNL A   1      41.064  28.765  31.003  1.00  0.00     0.031 A 
ATOM     37  C   UNL A   1      39.965  29.791  30.983  1.00  0.00     0.074 A 
ATOM     38  C   UNL A   1      41.849  28.645  32.093  1.00  0.00     0.049 A 
ATOM     39  N   UNL A   1      39.636  30.664  31.902  1.00  0.00    -0.248 NA
ATOM     40  C   UNL A   1      39.139  29.859  29.767  1.00  0.00     0.031 C 
ATOM     41  C   UNL A   1      42.966  27.708  32.233  1.00  0.00     0.029 A 
ATOM     42  N   UNL A   1      41.838  29.325  33.285  1.00  0.00    -0.354 N 
ATOM     43  C   UNL A   1      38.579  31.395  31.372  1.00  0.00     0.074 A 
ATOM     44  C   UNL A   1      38.345  30.885  30.037  1.00  0.00     0.031 C 
ATOM     45  C   UNL A   1      43.522  27.862  33.446  1.00  0.00     0.029 A 
ATOM     46  C   UNL A   1      42.834  28.938  34.151  1.00  0.00     0.049 A 
ATOM     47  H   UNL A   1      41.179  30.025  33.501  1.00  0.00     0.167 HD
ATOM     48  C   UNL A   1      37.863  32.391  31.947  1.00  0.00     0.031 A 
ATOM     49  C   UNL A   1      43.174  29.406  35.369  1.00  0.00     0.031 A 
ATOM     50  C   UNL A   1      38.094  32.894  33.276  1.00  0.00     0.049 A 
ATOM     51  C   UNL A   1      42.384  30.534  35.973  1.00  0.00     0.074 A 
ATOM     52  C   UNL A   1      37.383  33.865  33.962  1.00  0.00     0.029 A 
ATOM     53  N   UNL A   1      39.112  32.475  34.118  1.00  0.00    -0.354 N 
ATOM     54  N   UNL A   1      41.352  31.173  35.477  1.00  0.00    -0.248 NA
ATOM     55  C   UNL A   1      42.803  31.001  37.302  1.00  0.00     0.031 C 
ATOM     56  C   UNL A   1      38.005  34.070  35.200  1.00  0.00     0.029 A 
ATOM     57  C   UNL A   1      39.068  33.188  35.306  1.00  0.00     0.049 A 
ATOM     58  H   UNL A   1      39.770  31.775  33.904  1.00  0.00     0.167 HD
ATOM     59  C   UNL A   1      40.984  32.103  36.442  1.00  0.00     0.074 A 
ATOM     60  C   UNL A   1      41.895  31.935  37.556  1.00  0.00     0.031 C 
ATOM     61  C   UNL A   1      39.982  33.015  36.406  1.00  0.00     0.031 A 
BRANCH  48  62
ATOM     62  C   UNL A   1      36.761  33.016  31.131  1.00  0.00    -0.014 A 
ATOM     63  C   UNL A   1      37.051  33.869  30.052  1.00  0.00     0.010 A 
ATOM     64  C   UNL A   1      35.418  32.709  31.420  1.00  0.00     0.010 A 
ATOM     65  C   UNL A   1      36.018  34.438  29.303  1.00  0.00     0.020 A 
ATOM     66  C   UNL A   1      34.383  33.256  30.657  1.00  0.00     0.020 A 
ATOM     67  C   UNL A   1      34.690  34.133  29.614  1.00  0.00     0.054 A 
BRANCH  67  68
ATOM     68  S   UNL A   1      33.369  34.874  28.616  1.00  0.00     0.124 S 
ATOM     69  O   UNL A   1      32.538  35.505  29.638  1.00  0.00    -0.237 OA
ATOM     70  O   UNL A   1      34.100  35.794  27.746  1.00  0.00    -0.237 OA
ATOM     71  O   UNL A   1      32.762  33.732  27.937  1.00  0.00    -0.744 OA
ENDBRANCH  67  68
ENDBRANCH  48  62
BRANCH  49  72
ATOM     72  C   UNL A   1      44.324  28.807  36.099  1.00  0.00    -0.014 A 
ATOM     73  C   UNL A   1      44.123  27.744  36.997  1.00  0.00     0.010 A 
ATOM     74  C   UNL A   1      45.630  29.287  35.887  1.00  0.00     0.010 A 
ATOM     75  C   UNL A   1      45.204  27.182  37.681  1.00  0.00     0.020 A 
ATOM     76  C   UNL A   1      46.717  28.709  36.550  1.00  0.00     0.020 A 
ATOM     77  C   UNL A   1      46.495  27.666  37.453  1.00  0.00     0.054 A 
BRANCH  77  78
ATOM     78  S   UNL A   1      47.889  26.885  38.311  1.00  0.00     0.124 S 
ATOM     79  O   UNL A   1      49.009  27.217  37.436  1.00  0.00    -0.237 OA
ATOM     80  O   UNL A   1      47.879  27.557  39.608  1.00  0.00    -0.237 OA
ATOM     81  O   UNL A   1      47.519  25.472  38.348  1.00  0.00    -0.744 OA
ENDBRANCH  77  78
ENDBRANCH  49  72
BRANCH  61  82
ATOM     82  C   UNL A   1      39.798  33.891  37.617  1.00  0.00    -0.014 A 
ATOM     83  C   UNL A   1      39.168  33.406  38.776  1.00  0.00     0.010 A 
ATOM     84  C   UNL A   1      40.318  35.199  37.615  1.00  0.00     0.010 A 
ATOM     85  C   UNL A   1      39.042  34.219  39.905  1.00  0.00     0.020 A 
ATOM     86  C   UNL A   1      40.217  36.007  38.751  1.00  0.00     0.020 A 
ATOM     87  C   UNL A   1      39.570  35.515  39.886  1.00  0.00     0.054 A 
BRANCH  87  88
ATOM     88  S   UNL A   1      39.446  36.531  41.384  1.00  0.00     0.124 S 
ATOM     89  O   UNL A   1      40.818  36.501  41.885  1.00  0.00    -0.237 OA
ATOM     90  O   UNL A   1      38.996  37.819  40.864  1.00  0.00    -0.237 OA
ATOM     91  O   UNL A   1      38.467  35.821  42.204  1.00  0.00    -0.744 OA
ENDBRANCH  87  88
ENDBRANCH  61  82
ENDBRANCH  35  36
ENDBRANCH  27  30
ENDBRANCH  25  26
ENDBRANCH  24  25
ENDBRANCH  23  24
ENDBRANCH   3  23
TORSDOF 19
ENDMDL
MODEL 3
REMARK VINA RESULT:     -10.0      6.342      9.150
REMARK SMILES O=C(CNC(=O)CNC(=O)OCc1ccccc1)NCCCNC(=O)c1ccc(-c2c3nc(c(-c4ccc(S(=O)(=O)[O-])cc4)c4ccc([nH]4)c(-c4ccc(S(=O)(=O)[O-])cc4)c4nc(c(-c5ccc(S(=O)(=O)[O-])cc5)c5ccc2[nH]5)C=C4)C=C3)cc1
REMARK SMILES IDX 1 1 2 2 19 3 3 5 4 6 5 7 6 9 7 10 8 11 9 12 10 14 11 15
REMARK SMILES IDX 12 16 13 17 14 18 18 19 15 20 17 21 16 22 20 23 21 24 22 25
REMARK SMILES IDX 23 26 24 27 25 29 26 30 27 31 85 32 28 33 84 34 29 35 30 36
REMARK SMILES IDX 31 37 78 38 32 39 83 40 77 41 79 42 33 43 82 44 76 45 75 46
REMARK SMILES IDX 34 48 64 49 45 50 63 51 46 52 49 53 62 54 80 55 47 56 48 57
REMARK SMILES IDX 61 59 81 60 50 61 35 62 36 63 44 64 37 65 43 66 38 67 39 68
REMARK SMILES IDX 40 69 41 70 42 71 65 72 66 73 74 74 67 75 73 76 68 77 69 78
REMARK SMILES IDX 70 79 71 80 72 81 51 82 52 83 60 84 53 85 59 86 54 87 55 88
REMARK SMILES IDX 56 89 57 90 58 91
REMARK H PARENT 19 4 4 8 8 13 23 28 79 47 49 58
REMARK Flexibility Score: inf
ROOT
ATOM      1  O   UNL A   1      36.686  23.944  25.459  1.00  0.00    -0.273 OA
ATOM      2  C   UNL A   1      36.324  22.852  25.891  1.00  0.00     0.239 C 
ATOM      3  N   UNL A   1      37.190  21.810  26.141  1.00  0.00    -0.355 N 
ATOM      4  H   UNL A   1      36.843  21.004  26.586  1.00  0.00     0.163 HD
ENDROOT
BRANCH   2   5
ATOM      5  C   UNL A   1      34.862  22.600  26.287  1.00  0.00     0.216 C 
BRANCH   5   6
ATOM      6  N   UNL A   1      34.449  21.205  26.179  1.00  0.00    -0.346 N 
ATOM      7  C   UNL A   1      33.327  20.670  25.618  1.00  0.00     0.239 C 
ATOM      8  H   UNL A   1      35.075  20.552  26.568  1.00  0.00     0.164 HD
ATOM      9  O   UNL A   1      33.223  19.442  25.587  1.00  0.00    -0.273 OA
BRANCH   7  10
ATOM     10  C   UNL A   1      32.226  21.578  25.071  1.00  0.00     0.219 C 
BRANCH  10  11
ATOM     11  N   UNL A   1      31.298  21.875  26.143  1.00  0.00    -0.312 N 
ATOM     12  C   UNL A   1      30.830  23.101  26.492  1.00  0.00     0.407 C 
ATOM     13  H   UNL A   1      30.975  21.110  26.673  1.00  0.00     0.167 HD
ATOM     14  O   UNL A   1      30.258  23.266  27.562  1.00  0.00    -0.225 OA
BRANCH  12  15
ATOM     15  O   UNL A   1      31.106  24.061  25.579  1.00  0.00    -0.445 OA
BRANCH  15  16
ATOM     16  C   UNL A   1      30.780  25.402  25.974  1.00  0.00     0.270 C 
BRANCH  16  17
ATOM     17  C   UNL A   1      31.680  26.418  25.319  1.00  0.00    -0.011 A 
ATOM     18  C   UNL A   1      31.204  27.713  25.065  1.00  0.00     0.007 A 
ATOM     19  C   UNL A   1      32.977  26.080  24.911  1.00  0.00     0.007 A 
ATOM     20  C   UNL A   1      32.000  28.647  24.405  1.00  0.00     0.000 A 
ATOM     21  C   UNL A   1      33.777  27.021  24.260  1.00  0.00     0.000 A 
ATOM     22  C   UNL A   1      33.287  28.301  24.003  1.00  0.00     0.000 A 
ENDBRANCH  16  17
ENDBRANCH  15  16
ENDBRANCH  12  15
ENDBRANCH  10  11
ENDBRANCH   7  10
ENDBRANCH   5   6
ENDBRANCH   2   5
BRANCH   3  23
ATOM     23  C   UNL A   1      38.593  21.850  25.771  1.00  0.00     0.117 C 
BRANCH  23  24
ATOM     24  C   UNL A   1      39.166  20.496  25.362  1.00  0.00     0.042 C 
BRANCH  24  25
ATOM     25  C   UNL A   1      39.807  19.698  26.496  1.00  0.00     0.118 C 
BRANCH  25  26
ATOM     26  N   UNL A   1      41.046  19.031  26.118  1.00  0.00    -0.352 N 
ATOM     27  C   UNL A   1      42.325  19.513  25.987  1.00  0.00     0.251 C 
ATOM     28  H   UNL A   1      40.950  18.070  25.924  1.00  0.00     0.163 HD
ATOM     29  O   UNL A   1      43.206  18.757  25.580  1.00  0.00    -0.269 OA
BRANCH  27  30
ATOM     30  C   UNL A   1      42.656  20.927  26.282  1.00  0.00     0.039 A 
ATOM     31  C   UNL A   1      42.801  21.306  27.621  1.00  0.00     0.014 A 
ATOM     32  C   UNL A   1      42.804  21.883  25.274  1.00  0.00     0.014 A 
ATOM     33  C   UNL A   1      43.182  22.612  27.943  1.00  0.00     0.010 A 
ATOM     34  C   UNL A   1      43.244  23.169  25.593  1.00  0.00     0.010 A 
ATOM     35  C   UNL A   1      43.454  23.543  26.929  1.00  0.00    -0.014 A 
BRANCH  35  36
ATOM     36  C   UNL A   1      44.010  24.887  27.242  1.00  0.00     0.031 A 
ATOM     37  C   UNL A   1      43.110  26.004  27.694  1.00  0.00     0.074 A 
ATOM     38  C   UNL A   1      45.323  25.123  27.045  1.00  0.00     0.049 A 
ATOM     39  N   UNL A   1      43.405  27.260  27.919  1.00  0.00    -0.248 NA
ATOM     40  C   UNL A   1      41.691  25.674  27.902  1.00  0.00     0.031 C 
ATOM     41  C   UNL A   1      46.301  24.134  26.584  1.00  0.00     0.029 A 
ATOM     42  N   UNL A   1      46.060  26.272  27.192  1.00  0.00    -0.354 N 
ATOM     43  C   UNL A   1      42.210  27.873  28.279  1.00  0.00     0.074 A 
ATOM     44  C   UNL A   1      41.180  26.858  28.207  1.00  0.00     0.031 C 
ATOM     45  C   UNL A   1      47.509  24.714  26.501  1.00  0.00     0.029 A 
ATOM     46  C   UNL A   1      47.385  26.124  26.855  1.00  0.00     0.049 A 
ATOM     47  H   UNL A   1      45.676  27.122  27.509  1.00  0.00     0.167 HD
ATOM     48  C   UNL A   1      41.992  29.160  28.645  1.00  0.00     0.031 A 
ATOM     49  C   UNL A   1      48.389  27.023  26.815  1.00  0.00     0.031 A 
ATOM     50  C   UNL A   1      43.018  30.167  28.719  1.00  0.00     0.049 A 
ATOM     51  C   UNL A   1      48.116  28.452  27.195  1.00  0.00     0.074 A 
ATOM     52  C   UNL A   1      42.900  31.484  29.132  1.00  0.00     0.029 A 
ATOM     53  N   UNL A   1      44.346  29.976  28.369  1.00  0.00    -0.354 N 
ATOM     54  N   UNL A   1      46.989  28.998  27.587  1.00  0.00    -0.248 NA
ATOM     55  C   UNL A   1      49.250  29.385  27.131  1.00  0.00     0.031 C 
ATOM     56  C   UNL A   1      44.147  32.103  28.981  1.00  0.00     0.029 A 
ATOM     57  C   UNL A   1      45.052  31.158  28.528  1.00  0.00     0.049 A 
ATOM     58  H   UNL A   1      44.730  29.126  28.055  1.00  0.00     0.167 HD
ATOM     59  C   UNL A   1      47.284  30.334  27.835  1.00  0.00     0.074 A 
ATOM     60  C   UNL A   1      48.696  30.510  27.564  1.00  0.00     0.031 C 
ATOM     61  C   UNL A   1      46.456  31.324  28.251  1.00  0.00     0.031 A 
BRANCH  48  62
ATOM     62  C   UNL A   1      40.579  29.557  28.983  1.00  0.00    -0.014 A 
ATOM     63  C   UNL A   1      40.233  29.978  30.279  1.00  0.00     0.010 A 
ATOM     64  C   UNL A   1      39.593  29.551  27.979  1.00  0.00     0.010 A 
ATOM     65  C   UNL A   1      38.918  30.346  30.576  1.00  0.00     0.020 A 
ATOM     66  C   UNL A   1      38.282  29.942  28.265  1.00  0.00     0.020 A 
ATOM     67  C   UNL A   1      37.949  30.320  29.569  1.00  0.00     0.054 A 
BRANCH  67  68
ATOM     68  S   UNL A   1      36.253  30.816  29.979  1.00  0.00     0.124 S 
ATOM     69  O   UNL A   1      35.965  29.974  31.137  1.00  0.00    -0.237 OA
ATOM     70  O   UNL A   1      36.395  32.243  30.260  1.00  0.00    -0.237 OA
ATOM     71  O   UNL A   1      35.496  30.496  28.771  1.00  0.00    -0.744 OA
ENDBRANCH  67  68
ENDBRANCH  48  62
BRANCH  49  72
ATOM     72  C   UNL A   1      49.751  26.595  26.395  1.00  0.00    -0.014 A 
ATOM     73  C   UNL A   1      50.650  26.057  27.331  1.00  0.00     0.010 A 
ATOM     74  C   UNL A   1      50.150  26.709  25.050  1.00  0.00     0.010 A 
ATOM     75  C   UNL A   1      51.929  25.655  26.935  1.00  0.00     0.020 A 
ATOM     76  C   UNL A   1      51.418  26.284  24.645  1.00  0.00     0.020 A 
ATOM     77  C   UNL A   1      52.305  25.769  25.594  1.00  0.00     0.054 A 
BRANCH  77  78
ATOM     78  S   UNL A   1      53.949  25.190  25.093  1.00  0.00     0.124 S 
ATOM     79  O   UNL A   1      53.732  23.755  24.937  1.00  0.00    -0.237 OA
ATOM     80  O   UNL A   1      54.183  25.932  23.856  1.00  0.00    -0.237 OA
ATOM     81  O   UNL A   1      54.804  25.577  26.212  1.00  0.00    -0.744 OA
ENDBRANCH  77  78
ENDBRANCH  49  72
BRANCH  61  82
ATOM     82  C   UNL A   1      47.058  32.687  28.462  1.00  0.00    -0.014 A 
ATOM     83  C   UNL A   1      47.059  33.648  27.436  1.00  0.00     0.010 A 
ATOM     84  C   UNL A   1      47.572  33.033  29.726  1.00  0.00     0.010 A 
ATOM     85  C   UNL A   1      47.584  34.923  27.663  1.00  0.00     0.020 A 
ATOM     86  C   UNL A   1      48.075  34.315  29.964  1.00  0.00     0.020 A 
ATOM     87  C   UNL A   1      48.087  35.249  28.927  1.00  0.00     0.054 A 
BRANCH  87  88
ATOM     88  S   UNL A   1      48.709  36.930  29.213  1.00  0.00     0.124 S 
ATOM     89  O   UNL A   1      49.570  37.137  28.051  1.00  0.00    -0.237 OA
ATOM     90  O   UNL A   1      47.485  37.726  29.239  1.00  0.00    -0.237 OA
ATOM     91  O   UNL A   1      49.406  36.828  30.494  1.00  0.00    -0.744 OA
ENDBRANCH  87  88
ENDBRANCH  61  82
ENDBRANCH  35  36
ENDBRANCH  27  30
ENDBRANCH  25  26
ENDBRANCH  24  25
ENDBRANCH  23  24
ENDBRANCH   3  23
TORSDOF 19
ENDMDL
