MODEL 1
REMARK VINA RESULT:     -11.3      0.000      0.000
REMARK SMILES C[C@H]1[C@@H](C(=O)NCCCNC(=O)c2ccc(-c3c4nc(c(-c5ccc(S(=O)(=O)[O-])cc5)c5ccc([nH]5)c(-c5ccc(S(=O)(=O)[O-])cc5)c5nc(c(-c6ccc(S(=O)(=O)[O-])cc6)c6ccc3[nH]6)C=C5)C=C4)cc2)CCN1C(=O)NCC(C1CC1)C1CC1
REMARK SMILES IDX 7 1 6 2 4 3 5 4 3 6 1 7 2 8 75 9 73 10 74 11 76 12 77 13
REMARK SMILES IDX 78 14 79 16 80 17 81 18 82 19 83 20 84 21 85 22 86 23 8 24
REMARK SMILES IDX 9 25 10 26 11 27 12 29 13 30 14 31 72 32 15 33 71 34 16 35
REMARK SMILES IDX 17 36 18 37 65 38 19 39 70 40 64 41 66 42 20 43 69 44 63 45
REMARK SMILES IDX 62 46 21 48 51 49 32 50 50 51 33 52 36 53 49 54 67 55 34 56
REMARK SMILES IDX 35 57 48 59 68 60 37 61 22 62 23 63 31 64 24 65 30 66 25 67
REMARK SMILES IDX 26 68 27 69 28 70 29 71 52 72 53 73 61 74 54 75 60 76 55 77
REMARK SMILES IDX 56 78 57 79 58 80 59 81 38 82 39 83 47 84 40 85 46 86 41 87
REMARK SMILES IDX 42 88 43 89 44 90 45 91
REMARK H PARENT 6 5 78 15 10 28 66 47 36 58
REMARK Flexibility Score: inf
ROOT
ATOM      1  C   UNL A   1      37.360  23.210  24.719  1.00  0.00     0.117 C 
ENDROOT
BRANCH   1   2
ATOM      2  N   UNL A   1      36.804  21.866  24.809  1.00  0.00    -0.356 N 
ATOM      3  C   UNL A   1      35.528  21.397  24.933  1.00  0.00     0.225 C 
ATOM      4  O   UNL A   1      35.401  20.174  25.020  1.00  0.00    -0.275 OA
ATOM      5  H   UNL A   1      37.483  21.155  24.772  1.00  0.00     0.163 HD
BRANCH   3   6
ATOM      6  C   UNL A   1      34.317  22.321  24.851  1.00  0.00     0.102 C 
ATOM      7  C   UNL A   1      34.186  22.353  27.470  1.00  0.00     0.032 C 
ATOM      8  C   UNL A   1      33.808  22.993  26.136  1.00  0.00     0.096 C 
ATOM      9  N   UNL A   1      32.358  22.993  26.045  1.00  0.00    -0.321 N 
ATOM     10  C   UNL A   1      33.060  21.668  24.236  1.00  0.00     0.037 C 
ATOM     11  C   UNL A   1      31.956  21.838  25.267  1.00  0.00     0.122 C 
BRANCH   9  12
ATOM     12  C   UNL A   1      31.433  23.698  26.756  1.00  0.00     0.317 C 
ATOM     13  O   UNL A   1      30.645  23.127  27.517  1.00  0.00    -0.249 OA
ATOM     14  N   UNL A   1      31.327  25.042  26.696  1.00  0.00    -0.338 N 
ATOM     15  H   UNL A   1      30.598  25.373  27.270  1.00  0.00     0.165 HD
BRANCH  14  16
ATOM     16  C   UNL A   1      32.005  26.141  26.005  1.00  0.00     0.121 C 
BRANCH  16  17
ATOM     17  C   UNL A   1      31.255  26.610  24.741  1.00  0.00     0.014 C 
BRANCH  17  18
ATOM     18  C   UNL A   1      31.711  27.960  24.213  1.00  0.00    -0.006 C 
ATOM     19  C   UNL A   1      31.374  29.305  24.817  1.00  0.00     0.004 C 
ATOM     20  C   UNL A   1      32.762  28.748  24.962  1.00  0.00     0.004 C 
ENDBRANCH  17  18
BRANCH  17  21
ATOM     21  C   UNL A   1      31.252  25.616  23.580  1.00  0.00    -0.006 C 
ATOM     22  C   UNL A   1      31.620  25.997  22.165  1.00  0.00     0.004 C 
ATOM     23  C   UNL A   1      32.508  25.064  22.944  1.00  0.00     0.004 C 
ENDBRANCH  17  21
ENDBRANCH  16  17
ENDBRANCH  14  16
ENDBRANCH   9  12
ENDBRANCH   3   6
ENDBRANCH   1   2
BRANCH   1  24
ATOM     24  C   UNL A   1      37.640  23.805  26.103  1.00  0.00     0.042 C 
BRANCH  24  25
ATOM     25  C   UNL A   1      38.937  23.348  26.757  1.00  0.00     0.118 C 
BRANCH  25  26
ATOM     26  N   UNL A   1      40.106  23.866  26.075  1.00  0.00    -0.352 N 
ATOM     27  C   UNL A   1      40.784  25.055  26.198  1.00  0.00     0.251 C 
ATOM     28  H   UNL A   1      40.484  23.255  25.401  1.00  0.00     0.163 HD
ATOM     29  O   UNL A   1      41.609  25.331  25.326  1.00  0.00    -0.269 OA
BRANCH  27  30
ATOM     30  C   UNL A   1      40.556  26.019  27.312  1.00  0.00     0.039 A 
ATOM     31  C   UNL A   1      41.350  27.175  27.352  1.00  0.00     0.014 A 
ATOM     32  C   UNL A   1      39.675  25.782  28.370  1.00  0.00     0.014 A 
ATOM     33  C   UNL A   1      41.245  28.080  28.417  1.00  0.00     0.010 A 
ATOM     34  C   UNL A   1      39.499  26.734  29.382  1.00  0.00     0.010 A 
ATOM     35  C   UNL A   1      40.304  27.881  29.438  1.00  0.00    -0.014 A 
BRANCH  35  36
ATOM     36  C   UNL A   1      40.194  28.832  30.583  1.00  0.00     0.031 A 
ATOM     37  C   UNL A   1      41.087  28.684  31.793  1.00  0.00     0.074 A 
ATOM     38  C   UNL A   1      39.279  29.822  30.554  1.00  0.00     0.049 A 
ATOM     39  N   UNL A   1      41.122  29.405  32.888  1.00  0.00    -0.248 NA
ATOM     40  C   UNL A   1      42.046  27.568  31.785  1.00  0.00     0.031 C 
ATOM     41  C   UNL A   1      38.322  30.060  29.470  1.00  0.00     0.029 A 
ATOM     42  N   UNL A   1      39.002  30.815  31.463  1.00  0.00    -0.354 N 
ATOM     43  C   UNL A   1      42.090  28.821  33.699  1.00  0.00     0.074 A 
ATOM     44  C   UNL A   1      42.578  27.655  32.996  1.00  0.00     0.031 C 
ATOM     45  C   UNL A   1      37.587  31.144  29.763  1.00  0.00     0.029 A 
ATOM     46  C   UNL A   1      37.991  31.660  31.067  1.00  0.00     0.049 A 
ATOM     47  H   UNL A   1      39.481  30.911  32.317  1.00  0.00     0.167 HD
ATOM     48  C   UNL A   1      42.552  29.225  34.908  1.00  0.00     0.031 A 
ATOM     49  C   UNL A   1      37.447  32.730  31.680  1.00  0.00     0.031 A 
ATOM     50  C   UNL A   1      42.085  30.393  35.606  1.00  0.00     0.049 A 
ATOM     51  C   UNL A   1      37.982  33.170  33.015  1.00  0.00     0.074 A 
ATOM     52  C   UNL A   1      42.525  30.911  36.812  1.00  0.00     0.029 A 
ATOM     53  N   UNL A   1      41.071  31.228  35.161  1.00  0.00    -0.354 N 
ATOM     54  N   UNL A   1      38.937  32.633  33.737  1.00  0.00    -0.248 NA
ATOM     55  C   UNL A   1      37.378  34.370  33.609  1.00  0.00     0.031 C 
ATOM     56  C   UNL A   1      41.750  32.036  37.117  1.00  0.00     0.029 A 
ATOM     57  C   UNL A   1      40.862  32.249  36.075  1.00  0.00     0.049 A 
ATOM     58  H   UNL A   1      40.574  31.114  34.319  1.00  0.00     0.167 HD
ATOM     59  C   UNL A   1      39.060  33.440  34.861  1.00  0.00     0.074 A 
ATOM     60  C   UNL A   1      38.099  34.514  34.714  1.00  0.00     0.031 C 
ATOM     61  C   UNL A   1      39.894  33.305  35.922  1.00  0.00     0.031 A 
BRANCH  48  62
ATOM     62  C   UNL A   1      43.628  28.388  35.555  1.00  0.00    -0.014 A 
ATOM     63  C   UNL A   1      44.990  28.632  35.298  1.00  0.00     0.010 A 
ATOM     64  C   UNL A   1      43.277  27.363  36.452  1.00  0.00     0.010 A 
ATOM     65  C   UNL A   1      45.977  27.835  35.884  1.00  0.00     0.020 A 
ATOM     66  C   UNL A   1      44.263  26.581  37.064  1.00  0.00     0.020 A 
ATOM     67  C   UNL A   1      45.606  26.810  36.759  1.00  0.00     0.054 A 
BRANCH  67  68
ATOM     68  S   UNL A   1      46.906  25.793  37.512  1.00  0.00     0.124 S 
ATOM     69  O   UNL A   1      48.098  26.608  37.276  1.00  0.00    -0.237 OA
ATOM     70  O   UNL A   1      46.476  25.705  38.908  1.00  0.00    -0.237 OA
ATOM     71  O   UNL A   1      46.847  24.544  36.767  1.00  0.00    -0.744 OA
ENDBRANCH  67  68
ENDBRANCH  48  62
BRANCH  49  72
ATOM     72  C   UNL A   1      36.337  33.473  31.021  1.00  0.00    -0.014 A 
ATOM     73  C   UNL A   1      35.144  33.741  31.715  1.00  0.00     0.010 A 
ATOM     74  C   UNL A   1      36.480  33.939  29.701  1.00  0.00     0.010 A 
ATOM     75  C   UNL A   1      34.111  34.453  31.099  1.00  0.00     0.020 A 
ATOM     76  C   UNL A   1      35.460  34.675  29.092  1.00  0.00     0.020 A 
ATOM     77  C   UNL A   1      34.278  34.920  29.792  1.00  0.00     0.054 A 
BRANCH  77  78
ATOM     78  S   UNL A   1      32.954  35.905  29.037  1.00  0.00     0.124 S 
ATOM     79  O   UNL A   1      32.330  34.937  28.141  1.00  0.00    -0.237 OA
ATOM     80  O   UNL A   1      32.157  36.303  30.194  1.00  0.00    -0.237 OA
ATOM     81  O   UNL A   1      33.672  36.996  28.381  1.00  0.00    -0.744 OA
ENDBRANCH  77  78
ENDBRANCH  49  72
BRANCH  61  82
ATOM     82  C   UNL A   1      39.818  34.356  36.998  1.00  0.00    -0.014 A 
ATOM     83  C   UNL A   1      40.492  35.584  36.866  1.00  0.00     0.010 A 
ATOM     84  C   UNL A   1      39.034  34.125  38.143  1.00  0.00     0.010 A 
ATOM     85  C   UNL A   1      40.417  36.544  37.878  1.00  0.00     0.020 A 
ATOM     86  C   UNL A   1      38.934  35.093  39.146  1.00  0.00     0.020 A 
ATOM     87  C   UNL A   1      39.642  36.290  39.015  1.00  0.00     0.054 A 
BRANCH  87  88
ATOM     88  S   UNL A   1      39.541  37.560  40.307  1.00  0.00     0.124 S 
ATOM     89  O   UNL A   1      40.949  37.856  40.552  1.00  0.00    -0.237 OA
ATOM     90  O   UNL A   1      38.779  38.622  39.655  1.00  0.00    -0.237 OA
ATOM     91  O   UNL A   1      38.845  36.886  41.400  1.00  0.00    -0.744 OA
ENDBRANCH  87  88
ENDBRANCH  61  82
ENDBRANCH  35  36
ENDBRANCH  27  30
ENDBRANCH  25  26
ENDBRANCH  24  25
ENDBRANCH   1  24
TORSDOF 18
ENDMDL
MODEL 2
REMARK VINA RESULT:     -11.2      6.302      8.279
REMARK SMILES C[C@H]1[C@@H](C(=O)NCCCNC(=O)c2ccc(-c3c4nc(c(-c5ccc(S(=O)(=O)[O-])cc5)c5ccc([nH]5)c(-c5ccc(S(=O)(=O)[O-])cc5)c5nc(c(-c6ccc(S(=O)(=O)[O-])cc6)c6ccc3[nH]6)C=C5)C=C4)cc2)CCN1C(=O)NCC(C1CC1)C1CC1
REMARK SMILES IDX 7 1 6 2 4 3 5 4 3 6 1 7 2 8 75 9 73 10 74 11 76 12 77 13
REMARK SMILES IDX 78 14 79 16 80 17 81 18 82 19 83 20 84 21 85 22 86 23 8 24
REMARK SMILES IDX 9 25 10 26 11 27 12 29 13 30 14 31 72 32 15 33 71 34 16 35
REMARK SMILES IDX 17 36 18 37 65 38 19 39 70 40 64 41 66 42 20 43 69 44 63 45
REMARK SMILES IDX 62 46 21 48 51 49 32 50 50 51 33 52 36 53 49 54 67 55 34 56
REMARK SMILES IDX 35 57 48 59 68 60 37 61 22 62 23 63 31 64 24 65 30 66 25 67
REMARK SMILES IDX 26 68 27 69 28 70 29 71 52 72 53 73 61 74 54 75 60 76 55 77
REMARK SMILES IDX 56 78 57 79 58 80 59 81 38 82 39 83 47 84 40 85 46 86 41 87
REMARK SMILES IDX 42 88 43 89 44 90 45 91
REMARK H PARENT 6 5 78 15 10 28 66 47 36 58
REMARK Flexibility Score: inf
ROOT
ATOM      1  C   UNL A   1      36.826  20.649  25.046  1.00  0.00     0.117 C 
ENDROOT
BRANCH   1   2
ATOM      2  N   UNL A   1      35.699  19.730  24.946  1.00  0.00    -0.356 N 
ATOM      3  C   UNL A   1      34.351  19.923  24.867  1.00  0.00     0.225 C 
ATOM      4  O   UNL A   1      33.654  18.907  24.828  1.00  0.00    -0.275 OA
ATOM      5  H   UNL A   1      35.963  18.782  24.933  1.00  0.00     0.163 HD
BRANCH   3   6
ATOM      6  C   UNL A   1      33.742  21.313  24.714  1.00  0.00     0.102 C 
ATOM      7  C   UNL A   1      33.720  21.570  27.323  1.00  0.00     0.032 C 
ATOM      8  C   UNL A   1      33.663  22.228  25.947  1.00  0.00     0.096 C 
ATOM      9  N   UNL A   1      32.395  22.930  25.848  1.00  0.00    -0.321 N 
ATOM     10  C   UNL A   1      32.308  21.320  24.139  1.00  0.00     0.037 C 
ATOM     11  C   UNL A   1      31.458  22.072  25.150  1.00  0.00     0.122 C 
BRANCH   9  12
ATOM     12  C   UNL A   1      31.952  24.040  26.503  1.00  0.00     0.317 C 
ATOM     13  O   UNL A   1      31.142  23.950  27.431  1.00  0.00    -0.249 OA
ATOM     14  N   UNL A   1      32.372  25.288  26.204  1.00  0.00    -0.338 N 
ATOM     15  H   UNL A   1      31.937  25.962  26.776  1.00  0.00     0.165 HD
BRANCH  14  16
ATOM     16  C   UNL A   1      33.300  25.907  25.256  1.00  0.00     0.121 C 
BRANCH  16  17
ATOM     17  C   UNL A   1      32.585  26.562  24.055  1.00  0.00     0.014 C 
BRANCH  17  18
ATOM     18  C   UNL A   1      32.100  25.575  23.008  1.00  0.00    -0.006 C 
ATOM     19  C   UNL A   1      32.487  25.575  21.546  1.00  0.00     0.004 C 
ATOM     20  C   UNL A   1      33.042  24.524  22.466  1.00  0.00     0.004 C 
ENDBRANCH  17  18
BRANCH  17  21
ATOM     21  C   UNL A   1      31.425  27.490  24.416  1.00  0.00    -0.006 C 
ATOM     22  C   UNL A   1      31.555  28.632  25.397  1.00  0.00     0.004 C 
ATOM     23  C   UNL A   1      31.315  28.921  23.938  1.00  0.00     0.004 C 
ENDBRANCH  17  21
ENDBRANCH  16  17
ENDBRANCH  14  16
ENDBRANCH   9  12
ENDBRANCH   3   6
ENDBRANCH   1   2
BRANCH   1  24
ATOM     24  C   UNL A   1      38.169  19.913  24.996  1.00  0.00     0.042 C 
BRANCH  24  25
ATOM     25  C   UNL A   1      39.207  20.382  26.007  1.00  0.00     0.118 C 
BRANCH  25  26
ATOM     26  N   UNL A   1      40.335  19.478  26.094  1.00  0.00    -0.352 N 
ATOM     27  C   UNL A   1      41.689  19.708  26.146  1.00  0.00     0.251 C 
ATOM     28  H   UNL A   1      40.087  18.525  26.121  1.00  0.00     0.163 HD
ATOM     29  O   UNL A   1      42.436  18.742  25.981  1.00  0.00    -0.269 OA
BRANCH  27  30
ATOM     30  C   UNL A   1      42.285  21.056  26.371  1.00  0.00     0.039 A 
ATOM     31  C   UNL A   1      42.604  21.421  27.687  1.00  0.00     0.014 A 
ATOM     32  C   UNL A   1      42.442  22.008  25.361  1.00  0.00     0.014 A 
ATOM     33  C   UNL A   1      43.089  22.702  27.978  1.00  0.00     0.010 A 
ATOM     34  C   UNL A   1      43.019  23.255  25.637  1.00  0.00     0.010 A 
ATOM     35  C   UNL A   1      43.321  23.632  26.953  1.00  0.00    -0.014 A 
BRANCH  35  36
ATOM     36  C   UNL A   1      43.824  25.004  27.254  1.00  0.00     0.031 A 
ATOM     37  C   UNL A   1      45.266  25.370  26.992  1.00  0.00     0.074 A 
ATOM     38  C   UNL A   1      42.995  25.927  27.783  1.00  0.00     0.049 A 
ATOM     39  N   UNL A   1      45.884  26.506  27.206  1.00  0.00    -0.248 NA
ATOM     40  C   UNL A   1      46.135  24.315  26.443  1.00  0.00     0.031 C 
ATOM     41  C   UNL A   1      41.588  25.704  28.128  1.00  0.00     0.029 A 
ATOM     42  N   UNL A   1      43.214  27.240  28.126  1.00  0.00    -0.354 N 
ATOM     43  C   UNL A   1      47.209  26.297  26.835  1.00  0.00     0.074 A 
ATOM     44  C   UNL A   1      47.318  24.911  26.436  1.00  0.00     0.031 C 
ATOM     45  C   UNL A   1      41.065  26.845  28.603  1.00  0.00     0.029 A 
ATOM     46  C   UNL A   1      42.102  27.872  28.631  1.00  0.00     0.049 A 
ATOM     47  H   UNL A   1      44.085  27.685  28.020  1.00  0.00     0.167 HD
ATOM     48  C   UNL A   1      48.239  27.178  26.804  1.00  0.00     0.031 A 
ATOM     49  C   UNL A   1      41.930  29.136  29.069  1.00  0.00     0.031 A 
ATOM     50  C   UNL A   1      48.135  28.562  27.183  1.00  0.00     0.049 A 
ATOM     51  C   UNL A   1      43.082  30.101  29.014  1.00  0.00     0.074 A 
ATOM     52  C   UNL A   1      49.109  29.544  27.140  1.00  0.00     0.029 A 
ATOM     53  N   UNL A   1      46.985  29.163  27.674  1.00  0.00    -0.354 N 
ATOM     54  N   UNL A   1      44.311  29.894  28.606  1.00  0.00    -0.248 NA
ATOM     55  C   UNL A   1      42.818  31.475  29.463  1.00  0.00     0.031 C 
ATOM     56  C   UNL A   1      48.562  30.730  27.644  1.00  0.00     0.029 A 
ATOM     57  C   UNL A   1      47.231  30.499  27.951  1.00  0.00     0.049 A 
ATOM     58  H   UNL A   1      46.122  28.709  27.804  1.00  0.00     0.167 HD
ATOM     59  C   UNL A   1      44.962  31.116  28.733  1.00  0.00     0.074 A 
ATOM     60  C   UNL A   1      43.985  32.061  29.233  1.00  0.00     0.031 C 
ATOM     61  C   UNL A   1      46.253  31.427  28.459  1.00  0.00     0.031 A 
BRANCH  48  62
ATOM     62  C   UNL A   1      49.579  26.662  26.340  1.00  0.00    -0.014 A 
ATOM     63  C   UNL A   1      50.025  26.884  25.024  1.00  0.00     0.010 A 
ATOM     64  C   UNL A   1      50.417  25.974  27.236  1.00  0.00     0.010 A 
ATOM     65  C   UNL A   1      51.257  26.381  24.598  1.00  0.00     0.020 A 
ATOM     66  C   UNL A   1      51.664  25.494  26.823  1.00  0.00     0.020 A 
ATOM     67  C   UNL A   1      52.067  25.684  25.499  1.00  0.00     0.054 A 
BRANCH  67  68
ATOM     68  S   UNL A   1      53.665  25.047  24.924  1.00  0.00     0.124 S 
ATOM     69  O   UNL A   1      54.604  25.811  25.744  1.00  0.00    -0.237 OA
ATOM     70  O   UNL A   1      53.575  23.621  25.242  1.00  0.00    -0.237 OA
ATOM     71  O   UNL A   1      53.675  25.364  23.503  1.00  0.00    -0.744 OA
ENDBRANCH  67  68
ENDBRANCH  48  62
BRANCH  49  72
ATOM     72  C   UNL A   1      40.599  29.564  29.583  1.00  0.00    -0.014 A 
ATOM     73  C   UNL A   1      40.372  29.685  30.965  1.00  0.00     0.010 A 
ATOM     74  C   UNL A   1      39.560  29.878  28.689  1.00  0.00     0.010 A 
ATOM     75  C   UNL A   1      39.127  30.104  31.444  1.00  0.00     0.020 A 
ATOM     76  C   UNL A   1      38.323  30.323  29.163  1.00  0.00     0.020 A 
ATOM     77  C   UNL A   1      38.111  30.424  30.539  1.00  0.00     0.054 A 
BRANCH  77  78
ATOM     78  S   UNL A   1      36.526  31.035  31.179  1.00  0.00     0.124 S 
ATOM     79  O   UNL A   1      36.938  32.220  31.926  1.00  0.00    -0.237 OA
ATOM     80  O   UNL A   1      35.769  31.289  29.956  1.00  0.00    -0.237 OA
ATOM     81  O   UNL A   1      36.033  29.923  31.987  1.00  0.00    -0.744 OA
ENDBRANCH  77  78
ENDBRANCH  49  72
BRANCH  61  82
ATOM     82  C   UNL A   1      46.679  32.855  28.676  1.00  0.00    -0.014 A 
ATOM     83  C   UNL A   1      46.560  33.814  27.654  1.00  0.00     0.010 A 
ATOM     84  C   UNL A   1      47.176  33.251  29.932  1.00  0.00     0.010 A 
ATOM     85  C   UNL A   1      46.968  35.133  27.870  1.00  0.00     0.020 A 
ATOM     86  C   UNL A   1      47.559  34.575  30.162  1.00  0.00     0.020 A 
ATOM     87  C   UNL A   1      47.470  35.503  29.122  1.00  0.00     0.054 A 
BRANCH  87  88
ATOM     88  S   UNL A   1      47.974  37.226  29.388  1.00  0.00     0.124 S 
ATOM     89  O   UNL A   1      48.940  37.429  28.313  1.00  0.00    -0.237 OA
ATOM     90  O   UNL A   1      46.715  37.954  29.247  1.00  0.00    -0.237 OA
ATOM     91  O   UNL A   1      48.534  37.219  30.737  1.00  0.00    -0.744 OA
ENDBRANCH  87  88
ENDBRANCH  61  82
ENDBRANCH  35  36
ENDBRANCH  27  30
ENDBRANCH  25  26
ENDBRANCH  24  25
ENDBRANCH   1  24
TORSDOF 18
ENDMDL
MODEL 3
REMARK VINA RESULT:     -11.1      4.418     10.309
REMARK SMILES C[C@H]1[C@@H](C(=O)NCCCNC(=O)c2ccc(-c3c4nc(c(-c5ccc(S(=O)(=O)[O-])cc5)c5ccc([nH]5)c(-c5ccc(S(=O)(=O)[O-])cc5)c5nc(c(-c6ccc(S(=O)(=O)[O-])cc6)c6ccc3[nH]6)C=C5)C=C4)cc2)CCN1C(=O)NCC(C1CC1)C1CC1
REMARK SMILES IDX 7 1 6 2 4 3 5 4 3 6 1 7 2 8 75 9 73 10 74 11 76 12 77 13
REMARK SMILES IDX 78 14 79 16 80 17 81 18 82 19 83 20 84 21 85 22 86 23 8 24
REMARK SMILES IDX 9 25 10 26 11 27 12 29 13 30 14 31 72 32 15 33 71 34 16 35
REMARK SMILES IDX 17 36 18 37 65 38 19 39 70 40 64 41 66 42 20 43 69 44 63 45
REMARK SMILES IDX 62 46 21 48 51 49 32 50 50 51 33 52 36 53 49 54 67 55 34 56
REMARK SMILES IDX 35 57 48 59 68 60 37 61 22 62 23 63 31 64 24 65 30 66 25 67
REMARK SMILES IDX 26 68 27 69 28 70 29 71 52 72 53 73 61 74 54 75 60 76 55 77
REMARK SMILES IDX 56 78 57 79 58 80 59 81 38 82 39 83 47 84 40 85 46 86 41 87
REMARK SMILES IDX 42 88 43 89 44 90 45 91
REMARK H PARENT 6 5 78 15 10 28 66 47 36 58
REMARK Flexibility Score: inf
ROOT
ATOM      1  C   UNL A   1      33.708  27.863  24.079  1.00  0.00     0.117 C 
ENDROOT
BRANCH   1   2
ATOM      2  N   UNL A   1      32.843  27.271  23.066  1.00  0.00    -0.356 N 
ATOM      3  C   UNL A   1      32.510  25.981  22.772  1.00  0.00     0.225 C 
ATOM      4  O   UNL A   1      31.763  25.816  21.806  1.00  0.00    -0.275 OA
ATOM      5  H   UNL A   1      32.415  27.933  22.477  1.00  0.00     0.163 HD
BRANCH   3   6
ATOM      6  C   UNL A   1      32.938  24.814  23.657  1.00  0.00     0.102 C 
ATOM      7  C   UNL A   1      30.723  25.072  25.037  1.00  0.00     0.032 C 
ATOM      8  C   UNL A   1      31.915  24.209  24.632  1.00  0.00     0.096 C 
ATOM      9  N   UNL A   1      32.653  23.885  25.840  1.00  0.00    -0.321 N 
ATOM     10  C   UNL A   1      34.179  25.101  24.531  1.00  0.00     0.037 C 
ATOM     11  C   UNL A   1      33.752  24.822  25.963  1.00  0.00     0.122 C 
BRANCH   9  12
ATOM     12  C   UNL A   1      32.311  23.088  26.893  1.00  0.00     0.317 C 
ATOM     13  O   UNL A   1      31.248  23.256  27.498  1.00  0.00    -0.249 OA
ATOM     14  N   UNL A   1      33.083  22.069  27.326  1.00  0.00    -0.338 N 
ATOM     15  H   UNL A   1      32.678  21.613  28.099  1.00  0.00     0.165 HD
BRANCH  14  16
ATOM     16  C   UNL A   1      34.362  21.461  26.954  1.00  0.00     0.121 C 
BRANCH  16  17
ATOM     17  C   UNL A   1      34.513  21.261  25.431  1.00  0.00     0.014 C 
BRANCH  17  18
ATOM     18  C   UNL A   1      35.940  21.387  24.926  1.00  0.00    -0.006 C 
ATOM     19  C   UNL A   1      36.441  22.417  23.939  1.00  0.00     0.004 C 
ATOM     20  C   UNL A   1      36.807  22.535  25.391  1.00  0.00     0.004 C 
ENDBRANCH  17  18
BRANCH  17  21
ATOM     21  C   UNL A   1      33.923  19.961  24.884  1.00  0.00    -0.006 C 
ATOM     22  C   UNL A   1      32.780  19.229  25.548  1.00  0.00     0.004 C 
ATOM     23  C   UNL A   1      32.576  19.872  24.202  1.00  0.00     0.004 C 
ENDBRANCH  17  21
ENDBRANCH  16  17
ENDBRANCH  14  16
ENDBRANCH   9  12
ENDBRANCH   3   6
ENDBRANCH   1   2
BRANCH   1  24
ATOM     24  C   UNL A   1      32.903  28.581  25.168  1.00  0.00     0.042 C 
BRANCH  24  25
ATOM     25  C   UNL A   1      33.548  28.598  26.548  1.00  0.00     0.118 C 
BRANCH  25  26
ATOM     26  N   UNL A   1      33.518  29.916  27.149  1.00  0.00    -0.352 N 
ATOM     27  C   UNL A   1      34.423  30.577  27.945  1.00  0.00     0.251 C 
ATOM     28  H   UNL A   1      32.703  30.432  26.951  1.00  0.00     0.163 HD
ATOM     29  O   UNL A   1      34.038  31.604  28.509  1.00  0.00    -0.269 OA
BRANCH  27  30
ATOM     30  C   UNL A   1      35.819  30.106  28.169  1.00  0.00     0.039 A 
ATOM     31  C   UNL A   1      36.153  29.624  29.443  1.00  0.00     0.014 A 
ATOM     32  C   UNL A   1      36.834  30.220  27.216  1.00  0.00     0.014 A 
ATOM     33  C   UNL A   1      37.467  29.245  29.744  1.00  0.00     0.010 A 
ATOM     34  C   UNL A   1      38.125  29.749  27.486  1.00  0.00     0.010 A 
ATOM     35  C   UNL A   1      38.468  29.284  28.763  1.00  0.00    -0.014 A 
BRANCH  35  36
ATOM     36  C   UNL A   1      39.874  28.895  29.078  1.00  0.00     0.031 A 
ATOM     37  C   UNL A   1      40.807  29.868  29.760  1.00  0.00     0.074 A 
ATOM     38  C   UNL A   1      40.331  27.673  28.735  1.00  0.00     0.049 A 
ATOM     39  N   UNL A   1      42.064  29.712  30.097  1.00  0.00    -0.248 NA
ATOM     40  C   UNL A   1      40.266  31.199  30.084  1.00  0.00     0.031 C 
ATOM     41  C   UNL A   1      39.556  26.646  28.034  1.00  0.00     0.029 A 
ATOM     42  N   UNL A   1      41.558  27.086  28.928  1.00  0.00    -0.354 N 
ATOM     43  C   UNL A   1      42.465  30.922  30.654  1.00  0.00     0.074 A 
ATOM     44  C   UNL A   1      41.336  31.821  30.559  1.00  0.00     0.031 C 
ATOM     45  C   UNL A   1      40.315  25.549  27.884  1.00  0.00     0.029 A 
ATOM     46  C   UNL A   1      41.639  25.801  28.444  1.00  0.00     0.049 A 
ATOM     47  H   UNL A   1      42.309  27.543  29.371  1.00  0.00     0.167 HD
ATOM     48  C   UNL A   1      43.653  31.256  31.216  1.00  0.00     0.031 A 
ATOM     49  C   UNL A   1      42.660  24.921  28.447  1.00  0.00     0.031 A 
ATOM     50  C   UNL A   1      44.776  30.362  31.330  1.00  0.00     0.049 A 
ATOM     51  C   UNL A   1      43.966  25.306  29.087  1.00  0.00     0.074 A 
ATOM     52  C   UNL A   1      46.004  30.592  31.926  1.00  0.00     0.029 A 
ATOM     53  N   UNL A   1      44.808  29.066  30.839  1.00  0.00    -0.354 N 
ATOM     54  N   UNL A   1      44.302  26.439  29.656  1.00  0.00    -0.248 NA
ATOM     55  C   UNL A   1      45.025  24.287  29.098  1.00  0.00     0.031 C 
ATOM     56  C   UNL A   1      46.794  29.449  31.759  1.00  0.00     0.029 A 
ATOM     57  C   UNL A   1      46.039  28.488  31.106  1.00  0.00     0.049 A 
ATOM     58  H   UNL A   1      44.065  28.620  30.372  1.00  0.00     0.167 HD
ATOM     59  C   UNL A   1      45.604  26.262  30.110  1.00  0.00     0.074 A 
ATOM     60  C   UNL A   1      45.987  24.907  29.769  1.00  0.00     0.031 C 
ATOM     61  C   UNL A   1      46.412  27.143  30.751  1.00  0.00     0.031 A 
BRANCH  48  62
ATOM     62  C   UNL A   1      43.797  32.658  31.754  1.00  0.00    -0.014 A 
ATOM     63  C   UNL A   1      44.235  33.710  30.928  1.00  0.00     0.010 A 
ATOM     64  C   UNL A   1      43.465  32.935  33.092  1.00  0.00     0.010 A 
ATOM     65  C   UNL A   1      44.388  35.000  31.444  1.00  0.00     0.020 A 
ATOM     66  C   UNL A   1      43.589  34.231  33.605  1.00  0.00     0.020 A 
ATOM     67  C   UNL A   1      44.069  35.251  32.781  1.00  0.00     0.054 A 
BRANCH  67  68
ATOM     68  S   UNL A   1      44.271  36.935  33.425  1.00  0.00     0.124 S 
ATOM     69  O   UNL A   1      44.380  37.715  32.193  1.00  0.00    -0.237 OA
ATOM     70  O   UNL A   1      43.036  37.138  34.184  1.00  0.00    -0.237 OA
ATOM     71  O   UNL A   1      45.485  36.859  34.225  1.00  0.00    -0.744 OA
ENDBRANCH  67  68
ENDBRANCH  48  62
BRANCH  49  72
ATOM     72  C   UNL A   1      42.477  23.576  27.835  1.00  0.00    -0.014 A 
ATOM     73  C   UNL A   1      42.808  23.353  26.487  1.00  0.00     0.010 A 
ATOM     74  C   UNL A   1      41.996  22.504  28.608  1.00  0.00     0.010 A 
ATOM     75  C   UNL A   1      42.651  22.084  25.920  1.00  0.00     0.020 A 
ATOM     76  C   UNL A   1      41.863  21.229  28.052  1.00  0.00     0.020 A 
ATOM     77  C   UNL A   1      42.184  21.029  26.708  1.00  0.00     0.054 A 
BRANCH  77  78
ATOM     78  S   UNL A   1      42.057  19.374  25.973  1.00  0.00     0.124 S 
ATOM     79  O   UNL A   1      42.934  19.490  24.813  1.00  0.00    -0.237 OA
ATOM     80  O   UNL A   1      42.539  18.513  27.049  1.00  0.00    -0.237 OA
ATOM     81  O   UNL A   1      40.633  19.243  25.673  1.00  0.00    -0.744 OA
ENDBRANCH  77  78
ENDBRANCH  49  72
BRANCH  61  82
ATOM     82  C   UNL A   1      47.784  26.661  31.145  1.00  0.00    -0.014 A 
ATOM     83  C   UNL A   1      48.020  26.093  32.409  1.00  0.00     0.010 A 
ATOM     84  C   UNL A   1      48.843  26.748  30.224  1.00  0.00     0.010 A 
ATOM     85  C   UNL A   1      49.302  25.659  32.761  1.00  0.00     0.020 A 
ATOM     86  C   UNL A   1      50.119  26.290  30.560  1.00  0.00     0.020 A 
ATOM     87  C   UNL A   1      50.345  25.766  31.834  1.00  0.00     0.054 A 
BRANCH  87  88
ATOM     88  S   UNL A   1      51.995  25.176  32.304  1.00  0.00     0.124 S 
ATOM     89  O   UNL A   1      52.194  25.828  33.595  1.00  0.00    -0.237 OA
ATOM     90  O   UNL A   1      51.817  23.727  32.352  1.00  0.00    -0.237 OA
ATOM     91  O   UNL A   1      52.854  25.655  31.223  1.00  0.00    -0.744 OA
ENDBRANCH  87  88
ENDBRANCH  61  82
ENDBRANCH  35  36
ENDBRANCH  27  30
ENDBRANCH  25  26
ENDBRANCH  24  25
ENDBRANCH   1  24
TORSDOF 18
ENDMDL
