MODEL 1
REMARK VINA RESULT:     -12.4      0.000      0.000
REMARK SMILES C[C@H]1[C@@H](C(=O)NCCCNC(=O)c2ccc(-c3c4nc(c(-c5ccc(S(=O)(=O)[O-])cc5)c5ccc([nH]5)c(-c5ccc(S(=O)(=O)[O-])cc5)c5nc(c(-c6ccc(S(=O)(=O)[O-])cc6)c6ccc3[nH]6)C=C5)C=C4)cc2)CCN1C(=O)N[C@@H]1CC[N@H+]2CCCC[C@H]12
REMARK SMILES IDX 8 1 7 2 6 3 4 4 5 5 3 7 1 8 2 9 75 10 73 11 74 12 76 13
REMARK SMILES IDX 77 14 78 15 79 17 80 18 87 19 81 20 82 21 86 22 83 23 85 25
REMARK SMILES IDX 84 26 9 27 10 28 11 29 12 31 13 32 14 33 72 34 15 35 71 36
REMARK SMILES IDX 16 37 17 38 18 39 65 40 19 41 70 42 64 43 66 44 20 45 69 46
REMARK SMILES IDX 63 47 62 48 21 50 51 51 32 52 50 53 33 54 36 55 49 56 67 57
REMARK SMILES IDX 34 58 35 59 48 61 68 62 37 63 22 64 23 65 31 66 24 67 30 68
REMARK SMILES IDX 25 69 26 70 27 71 28 72 29 73 52 74 53 75 61 76 54 77 60 78
REMARK SMILES IDX 55 79 56 80 57 81 58 82 59 83 38 84 39 85 47 86 40 87 46 88
REMARK SMILES IDX 41 89 42 90 43 91 44 92 45 93
REMARK H PARENT 6 6 78 16 82 24 10 30 66 49 36 60
REMARK Flexibility Score: inf
ROOT
ATOM      1  C   UNL A   1      34.513  29.703  27.056  1.00  0.00     0.042 C 
ENDROOT
BRANCH   1   2
ATOM      2  C   UNL A   1      33.049  29.505  27.462  1.00  0.00     0.117 C 
BRANCH   2   3
ATOM      3  N   UNL A   1      32.129  30.003  26.447  1.00  0.00    -0.356 N 
ATOM      4  C   UNL A   1      31.539  29.410  25.369  1.00  0.00     0.225 C 
ATOM      5  O   UNL A   1      30.788  30.122  24.698  1.00  0.00    -0.275 OA
ATOM      6  H   UNL A   1      31.886  30.950  26.562  1.00  0.00     0.163 HD
BRANCH   4   7
ATOM      7  C   UNL A   1      31.718  27.923  25.060  1.00  0.00     0.102 C 
ATOM      8  C   UNL A   1      33.755  28.524  23.541  1.00  0.00     0.032 C 
ATOM      9  C   UNL A   1      33.027  27.478  24.379  1.00  0.00     0.096 C 
ATOM     10  N   UNL A   1      32.650  26.381  23.499  1.00  0.00    -0.321 N 
ATOM     11  C   UNL A   1      30.598  27.333  24.170  1.00  0.00     0.037 C 
ATOM     12  C   UNL A   1      31.303  26.629  23.024  1.00  0.00     0.122 C 
BRANCH  10  13
ATOM     13  C   UNL A   1      33.464  25.555  22.774  1.00  0.00     0.318 C 
ATOM     14  O   UNL A   1      33.534  25.645  21.546  1.00  0.00    -0.249 OA
ATOM     15  N   UNL A   1      34.270  24.645  23.364  1.00  0.00    -0.329 N 
ATOM     16  H   UNL A   1      35.020  24.375  22.787  1.00  0.00     0.165 HD
BRANCH  15  17
ATOM     17  C   UNL A   1      34.286  23.969  24.656  1.00  0.00     0.147 C 
ATOM     18  C   UNL A   1      35.714  23.762  25.197  1.00  0.00     0.092 C 
ATOM     19  C   UNL A   1      33.698  22.541  24.652  1.00  0.00     0.207 C 
ATOM     20  C   UNL A   1      35.752  22.331  25.719  1.00  0.00     0.264 C 
ATOM     21  N   UNL A   1      34.867  21.664  24.782  1.00  0.00    -0.331 N 
ATOM     22  C   UNL A   1      32.867  22.087  23.459  1.00  0.00     0.067 C 
ATOM     23  C   UNL A   1      34.478  20.311  25.159  1.00  0.00     0.262 C 
ATOM     24  H   UNL A   1      35.359  21.524  23.899  1.00  0.00     0.348 HD
ATOM     25  C   UNL A   1      32.412  20.642  23.691  1.00  0.00     0.012 C 
ATOM     26  C   UNL A   1      33.589  19.726  24.054  1.00  0.00     0.062 C 
ENDBRANCH  15  17
ENDBRANCH  10  13
ENDBRANCH   4   7
ENDBRANCH   2   3
ENDBRANCH   1   2
BRANCH   1  27
ATOM     27  C   UNL A   1      35.220  30.893  27.695  1.00  0.00     0.118 C 
BRANCH  27  28
ATOM     28  N   UNL A   1      35.349  30.747  29.131  1.00  0.00    -0.352 N 
ATOM     29  C   UNL A   1      36.297  30.144  29.923  1.00  0.00     0.251 C 
ATOM     30  H   UNL A   1      34.614  31.161  29.639  1.00  0.00     0.163 HD
ATOM     31  O   UNL A   1      36.010  29.988  31.111  1.00  0.00    -0.269 OA
BRANCH  29  32
ATOM     32  C   UNL A   1      37.624  29.664  29.434  1.00  0.00     0.039 A 
ATOM     33  C   UNL A   1      38.524  29.162  30.388  1.00  0.00     0.014 A 
ATOM     34  C   UNL A   1      38.071  29.796  28.118  1.00  0.00     0.014 A 
ATOM     35  C   UNL A   1      39.828  28.793  30.029  1.00  0.00     0.010 A 
ATOM     36  C   UNL A   1      39.343  29.341  27.740  1.00  0.00     0.010 A 
ATOM     37  C   UNL A   1      40.252  28.863  28.694  1.00  0.00    -0.014 A 
BRANCH  37  38
ATOM     38  C   UNL A   1      41.647  28.497  28.306  1.00  0.00     0.031 A 
ATOM     39  C   UNL A   1      42.735  29.547  28.260  1.00  0.00     0.074 A 
ATOM     40  C   UNL A   1      41.947  27.226  27.970  1.00  0.00     0.049 A 
ATOM     41  N   UNL A   1      43.996  29.419  27.924  1.00  0.00    -0.248 NA
ATOM     42  C   UNL A   1      42.353  30.922  28.619  1.00  0.00     0.031 C 
ATOM     43  C   UNL A   1      40.996  26.113  27.931  1.00  0.00     0.029 A 
ATOM     44  N   UNL A   1      43.139  26.653  27.596  1.00  0.00    -0.354 N 
ATOM     45  C   UNL A   1      44.547  30.693  28.009  1.00  0.00     0.074 A 
ATOM     46  C   UNL A   1      43.474  31.589  28.381  1.00  0.00     0.031 C 
ATOM     47  C   UNL A   1      41.645  24.990  27.582  1.00  0.00     0.029 A 
ATOM     48  C   UNL A   1      43.049  25.305  27.337  1.00  0.00     0.049 A 
ATOM     49  H   UNL A   1      43.980  27.161  27.520  1.00  0.00     0.167 HD
ATOM     50  C   UNL A   1      45.831  31.088  27.820  1.00  0.00     0.031 A 
ATOM     51  C   UNL A   1      43.985  24.417  26.945  1.00  0.00     0.031 A 
ATOM     52  C   UNL A   1      46.911  30.202  27.469  1.00  0.00     0.049 A 
ATOM     53  C   UNL A   1      45.406  24.872  26.752  1.00  0.00     0.074 A 
ATOM     54  C   UNL A   1      48.252  30.502  27.304  1.00  0.00     0.029 A 
ATOM     55  N   UNL A   1      46.775  28.843  27.233  1.00  0.00    -0.354 N 
ATOM     56  N   UNL A   1      45.911  26.074  26.890  1.00  0.00    -0.248 NA
ATOM     57  C   UNL A   1      46.384  23.845  26.367  1.00  0.00     0.031 C 
ATOM     58  C   UNL A   1      48.921  29.332  26.927  1.00  0.00     0.029 A 
ATOM     59  C   UNL A   1      48.005  28.293  26.908  1.00  0.00     0.049 A 
ATOM     60  H   UNL A   1      45.929  28.342  27.288  1.00  0.00     0.167 HD
ATOM     61  C   UNL A   1      47.271  25.945  26.625  1.00  0.00     0.074 A 
ATOM     62  C   UNL A   1      47.511  24.545  26.341  1.00  0.00     0.031 C 
ATOM     63  C   UNL A   1      48.233  26.900  26.617  1.00  0.00     0.031 A 
BRANCH  50  64
ATOM     64  C   UNL A   1      46.139  32.556  27.990  1.00  0.00    -0.014 A 
ATOM     65  C   UNL A   1      46.051  33.446  26.904  1.00  0.00     0.010 A 
ATOM     66  C   UNL A   1      46.490  33.057  29.257  1.00  0.00     0.010 A 
ATOM     67  C   UNL A   1      46.360  34.798  27.069  1.00  0.00     0.020 A 
ATOM     68  C   UNL A   1      46.773  34.416  29.432  1.00  0.00     0.020 A 
ATOM     69  C   UNL A   1      46.726  35.274  28.331  1.00  0.00     0.054 A 
BRANCH  69  70
ATOM     70  S   UNL A   1      47.118  37.036  28.518  1.00  0.00     0.124 S 
ATOM     71  O   UNL A   1      46.523  37.339  29.817  1.00  0.00    -0.237 OA
ATOM     72  O   UNL A   1      48.577  37.047  28.478  1.00  0.00    -0.237 OA
ATOM     73  O   UNL A   1      46.461  37.660  27.371  1.00  0.00    -0.744 OA
ENDBRANCH  69  70
ENDBRANCH  50  64
BRANCH  51  74
ATOM     74  C   UNL A   1      43.605  22.994  26.725  1.00  0.00    -0.014 A 
ATOM     75  C   UNL A   1      43.914  22.351  25.513  1.00  0.00     0.010 A 
ATOM     76  C   UNL A   1      42.952  22.268  27.737  1.00  0.00     0.010 A 
ATOM     77  C   UNL A   1      43.569  21.011  25.314  1.00  0.00     0.020 A 
ATOM     78  C   UNL A   1      42.629  20.921  27.552  1.00  0.00     0.020 A 
ATOM     79  C   UNL A   1      42.933  20.302  26.338  1.00  0.00     0.054 A 
BRANCH  79  80
ATOM     80  S   UNL A   1      42.557  18.545  26.084  1.00  0.00     0.124 S 
ATOM     81  O   UNL A   1      43.436  18.204  24.970  1.00  0.00    -0.237 OA
ATOM     82  O   UNL A   1      42.912  17.957  27.374  1.00  0.00    -0.237 OA
ATOM     83  O   UNL A   1      41.128  18.542  25.781  1.00  0.00    -0.744 OA
ENDBRANCH  79  80
ENDBRANCH  51  74
BRANCH  63  84
ATOM     84  C   UNL A   1      49.640  26.461  26.312  1.00  0.00    -0.014 A 
ATOM     85  C   UNL A   1      50.466  25.918  27.313  1.00  0.00     0.010 A 
ATOM     86  C   UNL A   1      50.134  26.565  24.999  1.00  0.00     0.010 A 
ATOM     87  C   UNL A   1      51.774  25.525  27.013  1.00  0.00     0.020 A 
ATOM     88  C   UNL A   1      51.430  26.148  24.690  1.00  0.00     0.020 A 
ATOM     89  C   UNL A   1      52.250  25.646  25.704  1.00  0.00     0.054 A 
BRANCH  89  90
ATOM     90  S   UNL A   1      53.942  25.108  25.333  1.00  0.00     0.124 S 
ATOM     91  O   UNL A   1      54.619  25.337  26.606  1.00  0.00    -0.237 OA
ATOM     92  O   UNL A   1      53.760  23.707  24.961  1.00  0.00    -0.237 OA
ATOM     93  O   UNL A   1      54.353  25.988  24.241  1.00  0.00    -0.744 OA
ENDBRANCH  89  90
ENDBRANCH  63  84
ENDBRANCH  37  38
ENDBRANCH  29  32
ENDBRANCH  27  28
ENDBRANCH   1  27
TORSDOF 15
ENDMDL
MODEL 2
REMARK VINA RESULT:     -12.0      6.584     12.354
REMARK SMILES C[C@H]1[C@@H](C(=O)NCCCNC(=O)c2ccc(-c3c4nc(c(-c5ccc(S(=O)(=O)[O-])cc5)c5ccc([nH]5)c(-c5ccc(S(=O)(=O)[O-])cc5)c5nc(c(-c6ccc(S(=O)(=O)[O-])cc6)c6ccc3[nH]6)C=C5)C=C4)cc2)CCN1C(=O)N[C@@H]1CC[N@H+]2CCCC[C@H]12
REMARK SMILES IDX 8 1 7 2 6 3 4 4 5 5 3 7 1 8 2 9 75 10 73 11 74 12 76 13
REMARK SMILES IDX 77 14 78 15 79 17 80 18 87 19 81 20 82 21 86 22 83 23 85 25
REMARK SMILES IDX 84 26 9 27 10 28 11 29 12 31 13 32 14 33 72 34 15 35 71 36
REMARK SMILES IDX 16 37 17 38 18 39 65 40 19 41 70 42 64 43 66 44 20 45 69 46
REMARK SMILES IDX 63 47 62 48 21 50 51 51 32 52 50 53 33 54 36 55 49 56 67 57
REMARK SMILES IDX 34 58 35 59 48 61 68 62 37 63 22 64 23 65 31 66 24 67 30 68
REMARK SMILES IDX 25 69 26 70 27 71 28 72 29 73 52 74 53 75 61 76 54 77 60 78
REMARK SMILES IDX 55 79 56 80 57 81 58 82 59 83 38 84 39 85 47 86 40 87 46 88
REMARK SMILES IDX 41 89 42 90 43 91 44 92 45 93
REMARK H PARENT 6 6 78 16 82 24 10 30 66 49 36 60
REMARK Flexibility Score: inf
ROOT
ATOM      1  C   UNL A   1      37.861  22.467  25.547  1.00  0.00     0.042 C 
ENDROOT
BRANCH   1   2
ATOM      2  C   UNL A   1      36.331  22.461  25.456  1.00  0.00     0.117 C 
BRANCH   2   3
ATOM      3  N   UNL A   1      35.818  21.194  24.953  1.00  0.00    -0.356 N 
ATOM      4  C   UNL A   1      34.699  20.471  25.249  1.00  0.00     0.225 C 
ATOM      5  O   UNL A   1      34.550  19.417  24.625  1.00  0.00    -0.275 OA
ATOM      6  H   UNL A   1      36.390  20.778  24.267  1.00  0.00     0.163 HD
BRANCH   4   7
ATOM      7  C   UNL A   1      33.639  20.979  26.225  1.00  0.00     0.102 C 
ATOM      8  C   UNL A   1      32.763  22.597  24.372  1.00  0.00     0.032 C 
ATOM      9  C   UNL A   1      32.485  21.832  25.662  1.00  0.00     0.096 C 
ATOM     10  N   UNL A   1      32.180  22.803  26.703  1.00  0.00    -0.321 N 
ATOM     11  C   UNL A   1      34.216  21.827  27.384  1.00  0.00     0.037 C 
ATOM     12  C   UNL A   1      33.411  23.114  27.403  1.00  0.00     0.122 C 
BRANCH  10  13
ATOM     13  C   UNL A   1      31.148  23.700  26.752  1.00  0.00     0.318 C 
ATOM     14  O   UNL A   1      30.061  23.395  27.250  1.00  0.00    -0.249 OA
ATOM     15  N   UNL A   1      31.281  24.971  26.315  1.00  0.00    -0.329 N 
ATOM     16  H   UNL A   1      30.613  25.578  26.708  1.00  0.00     0.165 HD
BRANCH  15  17
ATOM     17  C   UNL A   1      32.184  25.653  25.395  1.00  0.00     0.147 C 
ATOM     18  C   UNL A   1      33.193  26.563  26.123  1.00  0.00     0.092 C 
ATOM     19  C   UNL A   1      31.497  26.612  24.398  1.00  0.00     0.207 C 
ATOM     20  C   UNL A   1      33.220  27.863  25.329  1.00  0.00     0.264 C 
ATOM     21  N   UNL A   1      31.841  27.953  24.884  1.00  0.00    -0.331 N 
ATOM     22  C   UNL A   1      29.989  26.525  24.209  1.00  0.00     0.067 C 
ATOM     23  C   UNL A   1      31.587  28.968  23.869  1.00  0.00     0.262 C 
ATOM     24  H   UNL A   1      31.257  28.256  25.664  1.00  0.00     0.348 HD
ATOM     25  C   UNL A   1      29.554  27.579  23.185  1.00  0.00     0.012 C 
ATOM     26  C   UNL A   1      30.088  28.973  23.540  1.00  0.00     0.062 C 
ENDBRANCH  15  17
ENDBRANCH  10  13
ENDBRANCH   4   7
ENDBRANCH   2   3
ENDBRANCH   1   2
BRANCH   1  27
ATOM     27  C   UNL A   1      38.467  23.588  26.384  1.00  0.00     0.118 C 
BRANCH  27  28
ATOM     28  N   UNL A   1      39.883  23.761  26.126  1.00  0.00    -0.352 N 
ATOM     29  C   UNL A   1      40.791  24.712  26.527  1.00  0.00     0.251 C 
ATOM     30  H   UNL A   1      40.269  23.062  25.552  1.00  0.00     0.163 HD
ATOM     31  O   UNL A   1      41.881  24.715  25.953  1.00  0.00    -0.269 OA
BRANCH  29  32
ATOM     32  C   UNL A   1      40.534  25.731  27.588  1.00  0.00     0.039 A 
ATOM     33  C   UNL A   1      41.373  26.856  27.624  1.00  0.00     0.014 A 
ATOM     34  C   UNL A   1      39.599  25.578  28.614  1.00  0.00     0.014 A 
ATOM     35  C   UNL A   1      41.269  27.803  28.652  1.00  0.00     0.010 A 
ATOM     36  C   UNL A   1      39.431  26.572  29.590  1.00  0.00     0.010 A 
ATOM     37  C   UNL A   1      40.285  27.683  29.644  1.00  0.00    -0.014 A 
BRANCH  37  38
ATOM     38  C   UNL A   1      40.183  28.672  30.758  1.00  0.00     0.031 A 
ATOM     39  C   UNL A   1      41.073  28.558  31.975  1.00  0.00     0.074 A 
ATOM     40  C   UNL A   1      39.277  29.670  30.698  1.00  0.00     0.049 A 
ATOM     41  N   UNL A   1      41.110  29.310  33.048  1.00  0.00    -0.248 NA
ATOM     42  C   UNL A   1      42.032  27.441  31.999  1.00  0.00     0.031 C 
ATOM     43  C   UNL A   1      38.326  29.887  29.606  1.00  0.00     0.029 A 
ATOM     44  N   UNL A   1      39.008  30.691  31.578  1.00  0.00    -0.354 N 
ATOM     45  C   UNL A   1      42.074  28.747  33.879  1.00  0.00     0.074 A 
ATOM     46  C   UNL A   1      42.564  27.563  33.207  1.00  0.00     0.031 C 
ATOM     47  C   UNL A   1      37.599  30.986  29.868  1.00  0.00     0.029 A 
ATOM     48  C   UNL A   1      38.003  31.533  31.159  1.00  0.00     0.049 A 
ATOM     49  H   UNL A   1      39.489  30.810  32.429  1.00  0.00     0.167 HD
ATOM     50  C   UNL A   1      42.532  29.181  35.080  1.00  0.00     0.031 A 
ATOM     51  C   UNL A   1      37.462  32.622  31.742  1.00  0.00     0.031 A 
ATOM     52  C   UNL A   1      42.065  30.368  35.747  1.00  0.00     0.049 A 
ATOM     53  C   UNL A   1      37.993  33.094  33.068  1.00  0.00     0.074 A 
ATOM     54  C   UNL A   1      42.504  30.914  36.941  1.00  0.00     0.029 A 
ATOM     55  N   UNL A   1      41.059  31.197  35.277  1.00  0.00    -0.354 N 
ATOM     56  N   UNL A   1      38.941  32.572  33.808  1.00  0.00    -0.248 NA
ATOM     57  C   UNL A   1      37.388  34.311  33.629  1.00  0.00     0.031 C 
ATOM     58  C   UNL A   1      41.733  32.050  37.215  1.00  0.00     0.029 A 
ATOM     59  C   UNL A   1      40.850  32.241  36.165  1.00  0.00     0.049 A 
ATOM     60  H   UNL A   1      40.564  31.064  34.436  1.00  0.00     0.167 HD
ATOM     61  C   UNL A   1      39.060  33.408  34.914  1.00  0.00     0.074 A 
ATOM     62  C   UNL A   1      38.103  34.480  34.734  1.00  0.00     0.031 C 
ATOM     63  C   UNL A   1      39.888  33.297  35.982  1.00  0.00     0.031 A 
BRANCH  50  64
ATOM     64  C   UNL A   1      43.602  28.357  35.754  1.00  0.00    -0.014 A 
ATOM     65  C   UNL A   1      44.966  28.639  35.557  1.00  0.00     0.010 A 
ATOM     66  C   UNL A   1      43.239  27.307  36.618  1.00  0.00     0.010 A 
ATOM     67  C   UNL A   1      45.947  27.854  36.169  1.00  0.00     0.020 A 
ATOM     68  C   UNL A   1      44.218  26.538  37.254  1.00  0.00     0.020 A 
ATOM     69  C   UNL A   1      45.568  26.804  37.008  1.00  0.00     0.054 A 
BRANCH  69  70
ATOM     70  S   UNL A   1      46.863  25.804  37.792  1.00  0.00     0.124 S 
ATOM     71  O   UNL A   1      47.720  26.831  38.379  1.00  0.00    -0.237 OA
ATOM     72  O   UNL A   1      46.111  24.994  38.747  1.00  0.00    -0.237 OA
ATOM     73  O   UNL A   1      47.451  25.064  36.678  1.00  0.00    -0.744 OA
ENDBRANCH  69  70
ENDBRANCH  50  64
BRANCH  51  74
ATOM     74  C   UNL A   1      36.359  33.352  31.059  1.00  0.00    -0.014 A 
ATOM     75  C   UNL A   1      35.133  33.568  31.713  1.00  0.00     0.010 A 
ATOM     76  C   UNL A   1      36.539  33.858  29.759  1.00  0.00     0.010 A 
ATOM     77  C   UNL A   1      34.104  34.267  31.075  1.00  0.00     0.020 A 
ATOM     78  C   UNL A   1      35.523  34.581  29.129  1.00  0.00     0.020 A 
ATOM     79  C   UNL A   1      34.307  34.774  29.788  1.00  0.00     0.054 A 
BRANCH  79  80
ATOM     80  S   UNL A   1      32.983  35.739  29.007  1.00  0.00     0.124 S 
ATOM     81  O   UNL A   1      33.732  36.808  28.354  1.00  0.00    -0.237 OA
ATOM     82  O   UNL A   1      32.364  34.762  28.115  1.00  0.00    -0.237 OA
ATOM     83  O   UNL A   1      32.152  36.152  30.136  1.00  0.00    -0.744 OA
ENDBRANCH  79  80
ENDBRANCH  51  74
BRANCH  63  84
ATOM     84  C   UNL A   1      39.811  34.375  37.031  1.00  0.00    -0.014 A 
ATOM     85  C   UNL A   1      40.509  35.587  36.882  1.00  0.00     0.010 A 
ATOM     86  C   UNL A   1      39.004  34.184  38.168  1.00  0.00     0.010 A 
ATOM     87  C   UNL A   1      40.433  36.572  37.871  1.00  0.00     0.020 A 
ATOM     88  C   UNL A   1      38.904  35.177  39.145  1.00  0.00     0.020 A 
ATOM     89  C   UNL A   1      39.634  36.359  38.999  1.00  0.00     0.054 A 
BRANCH  89  90
ATOM     90  S   UNL A   1      39.532  37.661  40.258  1.00  0.00     0.124 S 
ATOM     91  O   UNL A   1      38.905  36.957  41.373  1.00  0.00    -0.237 OA
ATOM     92  O   UNL A   1      40.933  38.029  40.455  1.00  0.00    -0.237 OA
ATOM     93  O   UNL A   1      38.707  38.689  39.627  1.00  0.00    -0.744 OA
ENDBRANCH  89  90
ENDBRANCH  63  84
ENDBRANCH  37  38
ENDBRANCH  29  32
ENDBRANCH  27  28
ENDBRANCH   1  27
TORSDOF 15
ENDMDL
MODEL 3
REMARK VINA RESULT:     -12.0      0.620      8.153
REMARK SMILES C[C@H]1[C@@H](C(=O)NCCCNC(=O)c2ccc(-c3c4nc(c(-c5ccc(S(=O)(=O)[O-])cc5)c5ccc([nH]5)c(-c5ccc(S(=O)(=O)[O-])cc5)c5nc(c(-c6ccc(S(=O)(=O)[O-])cc6)c6ccc3[nH]6)C=C5)C=C4)cc2)CCN1C(=O)N[C@@H]1CC[N@H+]2CCCC[C@H]12
REMARK SMILES IDX 8 1 7 2 6 3 4 4 5 5 3 7 1 8 2 9 75 10 73 11 74 12 76 13
REMARK SMILES IDX 77 14 78 15 79 17 80 18 87 19 81 20 82 21 86 22 83 23 85 25
REMARK SMILES IDX 84 26 9 27 10 28 11 29 12 31 13 32 14 33 72 34 15 35 71 36
REMARK SMILES IDX 16 37 17 38 18 39 65 40 19 41 70 42 64 43 66 44 20 45 69 46
REMARK SMILES IDX 63 47 62 48 21 50 51 51 32 52 50 53 33 54 36 55 49 56 67 57
REMARK SMILES IDX 34 58 35 59 48 61 68 62 37 63 22 64 23 65 31 66 24 67 30 68
REMARK SMILES IDX 25 69 26 70 27 71 28 72 29 73 52 74 53 75 61 76 54 77 60 78
REMARK SMILES IDX 55 79 56 80 57 81 58 82 59 83 38 84 39 85 47 86 40 87 46 88
REMARK SMILES IDX 41 89 42 90 43 91 44 92 45 93
REMARK H PARENT 6 6 78 16 82 24 10 30 66 49 36 60
REMARK Flexibility Score: inf
ROOT
ATOM      1  C   UNL A   1      33.898  30.778  27.638  1.00  0.00     0.042 C 
ENDROOT
BRANCH   1   2
ATOM      2  C   UNL A   1      33.643  29.811  26.477  1.00  0.00     0.117 C 
BRANCH   2   3
ATOM      3  N   UNL A   1      32.431  30.146  25.743  1.00  0.00    -0.356 N 
ATOM      4  C   UNL A   1      31.602  29.407  24.948  1.00  0.00     0.225 C 
ATOM      5  O   UNL A   1      30.633  30.002  24.470  1.00  0.00    -0.275 OA
ATOM      6  H   UNL A   1      32.156  31.086  25.837  1.00  0.00     0.163 HD
BRANCH   4   7
ATOM      7  C   UNL A   1      31.803  27.907  24.738  1.00  0.00     0.102 C 
ATOM      8  C   UNL A   1      33.672  28.440  22.995  1.00  0.00     0.032 C 
ATOM      9  C   UNL A   1      33.058  27.444  23.974  1.00  0.00     0.096 C 
ATOM     10  N   UNL A   1      32.640  26.272  23.219  1.00  0.00    -0.321 N 
ATOM     11  C   UNL A   1      30.627  27.219  24.003  1.00  0.00     0.037 C 
ATOM     12  C   UNL A   1      31.248  26.445  22.853  1.00  0.00     0.122 C 
BRANCH  10  13
ATOM     13  C   UNL A   1      33.413  25.413  22.486  1.00  0.00     0.318 C 
ATOM     14  O   UNL A   1      33.372  25.412  21.253  1.00  0.00    -0.249 OA
ATOM     15  N   UNL A   1      34.296  24.570  23.066  1.00  0.00    -0.329 N 
ATOM     16  H   UNL A   1      35.000  24.275  22.445  1.00  0.00     0.165 HD
BRANCH  15  17
ATOM     17  C   UNL A   1      34.446  23.995  24.398  1.00  0.00     0.147 C 
ATOM     18  C   UNL A   1      35.922  23.773  24.782  1.00  0.00     0.092 C 
ATOM     19  C   UNL A   1      33.818  22.596  24.578  1.00  0.00     0.207 C 
ATOM     20  C   UNL A   1      35.978  22.385  25.410  1.00  0.00     0.264 C 
ATOM     21  N   UNL A   1      34.966  21.685  24.640  1.00  0.00    -0.331 N 
ATOM     22  C   UNL A   1      32.836  22.086  23.532  1.00  0.00     0.067 C 
ATOM     23  C   UNL A   1      34.583  20.382  25.169  1.00  0.00     0.262 C 
ATOM     24  H   UNL A   1      35.343  21.458  23.719  1.00  0.00     0.348 HD
ATOM     25  C   UNL A   1      32.367  20.683  23.932  1.00  0.00     0.012 C 
ATOM     26  C   UNL A   1      33.549  19.750  24.226  1.00  0.00     0.062 C 
ENDBRANCH  15  17
ENDBRANCH  10  13
ENDBRANCH   4   7
ENDBRANCH   2   3
ENDBRANCH   1   2
BRANCH   1  27
ATOM     27  C   UNL A   1      35.346  30.884  28.103  1.00  0.00     0.118 C 
BRANCH  27  28
ATOM     28  N   UNL A   1      35.487  30.625  29.522  1.00  0.00    -0.352 N 
ATOM     29  C   UNL A   1      36.455  29.985  30.258  1.00  0.00     0.251 C 
ATOM     30  H   UNL A   1      34.745  30.976  30.064  1.00  0.00     0.163 HD
ATOM     31  O   UNL A   1      36.179  29.724  31.431  1.00  0.00    -0.269 OA
BRANCH  29  32
ATOM     32  C   UNL A   1      37.792  29.582  29.728  1.00  0.00     0.039 A 
ATOM     33  C   UNL A   1      38.753  29.145  30.653  1.00  0.00     0.014 A 
ATOM     34  C   UNL A   1      38.184  29.729  28.396  1.00  0.00     0.014 A 
ATOM     35  C   UNL A   1      40.064  28.853  30.252  1.00  0.00     0.010 A 
ATOM     36  C   UNL A   1      39.468  29.348  27.977  1.00  0.00     0.010 A 
ATOM     37  C   UNL A   1      40.437  28.936  28.903  1.00  0.00    -0.014 A 
BRANCH  37  38
ATOM     38  C   UNL A   1      41.838  28.653  28.468  1.00  0.00     0.031 A 
ATOM     39  C   UNL A   1      42.242  27.265  28.025  1.00  0.00     0.074 A 
ATOM     40  C   UNL A   1      42.765  29.633  28.487  1.00  0.00     0.049 A 
ATOM     41  N   UNL A   1      43.415  26.828  27.637  1.00  0.00    -0.248 NA
ATOM     42  C   UNL A   1      41.197  26.228  28.039  1.00  0.00     0.031 C 
ATOM     43  C   UNL A   1      42.534  31.010  28.924  1.00  0.00     0.029 A 
ATOM     44  N   UNL A   1      44.092  29.619  28.129  1.00  0.00    -0.354 N 
ATOM     45  C   UNL A   1      43.255  25.469  27.383  1.00  0.00     0.074 A 
ATOM     46  C   UNL A   1      41.883  25.143  27.708  1.00  0.00     0.031 C 
ATOM     47  C   UNL A   1      43.669  31.714  28.783  1.00  0.00     0.029 A 
ATOM     48  C   UNL A   1      44.720  30.834  28.280  1.00  0.00     0.049 A 
ATOM     49  H   UNL A   1      44.552  28.814  27.795  1.00  0.00     0.167 HD
ATOM     50  C   UNL A   1      44.153  24.573  26.903  1.00  0.00     0.031 A 
ATOM     51  C   UNL A   1      45.994  31.205  28.045  1.00  0.00     0.031 A 
ATOM     52  C   UNL A   1      45.514  24.892  26.558  1.00  0.00     0.049 A 
ATOM     53  C   UNL A   1      46.972  30.200  27.501  1.00  0.00     0.074 A 
ATOM     54  C   UNL A   1      46.482  24.062  26.019  1.00  0.00     0.029 A 
ATOM     55  N   UNL A   1      46.099  26.138  26.713  1.00  0.00    -0.354 N 
ATOM     56  N   UNL A   1      46.780  28.933  27.222  1.00  0.00    -0.248 NA
ATOM     57  C   UNL A   1      48.333  30.680  27.226  1.00  0.00     0.031 C 
ATOM     58  C   UNL A   1      47.666  24.797  25.887  1.00  0.00     0.029 A 
ATOM     59  C   UNL A   1      47.420  26.097  26.295  1.00  0.00     0.049 A 
ATOM     60  H   UNL A   1      45.644  26.936  27.068  1.00  0.00     0.167 HD
ATOM     61  C   UNL A   1      47.992  28.469  26.721  1.00  0.00     0.074 A 
ATOM     62  C   UNL A   1      48.902  29.596  26.716  1.00  0.00     0.031 C 
ATOM     63  C   UNL A   1      48.322  27.222  26.304  1.00  0.00     0.031 A 
BRANCH  50  64
ATOM     64  C   UNL A   1      43.685  23.150  26.723  1.00  0.00    -0.014 A 
ATOM     65  C   UNL A   1      42.979  22.484  27.741  1.00  0.00     0.010 A 
ATOM     66  C   UNL A   1      43.926  22.480  25.509  1.00  0.00     0.010 A 
ATOM     67  C   UNL A   1      42.571  21.158  27.571  1.00  0.00     0.020 A 
ATOM     68  C   UNL A   1      43.495  21.162  25.324  1.00  0.00     0.020 A 
ATOM     69  C   UNL A   1      42.837  20.503  26.365  1.00  0.00     0.054 A 
BRANCH  69  70
ATOM     70  S   UNL A   1      42.292  18.784  26.170  1.00  0.00     0.124 S 
ATOM     71  O   UNL A   1      43.228  18.285  25.164  1.00  0.00    -0.237 OA
ATOM     72  O   UNL A   1      42.464  18.237  27.513  1.00  0.00    -0.237 OA
ATOM     73  O   UNL A   1      40.906  18.908  25.724  1.00  0.00    -0.744 OA
ENDBRANCH  69  70
ENDBRANCH  50  64
BRANCH  51  74
ATOM     74  C   UNL A   1      46.414  32.609  28.310  1.00  0.00    -0.014 A 
ATOM     75  C   UNL A   1      46.941  32.973  29.562  1.00  0.00     0.010 A 
ATOM     76  C   UNL A   1      46.311  33.585  27.302  1.00  0.00     0.010 A 
ATOM     77  C   UNL A   1      47.348  34.288  29.804  1.00  0.00     0.020 A 
ATOM     78  C   UNL A   1      46.741  34.894  27.531  1.00  0.00     0.020 A 
ATOM     79  C   UNL A   1      47.251  35.240  28.785  1.00  0.00     0.054 A 
BRANCH  79  80
ATOM     80  S   UNL A   1      47.851  36.924  29.098  1.00  0.00     0.124 S 
ATOM     81  O   UNL A   1      46.646  37.720  28.886  1.00  0.00    -0.237 OA
ATOM     82  O   UNL A   1      48.320  36.840  30.479  1.00  0.00    -0.237 OA
ATOM     83  O   UNL A   1      48.904  37.101  28.101  1.00  0.00    -0.744 OA
ENDBRANCH  79  80
ENDBRANCH  51  74
BRANCH  63  84
ATOM     84  C   UNL A   1      49.719  27.013  25.785  1.00  0.00    -0.014 A 
ATOM     85  C   UNL A   1      50.759  26.603  26.640  1.00  0.00     0.010 A 
ATOM     86  C   UNL A   1      49.990  27.197  24.417  1.00  0.00     0.010 A 
ATOM     87  C   UNL A   1      52.053  26.423  26.142  1.00  0.00     0.020 A 
ATOM     88  C   UNL A   1      51.276  26.992  23.911  1.00  0.00     0.020 A 
ATOM     89  C   UNL A   1      52.305  26.623  24.781  1.00  0.00     0.054 A 
BRANCH  89  90
ATOM     90  S   UNL A   1      53.986  26.361  24.154  1.00  0.00     0.124 S 
ATOM     91  O   UNL A   1      54.662  27.585  24.575  1.00  0.00    -0.237 OA
ATOM     92  O   UNL A   1      54.402  25.143  24.846  1.00  0.00    -0.237 OA
ATOM     93  O   UNL A   1      53.799  26.217  22.711  1.00  0.00    -0.744 OA
ENDBRANCH  89  90
ENDBRANCH  63  84
ENDBRANCH  37  38
ENDBRANCH  29  32
ENDBRANCH  27  28
ENDBRANCH   1  27
TORSDOF 15
ENDMDL
