MODEL 1
REMARK VINA RESULT:     -12.0      0.000      0.000
REMARK SMILES Nc1oc(-c2ccccc2)cc1C(=O)NCCCNC(=O)c1ccc(-c2c3nc(c(-c4ccc(S(=O)(=O)[O-])cc4)c4ccc([nH]4)c(-c4ccc(S(=O)(=O)[O-])cc4)c4nc(c(-c5ccc(S(=O)(=O)[O-])cc5)c5ccc2[nH]5)C=C4)C=C3)cc1
REMARK SMILES IDX 18 1 17 2 16 3 15 4 13 5 14 6 12 8 2 9 3 10 4 11 11 12 1 13
REMARK SMILES IDX 5 16 6 17 10 18 7 19 9 20 8 21 19 22 20 23 21 25 22 26 23 27
REMARK SMILES IDX 81 28 24 29 80 30 25 31 26 32 27 33 74 34 28 35 79 36 73 37
REMARK SMILES IDX 75 38 29 39 78 40 72 41 71 42 30 44 60 45 41 46 59 47 42 48
REMARK SMILES IDX 45 49 58 50 76 51 43 52 44 53 57 55 77 56 46 57 31 58 32 59
REMARK SMILES IDX 40 60 33 61 39 62 34 63 35 64 36 65 37 66 38 67 61 68 62 69
REMARK SMILES IDX 70 70 63 71 69 72 64 73 65 74 66 75 67 76 68 77 47 78 48 79
REMARK SMILES IDX 56 80 49 81 55 82 50 83 51 84 52 85 53 86 54 87
REMARK H PARENT 15 7 1 14 1 15 19 24 75 43 45 54
REMARK Flexibility Score: inf
ROOT
ATOM      1  C   UNL A   1      41.164  21.041  27.679  1.00  0.00     0.118 C 
ENDROOT
BRANCH   1   2
ATOM      2  C   UNL A   1      41.895  19.717  27.498  1.00  0.00     0.042 C 
BRANCH   2   3
ATOM      3  C   UNL A   1      41.977  19.300  26.025  1.00  0.00     0.118 C 
BRANCH   3   4
ATOM      4  N   UNL A   1      43.168  18.517  25.738  1.00  0.00    -0.352 N 
ATOM      5  C   UNL A   1      44.444  18.892  25.384  1.00  0.00     0.256 C 
ATOM      6  O   UNL A   1      45.294  17.999  25.337  1.00  0.00    -0.269 OA
ATOM      7  H   UNL A   1      43.038  17.544  25.807  1.00  0.00     0.163 HD
BRANCH   5   8
ATOM      8  C   UNL A   1      44.773  20.283  25.123  1.00  0.00     0.103 A 
ATOM      9  C   UNL A   1      45.948  20.708  24.519  1.00  0.00     0.203 A 
ATOM     10  O   UNL A   1      46.021  22.066  24.473  1.00  0.00    -0.440 OA
ATOM     11  C   UNL A   1      44.872  22.531  25.027  1.00  0.00     0.137 A 
ATOM     12  C   UNL A   1      44.051  21.482  25.364  1.00  0.00     0.067 A 
BRANCH   9  13
ATOM     13  N   UNL A   1      46.992  20.049  24.007  1.00  0.00    -0.369 N 
ATOM     14  H   UNL A   1      47.906  20.277  24.293  1.00  0.00     0.159 HD
ATOM     15  H   UNL A   1      46.847  19.337  23.344  1.00  0.00     0.159 HD
ENDBRANCH   9  13
BRANCH  11  16
ATOM     16  C   UNL A   1      44.722  23.958  25.204  1.00  0.00     0.017 A 
ATOM     17  C   UNL A   1      45.833  24.800  25.273  1.00  0.00     0.012 A 
ATOM     18  C   UNL A   1      43.434  24.513  25.169  1.00  0.00     0.012 A 
ATOM     19  C   UNL A   1      45.658  26.186  25.273  1.00  0.00     0.001 A 
ATOM     20  C   UNL A   1      43.260  25.896  25.180  1.00  0.00     0.001 A 
ATOM     21  C   UNL A   1      44.374  26.732  25.220  1.00  0.00     0.000 A 
ENDBRANCH  11  16
ENDBRANCH   5   8
ENDBRANCH   3   4
ENDBRANCH   2   3
ENDBRANCH   1   2
BRANCH   1  22
ATOM     22  N   UNL A   1      40.103  21.217  26.685  1.00  0.00    -0.352 N 
ATOM     23  C   UNL A   1      39.330  22.327  26.433  1.00  0.00     0.251 C 
ATOM     24  H   UNL A   1      39.917  20.433  26.119  1.00  0.00     0.163 HD
ATOM     25  O   UNL A   1      38.267  22.208  25.822  1.00  0.00    -0.269 OA
BRANCH  23  26
ATOM     26  C   UNL A   1      39.772  23.649  26.907  1.00  0.00     0.039 A 
ATOM     27  C   UNL A   1      38.964  24.776  26.726  1.00  0.00     0.014 A 
ATOM     28  C   UNL A   1      41.000  23.755  27.558  1.00  0.00     0.014 A 
ATOM     29  C   UNL A   1      39.360  25.986  27.287  1.00  0.00     0.010 A 
ATOM     30  C   UNL A   1      41.329  24.918  28.217  1.00  0.00     0.010 A 
ATOM     31  C   UNL A   1      40.530  26.046  28.064  1.00  0.00    -0.014 A 
BRANCH  31  32
ATOM     32  C   UNL A   1      40.814  27.230  28.879  1.00  0.00     0.031 A 
ATOM     33  C   UNL A   1      41.838  28.131  28.276  1.00  0.00     0.074 A 
ATOM     34  C   UNL A   1      40.064  27.615  29.937  1.00  0.00     0.049 A 
ATOM     35  N   UNL A   1      43.032  28.375  28.707  1.00  0.00    -0.248 NA
ATOM     36  C   UNL A   1      41.564  28.695  26.940  1.00  0.00     0.031 C 
ATOM     37  C   UNL A   1      38.835  26.988  30.439  1.00  0.00     0.029 A 
ATOM     38  N   UNL A   1      40.163  28.730  30.714  1.00  0.00    -0.354 N 
ATOM     39  C   UNL A   1      43.560  29.323  27.835  1.00  0.00     0.074 A 
ATOM     40  C   UNL A   1      42.717  29.307  26.667  1.00  0.00     0.031 C 
ATOM     41  C   UNL A   1      38.180  27.854  31.245  1.00  0.00     0.029 A 
ATOM     42  C   UNL A   1      39.017  29.022  31.454  1.00  0.00     0.049 A 
ATOM     43  H   UNL A   1      40.976  29.284  30.750  1.00  0.00     0.167 HD
ATOM     44  C   UNL A   1      44.456  30.257  28.264  1.00  0.00     0.031 A 
ATOM     45  C   UNL A   1      38.757  30.152  32.162  1.00  0.00     0.031 A 
ATOM     46  C   UNL A   1      45.014  29.900  29.544  1.00  0.00     0.049 A 
ATOM     47  C   UNL A   1      40.057  30.819  32.402  1.00  0.00     0.074 A 
ATOM     48  C   UNL A   1      45.709  28.814  30.041  1.00  0.00     0.029 A 
ATOM     49  N   UNL A   1      44.517  30.569  30.637  1.00  0.00    -0.354 N 
ATOM     50  N   UNL A   1      40.987  30.327  33.167  1.00  0.00    -0.248 NA
ATOM     51  C   UNL A   1      40.496  31.825  31.450  1.00  0.00     0.031 C 
ATOM     52  C   UNL A   1      45.204  28.628  31.361  1.00  0.00     0.029 A 
ATOM     53  C   UNL A   1      44.300  29.657  31.633  1.00  0.00     0.049 A 
ATOM     54  H   UNL A   1      44.348  31.537  30.693  1.00  0.00     0.167 HD
ATOM     55  C   UNL A   1      42.171  30.608  32.503  1.00  0.00     0.074 A 
ATOM     56  C   UNL A   1      41.815  31.627  31.517  1.00  0.00     0.031 C 
ATOM     57  C   UNL A   1      43.254  29.785  32.627  1.00  0.00     0.031 A 
BRANCH  44  58
ATOM     58  C   UNL A   1      44.469  31.689  27.767  1.00  0.00    -0.014 A 
ATOM     59  C   UNL A   1      45.561  32.125  26.987  1.00  0.00     0.010 A 
ATOM     60  C   UNL A   1      43.615  32.690  28.275  1.00  0.00     0.010 A 
ATOM     61  C   UNL A   1      45.827  33.489  26.800  1.00  0.00     0.020 A 
ATOM     62  C   UNL A   1      43.843  34.049  28.056  1.00  0.00     0.020 A 
ATOM     63  C   UNL A   1      44.969  34.442  27.348  1.00  0.00     0.054 A 
BRANCH  63  64
ATOM     64  S   UNL A   1      45.362  36.199  27.175  1.00  0.00     0.124 S 
ATOM     65  O   UNL A   1      44.038  36.788  27.007  1.00  0.00    -0.237 OA
ATOM     66  O   UNL A   1      46.032  36.488  28.440  1.00  0.00    -0.237 OA
ATOM     67  O   UNL A   1      46.224  36.241  25.996  1.00  0.00    -0.744 OA
ENDBRANCH  63  64
ENDBRANCH  44  58
BRANCH  45  68
ATOM     68  C   UNL A   1      37.469  30.841  32.434  1.00  0.00    -0.014 A 
ATOM     69  C   UNL A   1      37.290  31.587  33.617  1.00  0.00     0.010 A 
ATOM     70  C   UNL A   1      36.531  31.027  31.399  1.00  0.00     0.010 A 
ATOM     71  C   UNL A   1      36.269  32.548  33.725  1.00  0.00     0.020 A 
ATOM     72  C   UNL A   1      35.504  31.977  31.503  1.00  0.00     0.020 A 
ATOM     73  C   UNL A   1      35.398  32.756  32.654  1.00  0.00     0.054 A 
BRANCH  73  74
ATOM     74  S   UNL A   1      34.222  34.144  32.718  1.00  0.00     0.124 S 
ATOM     75  O   UNL A   1      34.169  34.574  31.324  1.00  0.00    -0.237 OA
ATOM     76  O   UNL A   1      33.009  33.510  33.230  1.00  0.00    -0.237 OA
ATOM     77  O   UNL A   1      34.856  35.090  33.635  1.00  0.00    -0.744 OA
ENDBRANCH  73  74
ENDBRANCH  45  68
BRANCH  57  78
ATOM     78  C   UNL A   1      43.286  28.802  33.774  1.00  0.00    -0.014 A 
ATOM     79  C   UNL A   1      43.998  28.988  34.975  1.00  0.00     0.010 A 
ATOM     80  C   UNL A   1      42.455  27.673  33.658  1.00  0.00     0.010 A 
ATOM     81  C   UNL A   1      43.915  28.041  36.010  1.00  0.00     0.020 A 
ATOM     82  C   UNL A   1      42.350  26.742  34.689  1.00  0.00     0.020 A 
ATOM     83  C   UNL A   1      43.094  26.919  35.855  1.00  0.00     0.054 A 
BRANCH  83  84
ATOM     84  S   UNL A   1      42.986  25.692  37.187  1.00  0.00     0.124 S 
ATOM     85  O   UNL A   1      43.271  26.488  38.376  1.00  0.00    -0.237 OA
ATOM     86  O   UNL A   1      41.613  25.205  37.069  1.00  0.00    -0.237 OA
ATOM     87  O   UNL A   1      44.013  24.710  36.840  1.00  0.00    -0.744 OA
ENDBRANCH  83  84
ENDBRANCH  57  78
ENDBRANCH  31  32
ENDBRANCH  23  26
ENDBRANCH   1  22
TORSDOF 15
ENDMDL
MODEL 2
REMARK VINA RESULT:     -11.9      4.192     10.817
REMARK SMILES Nc1oc(-c2ccccc2)cc1C(=O)NCCCNC(=O)c1ccc(-c2c3nc(c(-c4ccc(S(=O)(=O)[O-])cc4)c4ccc([nH]4)c(-c4ccc(S(=O)(=O)[O-])cc4)c4nc(c(-c5ccc(S(=O)(=O)[O-])cc5)c5ccc2[nH]5)C=C4)C=C3)cc1
REMARK SMILES IDX 18 1 17 2 16 3 15 4 13 5 14 6 12 8 2 9 3 10 4 11 11 12 1 13
REMARK SMILES IDX 5 16 6 17 10 18 7 19 9 20 8 21 19 22 20 23 21 25 22 26 23 27
REMARK SMILES IDX 81 28 24 29 80 30 25 31 26 32 27 33 74 34 28 35 79 36 73 37
REMARK SMILES IDX 75 38 29 39 78 40 72 41 71 42 30 44 60 45 41 46 59 47 42 48
REMARK SMILES IDX 45 49 58 50 76 51 43 52 44 53 57 55 77 56 46 57 31 58 32 59
REMARK SMILES IDX 40 60 33 61 39 62 34 63 35 64 36 65 37 66 38 67 61 68 62 69
REMARK SMILES IDX 70 70 63 71 69 72 64 73 65 74 66 75 67 76 68 77 47 78 48 79
REMARK SMILES IDX 56 80 49 81 55 82 50 83 51 84 52 85 53 86 54 87
REMARK H PARENT 15 7 1 14 1 15 19 24 75 43 45 54
REMARK Flexibility Score: inf
ROOT
ATOM      1  C   UNL A   1      34.138  29.146  26.126  1.00  0.00     0.118 C 
ENDROOT
BRANCH   1   2
ATOM      2  C   UNL A   1      32.929  28.245  26.340  1.00  0.00     0.042 C 
BRANCH   2   3
ATOM      3  C   UNL A   1      32.364  27.715  25.018  1.00  0.00     0.118 C 
BRANCH   3   4
ATOM      4  N   UNL A   1      33.127  28.171  23.868  1.00  0.00    -0.352 N 
ATOM      5  C   UNL A   1      33.609  27.500  22.767  1.00  0.00     0.256 C 
ATOM      6  O   UNL A   1      34.111  28.186  21.873  1.00  0.00    -0.269 OA
ATOM      7  H   UNL A   1      33.337  29.133  23.878  1.00  0.00     0.163 HD
BRANCH   5   8
ATOM      8  C   UNL A   1      33.489  26.056  22.656  1.00  0.00     0.103 A 
ATOM      9  C   UNL A   1      32.793  25.405  21.646  1.00  0.00     0.203 A 
ATOM     10  O   UNL A   1      32.784  24.058  21.838  1.00  0.00    -0.440 OA
ATOM     11  C   UNL A   1      33.502  23.826  22.966  1.00  0.00     0.137 A 
ATOM     12  C   UNL A   1      34.015  25.004  23.452  1.00  0.00     0.067 A 
BRANCH   9  13
ATOM     13  N   UNL A   1      32.140  25.847  20.568  1.00  0.00    -0.369 N 
ATOM     14  H   UNL A   1      31.185  26.079  20.632  1.00  0.00     0.159 HD
ATOM     15  H   UNL A   1      32.612  25.940  19.710  1.00  0.00     0.159 HD
ENDBRANCH   9  13
BRANCH  11  16
ATOM     16  C   UNL A   1      33.573  22.473  23.470  1.00  0.00     0.017 A 
ATOM     17  C   UNL A   1      34.621  22.063  24.296  1.00  0.00     0.012 A 
ATOM     18  C   UNL A   1      32.499  21.602  23.231  1.00  0.00     0.012 A 
ATOM     19  C   UNL A   1      34.577  20.807  24.905  1.00  0.00     0.001 A 
ATOM     20  C   UNL A   1      32.462  20.345  23.832  1.00  0.00     0.001 A 
ATOM     21  C   UNL A   1      33.497  19.953  24.678  1.00  0.00     0.000 A 
ENDBRANCH  11  16
ENDBRANCH   5   8
ENDBRANCH   3   4
ENDBRANCH   2   3
ENDBRANCH   1   2
BRANCH   1  22
ATOM     22  N   UNL A   1      33.873  30.522  26.550  1.00  0.00    -0.352 N 
ATOM     23  C   UNL A   1      34.434  31.230  27.588  1.00  0.00     0.251 C 
ATOM     24  H   UNL A   1      33.200  31.008  26.020  1.00  0.00     0.163 HD
ATOM     25  O   UNL A   1      33.865  32.232  28.025  1.00  0.00    -0.269 OA
BRANCH  23  26
ATOM     26  C   UNL A   1      35.707  30.780  28.177  1.00  0.00     0.039 A 
ATOM     27  C   UNL A   1      35.916  29.428  28.467  1.00  0.00     0.014 A 
ATOM     28  C   UNL A   1      36.706  31.720  28.421  1.00  0.00     0.014 A 
ATOM     29  C   UNL A   1      37.169  29.020  28.914  1.00  0.00     0.010 A 
ATOM     30  C   UNL A   1      37.977  31.301  28.743  1.00  0.00     0.010 A 
ATOM     31  C   UNL A   1      38.211  29.958  29.019  1.00  0.00    -0.014 A 
BRANCH  31  32
ATOM     32  C   UNL A   1      39.590  29.508  29.222  1.00  0.00     0.031 A 
ATOM     33  C   UNL A   1      39.932  29.274  30.655  1.00  0.00     0.074 A 
ATOM     34  C   UNL A   1      40.405  29.099  28.222  1.00  0.00     0.049 A 
ATOM     35  N   UNL A   1      40.751  29.945  31.394  1.00  0.00    -0.248 NA
ATOM     36  C   UNL A   1      39.135  28.282  31.403  1.00  0.00     0.031 C 
ATOM     37  C   UNL A   1      40.081  28.975  26.796  1.00  0.00     0.029 A 
ATOM     38  N   UNL A   1      41.662  28.575  28.283  1.00  0.00    -0.354 N 
ATOM     39  C   UNL A   1      40.767  29.295  32.625  1.00  0.00     0.074 A 
ATOM     40  C   UNL A   1      39.607  28.440  32.641  1.00  0.00     0.031 C 
ATOM     41  C   UNL A   1      40.998  28.192  26.187  1.00  0.00     0.029 A 
ATOM     42  C   UNL A   1      42.062  27.899  27.129  1.00  0.00     0.049 A 
ATOM     43  H   UNL A   1      42.240  28.667  29.075  1.00  0.00     0.167 HD
ATOM     44  C   UNL A   1      41.886  29.279  33.403  1.00  0.00     0.031 A 
ATOM     45  C   UNL A   1      43.169  27.128  26.968  1.00  0.00     0.031 A 
ATOM     46  C   UNL A   1      42.838  30.272  32.974  1.00  0.00     0.049 A 
ATOM     47  C   UNL A   1      44.111  27.492  28.051  1.00  0.00     0.074 A 
ATOM     48  C   UNL A   1      42.815  31.643  32.807  1.00  0.00     0.029 A 
ATOM     49  N   UNL A   1      43.914  29.816  32.250  1.00  0.00    -0.354 N 
ATOM     50  N   UNL A   1      44.698  28.650  28.133  1.00  0.00    -0.248 NA
ATOM     51  C   UNL A   1      44.070  26.722  29.282  1.00  0.00     0.031 C 
ATOM     52  C   UNL A   1      43.583  31.883  31.631  1.00  0.00     0.029 A 
ATOM     53  C   UNL A   1      44.107  30.664  31.193  1.00  0.00     0.049 A 
ATOM     54  H   UNL A   1      44.452  29.018  32.455  1.00  0.00     0.167 HD
ATOM     55  C   UNL A   1      44.690  28.951  29.485  1.00  0.00     0.074 A 
ATOM     56  C   UNL A   1      44.396  27.682  30.151  1.00  0.00     0.031 C 
ATOM     57  C   UNL A   1      44.641  30.247  29.914  1.00  0.00     0.031 A 
BRANCH  44  58
ATOM     58  C   UNL A   1      42.311  28.078  34.225  1.00  0.00    -0.014 A 
ATOM     59  C   UNL A   1      42.410  28.217  35.626  1.00  0.00     0.010 A 
ATOM     60  C   UNL A   1      42.895  26.924  33.661  1.00  0.00     0.010 A 
ATOM     61  C   UNL A   1      43.126  27.296  36.403  1.00  0.00     0.020 A 
ATOM     62  C   UNL A   1      43.570  25.976  34.430  1.00  0.00     0.020 A 
ATOM     63  C   UNL A   1      43.711  26.186  35.795  1.00  0.00     0.054 A 
BRANCH  63  64
ATOM     64  S   UNL A   1      44.704  25.045  36.788  1.00  0.00     0.124 S 
ATOM     65  O   UNL A   1      44.367  23.757  36.193  1.00  0.00    -0.237 OA
ATOM     66  O   UNL A   1      46.061  25.526  36.539  1.00  0.00    -0.237 OA
ATOM     67  O   UNL A   1      44.212  25.260  38.146  1.00  0.00    -0.744 OA
ENDBRANCH  63  64
ENDBRANCH  44  58
BRANCH  45  68
ATOM     68  C   UNL A   1      43.389  25.928  26.118  1.00  0.00    -0.014 A 
ATOM     69  C   UNL A   1      44.639  25.704  25.504  1.00  0.00     0.010 A 
ATOM     70  C   UNL A   1      42.482  24.851  26.163  1.00  0.00     0.010 A 
ATOM     71  C   UNL A   1      45.001  24.428  25.036  1.00  0.00     0.020 A 
ATOM     72  C   UNL A   1      42.834  23.578  25.689  1.00  0.00     0.020 A 
ATOM     73  C   UNL A   1      44.105  23.365  25.158  1.00  0.00     0.054 A 
BRANCH  73  74
ATOM     74  S   UNL A   1      44.658  21.680  24.750  1.00  0.00     0.124 S 
ATOM     75  O   UNL A   1      43.624  20.853  25.364  1.00  0.00    -0.237 OA
ATOM     76  O   UNL A   1      44.673  21.693  23.290  1.00  0.00    -0.237 OA
ATOM     77  O   UNL A   1      45.976  21.591  25.378  1.00  0.00    -0.744 OA
ENDBRANCH  73  74
ENDBRANCH  45  68
BRANCH  57  78
ATOM     78  C   UNL A   1      44.984  31.344  28.933  1.00  0.00    -0.014 A 
ATOM     79  C   UNL A   1      46.252  31.944  28.806  1.00  0.00     0.010 A 
ATOM     80  C   UNL A   1      43.978  31.707  28.018  1.00  0.00     0.010 A 
ATOM     81  C   UNL A   1      46.488  32.916  27.819  1.00  0.00     0.020 A 
ATOM     82  C   UNL A   1      44.213  32.653  27.022  1.00  0.00     0.020 A 
ATOM     83  C   UNL A   1      45.461  33.268  26.937  1.00  0.00     0.054 A 
BRANCH  83  84
ATOM     84  S   UNL A   1      45.760  34.525  25.663  1.00  0.00     0.124 S 
ATOM     85  O   UNL A   1      45.363  35.758  26.334  1.00  0.00    -0.237 OA
ATOM     86  O   UNL A   1      47.189  34.383  25.396  1.00  0.00    -0.237 OA
ATOM     87  O   UNL A   1      44.891  34.116  24.560  1.00  0.00    -0.744 OA
ENDBRANCH  83  84
ENDBRANCH  57  78
ENDBRANCH  31  32
ENDBRANCH  23  26
ENDBRANCH   1  22
TORSDOF 15
ENDMDL
MODEL 3
REMARK VINA RESULT:     -11.9      4.100     10.821
REMARK SMILES Nc1oc(-c2ccccc2)cc1C(=O)NCCCNC(=O)c1ccc(-c2c3nc(c(-c4ccc(S(=O)(=O)[O-])cc4)c4ccc([nH]4)c(-c4ccc(S(=O)(=O)[O-])cc4)c4nc(c(-c5ccc(S(=O)(=O)[O-])cc5)c5ccc2[nH]5)C=C4)C=C3)cc1
REMARK SMILES IDX 18 1 17 2 16 3 15 4 13 5 14 6 12 8 2 9 3 10 4 11 11 12 1 13
REMARK SMILES IDX 5 16 6 17 10 18 7 19 9 20 8 21 19 22 20 23 21 25 22 26 23 27
REMARK SMILES IDX 81 28 24 29 80 30 25 31 26 32 27 33 74 34 28 35 79 36 73 37
REMARK SMILES IDX 75 38 29 39 78 40 72 41 71 42 30 44 60 45 41 46 59 47 42 48
REMARK SMILES IDX 45 49 58 50 76 51 43 52 44 53 57 55 77 56 46 57 31 58 32 59
REMARK SMILES IDX 40 60 33 61 39 62 34 63 35 64 36 65 37 66 38 67 61 68 62 69
REMARK SMILES IDX 70 70 63 71 69 72 64 73 65 74 66 75 67 76 68 77 47 78 48 79
REMARK SMILES IDX 56 80 49 81 55 82 50 83 51 84 52 85 53 86 54 87
REMARK H PARENT 15 7 1 14 1 15 19 24 75 43 45 54
REMARK Flexibility Score: inf
ROOT
ATOM      1  C   UNL A   1      33.435  29.584  26.873  1.00  0.00     0.118 C 
ENDROOT
BRANCH   1   2
ATOM      2  C   UNL A   1      32.408  29.110  25.853  1.00  0.00     0.042 C 
BRANCH   2   3
ATOM      3  C   UNL A   1      32.892  29.309  24.412  1.00  0.00     0.118 C 
BRANCH   3   4
ATOM      4  N   UNL A   1      31.862  28.997  23.435  1.00  0.00    -0.352 N 
ATOM      5  C   UNL A   1      31.626  27.868  22.685  1.00  0.00     0.256 C 
ATOM      6  O   UNL A   1      30.581  27.842  22.031  1.00  0.00    -0.269 OA
ATOM      7  H   UNL A   1      31.218  29.726  23.281  1.00  0.00     0.163 HD
BRANCH   5   8
ATOM      8  C   UNL A   1      32.551  26.747  22.704  1.00  0.00     0.103 A 
ATOM      9  C   UNL A   1      32.698  25.837  21.666  1.00  0.00     0.203 A 
ATOM     10  O   UNL A   1      33.577  24.850  21.990  1.00  0.00    -0.440 OA
ATOM     11  C   UNL A   1      34.028  25.133  23.239  1.00  0.00     0.137 A 
ATOM     12  C   UNL A   1      33.490  26.318  23.680  1.00  0.00     0.067 A 
BRANCH   9  13
ATOM     13  N   UNL A   1      32.141  25.748  20.455  1.00  0.00    -0.369 N 
ATOM     14  H   UNL A   1      32.329  24.971  19.882  1.00  0.00     0.159 HD
ATOM     15  H   UNL A   1      31.541  26.461  20.136  1.00  0.00     0.159 HD
ENDBRANCH   9  13
BRANCH  11  16
ATOM     16  C   UNL A   1      34.908  24.185  23.885  1.00  0.00     0.017 A 
ATOM     17  C   UNL A   1      35.607  23.229  23.147  1.00  0.00     0.012 A 
ATOM     18  C   UNL A   1      35.163  24.322  25.258  1.00  0.00     0.012 A 
ATOM     19  C   UNL A   1      36.576  22.440  23.771  1.00  0.00     0.001 A 
ATOM     20  C   UNL A   1      36.123  23.527  25.880  1.00  0.00     0.001 A 
ATOM     21  C   UNL A   1      36.838  22.593  25.133  1.00  0.00     0.000 A 
ENDBRANCH  11  16
ENDBRANCH   5   8
ENDBRANCH   3   4
ENDBRANCH   2   3
ENDBRANCH   1   2
BRANCH   1  22
ATOM     22  N   UNL A   1      33.510  31.045  26.930  1.00  0.00    -0.352 N 
ATOM     23  C   UNL A   1      34.349  31.839  27.677  1.00  0.00     0.251 C 
ATOM     24  H   UNL A   1      32.872  31.526  26.355  1.00  0.00     0.163 HD
ATOM     25  O   UNL A   1      34.059  33.019  27.878  1.00  0.00    -0.269 OA
BRANCH  23  26
ATOM     26  C   UNL A   1      35.584  31.269  28.242  1.00  0.00     0.039 A 
ATOM     27  C   UNL A   1      35.818  29.891  28.192  1.00  0.00     0.014 A 
ATOM     28  C   UNL A   1      36.525  32.127  28.809  1.00  0.00     0.014 A 
ATOM     29  C   UNL A   1      37.044  29.399  28.630  1.00  0.00     0.010 A 
ATOM     30  C   UNL A   1      37.779  31.657  29.124  1.00  0.00     0.010 A 
ATOM     31  C   UNL A   1      38.039  30.292  29.065  1.00  0.00    -0.014 A 
BRANCH  31  32
ATOM     32  C   UNL A   1      39.412  29.824  29.268  1.00  0.00     0.031 A 
ATOM     33  C   UNL A   1      39.795  29.720  30.706  1.00  0.00     0.074 A 
ATOM     34  C   UNL A   1      40.181  29.297  28.289  1.00  0.00     0.049 A 
ATOM     35  N   UNL A   1      40.657  30.436  31.350  1.00  0.00    -0.248 NA
ATOM     36  C   UNL A   1      38.999  28.829  31.573  1.00  0.00     0.031 C 
ATOM     37  C   UNL A   1      39.806  29.045  26.892  1.00  0.00     0.029 A 
ATOM     38  N   UNL A   1      41.426  28.745  28.361  1.00  0.00    -0.354 N 
ATOM     39  C   UNL A   1      40.697  29.908  32.638  1.00  0.00     0.074 A 
ATOM     40  C   UNL A   1      39.516  29.093  32.773  1.00  0.00     0.031 C 
ATOM     41  C   UNL A   1      40.682  28.180  26.334  1.00  0.00     0.029 A 
ATOM     42  C   UNL A   1      41.769  27.949  27.268  1.00  0.00     0.049 A 
ATOM     43  H   UNL A   1      42.033  28.897  29.122  1.00  0.00     0.167 HD
ATOM     44  C   UNL A   1      41.841  29.935  33.379  1.00  0.00     0.031 A 
ATOM     45  C   UNL A   1      42.850  27.134  27.148  1.00  0.00     0.031 A 
ATOM     46  C   UNL A   1      42.803  30.854  32.825  1.00  0.00     0.049 A 
ATOM     47  C   UNL A   1      43.837  27.574  28.160  1.00  0.00     0.074 A 
ATOM     48  C   UNL A   1      42.810  32.202  32.526  1.00  0.00     0.029 A 
ATOM     49  N   UNL A   1      43.842  30.299  32.116  1.00  0.00    -0.354 N 
ATOM     50  N   UNL A   1      44.457  28.718  28.110  1.00  0.00    -0.248 NA
ATOM     51  C   UNL A   1      43.818  26.928  29.461  1.00  0.00     0.031 C 
ATOM     52  C   UNL A   1      43.544  32.305  31.308  1.00  0.00     0.029 A 
ATOM     53  C   UNL A   1      44.021  31.035  30.976  1.00  0.00     0.049 A 
ATOM     54  H   UNL A   1      44.366  29.509  32.381  1.00  0.00     0.167 HD
ATOM     55  C   UNL A   1      44.502  29.147  29.426  1.00  0.00     0.074 A 
ATOM     56  C   UNL A   1      44.198  27.958  30.221  1.00  0.00     0.031 C 
ATOM     57  C   UNL A   1      44.500  30.480  29.727  1.00  0.00     0.031 A 
BRANCH  44  58
ATOM     58  C   UNL A   1      42.262  28.808  34.300  1.00  0.00    -0.014 A 
ATOM     59  C   UNL A   1      42.870  27.665  33.738  1.00  0.00     0.010 A 
ATOM     60  C   UNL A   1      41.824  28.698  35.637  1.00  0.00     0.010 A 
ATOM     61  C   UNL A   1      42.955  26.459  34.447  1.00  0.00     0.020 A 
ATOM     62  C   UNL A   1      41.946  27.516  36.369  1.00  0.00     0.020 A 
ATOM     63  C   UNL A   1      42.480  26.392  35.757  1.00  0.00     0.054 A 
BRANCH  63  64
ATOM     64  S   UNL A   1      42.515  24.812  36.638  1.00  0.00     0.124 S 
ATOM     65  O   UNL A   1      43.669  24.984  37.515  1.00  0.00    -0.237 OA
ATOM     66  O   UNL A   1      41.212  24.801  37.296  1.00  0.00    -0.237 OA
ATOM     67  O   UNL A   1      42.676  23.830  35.569  1.00  0.00    -0.744 OA
ENDBRANCH  63  64
ENDBRANCH  44  58
BRANCH  45  68
ATOM     68  C   UNL A   1      43.010  25.852  26.413  1.00  0.00    -0.014 A 
ATOM     69  C   UNL A   1      43.967  25.730  25.384  1.00  0.00     0.010 A 
ATOM     70  C   UNL A   1      42.449  24.666  26.925  1.00  0.00     0.010 A 
ATOM     71  C   UNL A   1      44.411  24.469  24.950  1.00  0.00     0.020 A 
ATOM     72  C   UNL A   1      42.882  23.404  26.490  1.00  0.00     0.020 A 
ATOM     73  C   UNL A   1      43.885  23.312  25.527  1.00  0.00     0.054 A 
BRANCH  73  74
ATOM     74  S   UNL A   1      44.617  21.697  25.116  1.00  0.00     0.124 S 
ATOM     75  O   UNL A   1      44.628  21.720  23.657  1.00  0.00    -0.237 OA
ATOM     76  O   UNL A   1      45.926  21.767  25.759  1.00  0.00    -0.237 OA
ATOM     77  O   UNL A   1      43.689  20.737  25.713  1.00  0.00    -0.744 OA
ENDBRANCH  73  74
ENDBRANCH  45  68
BRANCH  57  78
ATOM     78  C   UNL A   1      44.839  31.467  28.634  1.00  0.00    -0.014 A 
ATOM     79  C   UNL A   1      43.941  31.914  27.645  1.00  0.00     0.010 A 
ATOM     80  C   UNL A   1      46.119  32.048  28.686  1.00  0.00     0.010 A 
ATOM     81  C   UNL A   1      44.334  32.882  26.706  1.00  0.00     0.020 A 
ATOM     82  C   UNL A   1      46.508  33.026  27.772  1.00  0.00     0.020 A 
ATOM     83  C   UNL A   1      45.621  33.427  26.774  1.00  0.00     0.054 A 
BRANCH  83  84
ATOM     84  S   UNL A   1      46.135  34.675  25.562  1.00  0.00     0.124 S 
ATOM     85  O   UNL A   1      45.255  34.400  24.430  1.00  0.00    -0.237 OA
ATOM     86  O   UNL A   1      45.886  35.932  26.265  1.00  0.00    -0.237 OA
ATOM     87  O   UNL A   1      47.548  34.376  25.332  1.00  0.00    -0.744 OA
ENDBRANCH  83  84
ENDBRANCH  57  78
ENDBRANCH  31  32
ENDBRANCH  23  26
ENDBRANCH   1  22
TORSDOF 15
ENDMDL
