MODEL 1
REMARK VINA RESULT:     -11.7      0.000      0.000
REMARK SMILES O=C(NCCCNC(=O)c1ccc(-c2c3nc(c(-c4ccc(S(=O)(=O)[O-])cc4)c4ccc([nH]4)c(-c4ccc(S(=O)(=O)[O-])cc4)c4nc(c(-c5ccc(S(=O)(=O)[O-])cc5)c5ccc2[nH]5)C=C4)C=C3)cc1)c1ccc(C#CC#C[C@H]2C[C@@H](O)C2)cc1
REMARK SMILES IDX 4 1 3 2 1 3 2 4 70 6 71 7 84 8 72 9 83 10 73 11 74 12 75 13
REMARK SMILES IDX 76 14 77 15 78 16 82 17 79 18 80 19 81 20 5 22 6 23 7 24
REMARK SMILES IDX 8 25 9 27 10 28 11 29 69 30 12 31 68 32 13 33 14 34 15 35
REMARK SMILES IDX 62 36 16 37 67 38 61 39 63 40 17 41 66 42 60 43 59 44 18 46
REMARK SMILES IDX 48 47 29 48 47 49 30 50 33 51 46 52 64 53 31 54 32 55 45 57
REMARK SMILES IDX 65 58 34 59 19 60 20 61 28 62 21 63 27 64 22 65 23 66 24 67
REMARK SMILES IDX 25 68 26 69 49 70 50 71 58 72 51 73 57 74 52 75 53 76 54 77
REMARK SMILES IDX 55 78 56 79 35 80 36 81 44 82 37 83 43 84 38 85 39 86 40 87
REMARK SMILES IDX 41 88 42 89
REMARK H PARENT 3 5 81 21 7 26 63 45 33 56
REMARK Flexibility Score: inf
ROOT
ATOM      1  C   UNL A   1      32.994  28.871  24.494  1.00  0.00     0.118 C 
ENDROOT
BRANCH   1   2
ATOM      2  N   UNL A   1      31.886  29.149  23.590  1.00  0.00    -0.352 N 
ATOM      3  O   UNL A   1      30.400  28.727  21.945  1.00  0.00    -0.269 OA
ATOM      4  C   UNL A   1      31.201  28.291  22.766  1.00  0.00     0.251 C 
ATOM      5  H   UNL A   1      31.587  30.085  23.566  1.00  0.00     0.163 HD
BRANCH   4   6
ATOM      6  C   UNL A   1      31.433  26.837  22.863  1.00  0.00     0.039 A 
ATOM      7  C   UNL A   1      30.525  26.012  23.535  1.00  0.00     0.015 A 
ATOM      8  C   UNL A   1      32.565  26.288  22.253  1.00  0.00     0.015 A 
ATOM      9  C   UNL A   1      30.795  24.654  23.677  1.00  0.00     0.018 A 
ATOM     10  C   UNL A   1      32.821  24.920  22.373  1.00  0.00     0.018 A 
ATOM     11  C   UNL A   1      31.943  24.107  23.096  1.00  0.00     0.026 A 
BRANCH  11  12
ATOM     12  C   UNL A   1      32.189  22.709  23.233  1.00  0.00    -0.053 C 
ATOM     13  C   UNL A   1      32.335  21.523  23.359  1.00  0.00    -0.010 C 
BRANCH  13  14
ATOM     14  C   UNL A   1      32.477  20.011  23.518  1.00  0.00    -0.015 C 
ATOM     15  C   UNL A   1      32.594  18.823  23.644  1.00  0.00    -0.085 C 
BRANCH  15  16
ATOM     16  C   UNL A   1      32.742  17.399  23.825  1.00  0.00     0.070 C 
ATOM     17  C   UNL A   1      34.103  16.795  23.399  1.00  0.00     0.048 C 
ATOM     18  C   UNL A   1      33.080  16.922  25.260  1.00  0.00     0.048 C 
ATOM     19  C   UNL A   1      33.973  15.840  24.609  1.00  0.00     0.116 C 
BRANCH  19  20
ATOM     20  O   UNL A   1      35.187  15.502  25.302  1.00  0.00    -0.393 OA
ATOM     21  H   UNL A   1      34.971  15.068  26.142  1.00  0.00     0.210 HD
ENDBRANCH  19  20
ENDBRANCH  15  16
ENDBRANCH  13  14
ENDBRANCH  11  12
ENDBRANCH   4   6
ENDBRANCH   1   2
BRANCH   1  22
ATOM     22  C   UNL A   1      32.527  28.482  25.886  1.00  0.00     0.042 C 
BRANCH  22  23
ATOM     23  C   UNL A   1      33.566  28.716  26.970  1.00  0.00     0.118 C 
BRANCH  23  24
ATOM     24  N   UNL A   1      33.555  30.083  27.481  1.00  0.00    -0.352 N 
ATOM     25  C   UNL A   1      34.513  30.756  28.202  1.00  0.00     0.251 C 
ATOM     26  H   UNL A   1      32.741  30.599  27.279  1.00  0.00     0.163 HD
ATOM     27  O   UNL A   1      34.254  31.848  28.699  1.00  0.00    -0.269 OA
BRANCH  25  28
ATOM     28  C   UNL A   1      35.842  30.142  28.397  1.00  0.00     0.039 A 
ATOM     29  C   UNL A   1      36.766  30.150  27.349  1.00  0.00     0.014 A 
ATOM     30  C   UNL A   1      36.187  29.596  29.634  1.00  0.00     0.014 A 
ATOM     31  C   UNL A   1      38.069  29.696  27.575  1.00  0.00     0.010 A 
ATOM     32  C   UNL A   1      37.506  29.244  29.884  1.00  0.00     0.010 A 
ATOM     33  C   UNL A   1      38.462  29.288  28.859  1.00  0.00    -0.014 A 
BRANCH  33  34
ATOM     34  C   UNL A   1      39.858  28.892  29.177  1.00  0.00     0.031 A 
ATOM     35  C   UNL A   1      40.799  29.906  29.771  1.00  0.00     0.074 A 
ATOM     36  C   UNL A   1      40.309  27.669  28.837  1.00  0.00     0.049 A 
ATOM     37  N   UNL A   1      42.087  29.816  29.978  1.00  0.00    -0.248 NA
ATOM     38  C   UNL A   1      40.215  31.204  30.151  1.00  0.00     0.031 C 
ATOM     39  C   UNL A   1      39.504  26.600  28.244  1.00  0.00     0.029 A 
ATOM     40  N   UNL A   1      41.567  27.125  28.925  1.00  0.00    -0.354 N 
ATOM     41  C   UNL A   1      42.471  31.051  30.491  1.00  0.00     0.074 A 
ATOM     42  C   UNL A   1      41.293  31.889  30.501  1.00  0.00     0.031 C 
ATOM     43  C   UNL A   1      40.281  25.521  28.048  1.00  0.00     0.029 A 
ATOM     44  C   UNL A   1      41.650  25.841  28.440  1.00  0.00     0.049 A 
ATOM     45  H   UNL A   1      42.338  27.609  29.302  1.00  0.00     0.167 HD
ATOM     46  C   UNL A   1      43.689  31.445  30.931  1.00  0.00     0.031 A 
ATOM     47  C   UNL A   1      42.710  25.020  28.307  1.00  0.00     0.031 A 
ATOM     48  C   UNL A   1      44.859  30.610  30.905  1.00  0.00     0.049 A 
ATOM     49  C   UNL A   1      44.070  25.500  28.737  1.00  0.00     0.074 A 
ATOM     50  C   UNL A   1      46.135  30.901  31.353  1.00  0.00     0.029 A 
ATOM     51  N   UNL A   1      44.902  29.321  30.392  1.00  0.00    -0.354 N 
ATOM     52  N   UNL A   1      44.408  26.656  29.257  1.00  0.00    -0.248 NA
ATOM     53  C   UNL A   1      45.189  24.564  28.570  1.00  0.00     0.031 C 
ATOM     54  C   UNL A   1      46.964  29.818  31.047  1.00  0.00     0.029 A 
ATOM     55  C   UNL A   1      46.187  28.815  30.488  1.00  0.00     0.049 A 
ATOM     56  H   UNL A   1      44.131  28.837  30.015  1.00  0.00     0.167 HD
ATOM     57  C   UNL A   1      45.771  26.567  29.524  1.00  0.00     0.074 A 
ATOM     58  C   UNL A   1      46.192  25.246  29.105  1.00  0.00     0.031 C 
ATOM     59  C   UNL A   1      46.594  27.493  30.076  1.00  0.00     0.031 A 
BRANCH  46  60
ATOM     60  C   UNL A   1      43.812  32.855  31.454  1.00  0.00    -0.014 A 
ATOM     61  C   UNL A   1      43.592  33.152  32.814  1.00  0.00     0.010 A 
ATOM     62  C   UNL A   1      44.157  33.899  30.577  1.00  0.00     0.010 A 
ATOM     63  C   UNL A   1      43.648  34.472  33.269  1.00  0.00     0.020 A 
ATOM     64  C   UNL A   1      44.255  35.215  31.038  1.00  0.00     0.020 A 
ATOM     65  C   UNL A   1      43.974  35.496  32.376  1.00  0.00     0.054 A 
BRANCH  65  66
ATOM     66  S   UNL A   1      44.030  37.199  32.996  1.00  0.00     0.124 S 
ATOM     67  O   UNL A   1      42.882  37.228  33.898  1.00  0.00    -0.237 OA
ATOM     68  O   UNL A   1      45.339  37.260  33.642  1.00  0.00    -0.237 OA
ATOM     69  O   UNL A   1      43.895  38.012  31.790  1.00  0.00    -0.744 OA
ENDBRANCH  65  66
ENDBRANCH  46  60
BRANCH  47  70
ATOM     70  C   UNL A   1      42.521  23.646  27.762  1.00  0.00    -0.014 A 
ATOM     71  C   UNL A   1      42.607  23.415  26.377  1.00  0.00     0.010 A 
ATOM     72  C   UNL A   1      42.279  22.557  28.620  1.00  0.00     0.010 A 
ATOM     73  C   UNL A   1      42.444  22.127  25.860  1.00  0.00     0.020 A 
ATOM     74  C   UNL A   1      42.150  21.261  28.109  1.00  0.00     0.020 A 
ATOM     75  C   UNL A   1      42.226  21.056  26.730  1.00  0.00     0.054 A 
BRANCH  75  76
ATOM     76  S   UNL A   1      42.091  19.385  26.038  1.00  0.00     0.124 S 
ATOM     77  O   UNL A   1      40.662  19.284  25.760  1.00  0.00    -0.237 OA
ATOM     78  O   UNL A   1      42.960  19.462  24.867  1.00  0.00    -0.237 OA
ATOM     79  O   UNL A   1      42.582  18.528  27.114  1.00  0.00    -0.744 OA
ENDBRANCH  75  76
ENDBRANCH  47  70
BRANCH  59  80
ATOM     80  C   UNL A   1      48.028  27.099  30.328  1.00  0.00    -0.014 A 
ATOM     81  C   UNL A   1      49.039  27.326  29.378  1.00  0.00     0.010 A 
ATOM     82  C   UNL A   1      48.378  26.566  31.584  1.00  0.00     0.010 A 
ATOM     83  C   UNL A   1      50.368  27.007  29.673  1.00  0.00     0.020 A 
ATOM     84  C   UNL A   1      49.708  26.280  31.895  1.00  0.00     0.020 A 
ATOM     85  C   UNL A   1      50.695  26.493  30.932  1.00  0.00     0.054 A 
BRANCH  85  86
ATOM     86  S   UNL A   1      52.436  26.157  31.312  1.00  0.00     0.124 S 
ATOM     87  O   UNL A   1      53.054  26.216  29.991  1.00  0.00    -0.237 OA
ATOM     88  O   UNL A   1      52.781  27.251  32.217  1.00  0.00    -0.237 OA
ATOM     89  O   UNL A   1      52.408  24.832  31.928  1.00  0.00    -0.744 OA
ENDBRANCH  85  86
ENDBRANCH  59  80
ENDBRANCH  33  34
ENDBRANCH  25  28
ENDBRANCH  23  24
ENDBRANCH  22  23
ENDBRANCH   1  22
TORSDOF 17
ENDMDL
MODEL 2
REMARK VINA RESULT:     -11.4      3.137     10.130
REMARK SMILES O=C(NCCCNC(=O)c1ccc(-c2c3nc(c(-c4ccc(S(=O)(=O)[O-])cc4)c4ccc([nH]4)c(-c4ccc(S(=O)(=O)[O-])cc4)c4nc(c(-c5ccc(S(=O)(=O)[O-])cc5)c5ccc2[nH]5)C=C4)C=C3)cc1)c1ccc(C#CC#C[C@H]2C[C@@H](O)C2)cc1
REMARK SMILES IDX 4 1 3 2 1 3 2 4 70 6 71 7 84 8 72 9 83 10 73 11 74 12 75 13
REMARK SMILES IDX 76 14 77 15 78 16 82 17 79 18 80 19 81 20 5 22 6 23 7 24
REMARK SMILES IDX 8 25 9 27 10 28 11 29 69 30 12 31 68 32 13 33 14 34 15 35
REMARK SMILES IDX 62 36 16 37 67 38 61 39 63 40 17 41 66 42 60 43 59 44 18 46
REMARK SMILES IDX 48 47 29 48 47 49 30 50 33 51 46 52 64 53 31 54 32 55 45 57
REMARK SMILES IDX 65 58 34 59 19 60 20 61 28 62 21 63 27 64 22 65 23 66 24 67
REMARK SMILES IDX 25 68 26 69 49 70 50 71 58 72 51 73 57 74 52 75 53 76 54 77
REMARK SMILES IDX 55 78 56 79 35 80 36 81 44 82 37 83 43 84 38 85 39 86 40 87
REMARK SMILES IDX 41 88 42 89
REMARK H PARENT 3 5 81 21 7 26 63 45 33 56
REMARK Flexibility Score: inf
ROOT
ATOM      1  C   UNL A   1      34.733  21.782  26.406  1.00  0.00     0.118 C 
ENDROOT
BRANCH   1   2
ATOM      2  N   UNL A   1      33.968  20.645  25.912  1.00  0.00    -0.352 N 
ATOM      3  O   UNL A   1      32.154  19.549  25.138  1.00  0.00    -0.269 OA
ATOM      4  C   UNL A   1      32.717  20.619  25.348  1.00  0.00     0.251 C 
ATOM      5  H   UNL A   1      34.412  19.771  25.995  1.00  0.00     0.163 HD
BRANCH   4   6
ATOM      6  C   UNL A   1      32.042  21.884  24.997  1.00  0.00     0.039 A 
ATOM      7  C   UNL A   1      32.099  22.386  23.693  1.00  0.00     0.015 A 
ATOM      8  C   UNL A   1      31.325  22.565  25.984  1.00  0.00     0.015 A 
ATOM      9  C   UNL A   1      31.517  23.615  23.397  1.00  0.00     0.018 A 
ATOM     10  C   UNL A   1      30.717  23.786  25.679  1.00  0.00     0.018 A 
ATOM     11  C   UNL A   1      30.825  24.315  24.389  1.00  0.00     0.026 A 
BRANCH  11  12
ATOM     12  C   UNL A   1      30.215  25.562  24.059  1.00  0.00    -0.053 C 
ATOM     13  C   UNL A   1      29.694  26.591  23.722  1.00  0.00    -0.010 C 
BRANCH  13  14
ATOM     14  C   UNL A   1      29.022  27.880  23.256  1.00  0.00    -0.015 C 
ATOM     15  C   UNL A   1      28.496  28.896  22.892  1.00  0.00    -0.085 C 
BRANCH  15  16
ATOM     16  C   UNL A   1      27.889  30.123  22.435  1.00  0.00     0.070 C 
ATOM     17  C   UNL A   1      27.683  31.222  23.508  1.00  0.00     0.048 C 
ATOM     18  C   UNL A   1      28.826  31.125  21.716  1.00  0.00     0.048 C 
ATOM     19  C   UNL A   1      28.026  32.254  22.407  1.00  0.00     0.116 C 
BRANCH  19  20
ATOM     20  O   UNL A   1      28.769  33.415  22.816  1.00  0.00    -0.393 OA
ATOM     21  H   UNL A   1      29.573  33.137  23.283  1.00  0.00     0.210 HD
ENDBRANCH  19  20
ENDBRANCH  15  16
ENDBRANCH  13  14
ENDBRANCH  11  12
ENDBRANCH   4   6
ENDBRANCH   1   2
BRANCH   1  22
ATOM     22  C   UNL A   1      35.552  22.452  25.316  1.00  0.00     0.042 C 
BRANCH  22  23
ATOM     23  C   UNL A   1      36.733  23.252  25.839  1.00  0.00     0.118 C 
BRANCH  23  24
ATOM     24  N   UNL A   1      37.968  22.476  25.890  1.00  0.00    -0.352 N 
ATOM     25  C   UNL A   1      39.229  22.860  26.282  1.00  0.00     0.251 C 
ATOM     26  H   UNL A   1      37.884  21.538  25.603  1.00  0.00     0.163 HD
ATOM     27  O   UNL A   1      40.186  22.115  26.089  1.00  0.00    -0.269 OA
BRANCH  25  28
ATOM     28  C   UNL A   1      39.425  24.184  26.906  1.00  0.00     0.039 A 
ATOM     29  C   UNL A   1      38.931  24.421  28.191  1.00  0.00     0.014 A 
ATOM     30  C   UNL A   1      40.136  25.178  26.232  1.00  0.00     0.014 A 
ATOM     31  C   UNL A   1      39.237  25.623  28.836  1.00  0.00     0.010 A 
ATOM     32  C   UNL A   1      40.525  26.324  26.911  1.00  0.00     0.010 A 
ATOM     33  C   UNL A   1      40.079  26.562  28.220  1.00  0.00    -0.014 A 
BRANCH  33  34
ATOM     34  C   UNL A   1      40.516  27.808  28.900  1.00  0.00     0.031 A 
ATOM     35  C   UNL A   1      41.864  27.854  29.569  1.00  0.00     0.074 A 
ATOM     36  C   UNL A   1      39.671  28.851  29.010  1.00  0.00     0.049 A 
ATOM     37  N   UNL A   1      42.372  28.777  30.343  1.00  0.00    -0.248 NA
ATOM     38  C   UNL A   1      42.741  26.688  29.365  1.00  0.00     0.031 C 
ATOM     39  C   UNL A   1      38.334  28.928  28.419  1.00  0.00     0.029 A 
ATOM     40  N   UNL A   1      39.807  30.043  29.678  1.00  0.00    -0.354 N 
ATOM     41  C   UNL A   1      43.616  28.296  30.734  1.00  0.00     0.074 A 
ATOM     42  C   UNL A   1      43.756  26.973  30.166  1.00  0.00     0.031 C 
ATOM     43  C   UNL A   1      37.785  30.116  28.728  1.00  0.00     0.029 A 
ATOM     44  C   UNL A   1      38.702  30.856  29.589  1.00  0.00     0.049 A 
ATOM     45  H   UNL A   1      40.621  30.293  30.173  1.00  0.00     0.167 HD
ATOM     46  C   UNL A   1      44.565  28.906  31.483  1.00  0.00     0.031 A 
ATOM     47  C   UNL A   1      38.445  32.054  30.152  1.00  0.00     0.031 A 
ATOM     48  C   UNL A   1      44.412  30.216  32.057  1.00  0.00     0.049 A 
ATOM     49  C   UNL A   1      39.484  32.685  31.039  1.00  0.00     0.074 A 
ATOM     50  C   UNL A   1      45.323  30.938  32.807  1.00  0.00     0.029 A 
ATOM     51  N   UNL A   1      43.271  30.999  31.954  1.00  0.00    -0.354 N 
ATOM     52  N   UNL A   1      40.672  32.235  31.367  1.00  0.00    -0.248 NA
ATOM     53  C   UNL A   1      39.152  33.991  31.626  1.00  0.00     0.031 C 
ATOM     54  C   UNL A   1      44.708  32.124  33.218  1.00  0.00     0.029 A 
ATOM     55  C   UNL A   1      43.445  32.183  32.650  1.00  0.00     0.049 A 
ATOM     56  H   UNL A   1      42.457  30.748  31.459  1.00  0.00     0.167 HD
ATOM     57  C   UNL A   1      41.247  33.224  32.159  1.00  0.00     0.074 A 
ATOM     58  C   UNL A   1      40.275  34.293  32.261  1.00  0.00     0.031 C 
ATOM     59  C   UNL A   1      42.473  33.246  32.738  1.00  0.00     0.031 A 
BRANCH  46  60
ATOM     60  C   UNL A   1      45.840  28.142  31.741  1.00  0.00    -0.014 A 
ATOM     61  C   UNL A   1      45.970  27.293  32.858  1.00  0.00     0.010 A 
ATOM     62  C   UNL A   1      46.924  28.270  30.854  1.00  0.00     0.010 A 
ATOM     63  C   UNL A   1      47.179  26.642  33.117  1.00  0.00     0.020 A 
ATOM     64  C   UNL A   1      48.122  27.587  31.088  1.00  0.00     0.020 A 
ATOM     65  C   UNL A   1      48.249  26.799  32.232  1.00  0.00     0.054 A 
BRANCH  65  66
ATOM     66  S   UNL A   1      49.807  25.948  32.600  1.00  0.00     0.124 S 
ATOM     67  O   UNL A   1      49.453  25.172  33.787  1.00  0.00    -0.237 OA
ATOM     68  O   UNL A   1      50.040  25.169  31.387  1.00  0.00    -0.237 OA
ATOM     69  O   UNL A   1      50.753  27.038  32.830  1.00  0.00    -0.744 OA
ENDBRANCH  65  66
ENDBRANCH  46  60
BRANCH  47  70
ATOM     70  C   UNL A   1      37.155  32.745  29.873  1.00  0.00    -0.014 A 
ATOM     71  C   UNL A   1      36.082  32.634  30.776  1.00  0.00     0.010 A 
ATOM     72  C   UNL A   1      36.996  33.534  28.719  1.00  0.00     0.010 A 
ATOM     73  C   UNL A   1      34.874  33.291  30.527  1.00  0.00     0.020 A 
ATOM     74  C   UNL A   1      35.799  34.220  28.483  1.00  0.00     0.020 A 
ATOM     75  C   UNL A   1      34.743  34.088  29.387  1.00  0.00     0.054 A 
BRANCH  75  76
ATOM     76  S   UNL A   1      33.188  34.986  29.125  1.00  0.00     0.124 S 
ATOM     77  O   UNL A   1      32.600  34.973  30.461  1.00  0.00    -0.237 OA
ATOM     78  O   UNL A   1      33.656  36.286  28.651  1.00  0.00    -0.237 OA
ATOM     79  O   UNL A   1      32.491  34.180  28.126  1.00  0.00    -0.744 OA
ENDBRANCH  75  76
ENDBRANCH  47  70
BRANCH  59  80
ATOM     80  C   UNL A   1      42.876  34.493  33.486  1.00  0.00    -0.014 A 
ATOM     81  C   UNL A   1      42.761  34.591  34.883  1.00  0.00     0.010 A 
ATOM     82  C   UNL A   1      43.461  35.557  32.771  1.00  0.00     0.010 A 
ATOM     83  C   UNL A   1      43.205  35.738  35.548  1.00  0.00     0.020 A 
ATOM     84  C   UNL A   1      43.938  36.688  33.436  1.00  0.00     0.020 A 
ATOM     85  C   UNL A   1      43.797  36.775  34.821  1.00  0.00     0.054 A 
BRANCH  85  86
ATOM     86  S   UNL A   1      44.430  38.219  35.719  1.00  0.00     0.124 S 
ATOM     87  O   UNL A   1      45.857  37.924  35.805  1.00  0.00    -0.237 OA
ATOM     88  O   UNL A   1      44.069  39.325  34.836  1.00  0.00    -0.237 OA
ATOM     89  O   UNL A   1      43.709  38.183  36.990  1.00  0.00    -0.744 OA
ENDBRANCH  85  86
ENDBRANCH  59  80
ENDBRANCH  33  34
ENDBRANCH  25  28
ENDBRANCH  23  24
ENDBRANCH  22  23
ENDBRANCH   1  22
TORSDOF 17
ENDMDL
MODEL 3
REMARK VINA RESULT:     -11.0      4.655     12.043
REMARK SMILES O=C(NCCCNC(=O)c1ccc(-c2c3nc(c(-c4ccc(S(=O)(=O)[O-])cc4)c4ccc([nH]4)c(-c4ccc(S(=O)(=O)[O-])cc4)c4nc(c(-c5ccc(S(=O)(=O)[O-])cc5)c5ccc2[nH]5)C=C4)C=C3)cc1)c1ccc(C#CC#C[C@H]2C[C@@H](O)C2)cc1
REMARK SMILES IDX 4 1 3 2 1 3 2 4 70 6 71 7 84 8 72 9 83 10 73 11 74 12 75 13
REMARK SMILES IDX 76 14 77 15 78 16 82 17 79 18 80 19 81 20 5 22 6 23 7 24
REMARK SMILES IDX 8 25 9 27 10 28 11 29 69 30 12 31 68 32 13 33 14 34 15 35
REMARK SMILES IDX 62 36 16 37 67 38 61 39 63 40 17 41 66 42 60 43 59 44 18 46
REMARK SMILES IDX 48 47 29 48 47 49 30 50 33 51 46 52 64 53 31 54 32 55 45 57
REMARK SMILES IDX 65 58 34 59 19 60 20 61 28 62 21 63 27 64 22 65 23 66 24 67
REMARK SMILES IDX 25 68 26 69 49 70 50 71 58 72 51 73 57 74 52 75 53 76 54 77
REMARK SMILES IDX 55 78 56 79 35 80 36 81 44 82 37 83 43 84 38 85 39 86 40 87
REMARK SMILES IDX 41 88 42 89
REMARK H PARENT 3 5 81 21 7 26 63 45 33 56
REMARK Flexibility Score: inf
ROOT
ATOM      1  C   UNL A   1      42.862  21.113  25.877  1.00  0.00     0.118 C 
ENDROOT
BRANCH   1   2
ATOM      2  N   UNL A   1      44.216  20.605  25.708  1.00  0.00    -0.352 N 
ATOM      3  O   UNL A   1      46.429  20.710  25.277  1.00  0.00    -0.269 OA
ATOM      4  C   UNL A   1      45.394  21.297  25.578  1.00  0.00     0.251 C 
ATOM      5  H   UNL A   1      44.298  19.625  25.683  1.00  0.00     0.163 HD
BRANCH   4   6
ATOM      6  C   UNL A   1      45.417  22.757  25.795  1.00  0.00     0.039 A 
ATOM      7  C   UNL A   1      45.326  23.289  27.086  1.00  0.00     0.015 A 
ATOM      8  C   UNL A   1      45.551  23.604  24.691  1.00  0.00     0.015 A 
ATOM      9  C   UNL A   1      45.278  24.669  27.264  1.00  0.00     0.018 A 
ATOM     10  C   UNL A   1      45.530  24.989  24.875  1.00  0.00     0.018 A 
ATOM     11  C   UNL A   1      45.380  25.519  26.161  1.00  0.00     0.026 A 
BRANCH  11  12
ATOM     12  C   UNL A   1      45.353  26.930  26.369  1.00  0.00    -0.053 C 
ATOM     13  C   UNL A   1      45.362  28.110  26.597  1.00  0.00    -0.010 C 
BRANCH  13  14
ATOM     14  C   UNL A   1      45.402  29.602  26.920  1.00  0.00    -0.015 C 
ATOM     15  C   UNL A   1      45.437  30.773  27.179  1.00  0.00    -0.085 C 
BRANCH  15  16
ATOM     16  C   UNL A   1      45.508  32.183  27.479  1.00  0.00     0.070 C 
ATOM     17  C   UNL A   1      45.309  33.145  26.281  1.00  0.00     0.048 C 
ATOM     18  C   UNL A   1      44.234  32.819  28.089  1.00  0.00     0.048 C 
ATOM     19  C   UNL A   1      44.558  34.083  27.257  1.00  0.00     0.116 C 
BRANCH  19  20
ATOM     20  O   UNL A   1      43.438  34.810  26.724  1.00  0.00    -0.393 OA
ATOM     21  H   UNL A   1      42.656  34.236  26.708  1.00  0.00     0.210 HD
ENDBRANCH  19  20
ENDBRANCH  15  16
ENDBRANCH  13  14
ENDBRANCH  11  12
ENDBRANCH   4   6
ENDBRANCH   1   2
BRANCH   1  22
ATOM     22  C   UNL A   1      42.308  20.847  27.266  1.00  0.00     0.042 C 
BRANCH  22  23
ATOM     23  C   UNL A   1      41.210  21.810  27.684  1.00  0.00     0.118 C 
BRANCH  23  24
ATOM     24  N   UNL A   1      40.051  21.770  26.797  1.00  0.00    -0.352 N 
ATOM     25  C   UNL A   1      39.126  22.749  26.520  1.00  0.00     0.251 C 
ATOM     26  H   UNL A   1      39.913  20.917  26.327  1.00  0.00     0.163 HD
ATOM     27  O   UNL A   1      38.114  22.476  25.881  1.00  0.00    -0.269 OA
BRANCH  25  28
ATOM     28  C   UNL A   1      39.345  24.121  27.023  1.00  0.00     0.039 A 
ATOM     29  C   UNL A   1      38.944  24.452  28.320  1.00  0.00     0.014 A 
ATOM     30  C   UNL A   1      39.987  25.067  26.223  1.00  0.00     0.014 A 
ATOM     31  C   UNL A   1      39.275  25.704  28.846  1.00  0.00     0.010 A 
ATOM     32  C   UNL A   1      40.405  26.267  26.781  1.00  0.00     0.010 A 
ATOM     33  C   UNL A   1      40.053  26.601  28.098  1.00  0.00    -0.014 A 
BRANCH  33  34
ATOM     34  C   UNL A   1      40.519  27.901  28.644  1.00  0.00     0.031 A 
ATOM     35  C   UNL A   1      41.920  28.022  29.180  1.00  0.00     0.074 A 
ATOM     36  C   UNL A   1      39.660  28.933  28.759  1.00  0.00     0.049 A 
ATOM     37  N   UNL A   1      42.472  29.009  29.836  1.00  0.00    -0.248 NA
ATOM     38  C   UNL A   1      42.805  26.862  28.978  1.00  0.00     0.031 C 
ATOM     39  C   UNL A   1      38.273  28.942  28.291  1.00  0.00     0.029 A 
ATOM     40  N   UNL A   1      39.826  30.173  29.326  1.00  0.00    -0.354 N 
ATOM     41  C   UNL A   1      43.759  28.581  30.144  1.00  0.00     0.074 A 
ATOM     42  C   UNL A   1      43.881  27.224  29.659  1.00  0.00     0.031 C 
ATOM     43  C   UNL A   1      37.724  30.137  28.565  1.00  0.00     0.029 A 
ATOM     44  C   UNL A   1      38.696  30.956  29.283  1.00  0.00     0.049 A 
ATOM     45  H   UNL A   1      40.675  30.474  29.724  1.00  0.00     0.167 HD
ATOM     46  C   UNL A   1      44.756  29.262  30.756  1.00  0.00     0.031 A 
ATOM     47  C   UNL A   1      38.460  32.186  29.782  1.00  0.00     0.031 A 
ATOM     48  C   UNL A   1      44.623  30.607  31.249  1.00  0.00     0.049 A 
ATOM     49  C   UNL A   1      39.559  32.900  30.522  1.00  0.00     0.074 A 
ATOM     50  C   UNL A   1      45.579  31.399  31.858  1.00  0.00     0.029 A 
ATOM     51  N   UNL A   1      43.457  31.358  31.197  1.00  0.00    -0.354 N 
ATOM     52  N   UNL A   1      40.784  32.498  30.769  1.00  0.00    -0.248 NA
ATOM     53  C   UNL A   1      39.249  34.238  31.044  1.00  0.00     0.031 C 
ATOM     54  C   UNL A   1      44.973  32.600  32.239  1.00  0.00     0.029 A 
ATOM     55  C   UNL A   1      43.662  32.592  31.789  1.00  0.00     0.049 A 
ATOM     56  H   UNL A   1      42.608  31.056  30.798  1.00  0.00     0.167 HD
ATOM     57  C   UNL A   1      41.402  33.552  31.432  1.00  0.00     0.074 A 
ATOM     58  C   UNL A   1      40.417  34.607  31.549  1.00  0.00     0.031 C 
ATOM     59  C   UNL A   1      42.675  33.640  31.892  1.00  0.00     0.031 A 
BRANCH  46  60
ATOM     60  C   UNL A   1      46.069  28.544  30.948  1.00  0.00    -0.014 A 
ATOM     61  C   UNL A   1      47.022  28.473  29.912  1.00  0.00     0.010 A 
ATOM     62  C   UNL A   1      46.359  27.932  32.181  1.00  0.00     0.010 A 
ATOM     63  C   UNL A   1      48.205  27.750  30.084  1.00  0.00     0.020 A 
ATOM     64  C   UNL A   1      47.560  27.243  32.371  1.00  0.00     0.020 A 
ATOM     65  C   UNL A   1      48.463  27.135  31.312  1.00  0.00     0.054 A 
BRANCH  65  66
ATOM     66  S   UNL A   1      50.003  26.197  31.502  1.00  0.00     0.124 S 
ATOM     67  O   UNL A   1      49.945  25.289  30.359  1.00  0.00    -0.237 OA
ATOM     68  O   UNL A   1      51.023  27.240  31.425  1.00  0.00    -0.237 OA
ATOM     69  O   UNL A   1      49.864  25.560  32.810  1.00  0.00    -0.744 OA
ENDBRANCH  65  66
ENDBRANCH  46  60
BRANCH  47  70
ATOM     70  C   UNL A   1      37.133  32.829  29.576  1.00  0.00    -0.014 A 
ATOM     71  C   UNL A   1      36.199  32.879  30.627  1.00  0.00     0.010 A 
ATOM     72  C   UNL A   1      36.800  33.416  28.341  1.00  0.00     0.010 A 
ATOM     73  C   UNL A   1      34.957  33.494  30.445  1.00  0.00     0.020 A 
ATOM     74  C   UNL A   1      35.572  34.061  28.165  1.00  0.00     0.020 A 
ATOM     75  C   UNL A   1      34.655  34.089  29.218  1.00  0.00     0.054 A 
BRANCH  75  76
ATOM     76  S   UNL A   1      33.064  34.942  29.032  1.00  0.00     0.124 S 
ATOM     77  O   UNL A   1      33.478  36.264  28.575  1.00  0.00    -0.237 OA
ATOM     78  O   UNL A   1      32.381  34.114  28.041  1.00  0.00    -0.237 OA
ATOM     79  O   UNL A   1      32.491  34.895  30.375  1.00  0.00    -0.744 OA
ENDBRANCH  75  76
ENDBRANCH  47  70
BRANCH  59  80
ATOM     80  C   UNL A   1      43.112  34.946  32.509  1.00  0.00    -0.014 A 
ATOM     81  C   UNL A   1      43.928  35.859  31.817  1.00  0.00     0.010 A 
ATOM     82  C   UNL A   1      42.622  35.296  33.782  1.00  0.00     0.010 A 
ATOM     83  C   UNL A   1      44.259  37.087  32.396  1.00  0.00     0.020 A 
ATOM     84  C   UNL A   1      42.921  36.537  34.348  1.00  0.00     0.020 A 
ATOM     85  C   UNL A   1      43.748  37.421  33.654  1.00  0.00     0.054 A 
BRANCH  85  86
ATOM     86  S   UNL A   1      44.135  39.051  34.349  1.00  0.00     0.124 S 
ATOM     87  O   UNL A   1      44.212  38.764  35.778  1.00  0.00    -0.237 OA
ATOM     88  O   UNL A   1      45.404  39.378  33.704  1.00  0.00    -0.237 OA
ATOM     89  O   UNL A   1      43.003  39.882  33.941  1.00  0.00    -0.744 OA
ENDBRANCH  85  86
ENDBRANCH  59  80
ENDBRANCH  33  34
ENDBRANCH  25  28
ENDBRANCH  23  24
ENDBRANCH  22  23
ENDBRANCH   1  22
TORSDOF 17
ENDMDL
