MODEL 1
REMARK VINA RESULT:     -11.6      0.000      0.000
REMARK SMILES CC[C@H]1CCCC[C@H]1n1cc(C(=O)NCCCNC(=O)c2ccc(-c3c4nc(c(-c5ccc(S(=O)(=O)[O-])cc5)c5ccc([nH]5)c(-c5ccc(S(=O)(=O)[O-])cc5)c5nc(c(-c6ccc(S(=O)(=O)[O-])cc6)c6ccc3[nH]6)C=C5)C=C4)cc2)c(=O)[nH]c1=O
REMARK SMILES IDX 16 1 15 2 14 3 12 4 13 5 11 7 9 8 10 9 84 10 83 11 85 12
REMARK SMILES IDX 81 13 82 15 8 16 3 17 4 18 5 19 7 20 6 21 2 22 1 23 17 24
REMARK SMILES IDX 18 25 19 26 20 28 21 29 22 30 80 31 23 32 79 33 24 34 25 35
REMARK SMILES IDX 26 36 73 37 27 38 78 39 72 40 74 41 28 42 77 43 71 44 70 45
REMARK SMILES IDX 29 47 59 48 40 49 58 50 41 51 44 52 57 53 75 54 42 55 43 56
REMARK SMILES IDX 56 58 76 59 45 60 30 61 31 62 39 63 32 64 38 65 33 66 34 67
REMARK SMILES IDX 35 68 36 69 37 70 60 71 61 72 69 73 62 74 68 75 63 76 64 77
REMARK SMILES IDX 65 78 66 79 67 80 46 81 47 82 55 83 48 84 54 85 49 86 50 87
REMARK SMILES IDX 51 88 52 89 53 90
REMARK H PARENT 14 6 83 14 18 27 74 46 44 57
REMARK Flexibility Score: inf
ROOT
ATOM      1  C   UNL A   1      32.946  27.846  27.035  1.00  0.00     0.042 C 
ENDROOT
BRANCH   1   2
ATOM      2  C   UNL A   1      31.497  27.837  26.548  1.00  0.00     0.118 C 
BRANCH   2   3
ATOM      3  N   UNL A   1      30.875  26.559  26.850  1.00  0.00    -0.352 N 
ATOM      4  C   UNL A   1      30.784  25.376  26.182  1.00  0.00     0.258 C 
ATOM      5  O   UNL A   1      30.022  24.538  26.662  1.00  0.00    -0.269 OA
ATOM      6  H   UNL A   1      30.424  26.546  27.725  1.00  0.00     0.163 HD
BRANCH   4   7
ATOM      7  C   UNL A   1      31.597  25.058  24.972  1.00  0.00     0.121 A 
ATOM      8  N   UNL A   1      33.328  23.857  23.791  1.00  0.00    -0.296 N 
ATOM      9  C   UNL A   1      32.656  24.235  24.954  1.00  0.00     0.110 A 
ATOM     10  C   UNL A   1      33.088  24.531  22.595  1.00  0.00     0.328 A 
ATOM     11  N   UNL A   1      32.129  25.503  22.655  1.00  0.00    -0.273 N 
ATOM     12  O   UNL A   1      33.618  24.311  21.511  1.00  0.00    -0.248 OA
ATOM     13  C   UNL A   1      31.253  25.707  23.680  1.00  0.00     0.266 A 
ATOM     14  H   UNL A   1      32.064  26.113  21.885  1.00  0.00     0.175 HD
ATOM     15  O   UNL A   1      30.225  26.347  23.488  1.00  0.00    -0.268 OA
BRANCH   8  16
ATOM     16  C   UNL A   1      34.200  22.636  23.877  1.00  0.00     0.095 C 
ATOM     17  C   UNL A   1      35.701  23.022  24.128  1.00  0.00     0.012 C 
ATOM     18  C   UNL A   1      36.583  21.760  24.135  1.00  0.00     0.006 C 
ATOM     19  C   UNL A   1      36.120  20.729  25.155  1.00  0.00     0.000 C 
ATOM     20  C   UNL A   1      33.747  21.540  24.870  1.00  0.00     0.026 C 
ATOM     21  C   UNL A   1      34.676  20.328  24.888  1.00  0.00     0.002 C 
BRANCH  17  22
ATOM     22  C   UNL A   1      35.873  23.909  25.385  1.00  0.00     0.002 C 
ATOM     23  C   UNL A   1      37.292  23.939  25.937  1.00  0.00     0.004 C 
ENDBRANCH  17  22
ENDBRANCH   8  16
ENDBRANCH   4   7
ENDBRANCH   2   3
ENDBRANCH   1   2
BRANCH   1  24
ATOM     24  C   UNL A   1      33.828  28.814  26.247  1.00  0.00     0.118 C 
BRANCH  24  25
ATOM     25  N   UNL A   1      33.746  30.172  26.765  1.00  0.00    -0.352 N 
ATOM     26  C   UNL A   1      34.578  30.826  27.648  1.00  0.00     0.251 C 
ATOM     27  H   UNL A   1      32.983  30.701  26.437  1.00  0.00     0.163 HD
ATOM     28  O   UNL A   1      34.232  31.897  28.124  1.00  0.00    -0.269 OA
BRANCH  26  29
ATOM     29  C   UNL A   1      35.870  30.215  28.032  1.00  0.00     0.039 A 
ATOM     30  C   UNL A   1      36.032  29.612  29.281  1.00  0.00     0.014 A 
ATOM     31  C   UNL A   1      36.933  30.244  27.125  1.00  0.00     0.014 A 
ATOM     32  C   UNL A   1      37.292  29.182  29.682  1.00  0.00     0.010 A 
ATOM     33  C   UNL A   1      38.182  29.738  27.502  1.00  0.00     0.010 A 
ATOM     34  C   UNL A   1      38.384  29.243  28.799  1.00  0.00    -0.014 A 
BRANCH  34  35
ATOM     35  C   UNL A   1      39.726  28.799  29.260  1.00  0.00     0.031 A 
ATOM     36  C   UNL A   1      40.257  27.443  28.871  1.00  0.00     0.074 A 
ATOM     37  C   UNL A   1      40.497  29.650  29.968  1.00  0.00     0.049 A 
ATOM     38  N   UNL A   1      41.411  26.901  29.161  1.00  0.00    -0.248 NA
ATOM     39  C   UNL A   1      39.387  26.586  28.047  1.00  0.00     0.031 C 
ATOM     40  C   UNL A   1      40.108  31.005  30.364  1.00  0.00     0.029 A 
ATOM     41  N   UNL A   1      41.780  29.523  30.443  1.00  0.00    -0.354 N 
ATOM     42  C   UNL A   1      41.407  25.646  28.561  1.00  0.00     0.074 A 
ATOM     43  C   UNL A   1      40.121  25.487  27.921  1.00  0.00     0.031 C 
ATOM     44  C   UNL A   1      41.150  31.607  30.956  1.00  0.00     0.029 A 
ATOM     45  C   UNL A   1      42.258  30.662  31.050  1.00  0.00     0.049 A 
ATOM     46  H   UNL A   1      42.306  28.696  30.358  1.00  0.00     0.167 HD
ATOM     47  C   UNL A   1      42.395  24.721  28.531  1.00  0.00     0.031 A 
ATOM     48  C   UNL A   1      43.451  30.920  31.623  1.00  0.00     0.031 A 
ATOM     49  C   UNL A   1      43.680  24.894  29.156  1.00  0.00     0.049 A 
ATOM     50  C   UNL A   1      44.497  29.841  31.646  1.00  0.00     0.074 A 
ATOM     51  C   UNL A   1      44.741  24.004  29.187  1.00  0.00     0.029 A 
ATOM     52  N   UNL A   1      44.090  26.028  29.839  1.00  0.00    -0.354 N 
ATOM     53  N   UNL A   1      44.461  28.652  31.093  1.00  0.00    -0.248 NA
ATOM     54  C   UNL A   1      45.740  30.131  32.375  1.00  0.00     0.031 C 
ATOM     55  C   UNL A   1      45.769  24.576  29.937  1.00  0.00     0.029 A 
ATOM     56  C   UNL A   1      45.378  25.850  30.313  1.00  0.00     0.049 A 
ATOM     57  H   UNL A   1      43.546  26.839  29.969  1.00  0.00     0.167 HD
ATOM     58  C   UNL A   1      45.685  28.062  31.389  1.00  0.00     0.074 A 
ATOM     59  C   UNL A   1      46.445  29.029  32.153  1.00  0.00     0.031 C 
ATOM     60  C   UNL A   1      46.132  26.826  31.062  1.00  0.00     0.031 A 
BRANCH  47  61
ATOM     61  C   UNL A   1      42.160  23.434  27.785  1.00  0.00    -0.014 A 
ATOM     62  C   UNL A   1      41.476  22.376  28.413  1.00  0.00     0.010 A 
ATOM     63  C   UNL A   1      42.763  23.212  26.535  1.00  0.00     0.010 A 
ATOM     64  C   UNL A   1      41.443  21.106  27.829  1.00  0.00     0.020 A 
ATOM     65  C   UNL A   1      42.710  21.951  25.934  1.00  0.00     0.020 A 
ATOM     66  C   UNL A   1      42.075  20.898  26.601  1.00  0.00     0.054 A 
BRANCH  66  67
ATOM     67  S   UNL A   1      42.084  19.228  25.893  1.00  0.00     0.124 S 
ATOM     68  O   UNL A   1      42.946  19.392  24.727  1.00  0.00    -0.237 OA
ATOM     69  O   UNL A   1      42.637  18.426  26.981  1.00  0.00    -0.237 OA
ATOM     70  O   UNL A   1      40.674  18.974  25.600  1.00  0.00    -0.744 OA
ENDBRANCH  66  67
ENDBRANCH  47  61
BRANCH  48  71
ATOM     71  C   UNL A   1      43.717  32.266  32.206  1.00  0.00    -0.014 A 
ATOM     72  C   UNL A   1      43.392  32.545  33.546  1.00  0.00     0.010 A 
ATOM     73  C   UNL A   1      44.259  33.290  31.409  1.00  0.00     0.010 A 
ATOM     74  C   UNL A   1      43.558  33.831  34.066  1.00  0.00     0.020 A 
ATOM     75  C   UNL A   1      44.462  34.570  31.937  1.00  0.00     0.020 A 
ATOM     76  C   UNL A   1      44.085  34.838  33.254  1.00  0.00     0.054 A 
BRANCH  76  77
ATOM     77  S   UNL A   1      44.281  36.503  33.948  1.00  0.00     0.124 S 
ATOM     78  O   UNL A   1      43.642  36.360  35.252  1.00  0.00    -0.237 OA
ATOM     79  O   UNL A   1      45.732  36.670  33.972  1.00  0.00    -0.237 OA
ATOM     80  O   UNL A   1      43.575  37.355  32.993  1.00  0.00    -0.744 OA
ENDBRANCH  76  77
ENDBRANCH  48  71
BRANCH  60  81
ATOM     81  C   UNL A   1      47.514  26.425  31.505  1.00  0.00    -0.014 A 
ATOM     82  C   UNL A   1      48.599  26.576  30.622  1.00  0.00     0.010 A 
ATOM     83  C   UNL A   1      47.713  25.768  32.732  1.00  0.00     0.010 A 
ATOM     84  C   UNL A   1      49.849  26.039  30.937  1.00  0.00     0.020 A 
ATOM     85  C   UNL A   1      48.970  25.257  33.063  1.00  0.00     0.020 A 
ATOM     86  C   UNL A   1      50.023  25.371  32.151  1.00  0.00     0.054 A 
BRANCH  86  87
ATOM     87  S   UNL A   1      51.639  24.637  32.523  1.00  0.00     0.124 S 
ATOM     88  O   UNL A   1      52.518  25.347  31.599  1.00  0.00    -0.237 OA
ATOM     89  O   UNL A   1      51.820  24.958  33.937  1.00  0.00    -0.237 OA
ATOM     90  O   UNL A   1      51.446  23.218  32.236  1.00  0.00    -0.744 OA
ENDBRANCH  86  87
ENDBRANCH  60  81
ENDBRANCH  34  35
ENDBRANCH  26  29
ENDBRANCH  24  25
ENDBRANCH   1  24
TORSDOF 15
ENDMDL
MODEL 2
REMARK VINA RESULT:     -11.1      2.783      8.554
REMARK SMILES CC[C@H]1CCCC[C@H]1n1cc(C(=O)NCCCNC(=O)c2ccc(-c3c4nc(c(-c5ccc(S(=O)(=O)[O-])cc5)c5ccc([nH]5)c(-c5ccc(S(=O)(=O)[O-])cc5)c5nc(c(-c6ccc(S(=O)(=O)[O-])cc6)c6ccc3[nH]6)C=C5)C=C4)cc2)c(=O)[nH]c1=O
REMARK SMILES IDX 16 1 15 2 14 3 12 4 13 5 11 7 9 8 10 9 84 10 83 11 85 12
REMARK SMILES IDX 81 13 82 15 8 16 3 17 4 18 5 19 7 20 6 21 2 22 1 23 17 24
REMARK SMILES IDX 18 25 19 26 20 28 21 29 22 30 80 31 23 32 79 33 24 34 25 35
REMARK SMILES IDX 26 36 73 37 27 38 78 39 72 40 74 41 28 42 77 43 71 44 70 45
REMARK SMILES IDX 29 47 59 48 40 49 58 50 41 51 44 52 57 53 75 54 42 55 43 56
REMARK SMILES IDX 56 58 76 59 45 60 30 61 31 62 39 63 32 64 38 65 33 66 34 67
REMARK SMILES IDX 35 68 36 69 37 70 60 71 61 72 69 73 62 74 68 75 63 76 64 77
REMARK SMILES IDX 65 78 66 79 67 80 46 81 47 82 55 83 48 84 54 85 49 86 50 87
REMARK SMILES IDX 51 88 52 89 53 90
REMARK H PARENT 14 6 83 14 18 27 74 46 44 57
REMARK Flexibility Score: inf
ROOT
ATOM      1  C   UNL A   1      34.730  23.500  25.929  1.00  0.00     0.042 C 
ENDROOT
BRANCH   1   2
ATOM      2  C   UNL A   1      34.460  22.426  24.874  1.00  0.00     0.118 C 
BRANCH   2   3
ATOM      3  N   UNL A   1      33.052  22.417  24.518  1.00  0.00    -0.352 N 
ATOM      4  C   UNL A   1      32.195  23.364  24.046  1.00  0.00     0.258 C 
ATOM      5  O   UNL A   1      31.005  23.053  24.016  1.00  0.00    -0.269 OA
ATOM      6  H   UNL A   1      32.627  21.538  24.645  1.00  0.00     0.163 HD
BRANCH   4   7
ATOM      7  C   UNL A   1      32.648  24.687  23.526  1.00  0.00     0.121 A 
ATOM      8  N   UNL A   1      33.210  27.024  23.773  1.00  0.00    -0.296 N 
ATOM      9  C   UNL A   1      32.671  25.823  24.239  1.00  0.00     0.110 A 
ATOM     10  C   UNL A   1      33.526  27.169  22.424  1.00  0.00     0.328 A 
ATOM     11  N   UNL A   1      33.331  26.057  21.654  1.00  0.00    -0.273 N 
ATOM     12  O   UNL A   1      33.990  28.169  21.884  1.00  0.00    -0.248 OA
ATOM     13  C   UNL A   1      33.086  24.796  22.110  1.00  0.00     0.266 A 
ATOM     14  H   UNL A   1      33.370  26.178  20.678  1.00  0.00     0.175 HD
ATOM     15  O   UNL A   1      33.283  23.832  21.379  1.00  0.00    -0.268 OA
BRANCH   8  16
ATOM     16  C   UNL A   1      33.538  28.066  24.805  1.00  0.00     0.095 C 
ATOM     17  C   UNL A   1      32.543  29.277  24.730  1.00  0.00     0.012 C 
ATOM     18  C   UNL A   1      32.947  30.364  25.743  1.00  0.00     0.006 C 
ATOM     19  C   UNL A   1      33.034  29.832  27.167  1.00  0.00     0.000 C 
ATOM     20  C   UNL A   1      33.680  27.566  26.261  1.00  0.00     0.026 C 
ATOM     21  C   UNL A   1      34.028  28.681  27.245  1.00  0.00     0.002 C 
BRANCH  17  22
ATOM     22  C   UNL A   1      31.066  28.828  24.855  1.00  0.00     0.002 C 
ATOM     23  C   UNL A   1      30.262  28.966  23.569  1.00  0.00     0.004 C 
ENDBRANCH  17  22
ENDBRANCH   8  16
ENDBRANCH   4   7
ENDBRANCH   2   3
ENDBRANCH   1   2
BRANCH   1  24
ATOM     24  C   UNL A   1      36.174  23.999  25.911  1.00  0.00     0.118 C 
BRANCH  24  25
ATOM     25  N   UNL A   1      37.129  22.902  25.840  1.00  0.00    -0.352 N 
ATOM     26  C   UNL A   1      38.476  22.893  26.127  1.00  0.00     0.251 C 
ATOM     27  H   UNL A   1      36.757  22.040  25.544  1.00  0.00     0.163 HD
ATOM     28  O   UNL A   1      39.155  21.928  25.812  1.00  0.00    -0.269 OA
BRANCH  26  29
ATOM     29  C   UNL A   1      39.096  24.063  26.790  1.00  0.00     0.039 A 
ATOM     30  C   UNL A   1      38.905  24.297  28.152  1.00  0.00     0.014 A 
ATOM     31  C   UNL A   1      39.883  24.936  26.033  1.00  0.00     0.014 A 
ATOM     32  C   UNL A   1      39.365  25.480  28.722  1.00  0.00     0.010 A 
ATOM     33  C   UNL A   1      40.413  26.086  26.627  1.00  0.00     0.010 A 
ATOM     34  C   UNL A   1      40.122  26.391  27.965  1.00  0.00    -0.014 A 
BRANCH  34  35
ATOM     35  C   UNL A   1      40.583  27.659  28.590  1.00  0.00     0.031 A 
ATOM     36  C   UNL A   1      42.035  27.853  28.943  1.00  0.00     0.074 A 
ATOM     37  C   UNL A   1      39.702  28.665  28.771  1.00  0.00     0.049 A 
ATOM     38  N   UNL A   1      42.618  28.898  29.471  1.00  0.00    -0.248 NA
ATOM     39  C   UNL A   1      42.955  26.736  28.666  1.00  0.00     0.031 C 
ATOM     40  C   UNL A   1      38.280  28.609  28.425  1.00  0.00     0.029 A 
ATOM     41  N   UNL A   1      39.876  29.941  29.248  1.00  0.00    -0.354 N 
ATOM     42  C   UNL A   1      43.963  28.568  29.590  1.00  0.00     0.074 A 
ATOM     43  C   UNL A   1      44.110  27.211  29.116  1.00  0.00     0.031 C 
ATOM     44  C   UNL A   1      37.729  29.815  28.632  1.00  0.00     0.029 A 
ATOM     45  C   UNL A   1      38.735  30.710  29.195  1.00  0.00     0.049 A 
ATOM     46  H   UNL A   1      40.735  30.274  29.595  1.00  0.00     0.167 HD
ATOM     47  C   UNL A   1      44.985  29.336  30.034  1.00  0.00     0.031 A 
ATOM     48  C   UNL A   1      38.517  31.989  29.561  1.00  0.00     0.031 A 
ATOM     49  C   UNL A   1      44.836  30.694  30.488  1.00  0.00     0.049 A 
ATOM     50  C   UNL A   1      39.656  32.789  30.129  1.00  0.00     0.074 A 
ATOM     51  C   UNL A   1      45.815  31.547  30.968  1.00  0.00     0.029 A 
ATOM     52  N   UNL A   1      43.645  31.403  30.504  1.00  0.00    -0.354 N 
ATOM     53  N   UNL A   1      40.916  32.447  30.255  1.00  0.00    -0.248 NA
ATOM     54  C   UNL A   1      39.346  34.141  30.613  1.00  0.00     0.031 C 
ATOM     55  C   UNL A   1      45.208  32.751  31.327  1.00  0.00     0.029 A 
ATOM     56  C   UNL A   1      43.863  32.675  31.004  1.00  0.00     0.049 A 
ATOM     57  H   UNL A   1      42.774  31.055  30.203  1.00  0.00     0.167 HD
ATOM     58  C   UNL A   1      41.553  33.550  30.812  1.00  0.00     0.074 A 
ATOM     59  C   UNL A   1      40.545  34.576  30.982  1.00  0.00     0.031 C 
ATOM     60  C   UNL A   1      42.854  33.694  31.157  1.00  0.00     0.031 A 
BRANCH  47  61
ATOM     61  C   UNL A   1      46.376  28.758  30.043  1.00  0.00    -0.014 A 
ATOM     62  C   UNL A   1      46.890  28.188  31.224  1.00  0.00     0.010 A 
ATOM     63  C   UNL A   1      47.230  28.932  28.940  1.00  0.00     0.010 A 
ATOM     64  C   UNL A   1      48.244  27.851  31.319  1.00  0.00     0.020 A 
ATOM     65  C   UNL A   1      48.578  28.572  29.022  1.00  0.00     0.020 A 
ATOM     66  C   UNL A   1      49.082  28.062  30.222  1.00  0.00     0.054 A 
BRANCH  66  67
ATOM     67  S   UNL A   1      50.849  27.687  30.387  1.00  0.00     0.124 S 
ATOM     68  O   UNL A   1      51.322  27.817  29.013  1.00  0.00    -0.237 OA
ATOM     69  O   UNL A   1      51.307  28.719  31.314  1.00  0.00    -0.237 OA
ATOM     70  O   UNL A   1      50.861  26.328  30.927  1.00  0.00    -0.744 OA
ENDBRANCH  66  67
ENDBRANCH  47  61
BRANCH  48  71
ATOM     71  C   UNL A   1      37.166  32.591  29.381  1.00  0.00    -0.014 A 
ATOM     72  C   UNL A   1      36.779  33.131  28.140  1.00  0.00     0.010 A 
ATOM     73  C   UNL A   1      36.272  32.668  30.464  1.00  0.00     0.010 A 
ATOM     74  C   UNL A   1      35.548  33.775  27.996  1.00  0.00     0.020 A 
ATOM     75  C   UNL A   1      35.023  33.280  30.315  1.00  0.00     0.020 A 
ATOM     76  C   UNL A   1      34.682  33.853  29.088  1.00  0.00     0.054 A 
BRANCH  76  77
ATOM     77  S   UNL A   1      33.093  34.705  28.881  1.00  0.00     0.124 S 
ATOM     78  O   UNL A   1      32.558  34.674  30.239  1.00  0.00    -0.237 OA
ATOM     79  O   UNL A   1      33.497  36.021  28.392  1.00  0.00    -0.237 OA
ATOM     80  O   UNL A   1      32.385  33.873  27.909  1.00  0.00    -0.744 OA
ENDBRANCH  76  77
ENDBRANCH  48  71
BRANCH  60  81
ATOM     81  C   UNL A   1      43.297  35.008  31.746  1.00  0.00    -0.014 A 
ATOM     82  C   UNL A   1      43.000  35.304  33.089  1.00  0.00     0.010 A 
ATOM     83  C   UNL A   1      43.872  36.001  30.934  1.00  0.00     0.010 A 
ATOM     84  C   UNL A   1      43.229  36.582  33.601  1.00  0.00     0.020 A 
ATOM     85  C   UNL A   1      44.132  37.273  31.453  1.00  0.00     0.020 A 
ATOM     86  C   UNL A   1      43.782  37.563  32.774  1.00  0.00     0.054 A 
BRANCH  86  87
ATOM     87  S   UNL A   1      44.028  39.232  33.440  1.00  0.00     0.124 S 
ATOM     88  O   UNL A   1      44.743  39.894  32.353  1.00  0.00    -0.237 OA
ATOM     89  O   UNL A   1      42.660  39.692  33.667  1.00  0.00    -0.237 OA
ATOM     90  O   UNL A   1      44.808  39.005  34.654  1.00  0.00    -0.744 OA
ENDBRANCH  86  87
ENDBRANCH  60  81
ENDBRANCH  34  35
ENDBRANCH  26  29
ENDBRANCH  24  25
ENDBRANCH   1  24
TORSDOF 15
ENDMDL
MODEL 3
REMARK VINA RESULT:     -10.9      2.694      9.215
REMARK SMILES CC[C@H]1CCCC[C@H]1n1cc(C(=O)NCCCNC(=O)c2ccc(-c3c4nc(c(-c5ccc(S(=O)(=O)[O-])cc5)c5ccc([nH]5)c(-c5ccc(S(=O)(=O)[O-])cc5)c5nc(c(-c6ccc(S(=O)(=O)[O-])cc6)c6ccc3[nH]6)C=C5)C=C4)cc2)c(=O)[nH]c1=O
REMARK SMILES IDX 16 1 15 2 14 3 12 4 13 5 11 7 9 8 10 9 84 10 83 11 85 12
REMARK SMILES IDX 81 13 82 15 8 16 3 17 4 18 5 19 7 20 6 21 2 22 1 23 17 24
REMARK SMILES IDX 18 25 19 26 20 28 21 29 22 30 80 31 23 32 79 33 24 34 25 35
REMARK SMILES IDX 26 36 73 37 27 38 78 39 72 40 74 41 28 42 77 43 71 44 70 45
REMARK SMILES IDX 29 47 59 48 40 49 58 50 41 51 44 52 57 53 75 54 42 55 43 56
REMARK SMILES IDX 56 58 76 59 45 60 30 61 31 62 39 63 32 64 38 65 33 66 34 67
REMARK SMILES IDX 35 68 36 69 37 70 60 71 61 72 69 73 62 74 68 75 63 76 64 77
REMARK SMILES IDX 65 78 66 79 67 80 46 81 47 82 55 83 48 84 54 85 49 86 50 87
REMARK SMILES IDX 51 88 52 89 53 90
REMARK H PARENT 14 6 83 14 18 27 74 46 44 57
REMARK Flexibility Score: inf
ROOT
ATOM      1  C   UNL A   1      35.830  22.404  25.950  1.00  0.00     0.042 C 
ENDROOT
BRANCH   1   2
ATOM      2  C   UNL A   1      35.294  22.039  24.565  1.00  0.00     0.118 C 
BRANCH   2   3
ATOM      3  N   UNL A   1      33.844  21.953  24.596  1.00  0.00    -0.352 N 
ATOM      4  C   UNL A   1      32.843  22.851  24.381  1.00  0.00     0.258 C 
ATOM      5  O   UNL A   1      31.706  22.476  24.665  1.00  0.00    -0.269 OA
ATOM      6  H   UNL A   1      33.515  21.053  24.821  1.00  0.00     0.163 HD
BRANCH   4   7
ATOM      7  C   UNL A   1      33.070  24.195  23.776  1.00  0.00     0.121 A 
ATOM      8  N   UNL A   1      33.282  26.600  23.879  1.00  0.00    -0.296 N 
ATOM      9  C   UNL A   1      32.949  25.361  24.429  1.00  0.00     0.110 A 
ATOM     10  C   UNL A   1      33.521  26.715  22.511  1.00  0.00     0.328 A 
ATOM     11  N   UNL A   1      33.466  25.545  21.808  1.00  0.00    -0.273 N 
ATOM     12  O   UNL A   1      33.806  27.740  21.901  1.00  0.00    -0.248 OA
ATOM     13  C   UNL A   1      33.432  24.288  22.337  1.00  0.00     0.266 A 
ATOM     14  H   UNL A   1      33.449  25.615  20.826  1.00  0.00     0.175 HD
ATOM     15  O   UNL A   1      33.745  23.325  21.647  1.00  0.00    -0.268 OA
BRANCH   8  16
ATOM     16  C   UNL A   1      33.488  27.735  24.842  1.00  0.00     0.095 C 
ATOM     17  C   UNL A   1      32.445  28.884  24.603  1.00  0.00     0.012 C 
ATOM     18  C   UNL A   1      32.726  30.066  25.548  1.00  0.00     0.006 C 
ATOM     19  C   UNL A   1      32.739  29.653  27.013  1.00  0.00     0.000 C 
ATOM     20  C   UNL A   1      33.551  27.360  26.341  1.00  0.00     0.026 C 
ATOM     21  C   UNL A   1      33.778  28.565  27.251  1.00  0.00     0.002 C 
BRANCH  17  22
ATOM     22  C   UNL A   1      30.986  28.369  24.667  1.00  0.00     0.002 C 
ATOM     23  C   UNL A   1      30.098  28.871  23.537  1.00  0.00     0.004 C 
ENDBRANCH  17  22
ENDBRANCH   8  16
ENDBRANCH   4   7
ENDBRANCH   2   3
ENDBRANCH   1   2
BRANCH   1  24
ATOM     24  C   UNL A   1      37.065  23.301  25.889  1.00  0.00     0.118 C 
BRANCH  24  25
ATOM     25  N   UNL A   1      38.300  22.529  25.898  1.00  0.00    -0.352 N 
ATOM     26  C   UNL A   1      39.574  22.918  26.252  1.00  0.00     0.251 C 
ATOM     27  H   UNL A   1      38.212  21.592  25.609  1.00  0.00     0.163 HD
ATOM     28  O   UNL A   1      40.520  22.188  25.999  1.00  0.00    -0.269 OA
BRANCH  26  29
ATOM     29  C   UNL A   1      39.789  24.226  26.910  1.00  0.00     0.039 A 
ATOM     30  C   UNL A   1      40.498  25.242  26.267  1.00  0.00     0.014 A 
ATOM     31  C   UNL A   1      39.268  24.438  28.190  1.00  0.00     0.014 A 
ATOM     32  C   UNL A   1      40.820  26.405  26.959  1.00  0.00     0.010 A 
ATOM     33  C   UNL A   1      39.526  25.641  28.855  1.00  0.00     0.010 A 
ATOM     34  C   UNL A   1      40.342  26.617  28.263  1.00  0.00    -0.014 A 
BRANCH  34  35
ATOM     35  C   UNL A   1      40.720  27.858  28.990  1.00  0.00     0.031 A 
ATOM     36  C   UNL A   1      39.747  29.002  29.105  1.00  0.00     0.074 A 
ATOM     37  C   UNL A   1      41.917  27.922  29.611  1.00  0.00     0.049 A 
ATOM     38  N   UNL A   1      39.897  30.147  29.720  1.00  0.00    -0.248 NA
ATOM     39  C   UNL A   1      38.435  28.845  28.454  1.00  0.00     0.031 C 
ATOM     40  C   UNL A   1      42.923  26.857  29.607  1.00  0.00     0.029 A 
ATOM     41  N   UNL A   1      42.474  28.900  30.398  1.00  0.00    -0.354 N 
ATOM     42  C   UNL A   1      38.708  30.843  29.531  1.00  0.00     0.074 A 
ATOM     43  C   UNL A   1      37.857  30.012  28.711  1.00  0.00     0.031 C 
ATOM     44  C   UNL A   1      43.938  27.209  30.411  1.00  0.00     0.029 A 
ATOM     45  C   UNL A   1      43.695  28.550  30.929  1.00  0.00     0.049 A 
ATOM     46  H   UNL A   1      42.041  29.768  30.565  1.00  0.00     0.167 HD
ATOM     47  C   UNL A   1      38.353  32.056  30.014  1.00  0.00     0.031 A 
ATOM     48  C   UNL A   1      44.530  29.232  31.739  1.00  0.00     0.031 A 
ATOM     49  C   UNL A   1      39.199  32.872  30.846  1.00  0.00     0.049 A 
ATOM     50  C   UNL A   1      44.142  30.612  32.191  1.00  0.00     0.074 A 
ATOM     51  C   UNL A   1      38.928  34.122  31.375  1.00  0.00     0.029 A 
ATOM     52  N   UNL A   1      40.466  32.519  31.285  1.00  0.00    -0.354 N 
ATOM     53  N   UNL A   1      43.022  31.260  31.978  1.00  0.00    -0.248 NA
ATOM     54  C   UNL A   1      45.130  31.358  32.983  1.00  0.00     0.031 C 
ATOM     55  C   UNL A   1      40.050  34.549  32.084  1.00  0.00     0.029 A 
ATOM     56  C   UNL A   1      40.995  33.537  32.060  1.00  0.00     0.049 A 
ATOM     57  H   UNL A   1      40.922  31.671  31.077  1.00  0.00     0.167 HD
ATOM     58  C   UNL A   1      43.163  32.481  32.629  1.00  0.00     0.074 A 
ATOM     59  C   UNL A   1      44.467  32.474  33.258  1.00  0.00     0.031 C 
ATOM     60  C   UNL A   1      42.290  33.514  32.692  1.00  0.00     0.031 A 
BRANCH  47  61
ATOM     61  C   UNL A   1      36.984  32.594  29.690  1.00  0.00    -0.014 A 
ATOM     62  C   UNL A   1      36.773  33.291  28.486  1.00  0.00     0.010 A 
ATOM     63  C   UNL A   1      35.957  32.559  30.649  1.00  0.00     0.010 A 
ATOM     64  C   UNL A   1      35.580  33.987  28.268  1.00  0.00     0.020 A 
ATOM     65  C   UNL A   1      34.752  33.231  30.424  1.00  0.00     0.020 A 
ATOM     66  C   UNL A   1      34.584  33.965  29.247  1.00  0.00     0.054 A 
BRANCH  66  67
ATOM     67  S   UNL A   1      33.073  34.932  28.978  1.00  0.00     0.124 S 
ATOM     68  O   UNL A   1      32.358  34.122  27.997  1.00  0.00    -0.237 OA
ATOM     69  O   UNL A   1      32.482  34.976  30.314  1.00  0.00    -0.237 OA
ATOM     70  O   UNL A   1      33.571  36.216  28.487  1.00  0.00    -0.744 OA
ENDBRANCH  66  67
ENDBRANCH  47  61
BRANCH  48  71
ATOM     71  C   UNL A   1      45.806  28.605  32.184  1.00  0.00    -0.014 A 
ATOM     72  C   UNL A   1      45.868  27.880  33.389  1.00  0.00     0.010 A 
ATOM     73  C   UNL A   1      46.980  28.766  31.426  1.00  0.00     0.010 A 
ATOM     74  C   UNL A   1      47.083  27.369  33.851  1.00  0.00     0.020 A 
ATOM     75  C   UNL A   1      48.192  28.224  31.867  1.00  0.00     0.020 A 
ATOM     76  C   UNL A   1      48.240  27.552  33.090  1.00  0.00     0.054 A 
BRANCH  76  77
ATOM     77  S   UNL A   1      49.809  26.890  33.715  1.00  0.00     0.124 S 
ATOM     78  O   UNL A   1      49.628  27.009  35.159  1.00  0.00    -0.237 OA
ATOM     79  O   UNL A   1      49.812  25.526  33.191  1.00  0.00    -0.237 OA
ATOM     80  O   UNL A   1      50.811  27.780  33.133  1.00  0.00    -0.744 OA
ENDBRANCH  76  77
ENDBRANCH  48  71
BRANCH  60  81
ATOM     81  C   UNL A   1      42.687  34.738  33.476  1.00  0.00    -0.014 A 
ATOM     82  C   UNL A   1      43.398  35.772  32.839  1.00  0.00     0.010 A 
ATOM     83  C   UNL A   1      42.485  34.798  34.866  1.00  0.00     0.010 A 
ATOM     84  C   UNL A   1      43.940  36.823  33.582  1.00  0.00     0.020 A 
ATOM     85  C   UNL A   1      43.000  35.865  35.608  1.00  0.00     0.020 A 
ATOM     86  C   UNL A   1      43.747  36.855  34.965  1.00  0.00     0.054 A 
BRANCH  86  87
ATOM     87  S   UNL A   1      44.499  38.200  35.922  1.00  0.00     0.124 S 
ATOM     88  O   UNL A   1      45.906  37.814  35.940  1.00  0.00    -0.237 OA
ATOM     89  O   UNL A   1      44.179  39.380  35.122  1.00  0.00    -0.237 OA
ATOM     90  O   UNL A   1      43.814  38.128  37.211  1.00  0.00    -0.744 OA
ENDBRANCH  86  87
ENDBRANCH  60  81
ENDBRANCH  34  35
ENDBRANCH  26  29
ENDBRANCH  24  25
ENDBRANCH   1  24
TORSDOF 15
ENDMDL
