MODEL 1
REMARK VINA RESULT:     -11.0      0.000      0.000
REMARK SMILES CCOc1cc(N2CCOCC2)ccc1[C@H]([NH3+])C(=O)NCCCNC(=O)c1ccc(-c2c3nc(c(-c4ccc(S(=O)(=O)[O-])cc4)c4ccc([nH]4)c(-c4ccc(S(=O)(=O)[O-])cc4)c4nc(c(-c5ccc(S(=O)(=O)[O-])cc5)c5ccc2[nH]5)C=C4)C=C3)cc1
REMARK SMILES IDX 22 1 21 2 20 3 18 4 19 5 16 7 15 8 4 9 5 10 6 11 14 12 13 13
REMARK SMILES IDX 3 14 2 15 1 16 7 17 8 18 12 19 9 20 11 21 10 22 17 23 23 27
REMARK SMILES IDX 24 28 25 29 26 31 27 32 28 33 86 34 29 35 85 36 30 37 31 38
REMARK SMILES IDX 32 39 79 40 33 41 84 42 78 43 80 44 34 45 83 46 77 47 76 48
REMARK SMILES IDX 35 50 65 51 46 52 64 53 47 54 50 55 63 56 81 57 48 58 49 59
REMARK SMILES IDX 62 61 82 62 51 63 36 64 37 65 45 66 38 67 44 68 39 69 40 70
REMARK SMILES IDX 41 71 42 72 43 73 66 74 67 75 75 76 68 77 74 78 69 79 70 80
REMARK SMILES IDX 71 81 72 82 73 83 52 84 53 85 61 86 54 87 60 88 55 89 56 90
REMARK SMILES IDX 57 91 58 92 59 93
REMARK H PARENT 20 6 17 24 17 25 17 26 24 30 80 49 50 60
REMARK Flexibility Score: inf
ROOT
ATOM      1  C   UNL A   1      36.062  24.168  25.617  1.00  0.00     0.042 C 
ENDROOT
BRANCH   1   2
ATOM      2  C   UNL A   1      34.667  24.445  25.040  1.00  0.00     0.118 C 
BRANCH   2   3
ATOM      3  N   UNL A   1      33.658  24.404  26.089  1.00  0.00    -0.351 N 
ATOM      4  C   UNL A   1      32.339  24.696  26.175  1.00  0.00     0.283 C 
ATOM      5  O   UNL A   1      31.921  24.750  27.348  1.00  0.00    -0.268 OA
ATOM      6  H   UNL A   1      34.025  24.085  26.944  1.00  0.00     0.163 HD
BRANCH   4   7
ATOM      7  C   UNL A   1      31.305  24.919  25.035  1.00  0.00     0.306 C 
BRANCH   7   8
ATOM      8  C   UNL A   1      31.004  26.303  24.510  1.00  0.00     0.061 A 
ATOM      9  C   UNL A   1      31.810  27.432  24.738  1.00  0.00     0.131 A 
ATOM     10  C   UNL A   1      31.446  28.689  24.228  1.00  0.00     0.072 A 
ATOM     11  C   UNL A   1      30.260  28.861  23.495  1.00  0.00     0.040 A 
ATOM     12  C   UNL A   1      29.804  26.492  23.801  1.00  0.00     0.016 A 
ATOM     13  C   UNL A   1      29.435  27.749  23.315  1.00  0.00     0.027 A 
BRANCH   9  14
ATOM     14  O   UNL A   1      32.844  27.340  25.633  1.00  0.00    -0.493 OA
BRANCH  14  15
ATOM     15  C   UNL A   1      33.777  28.419  25.587  1.00  0.00     0.226 C 
ATOM     16  C   UNL A   1      34.301  28.620  27.003  1.00  0.00     0.049 C 
ENDBRANCH  14  15
ENDBRANCH   9  14
BRANCH  11  17
ATOM     17  N   UNL A   1      29.914  30.110  23.010  1.00  0.00    -0.367 N 
ATOM     18  C   UNL A   1      29.182  31.025  23.898  1.00  0.00     0.145 C 
ATOM     19  C   UNL A   1      29.637  30.283  21.576  1.00  0.00     0.145 C 
ATOM     20  C   UNL A   1      27.692  31.082  23.515  1.00  0.00     0.181 C 
ATOM     21  C   UNL A   1      28.130  30.407  21.298  1.00  0.00     0.181 C 
ATOM     22  O   UNL A   1      27.510  31.406  22.125  1.00  0.00    -0.378 OA
ENDBRANCH  11  17
ENDBRANCH   7   8
BRANCH   7  23
ATOM     23  N   UNL A   1      30.077  24.132  25.311  1.00  0.00    -0.343 N 
ATOM     24  H   UNL A   1      29.368  24.741  25.720  1.00  0.00     0.345 HD
ATOM     25  H   UNL A   1      30.295  23.378  25.962  1.00  0.00     0.345 HD
ATOM     26  H   UNL A   1      29.723  23.737  24.440  1.00  0.00     0.345 HD
ENDBRANCH   7  23
ENDBRANCH   4   7
ENDBRANCH   2   3
ENDBRANCH   1   2
BRANCH   1  27
ATOM     27  C   UNL A   1      37.048  23.511  24.651  1.00  0.00     0.118 C 
BRANCH  27  28
ATOM     28  N   UNL A   1      37.938  22.585  25.330  1.00  0.00    -0.352 N 
ATOM     29  C   UNL A   1      39.000  22.807  26.176  1.00  0.00     0.251 C 
ATOM     30  H   UNL A   1      37.749  21.635  25.155  1.00  0.00     0.163 HD
ATOM     31  O   UNL A   1      39.752  21.863  26.417  1.00  0.00    -0.269 OA
BRANCH  29  32
ATOM     32  C   UNL A   1      39.270  24.130  26.806  1.00  0.00     0.039 A 
ATOM     33  C   UNL A   1      40.059  25.053  26.104  1.00  0.00     0.014 A 
ATOM     34  C   UNL A   1      38.868  24.442  28.107  1.00  0.00     0.014 A 
ATOM     35  C   UNL A   1      40.426  26.272  26.691  1.00  0.00     0.010 A 
ATOM     36  C   UNL A   1      39.166  25.692  28.661  1.00  0.00     0.010 A 
ATOM     37  C   UNL A   1      39.976  26.610  27.976  1.00  0.00    -0.014 A 
BRANCH  37  38
ATOM     38  C   UNL A   1      40.402  27.875  28.643  1.00  0.00     0.031 A 
ATOM     39  C   UNL A   1      41.804  28.008  29.190  1.00  0.00     0.074 A 
ATOM     40  C   UNL A   1      39.534  28.894  28.799  1.00  0.00     0.049 A 
ATOM     41  N   UNL A   1      42.347  29.003  29.848  1.00  0.00    -0.248 NA
ATOM     42  C   UNL A   1      42.704  26.862  28.991  1.00  0.00     0.031 C 
ATOM     43  C   UNL A   1      38.145  28.901  28.336  1.00  0.00     0.029 A 
ATOM     44  N   UNL A   1      39.693  30.123  29.393  1.00  0.00    -0.354 N 
ATOM     45  C   UNL A   1      43.636  28.589  30.168  1.00  0.00     0.074 A 
ATOM     46  C   UNL A   1      43.776  27.237  29.673  1.00  0.00     0.031 C 
ATOM     47  C   UNL A   1      37.591  30.088  28.633  1.00  0.00     0.029 A 
ATOM     48  C   UNL A   1      38.567  30.912  29.342  1.00  0.00     0.049 A 
ATOM     49  H   UNL A   1      40.534  30.412  29.814  1.00  0.00     0.167 HD
ATOM     50  C   UNL A   1      44.624  29.270  30.800  1.00  0.00     0.031 A 
ATOM     51  C   UNL A   1      38.343  32.156  29.810  1.00  0.00     0.031 A 
ATOM     52  C   UNL A   1      44.497  30.623  31.277  1.00  0.00     0.049 A 
ATOM     53  C   UNL A   1      39.448  32.897  30.513  1.00  0.00     0.074 A 
ATOM     54  C   UNL A   1      45.457  31.418  31.879  1.00  0.00     0.029 A 
ATOM     55  N   UNL A   1      43.339  31.381  31.206  1.00  0.00    -0.354 N 
ATOM     56  N   UNL A   1      40.672  32.503  30.764  1.00  0.00    -0.248 NA
ATOM     57  C   UNL A   1      39.140  34.256  30.982  1.00  0.00     0.031 C 
ATOM     58  C   UNL A   1      44.866  32.642  32.213  1.00  0.00     0.029 A 
ATOM     59  C   UNL A   1      43.552  32.628  31.769  1.00  0.00     0.049 A 
ATOM     60  H   UNL A   1      42.489  31.078  30.811  1.00  0.00     0.167 HD
ATOM     61  C   UNL A   1      41.294  33.577  31.395  1.00  0.00     0.074 A 
ATOM     62  C   UNL A   1      40.309  34.637  31.480  1.00  0.00     0.031 C 
ATOM     63  C   UNL A   1      42.566  33.676  31.853  1.00  0.00     0.031 A 
BRANCH  50  64
ATOM     64  C   UNL A   1      45.925  28.542  31.030  1.00  0.00    -0.014 A 
ATOM     65  C   UNL A   1      46.954  28.563  30.069  1.00  0.00     0.010 A 
ATOM     66  C   UNL A   1      46.118  27.816  32.219  1.00  0.00     0.010 A 
ATOM     67  C   UNL A   1      48.116  27.810  30.259  1.00  0.00     0.020 A 
ATOM     68  C   UNL A   1      47.294  27.089  32.429  1.00  0.00     0.020 A 
ATOM     69  C   UNL A   1      48.272  27.066  31.432  1.00  0.00     0.054 A 
BRANCH  69  70
ATOM     70  S   UNL A   1      49.773  26.070  31.644  1.00  0.00     0.124 S 
ATOM     71  O   UNL A   1      49.354  25.117  32.672  1.00  0.00    -0.237 OA
ATOM     72  O   UNL A   1      49.974  25.501  30.312  1.00  0.00    -0.237 OA
ATOM     73  O   UNL A   1      50.777  27.037  32.064  1.00  0.00    -0.744 OA
ENDBRANCH  69  70
ENDBRANCH  50  64
BRANCH  51  74
ATOM     74  C   UNL A   1      37.018  32.796  29.583  1.00  0.00    -0.014 A 
ATOM     75  C   UNL A   1      36.118  32.952  30.652  1.00  0.00     0.010 A 
ATOM     76  C   UNL A   1      36.668  33.294  28.315  1.00  0.00     0.010 A 
ATOM     77  C   UNL A   1      34.894  33.598  30.459  1.00  0.00     0.020 A 
ATOM     78  C   UNL A   1      35.454  33.961  28.124  1.00  0.00     0.020 A 
ATOM     79  C   UNL A   1      34.573  34.106  29.197  1.00  0.00     0.054 A 
BRANCH  79  80
ATOM     80  S   UNL A   1      33.019  35.021  28.995  1.00  0.00     0.124 S 
ATOM     81  O   UNL A   1      32.299  34.192  28.034  1.00  0.00    -0.237 OA
ATOM     82  O   UNL A   1      32.480  35.031  30.353  1.00  0.00    -0.237 OA
ATOM     83  O   UNL A   1      33.453  36.325  28.498  1.00  0.00    -0.744 OA
ENDBRANCH  79  80
ENDBRANCH  51  74
BRANCH  63  84
ATOM     84  C   UNL A   1      42.988  34.991  32.456  1.00  0.00    -0.014 A 
ATOM     85  C   UNL A   1      43.611  35.985  31.681  1.00  0.00     0.010 A 
ATOM     86  C   UNL A   1      42.704  35.252  33.808  1.00  0.00     0.010 A 
ATOM     87  C   UNL A   1      43.971  37.206  32.259  1.00  0.00     0.020 A 
ATOM     88  C   UNL A   1      43.038  36.483  34.382  1.00  0.00     0.020 A 
ATOM     89  C   UNL A   1      43.683  37.447  33.606  1.00  0.00     0.054 A 
BRANCH  89  90
ATOM     90  S   UNL A   1      44.118  39.057  34.321  1.00  0.00     0.124 S 
ATOM     91  O   UNL A   1      42.970  39.876  33.945  1.00  0.00    -0.237 OA
ATOM     92  O   UNL A   1      44.236  38.756  35.746  1.00  0.00    -0.237 OA
ATOM     93  O   UNL A   1      45.374  39.402  33.659  1.00  0.00    -0.744 OA
ENDBRANCH  89  90
ENDBRANCH  63  84
ENDBRANCH  37  38
ENDBRANCH  29  32
ENDBRANCH  27  28
ENDBRANCH   1  27
TORSDOF 18
ENDMDL
MODEL 2
REMARK VINA RESULT:     -10.9      3.357      9.024
REMARK SMILES CCOc1cc(N2CCOCC2)ccc1[C@H]([NH3+])C(=O)NCCCNC(=O)c1ccc(-c2c3nc(c(-c4ccc(S(=O)(=O)[O-])cc4)c4ccc([nH]4)c(-c4ccc(S(=O)(=O)[O-])cc4)c4nc(c(-c5ccc(S(=O)(=O)[O-])cc5)c5ccc2[nH]5)C=C4)C=C3)cc1
REMARK SMILES IDX 22 1 21 2 20 3 18 4 19 5 16 7 15 8 4 9 5 10 6 11 14 12 13 13
REMARK SMILES IDX 3 14 2 15 1 16 7 17 8 18 12 19 9 20 11 21 10 22 17 23 23 27
REMARK SMILES IDX 24 28 25 29 26 31 27 32 28 33 86 34 29 35 85 36 30 37 31 38
REMARK SMILES IDX 32 39 79 40 33 41 84 42 78 43 80 44 34 45 83 46 77 47 76 48
REMARK SMILES IDX 35 50 65 51 46 52 64 53 47 54 50 55 63 56 81 57 48 58 49 59
REMARK SMILES IDX 62 61 82 62 51 63 36 64 37 65 45 66 38 67 44 68 39 69 40 70
REMARK SMILES IDX 41 71 42 72 43 73 66 74 67 75 75 76 68 77 74 78 69 79 70 80
REMARK SMILES IDX 71 81 72 82 73 83 52 84 53 85 61 86 54 87 60 88 55 89 56 90
REMARK SMILES IDX 57 91 58 92 59 93
REMARK H PARENT 20 6 17 24 17 25 17 26 24 30 80 49 50 60
REMARK Flexibility Score: inf
ROOT
ATOM      1  C   UNL A   1      32.627  27.945  25.383  1.00  0.00     0.042 C 
ENDROOT
BRANCH   1   2
ATOM      2  C   UNL A   1      32.321  26.446  25.255  1.00  0.00     0.118 C 
BRANCH   2   3
ATOM      3  N   UNL A   1      32.846  25.918  24.003  1.00  0.00    -0.351 N 
ATOM      4  C   UNL A   1      33.774  24.997  23.655  1.00  0.00     0.283 C 
ATOM      5  O   UNL A   1      34.084  25.040  22.448  1.00  0.00    -0.268 OA
ATOM      6  H   UNL A   1      32.421  26.333  23.218  1.00  0.00     0.163 HD
BRANCH   4   7
ATOM      7  C   UNL A   1      34.445  23.899  24.527  1.00  0.00     0.306 C 
BRANCH   7   8
ATOM      8  C   UNL A   1      33.991  22.459  24.461  1.00  0.00     0.061 A 
ATOM      9  C   UNL A   1      34.627  21.394  25.121  1.00  0.00     0.131 A 
ATOM     10  C   UNL A   1      34.149  20.080  24.991  1.00  0.00     0.072 A 
ATOM     11  C   UNL A   1      33.038  19.787  24.183  1.00  0.00     0.040 A 
ATOM     12  C   UNL A   1      32.898  22.151  23.631  1.00  0.00     0.016 A 
ATOM     13  C   UNL A   1      32.440  20.838  23.487  1.00  0.00     0.027 A 
BRANCH   9  14
ATOM     14  O   UNL A   1      35.838  21.616  25.727  1.00  0.00    -0.493 OA
BRANCH  14  15
ATOM     15  C   UNL A   1      36.965  21.088  25.029  1.00  0.00     0.226 C 
ATOM     16  C   UNL A   1      38.199  21.805  25.563  1.00  0.00     0.049 C 
ENDBRANCH  14  15
ENDBRANCH   9  14
BRANCH  11  17
ATOM     17  N   UNL A   1      32.589  18.484  24.060  1.00  0.00    -0.367 N 
ATOM     18  C   UNL A   1      32.463  17.671  25.279  1.00  0.00     0.145 C 
ATOM     19  C   UNL A   1      32.886  17.724  22.836  1.00  0.00     0.145 C 
ATOM     20  C   UNL A   1      33.627  16.668  25.390  1.00  0.00     0.181 C 
ATOM     21  C   UNL A   1      34.006  16.695  23.062  1.00  0.00     0.181 C 
ATOM     22  O   UNL A   1      33.750  15.862  24.204  1.00  0.00    -0.378 OA
ENDBRANCH  11  17
ENDBRANCH   7   8
BRANCH   7  23
ATOM     23  N   UNL A   1      34.596  24.389  25.921  1.00  0.00    -0.343 N 
ATOM     24  H   UNL A   1      34.158  23.728  26.562  1.00  0.00     0.345 HD
ATOM     25  H   UNL A   1      34.148  25.299  26.012  1.00  0.00     0.345 HD
ATOM     26  H   UNL A   1      35.587  24.473  26.146  1.00  0.00     0.345 HD
ENDBRANCH   7  23
ENDBRANCH   4   7
ENDBRANCH   2   3
ENDBRANCH   1   2
BRANCH   1  27
ATOM     27  C   UNL A   1      33.846  28.291  26.239  1.00  0.00     0.118 C 
BRANCH  27  28
ATOM     28  N   UNL A   1      33.729  29.607  26.842  1.00  0.00    -0.352 N 
ATOM     29  C   UNL A   1      34.559  30.282  27.707  1.00  0.00     0.251 C 
ATOM     30  H   UNL A   1      32.916  30.101  26.590  1.00  0.00     0.163 HD
ATOM     31  O   UNL A   1      34.112  31.279  28.274  1.00  0.00    -0.269 OA
BRANCH  29  32
ATOM     32  C   UNL A   1      35.961  29.858  27.979  1.00  0.00     0.039 A 
ATOM     33  C   UNL A   1      36.268  29.351  29.250  1.00  0.00     0.014 A 
ATOM     34  C   UNL A   1      36.999  30.054  27.065  1.00  0.00     0.014 A 
ATOM     35  C   UNL A   1      37.590  29.030  29.591  1.00  0.00     0.010 A 
ATOM     36  C   UNL A   1      38.304  29.658  27.378  1.00  0.00     0.010 A 
ATOM     37  C   UNL A   1      38.624  29.173  28.655  1.00  0.00    -0.014 A 
BRANCH  37  38
ATOM     38  C   UNL A   1      40.045  28.895  29.014  1.00  0.00     0.031 A 
ATOM     39  C   UNL A   1      40.672  27.569  28.653  1.00  0.00     0.074 A 
ATOM     40  C   UNL A   1      40.771  29.804  29.694  1.00  0.00     0.049 A 
ATOM     41  N   UNL A   1      41.873  27.117  28.922  1.00  0.00    -0.248 NA
ATOM     42  C   UNL A   1      39.829  26.617  27.912  1.00  0.00     0.031 C 
ATOM     43  C   UNL A   1      40.294  31.119  30.123  1.00  0.00     0.029 A 
ATOM     44  N   UNL A   1      42.069  29.757  30.146  1.00  0.00    -0.354 N 
ATOM     45  C   UNL A   1      41.915  25.822  28.415  1.00  0.00     0.074 A 
ATOM     46  C   UNL A   1      40.606  25.546  27.864  1.00  0.00     0.031 C 
ATOM     47  C   UNL A   1      41.294  31.767  30.745  1.00  0.00     0.029 A 
ATOM     48  C   UNL A   1      42.469  30.901  30.796  1.00  0.00     0.049 A 
ATOM     49  H   UNL A   1      42.656  28.978  30.015  1.00  0.00     0.167 HD
ATOM     50  C   UNL A   1      42.948  24.944  28.391  1.00  0.00     0.031 A 
ATOM     51  C   UNL A   1      43.647  31.221  31.368  1.00  0.00     0.031 A 
ATOM     52  C   UNL A   1      44.259  25.221  28.918  1.00  0.00     0.049 A 
ATOM     53  C   UNL A   1      44.782  30.234  31.336  1.00  0.00     0.074 A 
ATOM     54  C   UNL A   1      45.386  24.418  28.891  1.00  0.00     0.029 A 
ATOM     55  N   UNL A   1      44.618  26.391  29.570  1.00  0.00    -0.354 N 
ATOM     56  N   UNL A   1      44.814  29.033  30.812  1.00  0.00    -0.248 NA
ATOM     57  C   UNL A   1      46.044  30.654  31.963  1.00  0.00     0.031 C 
ATOM     58  C   UNL A   1      46.415  25.085  29.566  1.00  0.00     0.029 A 
ATOM     59  C   UNL A   1      45.943  26.326  29.966  1.00  0.00     0.049 A 
ATOM     60  H   UNL A   1      44.019  27.157  29.726  1.00  0.00     0.167 HD
ATOM     61  C   UNL A   1      46.109  28.564  31.018  1.00  0.00     0.074 A 
ATOM     62  C   UNL A   1      46.828  29.615  31.710  1.00  0.00     0.031 C 
ATOM     63  C   UNL A   1      46.651  27.374  30.657  1.00  0.00     0.031 A 
BRANCH  50  64
ATOM     64  C   UNL A   1      42.685  23.587  27.787  1.00  0.00    -0.014 A 
ATOM     65  C   UNL A   1      42.022  22.579  28.514  1.00  0.00     0.010 A 
ATOM     66  C   UNL A   1      43.116  23.310  26.477  1.00  0.00     0.010 A 
ATOM     67  C   UNL A   1      41.865  21.301  27.971  1.00  0.00     0.020 A 
ATOM     68  C   UNL A   1      42.931  22.042  25.917  1.00  0.00     0.020 A 
ATOM     69  C   UNL A   1      42.334  21.037  26.682  1.00  0.00     0.054 A 
BRANCH  69  70
ATOM     70  S   UNL A   1      42.151  19.361  26.009  1.00  0.00     0.124 S 
ATOM     71  O   UNL A   1      42.688  18.544  27.097  1.00  0.00    -0.237 OA
ATOM     72  O   UNL A   1      40.707  19.253  25.802  1.00  0.00    -0.237 OA
ATOM     73  O   UNL A   1      42.952  19.385  24.794  1.00  0.00    -0.744 OA
ENDBRANCH  69  70
ENDBRANCH  50  64
BRANCH  51  74
ATOM     74  C   UNL A   1      43.822  32.565  31.983  1.00  0.00    -0.014 A 
ATOM     75  C   UNL A   1      44.192  33.664  31.187  1.00  0.00     0.010 A 
ATOM     76  C   UNL A   1      43.574  32.766  33.353  1.00  0.00     0.010 A 
ATOM     77  C   UNL A   1      44.307  34.939  31.746  1.00  0.00     0.020 A 
ATOM     78  C   UNL A   1      43.666  34.045  33.912  1.00  0.00     0.020 A 
ATOM     79  C   UNL A   1      44.035  35.123  33.105  1.00  0.00     0.054 A 
BRANCH  79  80
ATOM     80  S   UNL A   1      44.102  36.803  33.788  1.00  0.00     0.124 S 
ATOM     81  O   UNL A   1      44.781  37.537  32.726  1.00  0.00    -0.237 OA
ATOM     82  O   UNL A   1      42.688  37.123  33.977  1.00  0.00    -0.237 OA
ATOM     83  O   UNL A   1      44.864  36.638  35.025  1.00  0.00    -0.744 OA
ENDBRANCH  79  80
ENDBRANCH  51  74
BRANCH  63  84
ATOM     84  C   UNL A   1      48.108  27.152  30.968  1.00  0.00    -0.014 A 
ATOM     85  C   UNL A   1      48.516  26.561  32.177  1.00  0.00     0.010 A 
ATOM     86  C   UNL A   1      49.078  27.491  30.009  1.00  0.00     0.010 A 
ATOM     87  C   UNL A   1      49.873  26.343  32.432  1.00  0.00     0.020 A 
ATOM     88  C   UNL A   1      50.434  27.250  30.250  1.00  0.00     0.020 A 
ATOM     89  C   UNL A   1      50.824  26.690  31.467  1.00  0.00     0.054 A 
BRANCH  89  90
ATOM     90  S   UNL A   1      52.575  26.355  31.803  1.00  0.00     0.124 S 
ATOM     91  O   UNL A   1      52.579  24.906  31.979  1.00  0.00    -0.237 OA
ATOM     92  O   UNL A   1      53.234  26.842  30.593  1.00  0.00    -0.237 OA
ATOM     93  O   UNL A   1      52.851  27.131  33.010  1.00  0.00    -0.744 OA
ENDBRANCH  89  90
ENDBRANCH  63  84
ENDBRANCH  37  38
ENDBRANCH  29  32
ENDBRANCH  27  28
ENDBRANCH   1  27
TORSDOF 18
ENDMDL
MODEL 3
REMARK VINA RESULT:     -10.9      2.669      8.977
REMARK SMILES CCOc1cc(N2CCOCC2)ccc1[C@H]([NH3+])C(=O)NCCCNC(=O)c1ccc(-c2c3nc(c(-c4ccc(S(=O)(=O)[O-])cc4)c4ccc([nH]4)c(-c4ccc(S(=O)(=O)[O-])cc4)c4nc(c(-c5ccc(S(=O)(=O)[O-])cc5)c5ccc2[nH]5)C=C4)C=C3)cc1
REMARK SMILES IDX 22 1 21 2 20 3 18 4 19 5 16 7 15 8 4 9 5 10 6 11 14 12 13 13
REMARK SMILES IDX 3 14 2 15 1 16 7 17 8 18 12 19 9 20 11 21 10 22 17 23 23 27
REMARK SMILES IDX 24 28 25 29 26 31 27 32 28 33 86 34 29 35 85 36 30 37 31 38
REMARK SMILES IDX 32 39 79 40 33 41 84 42 78 43 80 44 34 45 83 46 77 47 76 48
REMARK SMILES IDX 35 50 65 51 46 52 64 53 47 54 50 55 63 56 81 57 48 58 49 59
REMARK SMILES IDX 62 61 82 62 51 63 36 64 37 65 45 66 38 67 44 68 39 69 40 70
REMARK SMILES IDX 41 71 42 72 43 73 66 74 67 75 75 76 68 77 74 78 69 79 70 80
REMARK SMILES IDX 71 81 72 82 73 83 52 84 53 85 61 86 54 87 60 88 55 89 56 90
REMARK SMILES IDX 57 91 58 92 59 93
REMARK H PARENT 20 6 17 24 17 25 17 26 24 30 80 49 50 60
REMARK Flexibility Score: inf
ROOT
ATOM      1  C   UNL A   1      32.032  28.570  26.096  1.00  0.00     0.042 C 
ENDROOT
BRANCH   1   2
ATOM      2  C   UNL A   1      31.425  27.245  26.577  1.00  0.00     0.118 C 
BRANCH   2   3
ATOM      3  N   UNL A   1      32.266  26.121  26.187  1.00  0.00    -0.351 N 
ATOM      4  C   UNL A   1      32.198  25.139  25.258  1.00  0.00     0.283 C 
ATOM      5  O   UNL A   1      33.029  24.228  25.442  1.00  0.00    -0.268 OA
ATOM      6  H   UNL A   1      33.082  26.061  26.733  1.00  0.00     0.163 HD
BRANCH   4   7
ATOM      7  C   UNL A   1      31.280  25.030  24.008  1.00  0.00     0.306 C 
BRANCH   7   8
ATOM      8  C   UNL A   1      30.452  26.204  23.539  1.00  0.00     0.061 A 
ATOM      9  C   UNL A   1      30.934  27.242  22.725  1.00  0.00     0.131 A 
ATOM     10  C   UNL A   1      30.100  28.307  22.350  1.00  0.00     0.072 A 
ATOM     11  C   UNL A   1      28.769  28.380  22.793  1.00  0.00     0.040 A 
ATOM     12  C   UNL A   1      29.127  26.301  24.003  1.00  0.00     0.016 A 
ATOM     13  C   UNL A   1      28.307  27.375  23.645  1.00  0.00     0.027 A 
BRANCH   9  14
ATOM     14  O   UNL A   1      32.279  27.314  22.467  1.00  0.00    -0.493 OA
BRANCH  14  15
ATOM     15  C   UNL A   1      32.895  28.550  22.827  1.00  0.00     0.226 C 
ATOM     16  C   UNL A   1      34.344  28.482  22.362  1.00  0.00     0.049 C 
ENDBRANCH  14  15
ENDBRANCH   9  14
BRANCH  11  17
ATOM     17  N   UNL A   1      27.966  29.444  22.420  1.00  0.00    -0.367 N 
ATOM     18  C   UNL A   1      28.414  30.300  21.311  1.00  0.00     0.145 C 
ATOM     19  C   UNL A   1      27.137  30.119  23.430  1.00  0.00     0.145 C 
ATOM     20  C   UNL A   1      28.973  31.634  21.843  1.00  0.00     0.181 C 
ATOM     21  C   UNL A   1      27.733  31.475  23.843  1.00  0.00     0.181 C 
ATOM     22  O   UNL A   1      28.033  32.300  22.705  1.00  0.00    -0.378 OA
ENDBRANCH  11  17
ENDBRANCH   7   8
BRANCH   7  23
ATOM     23  N   UNL A   1      30.502  23.767  24.066  1.00  0.00    -0.343 N 
ATOM     24  H   UNL A   1      30.211  23.504  23.125  1.00  0.00     0.345 HD
ATOM     25  H   UNL A   1      29.679  23.900  24.652  1.00  0.00     0.345 HD
ATOM     26  H   UNL A   1      31.084  23.027  24.460  1.00  0.00     0.345 HD
ENDBRANCH   7  23
ENDBRANCH   4   7
ENDBRANCH   2   3
ENDBRANCH   1   2
BRANCH   1  27
ATOM     27  C   UNL A   1      33.421  28.889  26.648  1.00  0.00     0.118 C 
BRANCH  27  28
ATOM     28  N   UNL A   1      33.509  30.253  27.141  1.00  0.00    -0.352 N 
ATOM     29  C   UNL A   1      34.458  30.873  27.922  1.00  0.00     0.251 C 
ATOM     30  H   UNL A   1      32.762  30.834  26.871  1.00  0.00     0.163 HD
ATOM     31  O   UNL A   1      34.174  31.965  28.414  1.00  0.00    -0.269 OA
BRANCH  29  32
ATOM     32  C   UNL A   1      35.798  30.281  28.189  1.00  0.00     0.039 A 
ATOM     33  C   UNL A   1      36.043  29.731  29.455  1.00  0.00     0.014 A 
ATOM     34  C   UNL A   1      36.852  30.356  27.274  1.00  0.00     0.014 A 
ATOM     35  C   UNL A   1      37.316  29.251  29.793  1.00  0.00     0.010 A 
ATOM     36  C   UNL A   1      38.100  29.804  27.582  1.00  0.00     0.010 A 
ATOM     37  C   UNL A   1      38.360  29.275  28.856  1.00  0.00    -0.014 A 
BRANCH  37  38
ATOM     38  C   UNL A   1      39.737  28.825  29.211  1.00  0.00     0.031 A 
ATOM     39  C   UNL A   1      40.662  29.744  29.973  1.00  0.00     0.074 A 
ATOM     40  C   UNL A   1      40.183  27.613  28.825  1.00  0.00     0.049 A 
ATOM     41  N   UNL A   1      41.909  29.558  30.330  1.00  0.00    -0.248 NA
ATOM     42  C   UNL A   1      40.118  31.054  30.366  1.00  0.00     0.031 C 
ATOM     43  C   UNL A   1      39.409  26.626  28.071  1.00  0.00     0.029 A 
ATOM     44  N   UNL A   1      41.402  27.006  29.014  1.00  0.00    -0.354 N 
ATOM     45  C   UNL A   1      42.306  30.736  30.955  1.00  0.00     0.074 A 
ATOM     46  C   UNL A   1      41.182  31.645  30.888  1.00  0.00     0.031 C 
ATOM     47  C   UNL A   1      40.158  25.525  27.892  1.00  0.00     0.029 A 
ATOM     48  C   UNL A   1      41.478  25.740  28.480  1.00  0.00     0.049 A 
ATOM     49  H   UNL A   1      42.149  27.435  29.489  1.00  0.00     0.167 HD
ATOM     50  C   UNL A   1      43.488  31.036  31.548  1.00  0.00     0.031 A 
ATOM     51  C   UNL A   1      42.491  24.851  28.465  1.00  0.00     0.031 A 
ATOM     52  C   UNL A   1      44.603  30.129  31.636  1.00  0.00     0.049 A 
ATOM     53  C   UNL A   1      43.797  25.201  29.123  1.00  0.00     0.074 A 
ATOM     54  C   UNL A   1      45.822  30.320  32.264  1.00  0.00     0.029 A 
ATOM     55  N   UNL A   1      44.636  28.860  31.079  1.00  0.00    -0.354 N 
ATOM     56  N   UNL A   1      44.135  26.303  29.747  1.00  0.00    -0.248 NA
ATOM     57  C   UNL A   1      44.854  24.179  29.084  1.00  0.00     0.031 C 
ATOM     58  C   UNL A   1      46.608  29.182  32.049  1.00  0.00     0.029 A 
ATOM     59  C   UNL A   1      45.858  28.262  31.332  1.00  0.00     0.049 A 
ATOM     60  H   UNL A   1      43.897  28.444  30.578  1.00  0.00     0.167 HD
ATOM     61  C   UNL A   1      45.434  26.096  30.204  1.00  0.00     0.074 A 
ATOM     62  C   UNL A   1      45.815  24.762  29.787  1.00  0.00     0.031 C 
ATOM     63  C   UNL A   1      46.232  26.935  30.911  1.00  0.00     0.031 A 
BRANCH  50  64
ATOM     64  C   UNL A   1      43.636  32.421  32.128  1.00  0.00    -0.014 A 
ATOM     65  C   UNL A   1      44.170  33.479  31.369  1.00  0.00     0.010 A 
ATOM     66  C   UNL A   1      43.246  32.666  33.457  1.00  0.00     0.010 A 
ATOM     67  C   UNL A   1      44.382  34.732  31.950  1.00  0.00     0.020 A 
ATOM     68  C   UNL A   1      43.424  33.927  34.033  1.00  0.00     0.020 A 
ATOM     69  C   UNL A   1      44.021  34.944  33.284  1.00  0.00     0.054 A 
BRANCH  69  70
ATOM     70  S   UNL A   1      44.335  36.568  34.029  1.00  0.00     0.124 S 
ATOM     71  O   UNL A   1      43.000  37.165  34.015  1.00  0.00    -0.237 OA
ATOM     72  O   UNL A   1      44.849  36.220  35.354  1.00  0.00    -0.237 OA
ATOM     73  O   UNL A   1      45.303  37.182  33.131  1.00  0.00    -0.744 OA
ENDBRANCH  69  70
ENDBRANCH  50  64
BRANCH  51  74
ATOM     74  C   UNL A   1      42.286  23.518  27.835  1.00  0.00    -0.014 A 
ATOM     75  C   UNL A   1      43.039  23.147  26.707  1.00  0.00     0.010 A 
ATOM     76  C   UNL A   1      41.376  22.596  28.385  1.00  0.00     0.010 A 
ATOM     77  C   UNL A   1      42.890  21.878  26.141  1.00  0.00     0.020 A 
ATOM     78  C   UNL A   1      41.241  21.317  27.835  1.00  0.00     0.020 A 
ATOM     79  C   UNL A   1      41.997  20.967  26.715  1.00  0.00     0.054 A 
BRANCH  79  80
ATOM     80  S   UNL A   1      41.889  19.295  26.017  1.00  0.00     0.124 S 
ATOM     81  O   UNL A   1      42.696  19.416  24.808  1.00  0.00    -0.237 OA
ATOM     82  O   UNL A   1      42.461  18.472  27.081  1.00  0.00    -0.237 OA
ATOM     83  O   UNL A   1      40.456  19.108  25.801  1.00  0.00    -0.744 OA
ENDBRANCH  79  80
ENDBRANCH  51  74
BRANCH  63  84
ATOM     84  C   UNL A   1      47.589  26.424  31.318  1.00  0.00    -0.014 A 
ATOM     85  C   UNL A   1      47.766  25.665  32.488  1.00  0.00     0.010 A 
ATOM     86  C   UNL A   1      48.696  26.665  30.483  1.00  0.00     0.010 A 
ATOM     87  C   UNL A   1      49.032  25.181  32.831  1.00  0.00     0.020 A 
ATOM     88  C   UNL A   1      49.958  26.161  30.810  1.00  0.00     0.020 A 
ATOM     89  C   UNL A   1      50.120  25.434  31.990  1.00  0.00     0.054 A 
BRANCH  89  90
ATOM     90  S   UNL A   1      51.745  24.758  32.433  1.00  0.00     0.124 S 
ATOM     91  O   UNL A   1      51.540  23.325  32.242  1.00  0.00    -0.237 OA
ATOM     92  O   UNL A   1      52.635  25.399  31.468  1.00  0.00    -0.237 OA
ATOM     93  O   UNL A   1      51.930  25.181  33.819  1.00  0.00    -0.744 OA
ENDBRANCH  89  90
ENDBRANCH  63  84
ENDBRANCH  37  38
ENDBRANCH  29  32
ENDBRANCH  27  28
ENDBRANCH   1  27
TORSDOF 18
ENDMDL
