MODEL 1
REMARK VINA RESULT:     -13.1      0.000      0.000
REMARK SMILES O=C(NCCCNC(=O)c1ccc(-c2c3nc(c(-c4ccc(S(=O)(=O)[O-])cc4)c4ccc([nH]4)c(-c4ccc(S(=O)(=O)[O-])cc4)c4nc(c(-c5ccc(S(=O)(=O)[O-])cc5)c5ccc2[nH]5)C=C4)C=C3)cc1)C1=Cc2c(ccc(Cl)c2-c2ccccc2)O[C@H]1C(F)(F)F
REMARK SMILES IDX 6 1 5 2 4 3 3 4 1 5 2 6 70 8 71 9 86 10 72 11 85 12 73 13
REMARK SMILES IDX 78 14 74 15 76 16 75 17 77 18 87 19 88 20 89 21 90 22 79 23
REMARK SMILES IDX 80 24 84 25 81 26 83 27 82 28 7 29 8 30 9 32 10 33 11 34
REMARK SMILES IDX 69 35 12 36 68 37 13 38 14 39 15 40 62 41 16 42 67 43 61 44
REMARK SMILES IDX 63 45 17 46 66 47 60 48 59 49 18 51 48 52 29 53 47 54 30 55
REMARK SMILES IDX 33 56 46 57 64 58 31 59 32 60 45 62 65 63 34 64 19 65 20 66
REMARK SMILES IDX 28 67 21 68 27 69 22 70 23 71 24 72 25 73 26 74 49 75 50 76
REMARK SMILES IDX 58 77 51 78 57 79 52 80 53 81 54 82 55 83 56 84 35 85 36 86
REMARK SMILES IDX 44 87 37 88 43 89 38 90 39 91 40 92 41 93 42 94
REMARK H PARENT 3 7 7 31 63 50 33 61
REMARK Flexibility Score: inf
ROOT
ATOM      1  C   UNL A   1      38.955  23.369  26.730  1.00  0.00     0.118 C 
ENDROOT
BRANCH   1   2
ATOM      2  C   UNL A   1      37.937  24.320  26.111  1.00  0.00     0.042 C 
BRANCH   2   3
ATOM      3  C   UNL A   1      37.078  23.667  25.045  1.00  0.00     0.118 C 
BRANCH   3   4
ATOM      4  N   UNL A   1      37.189  22.221  24.950  1.00  0.00    -0.352 N 
ATOM      5  O   UNL A   1      36.489  20.084  25.023  1.00  0.00    -0.270 OA
ATOM      6  C   UNL A   1      36.220  21.276  25.139  1.00  0.00     0.251 C 
ATOM      7  H   UNL A   1      38.082  21.876  24.719  1.00  0.00     0.163 HD
BRANCH   6   8
ATOM      8  C   UNL A   1      34.833  21.672  25.471  1.00  0.00     0.067 C 
ATOM      9  C   UNL A   1      33.936  20.689  25.632  1.00  0.00     0.026 C 
ATOM     10  C   UNL A   1      34.332  23.042  25.124  1.00  0.00     0.314 C 
ATOM     11  C   UNL A   1      33.103  20.590  24.402  1.00  0.00     0.027 A 
ATOM     12  O   UNL A   1      33.212  23.012  24.173  1.00  0.00    -0.475 OA
ATOM     13  C   UNL A   1      32.807  21.779  23.716  1.00  0.00     0.128 A 
ATOM     14  C   UNL A   1      32.806  19.313  23.858  1.00  0.00     0.011 A 
ATOM     15  C   UNL A   1      32.204  21.717  22.466  1.00  0.00     0.049 A 
ATOM     16  C   UNL A   1      32.222  19.276  22.584  1.00  0.00     0.049 A 
ATOM     17  C   UNL A   1      31.931  20.468  21.895  1.00  0.00     0.025 A 
ATOM     18  Cl  UNL A   1      31.901  17.781  21.782  1.00  0.00    -0.084 Cl
BRANCH  10  19
ATOM     19  C   UNL A   1      33.947  23.830  26.396  1.00  0.00     0.429 C 
ATOM     20  F   UNL A   1      32.637  23.703  26.725  1.00  0.00    -0.167 F 
ATOM     21  F   UNL A   1      34.663  23.411  27.466  1.00  0.00    -0.167 F 
ATOM     22  F   UNL A   1      34.175  25.159  26.261  1.00  0.00    -0.167 F 
ENDBRANCH  10  19
BRANCH  14  23
ATOM     23  C   UNL A   1      33.288  18.140  24.616  1.00  0.00    -0.016 A 
ATOM     24  C   UNL A   1      32.393  17.413  25.419  1.00  0.00     0.009 A 
ATOM     25  C   UNL A   1      34.507  17.538  24.256  1.00  0.00     0.009 A 
ATOM     26  C   UNL A   1      32.649  16.080  25.740  1.00  0.00     0.001 A 
ATOM     27  C   UNL A   1      34.755  16.201  24.567  1.00  0.00     0.001 A 
ATOM     28  C   UNL A   1      33.813  15.466  25.283  1.00  0.00     0.000 A 
ENDBRANCH  14  23
ENDBRANCH   6   8
ENDBRANCH   3   4
ENDBRANCH   2   3
ENDBRANCH   1   2
BRANCH   1  29
ATOM     29  N   UNL A   1      40.337  23.606  26.306  1.00  0.00    -0.352 N 
ATOM     30  C   UNL A   1      41.220  24.637  26.552  1.00  0.00     0.251 C 
ATOM     31  H   UNL A   1      40.707  22.894  25.736  1.00  0.00     0.163 HD
ATOM     32  O   UNL A   1      42.324  24.627  26.012  1.00  0.00    -0.269 OA
BRANCH  30  33
ATOM     33  C   UNL A   1      40.835  25.787  27.395  1.00  0.00     0.039 A 
ATOM     34  C   UNL A   1      40.044  25.572  28.529  1.00  0.00     0.014 A 
ATOM     35  C   UNL A   1      41.283  27.069  27.103  1.00  0.00     0.014 A 
ATOM     36  C   UNL A   1      39.843  26.611  29.444  1.00  0.00     0.010 A 
ATOM     37  C   UNL A   1      41.204  28.056  28.074  1.00  0.00     0.010 A 
ATOM     38  C   UNL A   1      40.500  27.837  29.268  1.00  0.00    -0.014 A 
BRANCH  38  39
ATOM     39  C   UNL A   1      40.505  28.914  30.295  1.00  0.00     0.031 A 
ATOM     40  C   UNL A   1      41.456  28.819  31.459  1.00  0.00     0.074 A 
ATOM     41  C   UNL A   1      39.562  29.878  30.272  1.00  0.00     0.049 A 
ATOM     42  N   UNL A   1      41.440  29.462  32.597  1.00  0.00    -0.248 NA
ATOM     43  C   UNL A   1      42.534  27.821  31.347  1.00  0.00     0.031 C 
ATOM     44  C   UNL A   1      38.559  30.073  29.222  1.00  0.00     0.029 A 
ATOM     45  N   UNL A   1      39.279  30.870  31.180  1.00  0.00    -0.354 N 
ATOM     46  C   UNL A   1      42.462  28.903  33.357  1.00  0.00     0.074 A 
ATOM     47  C   UNL A   1      43.042  27.839  32.569  1.00  0.00     0.031 C 
ATOM     48  C   UNL A   1      37.796  31.136  29.528  1.00  0.00     0.029 A 
ATOM     49  C   UNL A   1      38.207  31.656  30.827  1.00  0.00     0.049 A 
ATOM     50  H   UNL A   1      39.796  31.005  32.008  1.00  0.00     0.167 HD
ATOM     51  C   UNL A   1      42.891  29.256  34.592  1.00  0.00     0.031 A 
ATOM     52  C   UNL A   1      37.608  32.669  31.481  1.00  0.00     0.031 A 
ATOM     53  C   UNL A   1      42.344  30.349  35.348  1.00  0.00     0.049 A 
ATOM     54  C   UNL A   1      38.114  33.062  32.842  1.00  0.00     0.074 A 
ATOM     55  C   UNL A   1      42.741  30.829  36.583  1.00  0.00     0.029 A 
ATOM     56  N   UNL A   1      41.292  31.149  34.926  1.00  0.00    -0.354 N 
ATOM     57  N   UNL A   1      39.087  32.530  33.541  1.00  0.00    -0.248 NA
ATOM     58  C   UNL A   1      37.442  34.190  33.500  1.00  0.00     0.031 C 
ATOM     59  C   UNL A   1      41.911  31.904  36.919  1.00  0.00     0.029 A 
ATOM     60  C   UNL A   1      41.027  32.120  35.873  1.00  0.00     0.049 A 
ATOM     61  H   UNL A   1      40.806  31.041  34.076  1.00  0.00     0.167 HD
ATOM     62  C   UNL A   1      39.169  33.283  34.707  1.00  0.00     0.074 A 
ATOM     63  C   UNL A   1      38.148  34.306  34.618  1.00  0.00     0.031 C 
ATOM     64  C   UNL A   1      40.018  33.142  35.754  1.00  0.00     0.031 A 
BRANCH  51  65
ATOM     65  C   UNL A   1      44.009  28.442  35.192  1.00  0.00    -0.014 A 
ATOM     66  C   UNL A   1      45.354  28.814  35.014  1.00  0.00     0.010 A 
ATOM     67  C   UNL A   1      43.713  27.286  35.936  1.00  0.00     0.010 A 
ATOM     68  C   UNL A   1      46.384  28.008  35.506  1.00  0.00     0.020 A 
ATOM     69  C   UNL A   1      44.740  26.495  36.461  1.00  0.00     0.020 A 
ATOM     70  C   UNL A   1      46.069  26.848  36.217  1.00  0.00     0.054 A 
BRANCH  70  71
ATOM     71  S   UNL A   1      47.424  25.810  36.832  1.00  0.00     0.124 S 
ATOM     72  O   UNL A   1      48.211  25.598  35.620  1.00  0.00    -0.237 OA
ATOM     73  O   UNL A   1      48.048  26.660  37.843  1.00  0.00    -0.237 OA
ATOM     74  O   UNL A   1      46.745  24.625  37.350  1.00  0.00    -0.744 OA
ENDBRANCH  70  71
ENDBRANCH  51  65
BRANCH  52  75
ATOM     75  C   UNL A   1      36.481  33.405  30.844  1.00  0.00    -0.014 A 
ATOM     76  C   UNL A   1      35.246  33.505  31.509  1.00  0.00     0.010 A 
ATOM     77  C   UNL A   1      36.635  34.027  29.592  1.00  0.00     0.010 A 
ATOM     78  C   UNL A   1      34.181  34.203  30.930  1.00  0.00     0.020 A 
ATOM     79  C   UNL A   1      35.580  34.748  29.021  1.00  0.00     0.020 A 
ATOM     80  C   UNL A   1      34.357  34.823  29.690  1.00  0.00     0.054 A 
BRANCH  80  81
ATOM     81  S   UNL A   1      32.980  35.773  28.986  1.00  0.00     0.124 S 
ATOM     82  O   UNL A   1      33.675  36.874  28.330  1.00  0.00    -0.237 OA
ATOM     83  O   UNL A   1      32.348  34.801  28.097  1.00  0.00    -0.237 OA
ATOM     84  O   UNL A   1      32.187  36.140  30.157  1.00  0.00    -0.744 OA
ENDBRANCH  80  81
ENDBRANCH  52  75
BRANCH  64  85
ATOM     85  C   UNL A   1      39.925  34.151  36.866  1.00  0.00    -0.014 A 
ATOM     86  C   UNL A   1      40.573  35.394  36.780  1.00  0.00     0.010 A 
ATOM     87  C   UNL A   1      39.100  33.876  37.973  1.00  0.00     0.010 A 
ATOM     88  C   UNL A   1      40.408  36.344  37.791  1.00  0.00     0.020 A 
ATOM     89  C   UNL A   1      38.914  34.832  38.973  1.00  0.00     0.020 A 
ATOM     90  C   UNL A   1      39.575  36.058  38.879  1.00  0.00     0.054 A 
BRANCH  90  91
ATOM     91  S   UNL A   1      39.315  37.337  40.139  1.00  0.00     0.124 S 
ATOM     92  O   UNL A   1      38.767  36.563  41.249  1.00  0.00    -0.237 OA
ATOM     93  O   UNL A   1      40.662  37.864  40.344  1.00  0.00    -0.237 OA
ATOM     94  O   UNL A   1      38.381  38.263  39.503  1.00  0.00    -0.744 OA
ENDBRANCH  90  91
ENDBRANCH  64  85
ENDBRANCH  38  39
ENDBRANCH  30  33
ENDBRANCH   1  29
TORSDOF 15
ENDMDL
MODEL 2
REMARK VINA RESULT:     -13.0      5.086     10.436
REMARK SMILES O=C(NCCCNC(=O)c1ccc(-c2c3nc(c(-c4ccc(S(=O)(=O)[O-])cc4)c4ccc([nH]4)c(-c4ccc(S(=O)(=O)[O-])cc4)c4nc(c(-c5ccc(S(=O)(=O)[O-])cc5)c5ccc2[nH]5)C=C4)C=C3)cc1)C1=Cc2c(ccc(Cl)c2-c2ccccc2)O[C@H]1C(F)(F)F
REMARK SMILES IDX 6 1 5 2 4 3 3 4 1 5 2 6 70 8 71 9 86 10 72 11 85 12 73 13
REMARK SMILES IDX 78 14 74 15 76 16 75 17 77 18 87 19 88 20 89 21 90 22 79 23
REMARK SMILES IDX 80 24 84 25 81 26 83 27 82 28 7 29 8 30 9 32 10 33 11 34
REMARK SMILES IDX 69 35 12 36 68 37 13 38 14 39 15 40 62 41 16 42 67 43 61 44
REMARK SMILES IDX 63 45 17 46 66 47 60 48 59 49 18 51 48 52 29 53 47 54 30 55
REMARK SMILES IDX 33 56 46 57 64 58 31 59 32 60 45 62 65 63 34 64 19 65 20 66
REMARK SMILES IDX 28 67 21 68 27 69 22 70 23 71 24 72 25 73 26 74 49 75 50 76
REMARK SMILES IDX 58 77 51 78 57 79 52 80 53 81 54 82 55 83 56 84 35 85 36 86
REMARK SMILES IDX 44 87 37 88 43 89 38 90 39 91 40 92 41 93 42 94
REMARK H PARENT 3 7 7 31 63 50 33 61
REMARK Flexibility Score: inf
ROOT
ATOM      1  C   UNL A   1      33.367  29.310  26.873  1.00  0.00     0.118 C 
ENDROOT
BRANCH   1   2
ATOM      2  C   UNL A   1      32.270  28.382  27.382  1.00  0.00     0.042 C 
BRANCH   2   3
ATOM      3  C   UNL A   1      32.170  27.086  26.598  1.00  0.00     0.118 C 
BRANCH   3   4
ATOM      4  N   UNL A   1      31.019  26.255  26.905  1.00  0.00    -0.352 N 
ATOM      5  O   UNL A   1      29.130  25.103  26.492  1.00  0.00    -0.270 OA
ATOM      6  C   UNL A   1      30.045  25.799  26.060  1.00  0.00     0.251 C 
ATOM      7  H   UNL A   1      30.927  25.984  27.848  1.00  0.00     0.163 HD
BRANCH   6   8
ATOM      8  C   UNL A   1      30.084  26.124  24.617  1.00  0.00     0.067 C 
ATOM      9  C   UNL A   1      30.477  25.152  23.780  1.00  0.00     0.026 C 
ATOM     10  C   UNL A   1      30.210  27.548  24.164  1.00  0.00     0.314 C 
ATOM     11  C   UNL A   1      31.891  25.400  23.384  1.00  0.00     0.027 A 
ATOM     12  O   UNL A   1      31.444  27.794  23.403  1.00  0.00    -0.475 OA
ATOM     13  C   UNL A   1      32.306  26.734  23.243  1.00  0.00     0.128 A 
ATOM     14  C   UNL A   1      32.809  24.317  23.356  1.00  0.00     0.011 A 
ATOM     15  C   UNL A   1      33.655  27.016  23.069  1.00  0.00     0.049 A 
ATOM     16  C   UNL A   1      34.168  24.630  23.207  1.00  0.00     0.049 A 
ATOM     17  C   UNL A   1      34.584  25.967  23.071  1.00  0.00     0.025 A 
ATOM     18  Cl  UNL A   1      35.385  23.407  23.251  1.00  0.00    -0.084 Cl
BRANCH  10  19
ATOM     19  C   UNL A   1      28.971  27.981  23.348  1.00  0.00     0.429 C 
ATOM     20  F   UNL A   1      27.927  27.123  23.470  1.00  0.00    -0.167 F 
ATOM     21  F   UNL A   1      28.527  29.198  23.742  1.00  0.00    -0.167 F 
ATOM     22  F   UNL A   1      29.237  28.065  22.023  1.00  0.00    -0.167 F 
ENDBRANCH  10  19
BRANCH  14  23
ATOM     23  C   UNL A   1      32.264  22.976  23.650  1.00  0.00    -0.016 A 
ATOM     24  C   UNL A   1      32.188  22.016  22.628  1.00  0.00     0.009 A 
ATOM     25  C   UNL A   1      32.176  22.544  24.986  1.00  0.00     0.009 A 
ATOM     26  C   UNL A   1      32.160  20.655  22.934  1.00  0.00     0.001 A 
ATOM     27  C   UNL A   1      32.162  21.182  25.289  1.00  0.00     0.001 A 
ATOM     28  C   UNL A   1      32.184  20.240  24.263  1.00  0.00     0.000 A 
ENDBRANCH  14  23
ENDBRANCH   6   8
ENDBRANCH   3   4
ENDBRANCH   2   3
ENDBRANCH   1   2
BRANCH   1  29
ATOM     29  N   UNL A   1      33.539  30.530  27.665  1.00  0.00    -0.352 N 
ATOM     30  C   UNL A   1      34.592  31.010  28.414  1.00  0.00     0.251 C 
ATOM     31  H   UNL A   1      32.752  31.122  27.661  1.00  0.00     0.163 HD
ATOM     32  O   UNL A   1      34.455  32.054  29.049  1.00  0.00    -0.269 OA
BRANCH  30  33
ATOM     33  C   UNL A   1      35.857  30.254  28.525  1.00  0.00     0.039 A 
ATOM     34  C   UNL A   1      36.729  30.213  27.431  1.00  0.00     0.014 A 
ATOM     35  C   UNL A   1      36.212  29.625  29.711  1.00  0.00     0.014 A 
ATOM     36  C   UNL A   1      38.013  29.679  27.585  1.00  0.00     0.010 A 
ATOM     37  C   UNL A   1      37.526  29.226  29.904  1.00  0.00     0.010 A 
ATOM     38  C   UNL A   1      38.452  29.265  28.850  1.00  0.00    -0.014 A 
BRANCH  38  39
ATOM     39  C   UNL A   1      39.861  28.882  29.138  1.00  0.00     0.031 A 
ATOM     40  C   UNL A   1      40.814  29.920  29.670  1.00  0.00     0.074 A 
ATOM     41  C   UNL A   1      40.322  27.667  28.777  1.00  0.00     0.049 A 
ATOM     42  N   UNL A   1      42.121  29.901  29.715  1.00  0.00    -0.248 NA
ATOM     43  C   UNL A   1      40.214  31.174  30.160  1.00  0.00     0.031 C 
ATOM     44  C   UNL A   1      39.519  26.574  28.223  1.00  0.00     0.029 A 
ATOM     45  N   UNL A   1      41.596  27.153  28.803  1.00  0.00    -0.354 N 
ATOM     46  C   UNL A   1      42.497  31.157  30.178  1.00  0.00     0.074 A 
ATOM     47  C   UNL A   1      41.285  31.926  30.350  1.00  0.00     0.031 C 
ATOM     48  C   UNL A   1      40.310  25.513  27.994  1.00  0.00     0.029 A 
ATOM     49  C   UNL A   1      41.686  25.869  28.317  1.00  0.00     0.049 A 
ATOM     50  H   UNL A   1      42.373  27.658  29.137  1.00  0.00     0.167 HD
ATOM     51  C   UNL A   1      43.739  31.623  30.453  1.00  0.00     0.031 A 
ATOM     52  C   UNL A   1      42.757  25.073  28.133  1.00  0.00     0.031 A 
ATOM     53  C   UNL A   1      44.935  30.835  30.330  1.00  0.00     0.049 A 
ATOM     54  C   UNL A   1      44.126  25.600  28.466  1.00  0.00     0.074 A 
ATOM     55  C   UNL A   1      46.237  31.188  30.636  1.00  0.00     0.029 A 
ATOM     56  N   UNL A   1      44.970  29.522  29.882  1.00  0.00    -0.354 N 
ATOM     57  N   UNL A   1      44.463  26.785  28.913  1.00  0.00    -0.248 NA
ATOM     58  C   UNL A   1      45.256  24.682  28.272  1.00  0.00     0.031 C 
ATOM     59  C   UNL A   1      47.063  30.096  30.348  1.00  0.00     0.029 A 
ATOM     60  C   UNL A   1      46.269  29.049  29.905  1.00  0.00     0.049 A 
ATOM     61  H   UNL A   1      44.184  29.004  29.591  1.00  0.00     0.167 HD
ATOM     62  C   UNL A   1      45.842  26.744  29.088  1.00  0.00     0.074 A 
ATOM     63  C   UNL A   1      46.274  25.417  28.700  1.00  0.00     0.031 C 
ATOM     64  C   UNL A   1      46.673  27.717  29.534  1.00  0.00     0.031 A 
BRANCH  51  65
ATOM     65  C   UNL A   1      43.853  33.053  30.914  1.00  0.00    -0.014 A 
ATOM     66  C   UNL A   1      43.954  34.108  29.988  1.00  0.00     0.010 A 
ATOM     67  C   UNL A   1      43.867  33.348  32.289  1.00  0.00     0.010 A 
ATOM     68  C   UNL A   1      44.140  35.421  30.427  1.00  0.00     0.020 A 
ATOM     69  C   UNL A   1      44.017  34.666  32.732  1.00  0.00     0.020 A 
ATOM     70  C   UNL A   1      44.181  35.690  31.797  1.00  0.00     0.054 A 
BRANCH  70  71
ATOM     71  S   UNL A   1      44.439  37.401  32.341  1.00  0.00     0.124 S 
ATOM     72  O   UNL A   1      45.789  37.337  32.894  1.00  0.00    -0.237 OA
ATOM     73  O   UNL A   1      44.305  38.157  31.099  1.00  0.00    -0.237 OA
ATOM     74  O   UNL A   1      43.374  37.618  33.318  1.00  0.00    -0.744 OA
ENDBRANCH  70  71
ENDBRANCH  51  65
BRANCH  52  75
ATOM     75  C   UNL A   1      42.575  23.681  27.636  1.00  0.00    -0.014 A 
ATOM     76  C   UNL A   1      42.741  23.399  26.268  1.00  0.00     0.010 A 
ATOM     77  C   UNL A   1      42.261  22.631  28.517  1.00  0.00     0.010 A 
ATOM     78  C   UNL A   1      42.585  22.095  25.787  1.00  0.00     0.020 A 
ATOM     79  C   UNL A   1      42.129  21.321  28.044  1.00  0.00     0.020 A 
ATOM     80  C   UNL A   1      42.283  21.063  26.680  1.00  0.00     0.054 A 
BRANCH  80  81
ATOM     81  S   UNL A   1      42.145  19.370  26.042  1.00  0.00     0.124 S 
ATOM     82  O   UNL A   1      42.671  18.583  27.152  1.00  0.00    -0.237 OA
ATOM     83  O   UNL A   1      40.711  19.241  25.797  1.00  0.00    -0.237 OA
ATOM     84  O   UNL A   1      42.974  19.391  24.839  1.00  0.00    -0.744 OA
ENDBRANCH  80  81
ENDBRANCH  52  75
BRANCH  64  85
ATOM     85  C   UNL A   1      48.129  27.371  29.688  1.00  0.00    -0.014 A 
ATOM     86  C   UNL A   1      49.056  27.639  28.668  1.00  0.00     0.010 A 
ATOM     87  C   UNL A   1      48.583  26.850  30.914  1.00  0.00     0.010 A 
ATOM     88  C   UNL A   1      50.414  27.380  28.866  1.00  0.00     0.020 A 
ATOM     89  C   UNL A   1      49.942  26.612  31.124  1.00  0.00     0.020 A 
ATOM     90  C   UNL A   1      50.849  26.872  30.095  1.00  0.00     0.054 A 
BRANCH  90  91
ATOM     91  S   UNL A   1      52.626  26.618  30.355  1.00  0.00     0.124 S 
ATOM     92  O   UNL A   1      52.639  25.527  31.325  1.00  0.00    -0.237 OA
ATOM     93  O   UNL A   1      53.100  26.275  29.016  1.00  0.00    -0.237 OA
ATOM     94  O   UNL A   1      53.089  27.908  30.861  1.00  0.00    -0.744 OA
ENDBRANCH  90  91
ENDBRANCH  64  85
ENDBRANCH  38  39
ENDBRANCH  30  33
ENDBRANCH   1  29
TORSDOF 15
ENDMDL
MODEL 3
REMARK VINA RESULT:     -12.8      6.295     11.447
REMARK SMILES O=C(NCCCNC(=O)c1ccc(-c2c3nc(c(-c4ccc(S(=O)(=O)[O-])cc4)c4ccc([nH]4)c(-c4ccc(S(=O)(=O)[O-])cc4)c4nc(c(-c5ccc(S(=O)(=O)[O-])cc5)c5ccc2[nH]5)C=C4)C=C3)cc1)C1=Cc2c(ccc(Cl)c2-c2ccccc2)O[C@H]1C(F)(F)F
REMARK SMILES IDX 6 1 5 2 4 3 3 4 1 5 2 6 70 8 71 9 86 10 72 11 85 12 73 13
REMARK SMILES IDX 78 14 74 15 76 16 75 17 77 18 87 19 88 20 89 21 90 22 79 23
REMARK SMILES IDX 80 24 84 25 81 26 83 27 82 28 7 29 8 30 9 32 10 33 11 34
REMARK SMILES IDX 69 35 12 36 68 37 13 38 14 39 15 40 62 41 16 42 67 43 61 44
REMARK SMILES IDX 63 45 17 46 66 47 60 48 59 49 18 51 48 52 29 53 47 54 30 55
REMARK SMILES IDX 33 56 46 57 64 58 31 59 32 60 45 62 65 63 34 64 19 65 20 66
REMARK SMILES IDX 28 67 21 68 27 69 22 70 23 71 24 72 25 73 26 74 49 75 50 76
REMARK SMILES IDX 58 77 51 78 57 79 52 80 53 81 54 82 55 83 56 84 35 85 36 86
REMARK SMILES IDX 44 87 37 88 43 89 38 90 39 91 40 92 41 93 42 94
REMARK H PARENT 3 7 7 31 63 50 33 61
REMARK Flexibility Score: inf
ROOT
ATOM      1  C   UNL A   1      34.551  31.085  28.026  1.00  0.00     0.118 C 
ENDROOT
BRANCH   1   2
ATOM      2  C   UNL A   1      33.131  31.243  27.493  1.00  0.00     0.042 C 
BRANCH   2   3
ATOM      3  C   UNL A   1      32.694  30.093  26.604  1.00  0.00     0.118 C 
BRANCH   3   4
ATOM      4  N   UNL A   1      33.673  29.649  25.627  1.00  0.00    -0.352 N 
ATOM      5  O   UNL A   1      34.433  28.581  23.798  1.00  0.00    -0.270 OA
ATOM      6  C   UNL A   1      33.484  28.867  24.522  1.00  0.00     0.251 C 
ATOM      7  H   UNL A   1      34.598  29.953  25.781  1.00  0.00     0.163 HD
BRANCH   6   8
ATOM      8  C   UNL A   1      32.136  28.365  24.174  1.00  0.00     0.067 C 
ATOM      9  C   UNL A   1      31.823  27.122  24.569  1.00  0.00     0.026 C 
ATOM     10  C   UNL A   1      31.381  28.957  23.021  1.00  0.00     0.314 C 
ATOM     11  C   UNL A   1      31.941  26.203  23.403  1.00  0.00     0.027 A 
ATOM     12  O   UNL A   1      31.110  27.978  21.958  1.00  0.00    -0.475 OA
ATOM     13  C   UNL A   1      31.597  26.704  22.138  1.00  0.00     0.128 A 
ATOM     14  C   UNL A   1      32.572  24.942  23.568  1.00  0.00     0.011 A 
ATOM     15  C   UNL A   1      31.876  25.951  21.004  1.00  0.00     0.049 A 
ATOM     16  C   UNL A   1      32.868  24.213  22.407  1.00  0.00     0.049 A 
ATOM     17  C   UNL A   1      32.527  24.718  21.139  1.00  0.00     0.025 A 
ATOM     18  Cl  UNL A   1      33.716  22.711  22.477  1.00  0.00    -0.084 Cl
BRANCH  10  19
ATOM     19  C   UNL A   1      30.070  29.619  23.500  1.00  0.00     0.429 C 
ATOM     20  F   UNL A   1      29.534  30.464  22.583  1.00  0.00    -0.167 F 
ATOM     21  F   UNL A   1      29.124  28.690  23.777  1.00  0.00    -0.167 F 
ATOM     22  F   UNL A   1      30.249  30.351  24.626  1.00  0.00    -0.167 F 
ENDBRANCH  10  19
BRANCH  14  23
ATOM     23  C   UNL A   1      33.004  24.589  24.937  1.00  0.00    -0.016 A 
ATOM     24  C   UNL A   1      32.137  23.872  25.778  1.00  0.00     0.009 A 
ATOM     25  C   UNL A   1      34.372  24.632  25.262  1.00  0.00     0.009 A 
ATOM     26  C   UNL A   1      32.641  23.113  26.834  1.00  0.00     0.001 A 
ATOM     27  C   UNL A   1      34.874  23.862  26.310  1.00  0.00     0.001 A 
ATOM     28  C   UNL A   1      34.012  23.080  27.076  1.00  0.00     0.000 A 
ENDBRANCH  14  23
ENDBRANCH   6   8
ENDBRANCH   3   4
ENDBRANCH   2   3
ENDBRANCH   1   2
BRANCH   1  29
ATOM     29  N   UNL A   1      34.734  31.555  29.401  1.00  0.00    -0.352 N 
ATOM     30  C   UNL A   1      35.758  31.389  30.310  1.00  0.00     0.251 C 
ATOM     31  H   UNL A   1      33.984  32.093  29.742  1.00  0.00     0.163 HD
ATOM     32  O   UNL A   1      35.634  31.841  31.447  1.00  0.00    -0.269 OA
BRANCH  30  33
ATOM     33  C   UNL A   1      36.968  30.616  29.964  1.00  0.00     0.039 A 
ATOM     34  C   UNL A   1      37.439  30.632  28.646  1.00  0.00     0.014 A 
ATOM     35  C   UNL A   1      37.669  29.913  30.935  1.00  0.00     0.014 A 
ATOM     36  C   UNL A   1      38.688  30.078  28.347  1.00  0.00     0.010 A 
ATOM     37  C   UNL A   1      38.964  29.491  30.670  1.00  0.00     0.010 A 
ATOM     38  C   UNL A   1      39.500  29.584  29.377  1.00  0.00    -0.014 A 
BRANCH  38  39
ATOM     39  C   UNL A   1      40.915  29.171  29.172  1.00  0.00     0.031 A 
ATOM     40  C   UNL A   1      42.006  30.207  29.251  1.00  0.00     0.074 A 
ATOM     41  C   UNL A   1      41.205  27.919  28.761  1.00  0.00     0.049 A 
ATOM     42  N   UNL A   1      43.241  30.145  28.829  1.00  0.00    -0.248 NA
ATOM     43  C   UNL A   1      41.632  31.511  29.829  1.00  0.00     0.031 C 
ATOM     44  C   UNL A   1      40.246  26.822  28.613  1.00  0.00     0.029 A 
ATOM     45  N   UNL A   1      42.399  27.363  28.370  1.00  0.00    -0.354 N 
ATOM     46  C   UNL A   1      43.771  31.414  29.033  1.00  0.00     0.074 A 
ATOM     47  C   UNL A   1      42.708  32.236  29.568  1.00  0.00     0.031 C 
ATOM     48  C   UNL A   1      40.892  25.720  28.196  1.00  0.00     0.029 A 
ATOM     49  C   UNL A   1      42.296  26.047  27.981  1.00  0.00     0.049 A 
ATOM     50  H   UNL A   1      43.248  27.861  28.367  1.00  0.00     0.167 HD
ATOM     51  C   UNL A   1      45.034  31.852  28.812  1.00  0.00     0.031 A 
ATOM     52  C   UNL A   1      43.222  25.203  27.487  1.00  0.00     0.031 A 
ATOM     53  C   UNL A   1      46.098  31.016  28.330  1.00  0.00     0.049 A 
ATOM     54  C   UNL A   1      44.625  25.702  27.271  1.00  0.00     0.074 A 
ATOM     55  C   UNL A   1      47.427  31.342  28.126  1.00  0.00     0.029 A 
ATOM     56  N   UNL A   1      45.958  29.676  27.998  1.00  0.00    -0.354 N 
ATOM     57  N   UNL A   1      45.111  26.901  27.478  1.00  0.00    -0.248 NA
ATOM     58  C   UNL A   1      45.602  24.733  26.756  1.00  0.00     0.031 C 
ATOM     59  C   UNL A   1      48.084  30.205  27.644  1.00  0.00     0.029 A 
ATOM     60  C   UNL A   1      47.175  29.160  27.592  1.00  0.00     0.049 A 
ATOM     61  H   UNL A   1      45.115  29.168  28.045  1.00  0.00     0.167 HD
ATOM     62  C   UNL A   1      46.460  26.823  27.153  1.00  0.00     0.074 A 
ATOM     63  C   UNL A   1      46.713  25.459  26.737  1.00  0.00     0.031 C 
ATOM     64  C   UNL A   1      47.406  27.793  27.201  1.00  0.00     0.031 A 
BRANCH  51  65
ATOM     65  C   UNL A   1      45.318  33.305  29.095  1.00  0.00    -0.014 A 
ATOM     66  C   UNL A   1      45.150  34.285  28.099  1.00  0.00     0.010 A 
ATOM     67  C   UNL A   1      45.767  33.696  30.368  1.00  0.00     0.010 A 
ATOM     68  C   UNL A   1      45.494  35.615  28.348  1.00  0.00     0.020 A 
ATOM     69  C   UNL A   1      46.079  35.034  30.633  1.00  0.00     0.020 A 
ATOM     70  C   UNL A   1      45.967  35.979  29.611  1.00  0.00     0.054 A 
BRANCH  70  71
ATOM     71  S   UNL A   1      46.422  37.711  29.905  1.00  0.00     0.124 S 
ATOM     72  O   UNL A   1      47.199  37.610  31.137  1.00  0.00    -0.237 OA
ATOM     73  O   UNL A   1      47.186  38.050  28.707  1.00  0.00    -0.237 OA
ATOM     74  O   UNL A   1      45.134  38.390  30.032  1.00  0.00    -0.744 OA
ENDBRANCH  70  71
ENDBRANCH  51  65
BRANCH  52  75
ATOM     75  C   UNL A   1      42.861  23.790  27.192  1.00  0.00    -0.014 A 
ATOM     76  C   UNL A   1      42.589  23.397  25.869  1.00  0.00     0.010 A 
ATOM     77  C   UNL A   1      42.808  22.825  28.214  1.00  0.00     0.010 A 
ATOM     78  C   UNL A   1      42.260  22.071  25.574  1.00  0.00     0.020 A 
ATOM     79  C   UNL A   1      42.504  21.491  27.920  1.00  0.00     0.020 A 
ATOM     80  C   UNL A   1      42.223  21.125  26.602  1.00  0.00     0.054 A 
BRANCH  80  81
ATOM     81  S   UNL A   1      41.852  19.398  26.186  1.00  0.00     0.124 S 
ATOM     82  O   UNL A   1      42.272  18.698  27.395  1.00  0.00    -0.237 OA
ATOM     83  O   UNL A   1      40.412  19.435  25.942  1.00  0.00    -0.237 OA
ATOM     84  O   UNL A   1      42.670  19.151  25.001  1.00  0.00    -0.744 OA
ENDBRANCH  80  81
ENDBRANCH  52  75
BRANCH  64  85
ATOM     85  C   UNL A   1      48.817  27.406  26.852  1.00  0.00    -0.014 A 
ATOM     86  C   UNL A   1      49.708  26.934  27.830  1.00  0.00     0.010 A 
ATOM     87  C   UNL A   1      49.223  27.436  25.504  1.00  0.00     0.010 A 
ATOM     88  C   UNL A   1      50.989  26.508  27.467  1.00  0.00     0.020 A 
ATOM     89  C   UNL A   1      50.492  26.990  25.136  1.00  0.00     0.020 A 
ATOM     90  C   UNL A   1      51.371  26.535  26.121  1.00  0.00     0.054 A 
BRANCH  90  91
ATOM     91  S   UNL A   1      53.009  25.904  25.666  1.00  0.00     0.124 S 
ATOM     92  O   UNL A   1      53.176  26.435  24.317  1.00  0.00    -0.237 OA
ATOM     93  O   UNL A   1      53.874  26.492  26.686  1.00  0.00    -0.237 OA
ATOM     94  O   UNL A   1      52.856  24.453  25.750  1.00  0.00    -0.744 OA
ENDBRANCH  90  91
ENDBRANCH  64  85
ENDBRANCH  38  39
ENDBRANCH  30  33
ENDBRANCH   1  29
TORSDOF 15
ENDMDL
