MODEL 1
REMARK VINA RESULT:     -11.6      0.000      0.000
REMARK SMILES CCCCN(c1ccccc1C(=O)NCCCNC(=O)c1ccc(-c2c3nc(c(-c4ccc(S(=O)(=O)[O-])cc4)c4ccc([nH]4)c(-c4ccc(S(=O)(=O)[O-])cc4)c4nc(c(-c5ccc(S(=O)(=O)[O-])cc5)c5ccc2[nH]5)C=C4)C=C3)cc1)S(=O)(=O)c1ccc2c(c1)oc(=O)n2C
REMARK SMILES IDX 15 1 14 2 12 3 13 4 11 6 6 7 7 8 8 9 10 10 9 11 5 12 4 13
REMARK SMILES IDX 3 14 2 15 1 16 81 17 82 18 83 19 84 20 85 21 89 22 86 23
REMARK SMILES IDX 88 24 87 25 90 26 93 27 91 28 94 29 92 30 16 31 17 32 18 33
REMARK SMILES IDX 19 34 20 36 21 37 22 38 80 39 23 40 79 41 24 42 25 43 26 44
REMARK SMILES IDX 73 45 27 46 78 47 72 48 74 49 28 50 77 51 71 52 70 53 29 55
REMARK SMILES IDX 59 56 40 57 58 58 41 59 44 60 57 61 75 62 42 63 43 64 56 66
REMARK SMILES IDX 76 67 45 68 30 69 31 70 39 71 32 72 38 73 33 74 34 75 35 76
REMARK SMILES IDX 36 77 37 78 60 79 61 80 69 81 62 82 68 83 63 84 64 85 65 86
REMARK SMILES IDX 66 87 67 88 46 89 47 90 55 91 48 92 54 93 49 94 50 95 51 96
REMARK SMILES IDX 52 97 53 98
REMARK H PARENT 14 5 18 35 74 54 44 65
REMARK Flexibility Score: inf
ROOT
ATOM      1  C   UNL A   1      32.211  29.842  25.706  1.00  0.00     0.118 C 
ENDROOT
BRANCH   1   2
ATOM      2  N   UNL A   1      33.024  29.575  24.561  1.00  0.00    -0.352 N 
ATOM      3  C   UNL A   1      32.626  28.960  23.404  1.00  0.00     0.253 C 
ATOM      4  O   UNL A   1      33.479  28.853  22.517  1.00  0.00    -0.269 OA
ATOM      5  H   UNL A   1      33.965  29.861  24.610  1.00  0.00     0.163 HD
BRANCH   3   6
ATOM      6  C   UNL A   1      31.261  28.386  23.147  1.00  0.00     0.064 A 
ATOM      7  C   UNL A   1      30.710  27.155  23.566  1.00  0.00     0.065 A 
ATOM      8  C   UNL A   1      29.300  27.088  23.644  1.00  0.00     0.028 A 
ATOM      9  C   UNL A   1      28.451  28.051  23.100  1.00  0.00     0.002 A 
ATOM     10  C   UNL A   1      30.382  29.354  22.581  1.00  0.00     0.016 A 
ATOM     11  C   UNL A   1      29.000  29.175  22.521  1.00  0.00     0.001 A 
BRANCH   7  12
ATOM     12  N   UNL A   1      31.434  25.996  24.122  1.00  0.00    -0.266 N 
BRANCH  12  13
ATOM     13  C   UNL A   1      31.174  25.797  25.587  1.00  0.00     0.136 C 
BRANCH  13  14
ATOM     14  C   UNL A   1      32.101  25.027  26.546  1.00  0.00     0.022 C 
BRANCH  14  15
ATOM     15  C   UNL A   1      31.692  23.727  27.227  1.00  0.00    -0.002 C 
ATOM     16  C   UNL A   1      30.569  23.020  26.476  1.00  0.00     0.004 C 
ENDBRANCH  14  15
ENDBRANCH  13  14
ENDBRANCH  12  13
BRANCH  12  17
ATOM     17  S   UNL A   1      31.800  24.701  22.999  1.00  0.00     0.264 S 
ATOM     18  O   UNL A   1      30.716  23.746  23.027  1.00  0.00    -0.201 OA
ATOM     19  O   UNL A   1      32.255  25.226  21.733  1.00  0.00    -0.201 OA
BRANCH  17  20
ATOM     20  C   UNL A   1      33.213  23.808  23.594  1.00  0.00     0.091 A 
ATOM     21  C   UNL A   1      34.456  24.469  23.733  1.00  0.00     0.025 A 
ATOM     22  C   UNL A   1      33.043  22.476  23.974  1.00  0.00     0.071 A 
ATOM     23  C   UNL A   1      35.579  23.766  24.171  1.00  0.00     0.032 A 
ATOM     24  C   UNL A   1      34.184  21.793  24.315  1.00  0.00     0.157 A 
ATOM     25  C   UNL A   1      35.412  22.419  24.415  1.00  0.00     0.090 A 
ATOM     26  O   UNL A   1      34.247  20.429  24.530  1.00  0.00    -0.408 OA
ATOM     27  N   UNL A   1      36.300  21.426  24.748  1.00  0.00    -0.277 N 
ATOM     28  C   UNL A   1      35.611  20.231  24.775  1.00  0.00     0.419 A 
ATOM     29  C   UNL A   1      37.688  21.580  25.056  1.00  0.00     0.157 C 
ATOM     30  O   UNL A   1      36.095  19.122  24.960  1.00  0.00    -0.223 OA
ENDBRANCH  17  20
ENDBRANCH  12  17
ENDBRANCH   7  12
ENDBRANCH   3   6
ENDBRANCH   1   2
BRANCH   1  31
ATOM     31  C   UNL A   1      32.783  29.566  27.076  1.00  0.00     0.042 C 
BRANCH  31  32
ATOM     32  C   UNL A   1      34.125  30.220  27.350  1.00  0.00     0.118 C 
BRANCH  32  33
ATOM     33  N   UNL A   1      34.214  31.000  28.581  1.00  0.00    -0.352 N 
ATOM     34  C   UNL A   1      35.232  31.240  29.478  1.00  0.00     0.251 C 
ATOM     35  H   UNL A   1      33.371  31.451  28.819  1.00  0.00     0.163 HD
ATOM     36  O   UNL A   1      35.024  32.009  30.415  1.00  0.00    -0.269 OA
BRANCH  34  37
ATOM     37  C   UNL A   1      36.534  30.537  29.388  1.00  0.00     0.039 A 
ATOM     38  C   UNL A   1      37.207  30.492  28.160  1.00  0.00     0.014 A 
ATOM     39  C   UNL A   1      37.114  29.938  30.497  1.00  0.00     0.014 A 
ATOM     40  C   UNL A   1      38.507  29.975  28.088  1.00  0.00     0.010 A 
ATOM     41  C   UNL A   1      38.448  29.556  30.460  1.00  0.00     0.010 A 
ATOM     42  C   UNL A   1      39.168  29.573  29.257  1.00  0.00    -0.014 A 
BRANCH  42  43
ATOM     43  C   UNL A   1      40.599  29.165  29.285  1.00  0.00     0.031 A 
ATOM     44  C   UNL A   1      41.663  30.202  29.546  1.00  0.00     0.074 A 
ATOM     45  C   UNL A   1      40.952  27.910  28.938  1.00  0.00     0.049 A 
ATOM     46  N   UNL A   1      42.959  30.116  29.388  1.00  0.00    -0.248 NA
ATOM     47  C   UNL A   1      41.202  31.526  29.999  1.00  0.00     0.031 C 
ATOM     48  C   UNL A   1      40.027  26.817  28.628  1.00  0.00     0.029 A 
ATOM     49  N   UNL A   1      42.193  27.347  28.759  1.00  0.00    -0.354 N 
ATOM     50  C   UNL A   1      43.458  31.381  29.679  1.00  0.00     0.074 A 
ATOM     51  C   UNL A   1      42.323  32.228  29.969  1.00  0.00     0.031 C 
ATOM     52  C   UNL A   1      40.729  25.716  28.319  1.00  0.00     0.029 A 
ATOM     53  C   UNL A   1      42.152  26.037  28.340  1.00  0.00     0.049 A 
ATOM     54  H   UNL A   1      43.034  27.836  28.917  1.00  0.00     0.167 HD
ATOM     55  C   UNL A   1      44.746  31.797  29.720  1.00  0.00     0.031 A 
ATOM     56  C   UNL A   1      43.142  25.196  27.980  1.00  0.00     0.031 A 
ATOM     57  C   UNL A   1      45.873  30.941  29.458  1.00  0.00     0.049 A 
ATOM     58  C   UNL A   1      44.564  25.687  28.007  1.00  0.00     0.074 A 
ATOM     59  C   UNL A   1      47.219  31.244  29.545  1.00  0.00     0.029 A 
ATOM     60  N   UNL A   1      45.784  29.616  29.056  1.00  0.00    -0.354 N 
ATOM     61  N   UNL A   1      45.022  26.868  28.350  1.00  0.00    -0.248 NA
ATOM     62  C   UNL A   1      45.604  24.733  27.597  1.00  0.00     0.031 C 
ATOM     63  C   UNL A   1      47.945  30.122  29.132  1.00  0.00     0.029 A 
ATOM     64  C   UNL A   1      47.052  29.100  28.853  1.00  0.00     0.049 A 
ATOM     65  H   UNL A   1      44.944  29.118  28.935  1.00  0.00     0.167 HD
ATOM     66  C   UNL A   1      46.404  26.793  28.213  1.00  0.00     0.074 A 
ATOM     67  C   UNL A   1      46.709  25.444  27.782  1.00  0.00     0.031 C 
ATOM     68  C   UNL A   1      47.337  27.756  28.419  1.00  0.00     0.031 A 
BRANCH  55  69
ATOM     69  C   UNL A   1      45.006  33.242  30.057  1.00  0.00    -0.014 A 
ATOM     70  C   UNL A   1      45.188  33.662  31.388  1.00  0.00     0.010 A 
ATOM     71  C   UNL A   1      45.112  34.193  29.024  1.00  0.00     0.010 A 
ATOM     72  C   UNL A   1      45.427  35.007  31.682  1.00  0.00     0.020 A 
ATOM     73  C   UNL A   1      45.384  35.533  29.311  1.00  0.00     0.020 A 
ATOM     74  C   UNL A   1      45.524  35.934  30.641  1.00  0.00     0.054 A 
BRANCH  74  75
ATOM     75  S   UNL A   1      45.865  37.666  31.054  1.00  0.00     0.124 S 
ATOM     76  O   UNL A   1      45.771  38.312  29.747  1.00  0.00    -0.237 OA
ATOM     77  O   UNL A   1      44.791  37.988  31.991  1.00  0.00    -0.237 OA
ATOM     78  O   UNL A   1      47.205  37.629  31.634  1.00  0.00    -0.744 OA
ENDBRANCH  74  75
ENDBRANCH  55  69
BRANCH  56  79
ATOM     79  C   UNL A   1      42.822  23.804  27.549  1.00  0.00    -0.014 A 
ATOM     80  C   UNL A   1      42.744  22.766  28.494  1.00  0.00     0.010 A 
ATOM     81  C   UNL A   1      42.586  23.509  26.193  1.00  0.00     0.010 A 
ATOM     82  C   UNL A   1      42.452  21.459  28.092  1.00  0.00     0.020 A 
ATOM     83  C   UNL A   1      42.261  22.210  25.791  1.00  0.00     0.020 A 
ATOM     84  C   UNL A   1      42.207  21.191  26.743  1.00  0.00     0.054 A 
BRANCH  84  85
ATOM     85  S   UNL A   1      41.779  19.495  26.254  1.00  0.00     0.124 S 
ATOM     86  O   UNL A   1      42.596  19.308  25.059  1.00  0.00    -0.237 OA
ATOM     87  O   UNL A   1      42.182  18.719  27.424  1.00  0.00    -0.237 OA
ATOM     88  O   UNL A   1      40.337  19.558  26.023  1.00  0.00    -0.744 OA
ENDBRANCH  84  85
ENDBRANCH  56  79
BRANCH  68  89
ATOM     89  C   UNL A   1      48.779  27.386  28.192  1.00  0.00    -0.014 A 
ATOM     90  C   UNL A   1      49.350  27.451  26.908  1.00  0.00     0.010 A 
ATOM     91  C   UNL A   1      49.593  27.044  29.288  1.00  0.00     0.010 A 
ATOM     92  C   UNL A   1      50.704  27.160  26.722  1.00  0.00     0.020 A 
ATOM     93  C   UNL A   1      50.954  26.783  29.110  1.00  0.00     0.020 A 
ATOM     94  C   UNL A   1      51.498  26.834  27.825  1.00  0.00     0.054 A 
BRANCH  94  95
ATOM     95  S   UNL A   1      53.266  26.524  27.560  1.00  0.00     0.124 S 
ATOM     96  O   UNL A   1      53.243  25.377  26.657  1.00  0.00    -0.237 OA
ATOM     97  O   UNL A   1      53.724  27.779  26.970  1.00  0.00    -0.237 OA
ATOM     98  O   UNL A   1      53.775  26.250  28.902  1.00  0.00    -0.744 OA
ENDBRANCH  94  95
ENDBRANCH  68  89
ENDBRANCH  42  43
ENDBRANCH  34  37
ENDBRANCH  32  33
ENDBRANCH  31  32
ENDBRANCH   1  31
TORSDOF 19
ENDMDL
MODEL 2
REMARK VINA RESULT:     -11.6      2.357      8.572
REMARK SMILES CCCCN(c1ccccc1C(=O)NCCCNC(=O)c1ccc(-c2c3nc(c(-c4ccc(S(=O)(=O)[O-])cc4)c4ccc([nH]4)c(-c4ccc(S(=O)(=O)[O-])cc4)c4nc(c(-c5ccc(S(=O)(=O)[O-])cc5)c5ccc2[nH]5)C=C4)C=C3)cc1)S(=O)(=O)c1ccc2c(c1)oc(=O)n2C
REMARK SMILES IDX 15 1 14 2 12 3 13 4 11 6 6 7 7 8 8 9 10 10 9 11 5 12 4 13
REMARK SMILES IDX 3 14 2 15 1 16 81 17 82 18 83 19 84 20 85 21 89 22 86 23
REMARK SMILES IDX 88 24 87 25 90 26 93 27 91 28 94 29 92 30 16 31 17 32 18 33
REMARK SMILES IDX 19 34 20 36 21 37 22 38 80 39 23 40 79 41 24 42 25 43 26 44
REMARK SMILES IDX 73 45 27 46 78 47 72 48 74 49 28 50 77 51 71 52 70 53 29 55
REMARK SMILES IDX 59 56 40 57 58 58 41 59 44 60 57 61 75 62 42 63 43 64 56 66
REMARK SMILES IDX 76 67 45 68 30 69 31 70 39 71 32 72 38 73 33 74 34 75 35 76
REMARK SMILES IDX 36 77 37 78 60 79 61 80 69 81 62 82 68 83 63 84 64 85 65 86
REMARK SMILES IDX 66 87 67 88 46 89 47 90 55 91 48 92 54 93 49 94 50 95 51 96
REMARK SMILES IDX 52 97 53 98
REMARK H PARENT 14 5 18 35 74 54 44 65
REMARK Flexibility Score: inf
ROOT
ATOM      1  C   UNL A   1      37.387  22.614  25.086  1.00  0.00     0.118 C 
ENDROOT
BRANCH   1   2
ATOM      2  N   UNL A   1      36.875  22.917  23.786  1.00  0.00    -0.352 N 
ATOM      3  C   UNL A   1      35.557  22.945  23.415  1.00  0.00     0.253 C 
ATOM      4  O   UNL A   1      35.323  23.263  22.244  1.00  0.00    -0.269 OA
ATOM      5  H   UNL A   1      37.536  23.126  23.088  1.00  0.00     0.163 HD
BRANCH   3   6
ATOM      6  C   UNL A   1      34.394  22.592  24.300  1.00  0.00     0.064 A 
ATOM      7  C   UNL A   1      33.284  23.376  24.680  1.00  0.00     0.065 A 
ATOM      8  C   UNL A   1      32.117  22.674  25.063  1.00  0.00     0.028 A 
ATOM      9  C   UNL A   1      32.092  21.305  25.326  1.00  0.00     0.002 A 
ATOM     10  C   UNL A   1      34.358  21.197  24.587  1.00  0.00     0.016 A 
ATOM     11  C   UNL A   1      33.238  20.567  25.130  1.00  0.00     0.001 A 
BRANCH   7  12
ATOM     12  N   UNL A   1      33.129  24.835  24.534  1.00  0.00    -0.266 N 
BRANCH  12  13
ATOM     13  C   UNL A   1      33.934  25.609  25.538  1.00  0.00     0.136 C 
BRANCH  13  14
ATOM     14  C   UNL A   1      33.479  26.921  26.203  1.00  0.00     0.022 C 
BRANCH  14  15
ATOM     15  C   UNL A   1      33.382  28.241  25.448  1.00  0.00    -0.002 C 
ATOM     16  C   UNL A   1      32.106  29.000  25.793  1.00  0.00     0.004 C 
ENDBRANCH  14  15
ENDBRANCH  13  14
ENDBRANCH  12  13
BRANCH  12  17
ATOM     17  S   UNL A   1      32.734  25.415  22.927  1.00  0.00     0.264 S 
ATOM     18  O   UNL A   1      33.779  26.312  22.491  1.00  0.00    -0.201 OA
ATOM     19  O   UNL A   1      32.324  24.328  22.070  1.00  0.00    -0.201 OA
BRANCH  17  20
ATOM     20  C   UNL A   1      31.277  26.422  23.022  1.00  0.00     0.091 A 
ATOM     21  C   UNL A   1      30.165  25.981  23.778  1.00  0.00     0.025 A 
ATOM     22  C   UNL A   1      31.290  27.668  22.393  1.00  0.00     0.071 A 
ATOM     23  C   UNL A   1      29.003  26.753  23.833  1.00  0.00     0.032 A 
ATOM     24  C   UNL A   1      30.104  28.359  22.394  1.00  0.00     0.157 A 
ATOM     25  C   UNL A   1      28.997  27.918  23.096  1.00  0.00     0.090 A 
ATOM     26  O   UNL A   1      29.866  29.509  21.665  1.00  0.00    -0.408 OA
ATOM     27  N   UNL A   1      28.014  28.842  22.842  1.00  0.00    -0.277 N 
ATOM     28  C   UNL A   1      28.520  29.769  21.954  1.00  0.00     0.419 A 
ATOM     29  C   UNL A   1      26.704  28.884  23.412  1.00  0.00     0.157 C 
ATOM     30  O   UNL A   1      27.902  30.694  21.444  1.00  0.00    -0.223 OA
ENDBRANCH  17  20
ENDBRANCH  12  17
ENDBRANCH   7  12
ENDBRANCH   3   6
ENDBRANCH   1   2
BRANCH   1  31
ATOM     31  C   UNL A   1      37.913  21.223  25.347  1.00  0.00     0.042 C 
BRANCH  31  32
ATOM     32  C   UNL A   1      39.128  21.161  26.254  1.00  0.00     0.118 C 
BRANCH  32  33
ATOM     33  N   UNL A   1      40.047  20.053  26.013  1.00  0.00    -0.352 N 
ATOM     34  C   UNL A   1      41.413  19.914  26.134  1.00  0.00     0.251 C 
ATOM     35  H   UNL A   1      39.598  19.234  25.701  1.00  0.00     0.163 HD
ATOM     36  O   UNL A   1      41.916  18.813  25.912  1.00  0.00    -0.269 OA
BRANCH  34  37
ATOM     37  C   UNL A   1      42.292  21.066  26.442  1.00  0.00     0.039 A 
ATOM     38  C   UNL A   1      42.734  21.892  25.399  1.00  0.00     0.014 A 
ATOM     39  C   UNL A   1      42.674  21.361  27.743  1.00  0.00     0.014 A 
ATOM     40  C   UNL A   1      43.430  23.073  25.683  1.00  0.00     0.010 A 
ATOM     41  C   UNL A   1      43.237  22.596  28.037  1.00  0.00     0.010 A 
ATOM     42  C   UNL A   1      43.619  23.474  27.013  1.00  0.00    -0.014 A 
BRANCH  42  43
ATOM     43  C   UNL A   1      44.205  24.788  27.393  1.00  0.00     0.031 A 
ATOM     44  C   UNL A   1      43.298  25.896  27.870  1.00  0.00     0.074 A 
ATOM     45  C   UNL A   1      45.513  25.035  27.177  1.00  0.00     0.049 A 
ATOM     46  N   UNL A   1      43.559  27.168  28.028  1.00  0.00    -0.248 NA
ATOM     47  C   UNL A   1      41.901  25.531  28.161  1.00  0.00     0.031 C 
ATOM     48  C   UNL A   1      46.496  24.064  26.687  1.00  0.00     0.029 A 
ATOM     49  N   UNL A   1      46.240  26.193  27.315  1.00  0.00    -0.354 N 
ATOM     50  C   UNL A   1      42.353  27.757  28.393  1.00  0.00     0.074 A 
ATOM     51  C   UNL A   1      41.351  26.715  28.379  1.00  0.00     0.031 C 
ATOM     52  C   UNL A   1      47.694  24.659  26.586  1.00  0.00     0.029 A 
ATOM     53  C   UNL A   1      47.557  26.069  26.936  1.00  0.00     0.049 A 
ATOM     54  H   UNL A   1      45.854  27.034  27.654  1.00  0.00     0.167 HD
ATOM     55  C   UNL A   1      42.104  29.046  28.727  1.00  0.00     0.031 A 
ATOM     56  C   UNL A   1      48.539  26.989  26.847  1.00  0.00     0.031 A 
ATOM     57  C   UNL A   1      43.110  30.072  28.766  1.00  0.00     0.049 A 
ATOM     58  C   UNL A   1      48.232  28.420  27.198  1.00  0.00     0.074 A 
ATOM     59  C   UNL A   1      42.978  31.390  29.162  1.00  0.00     0.029 A 
ATOM     60  N   UNL A   1      44.435  29.896  28.393  1.00  0.00    -0.354 N 
ATOM     61  N   UNL A   1      47.102  28.945  27.606  1.00  0.00    -0.248 NA
ATOM     62  C   UNL A   1      49.336  29.384  27.076  1.00  0.00     0.031 C 
ATOM     63  C   UNL A   1      44.206  32.029  28.967  1.00  0.00     0.029 A 
ATOM     64  C   UNL A   1      45.121  31.092  28.513  1.00  0.00     0.049 A 
ATOM     65  H   UNL A   1      44.828  29.047  28.090  1.00  0.00     0.167 HD
ATOM     66  C   UNL A   1      47.360  30.297  27.804  1.00  0.00     0.074 A 
ATOM     67  C   UNL A   1      48.762  30.503  27.497  1.00  0.00     0.031 C 
ATOM     68  C   UNL A   1      46.515  31.281  28.198  1.00  0.00     0.031 A 
BRANCH  55  69
ATOM     69  C   UNL A   1      40.685  29.418  29.074  1.00  0.00    -0.014 A 
ATOM     70  C   UNL A   1      40.302  29.682  30.403  1.00  0.00     0.010 A 
ATOM     71  C   UNL A   1      39.726  29.548  28.051  1.00  0.00     0.010 A 
ATOM     72  C   UNL A   1      38.983  30.025  30.706  1.00  0.00     0.020 A 
ATOM     73  C   UNL A   1      38.413  29.923  28.347  1.00  0.00     0.020 A 
ATOM     74  C   UNL A   1      38.046  30.144  29.676  1.00  0.00     0.054 A 
BRANCH  74  75
ATOM     75  S   UNL A   1      36.349  30.620  30.100  1.00  0.00     0.124 S 
ATOM     76  O   UNL A   1      36.017  29.656  31.146  1.00  0.00    -0.237 OA
ATOM     77  O   UNL A   1      36.508  32.001  30.549  1.00  0.00    -0.237 OA
ATOM     78  O   UNL A   1      35.617  30.454  28.847  1.00  0.00    -0.744 OA
ENDBRANCH  74  75
ENDBRANCH  55  69
BRANCH  56  79
ATOM     79  C   UNL A   1      49.901  26.588  26.393  1.00  0.00    -0.014 A 
ATOM     80  C   UNL A   1      50.307  26.822  25.067  1.00  0.00     0.010 A 
ATOM     81  C   UNL A   1      50.805  25.978  27.283  1.00  0.00     0.010 A 
ATOM     82  C   UNL A   1      51.582  26.442  24.636  1.00  0.00     0.020 A 
ATOM     83  C   UNL A   1      52.092  25.627  26.866  1.00  0.00     0.020 A 
ATOM     84  C   UNL A   1      52.468  25.850  25.540  1.00  0.00     0.054 A 
BRANCH  84  85
ATOM     85  S   UNL A   1      54.135  25.412  24.970  1.00  0.00     0.124 S 
ATOM     86  O   UNL A   1      54.975  25.988  26.014  1.00  0.00    -0.237 OA
ATOM     87  O   UNL A   1      54.081  23.953  24.934  1.00  0.00    -0.237 OA
ATOM     88  O   UNL A   1      54.231  26.057  23.661  1.00  0.00    -0.744 OA
ENDBRANCH  84  85
ENDBRANCH  56  79
BRANCH  68  89
ATOM     89  C   UNL A   1      47.079  32.671  28.332  1.00  0.00    -0.014 A 
ATOM     90  C   UNL A   1      47.030  33.579  27.260  1.00  0.00     0.010 A 
ATOM     91  C   UNL A   1      47.595  33.098  29.570  1.00  0.00     0.010 A 
ATOM     92  C   UNL A   1      47.506  34.883  27.417  1.00  0.00     0.020 A 
ATOM     93  C   UNL A   1      48.043  34.411  29.739  1.00  0.00     0.020 A 
ATOM     94  C   UNL A   1      48.003  35.293  28.657  1.00  0.00     0.054 A 
BRANCH  94  95
ATOM     95  S   UNL A   1      48.555  37.010  28.848  1.00  0.00     0.124 S 
ATOM     96  O   UNL A   1      48.920  37.058  30.261  1.00  0.00    -0.237 OA
ATOM     97  O   UNL A   1      49.670  37.091  27.907  1.00  0.00    -0.237 OA
ATOM     98  O   UNL A   1      47.379  37.796  28.480  1.00  0.00    -0.744 OA
ENDBRANCH  94  95
ENDBRANCH  68  89
ENDBRANCH  42  43
ENDBRANCH  34  37
ENDBRANCH  32  33
ENDBRANCH  31  32
ENDBRANCH   1  31
TORSDOF 19
ENDMDL
MODEL 3
REMARK VINA RESULT:     -11.5      1.915      2.670
REMARK SMILES CCCCN(c1ccccc1C(=O)NCCCNC(=O)c1ccc(-c2c3nc(c(-c4ccc(S(=O)(=O)[O-])cc4)c4ccc([nH]4)c(-c4ccc(S(=O)(=O)[O-])cc4)c4nc(c(-c5ccc(S(=O)(=O)[O-])cc5)c5ccc2[nH]5)C=C4)C=C3)cc1)S(=O)(=O)c1ccc2c(c1)oc(=O)n2C
REMARK SMILES IDX 15 1 14 2 12 3 13 4 11 6 6 7 7 8 8 9 10 10 9 11 5 12 4 13
REMARK SMILES IDX 3 14 2 15 1 16 81 17 82 18 83 19 84 20 85 21 89 22 86 23
REMARK SMILES IDX 88 24 87 25 90 26 93 27 91 28 94 29 92 30 16 31 17 32 18 33
REMARK SMILES IDX 19 34 20 36 21 37 22 38 80 39 23 40 79 41 24 42 25 43 26 44
REMARK SMILES IDX 73 45 27 46 78 47 72 48 74 49 28 50 77 51 71 52 70 53 29 55
REMARK SMILES IDX 59 56 40 57 58 58 41 59 44 60 57 61 75 62 42 63 43 64 56 66
REMARK SMILES IDX 76 67 45 68 30 69 31 70 39 71 32 72 38 73 33 74 34 75 35 76
REMARK SMILES IDX 36 77 37 78 60 79 61 80 69 81 62 82 68 83 63 84 64 85 65 86
REMARK SMILES IDX 66 87 67 88 46 89 47 90 55 91 48 92 54 93 49 94 50 95 51 96
REMARK SMILES IDX 52 97 53 98
REMARK H PARENT 14 5 18 35 74 54 44 65
REMARK Flexibility Score: inf
ROOT
ATOM      1  C   UNL A   1      33.945  28.543  26.904  1.00  0.00     0.118 C 
ENDROOT
BRANCH   1   2
ATOM      2  N   UNL A   1      32.705  27.987  27.348  1.00  0.00    -0.352 N 
ATOM      3  C   UNL A   1      31.673  27.560  26.557  1.00  0.00     0.253 C 
ATOM      4  O   UNL A   1      30.696  27.078  27.140  1.00  0.00    -0.269 OA
ATOM      5  H   UNL A   1      32.581  27.903  28.321  1.00  0.00     0.163 HD
BRANCH   3   6
ATOM      6  C   UNL A   1      31.624  27.660  25.057  1.00  0.00     0.064 A 
ATOM      7  C   UNL A   1      31.879  26.672  24.082  1.00  0.00     0.065 A 
ATOM      8  C   UNL A   1      31.274  26.863  22.818  1.00  0.00     0.028 A 
ATOM      9  C   UNL A   1      30.678  28.058  22.420  1.00  0.00     0.002 A 
ATOM     10  C   UNL A   1      31.027  28.882  24.633  1.00  0.00     0.016 A 
ATOM     11  C   UNL A   1      30.595  29.095  23.324  1.00  0.00     0.001 A 
BRANCH   7  12
ATOM     12  N   UNL A   1      32.535  25.367  24.283  1.00  0.00    -0.266 N 
BRANCH  12  13
ATOM     13  C   UNL A   1      34.033  25.456  24.245  1.00  0.00     0.136 C 
BRANCH  13  14
ATOM     14  C   UNL A   1      34.976  24.830  25.289  1.00  0.00     0.022 C 
BRANCH  14  15
ATOM     15  C   UNL A   1      36.075  23.840  24.924  1.00  0.00    -0.002 C 
ATOM     16  C   UNL A   1      35.586  22.787  23.936  1.00  0.00     0.004 C 
ENDBRANCH  14  15
ENDBRANCH  13  14
ENDBRANCH  12  13
BRANCH  12  17
ATOM     17  S   UNL A   1      31.639  24.187  25.221  1.00  0.00     0.264 S 
ATOM     18  O   UNL A   1      32.192  24.144  26.555  1.00  0.00    -0.201 OA
ATOM     19  O   UNL A   1      30.217  24.355  25.044  1.00  0.00    -0.201 OA
BRANCH  17  20
ATOM     20  C   UNL A   1      31.939  22.573  24.549  1.00  0.00     0.091 A 
ATOM     21  C   UNL A   1      31.924  22.380  23.148  1.00  0.00     0.025 A 
ATOM     22  C   UNL A   1      32.247  21.534  25.430  1.00  0.00     0.071 A 
ATOM     23  C   UNL A   1      32.128  21.107  22.612  1.00  0.00     0.032 A 
ATOM     24  C   UNL A   1      32.354  20.283  24.877  1.00  0.00     0.157 A 
ATOM     25  C   UNL A   1      32.301  20.076  23.511  1.00  0.00     0.090 A 
ATOM     26  O   UNL A   1      32.461  19.111  25.603  1.00  0.00    -0.408 OA
ATOM     27  N   UNL A   1      32.419  18.719  23.344  1.00  0.00    -0.277 N 
ATOM     28  C   UNL A   1      32.472  18.139  24.595  1.00  0.00     0.419 A 
ATOM     29  C   UNL A   1      32.511  18.008  22.107  1.00  0.00     0.157 C 
ATOM     30  O   UNL A   1      32.500  16.939  24.835  1.00  0.00    -0.223 OA
ENDBRANCH  17  20
ENDBRANCH  12  17
ENDBRANCH   7  12
ENDBRANCH   3   6
ENDBRANCH   1   2
BRANCH   1  31
ATOM     31  C   UNL A   1      34.140  30.037  27.001  1.00  0.00     0.042 C 
BRANCH  31  32
ATOM     32  C   UNL A   1      35.417  30.469  27.697  1.00  0.00     0.118 C 
BRANCH  32  33
ATOM     33  N   UNL A   1      35.351  30.556  29.153  1.00  0.00    -0.352 N 
ATOM     34  C   UNL A   1      36.310  30.632  30.140  1.00  0.00     0.251 C 
ATOM     35  H   UNL A   1      34.430  30.562  29.502  1.00  0.00     0.163 HD
ATOM     36  O   UNL A   1      35.944  30.760  31.308  1.00  0.00    -0.269 OA
BRANCH  34  37
ATOM     37  C   UNL A   1      37.753  30.484  29.841  1.00  0.00     0.039 A 
ATOM     38  C   UNL A   1      38.685  30.588  30.882  1.00  0.00     0.014 A 
ATOM     39  C   UNL A   1      38.206  30.225  28.555  1.00  0.00     0.014 A 
ATOM     40  C   UNL A   1      40.035  30.294  30.652  1.00  0.00     0.010 A 
ATOM     41  C   UNL A   1      39.511  29.798  28.353  1.00  0.00     0.010 A 
ATOM     42  C   UNL A   1      40.446  29.820  29.398  1.00  0.00    -0.014 A 
BRANCH  42  43
ATOM     43  C   UNL A   1      41.825  29.336  29.121  1.00  0.00     0.031 A 
ATOM     44  C   UNL A   1      42.966  30.324  29.082  1.00  0.00     0.074 A 
ATOM     45  C   UNL A   1      42.034  28.053  28.764  1.00  0.00     0.049 A 
ATOM     46  N   UNL A   1      44.185  30.162  28.639  1.00  0.00    -0.248 NA
ATOM     47  C   UNL A   1      42.679  31.686  29.563  1.00  0.00     0.031 C 
ATOM     48  C   UNL A   1      41.015  27.000  28.726  1.00  0.00     0.029 A 
ATOM     49  N   UNL A   1      43.175  27.417  28.336  1.00  0.00    -0.354 N 
ATOM     50  C   UNL A   1      44.794  31.409  28.747  1.00  0.00     0.074 A 
ATOM     51  C   UNL A   1      43.794  32.326  29.245  1.00  0.00     0.031 C 
ATOM     52  C   UNL A   1      41.579  25.852  28.320  1.00  0.00     0.029 A 
ATOM     53  C   UNL A   1      42.982  26.096  28.001  1.00  0.00     0.049 A 
ATOM     54  H   UNL A   1      44.050  27.865  28.275  1.00  0.00     0.167 HD
ATOM     55  C   UNL A   1      46.074  31.755  28.474  1.00  0.00     0.031 A 
ATOM     56  C   UNL A   1      43.824  25.190  27.468  1.00  0.00     0.031 A 
ATOM     57  C   UNL A   1      47.071  30.831  28.006  1.00  0.00     0.049 A 
ATOM     58  C   UNL A   1      45.236  25.605  27.147  1.00  0.00     0.074 A 
ATOM     59  C   UNL A   1      48.414  31.064  27.770  1.00  0.00     0.029 A 
ATOM     60  N   UNL A   1      46.835  29.499  27.700  1.00  0.00    -0.354 N 
ATOM     61  N   UNL A   1      45.812  26.771  27.320  1.00  0.00    -0.248 NA
ATOM     62  C   UNL A   1      46.111  24.581  26.559  1.00  0.00     0.031 C 
ATOM     63  C   UNL A   1      48.975  29.890  27.258  1.00  0.00     0.029 A 
ATOM     64  C   UNL A   1      47.998  28.908  27.239  1.00  0.00     0.049 A 
ATOM     65  H   UNL A   1      45.969  29.042  27.796  1.00  0.00     0.167 HD
ATOM     66  C   UNL A   1      47.121  26.617  26.876  1.00  0.00     0.074 A 
ATOM     67  C   UNL A   1      47.259  25.238  26.453  1.00  0.00     0.031 C 
ATOM     68  C   UNL A   1      48.117  27.535  26.818  1.00  0.00     0.031 A 
BRANCH  55  69
ATOM     69  C   UNL A   1      46.467  33.197  28.673  1.00  0.00    -0.014 A 
ATOM     70  C   UNL A   1      46.986  33.651  29.900  1.00  0.00     0.010 A 
ATOM     71  C   UNL A   1      46.356  34.105  27.603  1.00  0.00     0.010 A 
ATOM     72  C   UNL A   1      47.344  34.991  30.066  1.00  0.00     0.020 A 
ATOM     73  C   UNL A   1      46.745  35.438  27.755  1.00  0.00     0.020 A 
ATOM     74  C   UNL A   1      47.222  35.876  28.992  1.00  0.00     0.054 A 
BRANCH  74  75
ATOM     75  S   UNL A   1      47.724  37.602  29.231  1.00  0.00     0.124 S 
ATOM     76  O   UNL A   1      46.990  38.281  28.166  1.00  0.00    -0.237 OA
ATOM     77  O   UNL A   1      47.262  37.884  30.588  1.00  0.00    -0.237 OA
ATOM     78  O   UNL A   1      49.175  37.569  29.063  1.00  0.00    -0.744 OA
ENDBRANCH  74  75
ENDBRANCH  55  69
BRANCH  56  79
ATOM     79  C   UNL A   1      43.354  23.803  27.189  1.00  0.00    -0.014 A 
ATOM     80  C   UNL A   1      43.180  22.885  28.240  1.00  0.00     0.010 A 
ATOM     81  C   UNL A   1      43.069  23.392  25.873  1.00  0.00     0.010 A 
ATOM     82  C   UNL A   1      42.746  21.581  27.981  1.00  0.00     0.020 A 
ATOM     83  C   UNL A   1      42.603  22.100  25.613  1.00  0.00     0.020 A 
ATOM     84  C   UNL A   1      42.455  21.199  26.669  1.00  0.00     0.054 A 
BRANCH  84  85
ATOM     85  S   UNL A   1      41.844  19.516  26.365  1.00  0.00     0.124 S 
ATOM     86  O   UNL A   1      42.301  18.806  27.555  1.00  0.00    -0.237 OA
ATOM     87  O   UNL A   1      40.402  19.720  26.263  1.00  0.00    -0.237 OA
ATOM     88  O   UNL A   1      42.501  19.133  25.116  1.00  0.00    -0.744 OA
ENDBRANCH  84  85
ENDBRANCH  56  79
BRANCH  68  89
ATOM     89  C   UNL A   1      49.451  27.080  26.288  1.00  0.00    -0.014 A 
ATOM     90  C   UNL A   1      50.408  26.498  27.138  1.00  0.00     0.010 A 
ATOM     91  C   UNL A   1      49.721  27.165  24.909  1.00  0.00     0.010 A 
ATOM     92  C   UNL A   1      51.619  26.028  26.622  1.00  0.00     0.020 A 
ATOM     93  C   UNL A   1      50.917  26.668  24.385  1.00  0.00     0.020 A 
ATOM     94  C   UNL A   1      51.863  26.111  25.248  1.00  0.00     0.054 A 
BRANCH  94  95
ATOM     95  S   UNL A   1      53.416  25.435  24.600  1.00  0.00     0.124 S 
ATOM     96  O   UNL A   1      54.414  26.239  25.299  1.00  0.00    -0.237 OA
ATOM     97  O   UNL A   1      53.344  24.032  25.002  1.00  0.00    -0.237 OA
ATOM     98  O   UNL A   1      53.323  25.670  23.161  1.00  0.00    -0.744 OA
ENDBRANCH  94  95
ENDBRANCH  68  89
ENDBRANCH  42  43
ENDBRANCH  34  37
ENDBRANCH  32  33
ENDBRANCH  31  32
ENDBRANCH   1  31
TORSDOF 19
ENDMDL
