MODEL 1
REMARK VINA RESULT:     -11.1      0.000      0.000
REMARK SMILES C[C@H]1CC[C@@](NC(=O)C(F)(F)F)(C(=O)NCCCNC(=O)c2ccc(-c3c4nc(c(-c5ccc(S(=O)(=O)[O-])cc5)c5ccc([nH]5)c(-c5ccc(S(=O)(=O)[O-])cc5)c5nc(c(-c6ccc(S(=O)(=O)[O-])cc6)c6ccc3[nH]6)C=C5)C=C4)cc2)CC1
REMARK SMILES IDX 17 1 16 2 15 3 13 4 14 5 5 7 1 8 2 9 83 10 3 11 82 12 4 13
REMARK SMILES IDX 6 14 7 15 8 17 9 18 10 19 11 20 12 21 18 22 19 23 20 24
REMARK SMILES IDX 21 26 22 27 23 28 81 29 24 30 80 31 25 32 26 33 27 34 74 35
REMARK SMILES IDX 28 36 79 37 73 38 75 39 29 40 78 41 72 42 71 43 30 45 60 46
REMARK SMILES IDX 41 47 59 48 42 49 45 50 58 51 76 52 43 53 44 54 57 56 77 57
REMARK SMILES IDX 46 58 31 59 32 60 40 61 33 62 39 63 34 64 35 65 36 66 37 67
REMARK SMILES IDX 38 68 61 69 62 70 70 71 63 72 69 73 64 74 65 75 66 76 67 77
REMARK SMILES IDX 68 78 47 79 48 80 56 81 49 82 55 83 50 84 51 85 52 86 53 87
REMARK SMILES IDX 54 88
REMARK H PARENT 15 6 6 16 19 25 75 44 45 55
REMARK Flexibility Score: inf
ROOT
ATOM      1  C   UNL A   1      33.916  28.304  25.619  1.00  0.00     0.042 C 
ENDROOT
BRANCH   1   2
ATOM      2  C   UNL A   1      32.718  27.858  24.799  1.00  0.00     0.117 C 
BRANCH   2   3
ATOM      3  N   UNL A   1      33.141  27.185  23.584  1.00  0.00    -0.354 N 
ATOM      4  C   UNL A   1      33.217  25.868  23.261  1.00  0.00     0.245 C 
ATOM      5  O   UNL A   1      33.666  25.604  22.144  1.00  0.00    -0.272 OA
ATOM      6  H   UNL A   1      33.424  27.793  22.864  1.00  0.00     0.163 HD
BRANCH   4   7
ATOM      7  C   UNL A   1      32.827  24.762  24.283  1.00  0.00     0.119 C 
ATOM      8  C   UNL A   1      36.582  22.582  23.578  1.00  0.00     0.007 C 
ATOM      9  C   UNL A   1      35.225  22.910  24.204  1.00  0.00    -0.014 C 
ATOM     10  C   UNL A   1      34.106  22.808  23.158  1.00  0.00     0.006 C 
ATOM     11  C   UNL A   1      35.279  24.290  24.856  1.00  0.00     0.006 C 
ATOM     12  C   UNL A   1      32.753  23.362  23.632  1.00  0.00     0.039 C 
ATOM     13  C   UNL A   1      33.914  24.703  25.391  1.00  0.00     0.039 C 
BRANCH   7  14
ATOM     14  N   UNL A   1      31.531  25.082  24.945  1.00  0.00    -0.334 N 
ATOM     15  C   UNL A   1      30.877  24.517  26.016  1.00  0.00     0.326 C 
ATOM     16  H   UNL A   1      31.050  25.840  24.539  1.00  0.00     0.164 HD
ATOM     17  O   UNL A   1      29.908  25.162  26.441  1.00  0.00    -0.265 OA
BRANCH  15  18
ATOM     18  C   UNL A   1      31.241  23.122  26.589  1.00  0.00     0.471 C 
ATOM     19  F   UNL A   1      30.316  22.674  27.484  1.00  0.00    -0.162 F 
ATOM     20  F   UNL A   1      31.360  22.166  25.632  1.00  0.00    -0.162 F 
ATOM     21  F   UNL A   1      32.427  23.130  27.261  1.00  0.00    -0.162 F 
ENDBRANCH  15  18
ENDBRANCH   7  14
ENDBRANCH   4   7
ENDBRANCH   2   3
ENDBRANCH   1   2
BRANCH   1  22
ATOM     22  C   UNL A   1      33.597  28.485  27.095  1.00  0.00     0.118 C 
BRANCH  22  23
ATOM     23  N   UNL A   1      33.498  29.888  27.478  1.00  0.00    -0.352 N 
ATOM     24  C   UNL A   1      34.416  30.665  28.145  1.00  0.00     0.251 C 
ATOM     25  H   UNL A   1      32.662  30.340  27.223  1.00  0.00     0.163 HD
ATOM     26  O   UNL A   1      34.111  31.770  28.561  1.00  0.00    -0.269 OA
BRANCH  24  27
ATOM     27  C   UNL A   1      35.771  30.119  28.366  1.00  0.00     0.039 A 
ATOM     28  C   UNL A   1      36.714  30.201  27.342  1.00  0.00     0.014 A 
ATOM     29  C   UNL A   1      36.110  29.582  29.611  1.00  0.00     0.014 A 
ATOM     30  C   UNL A   1      38.028  29.804  27.594  1.00  0.00     0.010 A 
ATOM     31  C   UNL A   1      37.435  29.279  29.885  1.00  0.00     0.010 A 
ATOM     32  C   UNL A   1      38.405  29.377  28.878  1.00  0.00    -0.014 A 
BRANCH  32  33
ATOM     33  C   UNL A   1      39.807  29.007  29.193  1.00  0.00     0.031 A 
ATOM     34  C   UNL A   1      40.723  30.029  29.809  1.00  0.00     0.074 A 
ATOM     35  C   UNL A   1      40.273  27.789  28.854  1.00  0.00     0.049 A 
ATOM     36  N   UNL A   1      42.002  29.941  30.068  1.00  0.00    -0.248 NA
ATOM     37  C   UNL A   1      40.131  31.336  30.147  1.00  0.00     0.031 C 
ATOM     38  C   UNL A   1      39.495  26.730  28.206  1.00  0.00     0.029 A 
ATOM     39  N   UNL A   1      41.522  27.239  29.000  1.00  0.00    -0.354 N 
ATOM     40  C   UNL A   1      42.369  31.183  30.572  1.00  0.00     0.074 A 
ATOM     41  C   UNL A   1      41.195  32.025  30.531  1.00  0.00     0.031 C 
ATOM     42  C   UNL A   1      40.277  25.653  28.032  1.00  0.00     0.029 A 
ATOM     43  C   UNL A   1      41.619  25.955  28.519  1.00  0.00     0.049 A 
ATOM     44  H   UNL A   1      42.277  27.720  29.409  1.00  0.00     0.167 HD
ATOM     45  C   UNL A   1      43.571  31.581  31.051  1.00  0.00     0.031 A 
ATOM     46  C   UNL A   1      42.673  25.118  28.469  1.00  0.00     0.031 A 
ATOM     47  C   UNL A   1      44.729  30.732  31.115  1.00  0.00     0.049 A 
ATOM     48  C   UNL A   1      43.995  25.576  29.022  1.00  0.00     0.074 A 
ATOM     49  C   UNL A   1      45.979  31.018  31.633  1.00  0.00     0.029 A 
ATOM     50  N   UNL A   1      44.775  29.426  30.652  1.00  0.00    -0.354 N 
ATOM     51  N   UNL A   1      44.309  26.736  29.550  1.00  0.00    -0.248 NA
ATOM     52  C   UNL A   1      45.100  24.609  28.988  1.00  0.00     0.031 C 
ATOM     53  C   UNL A   1      46.794  29.898  31.447  1.00  0.00     0.029 A 
ATOM     54  C   UNL A   1      46.036  28.895  30.861  1.00  0.00     0.049 A 
ATOM     55  H   UNL A   1      44.023  28.946  30.237  1.00  0.00     0.167 HD
ATOM     56  C   UNL A   1      45.640  26.628  29.935  1.00  0.00     0.074 A 
ATOM     57  C   UNL A   1      46.067  25.286  29.593  1.00  0.00     0.031 C 
ATOM     58  C   UNL A   1      46.438  27.555  30.520  1.00  0.00     0.031 A 
BRANCH  45  59
ATOM     59  C   UNL A   1      43.685  32.997  31.550  1.00  0.00    -0.014 A 
ATOM     60  C   UNL A   1      44.171  34.021  30.716  1.00  0.00     0.010 A 
ATOM     61  C   UNL A   1      43.277  33.315  32.858  1.00  0.00     0.010 A 
ATOM     62  C   UNL A   1      44.288  35.328  31.195  1.00  0.00     0.020 A 
ATOM     63  C   UNL A   1      43.365  34.627  33.330  1.00  0.00     0.020 A 
ATOM     64  C   UNL A   1      43.888  35.622  32.501  1.00  0.00     0.054 A 
BRANCH  64  65
ATOM     65  S   UNL A   1      44.029  37.332  33.088  1.00  0.00     0.124 S 
ATOM     66  O   UNL A   1      43.827  38.090  31.854  1.00  0.00    -0.237 OA
ATOM     67  O   UNL A   1      42.948  37.427  34.065  1.00  0.00    -0.237 OA
ATOM     68  O   UNL A   1      45.377  37.397  33.645  1.00  0.00    -0.744 OA
ENDBRANCH  64  65
ENDBRANCH  45  59
BRANCH  46  69
ATOM     69  C   UNL A   1      42.517  23.756  27.889  1.00  0.00    -0.014 A 
ATOM     70  C   UNL A   1      42.927  23.490  26.571  1.00  0.00     0.010 A 
ATOM     71  C   UNL A   1      41.966  22.713  28.657  1.00  0.00     0.010 A 
ATOM     72  C   UNL A   1      42.769  22.214  26.023  1.00  0.00     0.020 A 
ATOM     73  C   UNL A   1      41.832  21.429  28.121  1.00  0.00     0.020 A 
ATOM     74  C   UNL A   1      42.222  21.191  26.803  1.00  0.00     0.054 A 
BRANCH  74  75
ATOM     75  S   UNL A   1      42.068  19.530  26.088  1.00  0.00     0.124 S 
ATOM     76  O   UNL A   1      42.950  19.616  24.928  1.00  0.00    -0.237 OA
ATOM     77  O   UNL A   1      42.533  18.673  27.175  1.00  0.00    -0.237 OA
ATOM     78  O   UNL A   1      40.643  19.420  25.786  1.00  0.00    -0.744 OA
ENDBRANCH  74  75
ENDBRANCH  46  69
BRANCH  58  79
ATOM     79  C   UNL A   1      47.841  27.141  30.867  1.00  0.00    -0.014 A 
ATOM     80  C   UNL A   1      48.128  26.467  32.067  1.00  0.00     0.010 A 
ATOM     81  C   UNL A   1      48.878  27.376  29.945  1.00  0.00     0.010 A 
ATOM     82  C   UNL A   1      49.432  26.057  32.350  1.00  0.00     0.020 A 
ATOM     83  C   UNL A   1      50.179  26.944  30.214  1.00  0.00     0.020 A 
ATOM     84  C   UNL A   1      50.450  26.298  31.421  1.00  0.00     0.054 A 
BRANCH  84  85
ATOM     85  S   UNL A   1      52.126  25.712  31.789  1.00  0.00     0.124 S 
ATOM     86  O   UNL A   1      52.811  25.934  30.519  1.00  0.00    -0.237 OA
ATOM     87  O   UNL A   1      52.538  26.585  32.886  1.00  0.00    -0.237 OA
ATOM     88  O   UNL A   1      51.931  24.312  32.156  1.00  0.00    -0.744 OA
ENDBRANCH  84  85
ENDBRANCH  58  79
ENDBRANCH  32  33
ENDBRANCH  24  27
ENDBRANCH  22  23
ENDBRANCH   1  22
TORSDOF 15
ENDMDL
MODEL 2
REMARK VINA RESULT:     -11.0      3.858      6.522
REMARK SMILES C[C@H]1CC[C@@](NC(=O)C(F)(F)F)(C(=O)NCCCNC(=O)c2ccc(-c3c4nc(c(-c5ccc(S(=O)(=O)[O-])cc5)c5ccc([nH]5)c(-c5ccc(S(=O)(=O)[O-])cc5)c5nc(c(-c6ccc(S(=O)(=O)[O-])cc6)c6ccc3[nH]6)C=C5)C=C4)cc2)CC1
REMARK SMILES IDX 17 1 16 2 15 3 13 4 14 5 5 7 1 8 2 9 83 10 3 11 82 12 4 13
REMARK SMILES IDX 6 14 7 15 8 17 9 18 10 19 11 20 12 21 18 22 19 23 20 24
REMARK SMILES IDX 21 26 22 27 23 28 81 29 24 30 80 31 25 32 26 33 27 34 74 35
REMARK SMILES IDX 28 36 79 37 73 38 75 39 29 40 78 41 72 42 71 43 30 45 60 46
REMARK SMILES IDX 41 47 59 48 42 49 45 50 58 51 76 52 43 53 44 54 57 56 77 57
REMARK SMILES IDX 46 58 31 59 32 60 40 61 33 62 39 63 34 64 35 65 36 66 37 67
REMARK SMILES IDX 38 68 61 69 62 70 70 71 63 72 69 73 64 74 65 75 66 76 67 77
REMARK SMILES IDX 68 78 47 79 48 80 56 81 49 82 55 83 50 84 51 85 52 86 53 87
REMARK SMILES IDX 54 88
REMARK H PARENT 15 6 6 16 19 25 75 44 45 55
REMARK Flexibility Score: inf
ROOT
ATOM      1  C   UNL A   1      34.694  32.973  30.578  1.00  0.00     0.042 C 
ENDROOT
BRANCH   1   2
ATOM      2  C   UNL A   1      35.947  33.073  31.431  1.00  0.00     0.117 C 
BRANCH   2   3
ATOM      3  N   UNL A   1      35.614  33.383  32.810  1.00  0.00    -0.354 N 
ATOM      4  C   UNL A   1      36.238  33.083  33.979  1.00  0.00     0.245 C 
ATOM      5  O   UNL A   1      35.674  33.456  35.009  1.00  0.00    -0.272 OA
ATOM      6  H   UNL A   1      34.787  33.905  32.917  1.00  0.00     0.163 HD
BRANCH   4   7
ATOM      7  C   UNL A   1      37.550  32.248  34.003  1.00  0.00     0.119 C 
ATOM      8  C   UNL A   1      39.821  35.600  35.723  1.00  0.00     0.007 C 
ATOM      9  C   UNL A   1      39.548  34.189  35.198  1.00  0.00    -0.014 C 
ATOM     10  C   UNL A   1      39.201  34.223  33.703  1.00  0.00     0.006 C 
ATOM     11  C   UNL A   1      38.446  33.535  36.029  1.00  0.00     0.006 C 
ATOM     12  C   UNL A   1      38.669  32.891  33.152  1.00  0.00     0.039 C 
ATOM     13  C   UNL A   1      38.064  32.172  35.467  1.00  0.00     0.039 C 
BRANCH   7  14
ATOM     14  N   UNL A   1      37.302  30.853  33.542  1.00  0.00    -0.334 N 
ATOM     15  C   UNL A   1      38.080  29.718  33.575  1.00  0.00     0.326 C 
ATOM     16  H   UNL A   1      36.415  30.717  33.137  1.00  0.00     0.164 HD
ATOM     17  O   UNL A   1      37.488  28.666  33.295  1.00  0.00    -0.265 OA
BRANCH  15  18
ATOM     18  C   UNL A   1      39.611  29.749  33.828  1.00  0.00     0.471 C 
ATOM     19  F   UNL A   1      40.216  30.804  33.213  1.00  0.00    -0.162 F 
ATOM     20  F   UNL A   1      39.933  29.820  35.145  1.00  0.00    -0.162 F 
ATOM     21  F   UNL A   1      40.238  28.636  33.348  1.00  0.00    -0.162 F 
ENDBRANCH  15  18
ENDBRANCH   7  14
ENDBRANCH   4   7
ENDBRANCH   2   3
ENDBRANCH   1   2
BRANCH   1  22
ATOM     22  C   UNL A   1      34.991  32.751  29.103  1.00  0.00     0.118 C 
BRANCH  22  23
ATOM     23  N   UNL A   1      34.105  31.766  28.496  1.00  0.00    -0.352 N 
ATOM     24  C   UNL A   1      34.415  30.524  27.992  1.00  0.00     0.251 C 
ATOM     25  H   UNL A   1      33.156  32.023  28.442  1.00  0.00     0.163 HD
ATOM     26  O   UNL A   1      33.597  29.893  27.344  1.00  0.00    -0.269 OA
BRANCH  24  27
ATOM     27  C   UNL A   1      35.770  29.986  28.233  1.00  0.00     0.039 A 
ATOM     28  C   UNL A   1      36.730  30.083  27.227  1.00  0.00     0.014 A 
ATOM     29  C   UNL A   1      36.091  29.444  29.480  1.00  0.00     0.014 A 
ATOM     30  C   UNL A   1      38.042  29.694  27.498  1.00  0.00     0.010 A 
ATOM     31  C   UNL A   1      37.413  29.148  29.776  1.00  0.00     0.010 A 
ATOM     32  C   UNL A   1      38.400  29.261  28.786  1.00  0.00    -0.014 A 
BRANCH  32  33
ATOM     33  C   UNL A   1      39.799  28.899  29.124  1.00  0.00     0.031 A 
ATOM     34  C   UNL A   1      40.697  29.924  29.760  1.00  0.00     0.074 A 
ATOM     35  C   UNL A   1      40.279  27.686  28.787  1.00  0.00     0.049 A 
ATOM     36  N   UNL A   1      41.972  29.844  30.040  1.00  0.00    -0.248 NA
ATOM     37  C   UNL A   1      40.090  31.226  30.093  1.00  0.00     0.031 C 
ATOM     38  C   UNL A   1      39.519  26.624  28.121  1.00  0.00     0.029 A 
ATOM     39  N   UNL A   1      41.529  27.144  28.951  1.00  0.00    -0.354 N 
ATOM     40  C   UNL A   1      42.321  31.086  30.556  1.00  0.00     0.074 A 
ATOM     41  C   UNL A   1      41.143  31.920  30.499  1.00  0.00     0.031 C 
ATOM     42  C   UNL A   1      40.312  25.553  27.955  1.00  0.00     0.029 A 
ATOM     43  C   UNL A   1      41.643  25.863  28.466  1.00  0.00     0.049 A 
ATOM     44  H   UNL A   1      42.273  27.627  29.376  1.00  0.00     0.167 HD
ATOM     45  C   UNL A   1      43.513  31.489  31.058  1.00  0.00     0.031 A 
ATOM     46  C   UNL A   1      42.704  25.032  28.431  1.00  0.00     0.031 A 
ATOM     47  C   UNL A   1      44.675  30.648  31.138  1.00  0.00     0.049 A 
ATOM     48  C   UNL A   1      44.013  25.497  29.009  1.00  0.00     0.074 A 
ATOM     49  C   UNL A   1      45.914  30.941  31.678  1.00  0.00     0.029 A 
ATOM     50  N   UNL A   1      44.738  29.344  30.670  1.00  0.00    -0.354 N 
ATOM     51  N   UNL A   1      44.309  26.657  29.547  1.00  0.00    -0.248 NA
ATOM     52  C   UNL A   1      45.125  24.538  28.990  1.00  0.00     0.031 C 
ATOM     53  C   UNL A   1      46.740  29.827  31.501  1.00  0.00     0.029 A 
ATOM     54  C   UNL A   1      45.999  28.822  30.898  1.00  0.00     0.049 A 
ATOM     55  H   UNL A   1      43.996  28.862  30.239  1.00  0.00     0.167 HD
ATOM     56  C   UNL A   1      45.635  26.556  29.954  1.00  0.00     0.074 A 
ATOM     57  C   UNL A   1      46.076  25.219  29.614  1.00  0.00     0.031 C 
ATOM     58  C   UNL A   1      46.416  27.486  30.557  1.00  0.00     0.031 A 
BRANCH  45  59
ATOM     59  C   UNL A   1      43.608  32.904  31.565  1.00  0.00    -0.014 A 
ATOM     60  C   UNL A   1      44.022  33.950  30.719  1.00  0.00     0.010 A 
ATOM     61  C   UNL A   1      43.255  33.198  32.895  1.00  0.00     0.010 A 
ATOM     62  C   UNL A   1      44.123  35.255  31.205  1.00  0.00     0.020 A 
ATOM     63  C   UNL A   1      43.327  34.508  33.375  1.00  0.00     0.020 A 
ATOM     64  C   UNL A   1      43.778  35.526  32.532  1.00  0.00     0.054 A 
BRANCH  64  65
ATOM     65  S   UNL A   1      43.897  37.234  33.129  1.00  0.00     0.124 S 
ATOM     66  O   UNL A   1      42.691  37.349  33.948  1.00  0.00    -0.237 OA
ATOM     67  O   UNL A   1      45.158  37.230  33.866  1.00  0.00    -0.237 OA
ATOM     68  O   UNL A   1      43.896  38.030  31.905  1.00  0.00    -0.744 OA
ENDBRANCH  64  65
ENDBRANCH  45  59
BRANCH  46  69
ATOM     69  C   UNL A   1      42.567  23.672  27.842  1.00  0.00    -0.014 A 
ATOM     70  C   UNL A   1      42.140  22.591  28.633  1.00  0.00     0.010 A 
ATOM     71  C   UNL A   1      42.853  23.453  26.482  1.00  0.00     0.010 A 
ATOM     72  C   UNL A   1      42.023  21.312  28.082  1.00  0.00     0.020 A 
ATOM     73  C   UNL A   1      42.710  22.181  25.921  1.00  0.00     0.020 A 
ATOM     74  C   UNL A   1      42.309  21.116  26.727  1.00  0.00     0.054 A 
BRANCH  74  75
ATOM     75  S   UNL A   1      42.107  19.457  26.020  1.00  0.00     0.124 S 
ATOM     76  O   UNL A   1      40.666  19.400  25.788  1.00  0.00    -0.237 OA
ATOM     77  O   UNL A   1      42.938  19.520  24.821  1.00  0.00    -0.237 OA
ATOM     78  O   UNL A   1      42.609  18.575  27.071  1.00  0.00    -0.744 OA
ENDBRANCH  74  75
ENDBRANCH  46  69
BRANCH  58  79
ATOM     79  C   UNL A   1      47.816  27.080  30.926  1.00  0.00    -0.014 A 
ATOM     80  C   UNL A   1      48.086  26.400  32.127  1.00  0.00     0.010 A 
ATOM     81  C   UNL A   1      48.867  27.328  30.024  1.00  0.00     0.010 A 
ATOM     82  C   UNL A   1      49.389  25.998  32.431  1.00  0.00     0.020 A 
ATOM     83  C   UNL A   1      50.166  26.904  30.313  1.00  0.00     0.020 A 
ATOM     84  C   UNL A   1      50.421  26.253  31.521  1.00  0.00     0.054 A 
BRANCH  84  85
ATOM     85  S   UNL A   1      52.094  25.676  31.915  1.00  0.00     0.124 S 
ATOM     86  O   UNL A   1      51.865  24.267  32.222  1.00  0.00    -0.237 OA
ATOM     87  O   UNL A   1      52.824  25.939  30.677  1.00  0.00    -0.237 OA
ATOM     88  O   UNL A   1      52.488  26.505  33.051  1.00  0.00    -0.744 OA
ENDBRANCH  84  85
ENDBRANCH  58  79
ENDBRANCH  32  33
ENDBRANCH  24  27
ENDBRANCH  22  23
ENDBRANCH   1  22
TORSDOF 15
ENDMDL
MODEL 3
REMARK VINA RESULT:     -10.8      2.761      9.185
REMARK SMILES C[C@H]1CC[C@@](NC(=O)C(F)(F)F)(C(=O)NCCCNC(=O)c2ccc(-c3c4nc(c(-c5ccc(S(=O)(=O)[O-])cc5)c5ccc([nH]5)c(-c5ccc(S(=O)(=O)[O-])cc5)c5nc(c(-c6ccc(S(=O)(=O)[O-])cc6)c6ccc3[nH]6)C=C5)C=C4)cc2)CC1
REMARK SMILES IDX 17 1 16 2 15 3 13 4 14 5 5 7 1 8 2 9 83 10 3 11 82 12 4 13
REMARK SMILES IDX 6 14 7 15 8 17 9 18 10 19 11 20 12 21 18 22 19 23 20 24
REMARK SMILES IDX 21 26 22 27 23 28 81 29 24 30 80 31 25 32 26 33 27 34 74 35
REMARK SMILES IDX 28 36 79 37 73 38 75 39 29 40 78 41 72 42 71 43 30 45 60 46
REMARK SMILES IDX 41 47 59 48 42 49 45 50 58 51 76 52 43 53 44 54 57 56 77 57
REMARK SMILES IDX 46 58 31 59 32 60 40 61 33 62 39 63 34 64 35 65 36 66 37 67
REMARK SMILES IDX 38 68 61 69 62 70 70 71 63 72 69 73 64 74 65 75 66 76 67 77
REMARK SMILES IDX 68 78 47 79 48 80 56 81 49 82 55 83 50 84 51 85 52 86 53 87
REMARK SMILES IDX 54 88
REMARK H PARENT 15 6 6 16 19 25 75 44 45 55
REMARK Flexibility Score: inf
ROOT
ATOM      1  C   UNL A   1      35.806  23.754  26.093  1.00  0.00     0.042 C 
ENDROOT
BRANCH   1   2
ATOM      2  C   UNL A   1      34.602  22.940  25.652  1.00  0.00     0.117 C 
BRANCH   2   3
ATOM      3  N   UNL A   1      33.409  23.346  26.373  1.00  0.00    -0.354 N 
ATOM      4  C   UNL A   1      32.437  24.247  26.076  1.00  0.00     0.245 C 
ATOM      5  O   UNL A   1      31.559  24.403  26.927  1.00  0.00    -0.272 OA
ATOM      6  H   UNL A   1      33.280  22.883  27.232  1.00  0.00     0.163 HD
BRANCH   4   7
ATOM      7  C   UNL A   1      32.486  25.084  24.766  1.00  0.00     0.119 C 
ATOM      8  C   UNL A   1      31.843  28.838  26.969  1.00  0.00     0.007 C 
ATOM      9  C   UNL A   1      32.103  27.917  25.775  1.00  0.00    -0.014 C 
ATOM     10  C   UNL A   1      30.904  26.989  25.534  1.00  0.00     0.006 C 
ATOM     11  C   UNL A   1      33.398  27.138  25.997  1.00  0.00     0.006 C 
ATOM     12  C   UNL A   1      31.174  25.865  24.521  1.00  0.00     0.039 C 
ATOM     13  C   UNL A   1      33.633  26.126  24.883  1.00  0.00     0.039 C 
BRANCH   7  14
ATOM     14  N   UNL A   1      32.786  24.218  23.592  1.00  0.00    -0.334 N 
ATOM     15  C   UNL A   1      33.006  24.507  22.264  1.00  0.00     0.326 C 
ATOM     16  H   UNL A   1      32.837  23.258  23.805  1.00  0.00     0.164 HD
ATOM     17  O   UNL A   1      33.437  23.564  21.585  1.00  0.00    -0.265 OA
BRANCH  15  18
ATOM     18  C   UNL A   1      32.637  25.870  21.622  1.00  0.00     0.471 C 
ATOM     19  F   UNL A   1      32.855  25.885  20.277  1.00  0.00    -0.162 F 
ATOM     20  F   UNL A   1      31.338  26.217  21.816  1.00  0.00    -0.162 F 
ATOM     21  F   UNL A   1      33.378  26.898  22.125  1.00  0.00    -0.162 F 
ENDBRANCH  15  18
ENDBRANCH   7  14
ENDBRANCH   4   7
ENDBRANCH   2   3
ENDBRANCH   1   2
BRANCH   1  22
ATOM     22  C   UNL A   1      36.939  23.744  25.078  1.00  0.00     0.118 C 
BRANCH  22  23
ATOM     23  N   UNL A   1      37.952  22.741  25.381  1.00  0.00    -0.352 N 
ATOM     24  C   UNL A   1      39.150  22.899  26.038  1.00  0.00     0.251 C 
ATOM     25  H   UNL A   1      37.752  21.827  25.074  1.00  0.00     0.163 HD
ATOM     26  O   UNL A   1      39.978  22.003  26.048  1.00  0.00    -0.269 OA
BRANCH  24  27
ATOM     27  C   UNL A   1      39.418  24.187  26.711  1.00  0.00     0.039 A 
ATOM     28  C   UNL A   1      38.969  24.378  28.017  1.00  0.00     0.014 A 
ATOM     29  C   UNL A   1      40.164  25.170  26.059  1.00  0.00     0.014 A 
ATOM     30  C   UNL A   1      39.332  25.541  28.698  1.00  0.00     0.010 A 
ATOM     31  C   UNL A   1      40.602  26.278  26.769  1.00  0.00     0.010 A 
ATOM     32  C   UNL A   1      40.184  26.480  28.091  1.00  0.00    -0.014 A 
BRANCH  32  33
ATOM     33  C   UNL A   1      40.638  27.696  28.810  1.00  0.00     0.031 A 
ATOM     34  C   UNL A   1      42.000  27.713  29.450  1.00  0.00     0.074 A 
ATOM     35  C   UNL A   1      39.802  28.743  28.955  1.00  0.00     0.049 A 
ATOM     36  N   UNL A   1      42.544  28.631  30.206  1.00  0.00    -0.248 NA
ATOM     37  C   UNL A   1      42.848  26.526  29.244  1.00  0.00     0.031 C 
ATOM     38  C   UNL A   1      38.439  28.824  28.423  1.00  0.00     0.029 A 
ATOM     39  N   UNL A   1      39.975  29.939  29.604  1.00  0.00    -0.354 N 
ATOM     40  C   UNL A   1      43.781  28.122  30.581  1.00  0.00     0.074 A 
ATOM     41  C   UNL A   1      43.886  26.795  30.021  1.00  0.00     0.031 C 
ATOM     42  C   UNL A   1      37.910  30.015  28.748  1.00  0.00     0.029 A 
ATOM     43  C   UNL A   1      38.878  30.765  29.541  1.00  0.00     0.049 A 
ATOM     44  H   UNL A   1      40.806  30.183  30.071  1.00  0.00     0.167 HD
ATOM     45  C   UNL A   1      44.756  28.718  31.308  1.00  0.00     0.031 A 
ATOM     46  C   UNL A   1      38.672  31.988  30.069  1.00  0.00     0.031 A 
ATOM     47  C   UNL A   1      44.660  30.049  31.841  1.00  0.00     0.049 A 
ATOM     48  C   UNL A   1      39.776  32.636  30.859  1.00  0.00     0.074 A 
ATOM     49  C   UNL A   1      45.611  30.766  32.543  1.00  0.00     0.029 A 
ATOM     50  N   UNL A   1      43.546  30.866  31.722  1.00  0.00    -0.354 N 
ATOM     51  N   UNL A   1      40.964  32.162  31.156  1.00  0.00    -0.248 NA
ATOM     52  C   UNL A   1      39.520  33.987  31.373  1.00  0.00     0.031 C 
ATOM     53  C   UNL A   1      45.058  32.005  32.885  1.00  0.00     0.029 A 
ATOM     54  C   UNL A   1      43.781  32.077  32.349  1.00  0.00     0.049 A 
ATOM     55  H   UNL A   1      42.711  30.622  31.261  1.00  0.00     0.167 HD
ATOM     56  C   UNL A   1      41.605  33.169  31.867  1.00  0.00     0.074 A 
ATOM     57  C   UNL A   1      40.680  34.281  31.944  1.00  0.00     0.031 C 
ATOM     58  C   UNL A   1      42.849  33.174  32.408  1.00  0.00     0.031 A 
BRANCH  45  59
ATOM     59  C   UNL A   1      46.014  27.929  31.558  1.00  0.00    -0.014 A 
ATOM     60  C   UNL A   1      46.098  27.021  32.631  1.00  0.00     0.010 A 
ATOM     61  C   UNL A   1      47.117  28.075  30.698  1.00  0.00     0.010 A 
ATOM     62  C   UNL A   1      47.276  26.307  32.864  1.00  0.00     0.020 A 
ATOM     63  C   UNL A   1      48.287  27.340  30.911  1.00  0.00     0.020 A 
ATOM     64  C   UNL A   1      48.365  26.474  32.004  1.00  0.00     0.054 A 
BRANCH  64  65
ATOM     65  S   UNL A   1      49.872  25.517  32.317  1.00  0.00     0.124 S 
ATOM     66  O   UNL A   1      49.450  24.641  33.408  1.00  0.00    -0.237 OA
ATOM     67  O   UNL A   1      50.105  24.855  31.035  1.00  0.00    -0.237 OA
ATOM     68  O   UNL A   1      50.858  26.531  32.679  1.00  0.00    -0.744 OA
ENDBRANCH  64  65
ENDBRANCH  45  59
BRANCH  46  69
ATOM     69  C   UNL A   1      37.374  32.684  29.854  1.00  0.00    -0.014 A 
ATOM     70  C   UNL A   1      37.212  33.575  28.778  1.00  0.00     0.010 A 
ATOM     71  C   UNL A   1      36.289  32.451  30.718  1.00  0.00     0.010 A 
ATOM     72  C   UNL A   1      35.996  34.237  28.584  1.00  0.00     0.020 A 
ATOM     73  C   UNL A   1      35.063  33.090  30.511  1.00  0.00     0.020 A 
ATOM     74  C   UNL A   1      34.929  33.990  29.453  1.00  0.00     0.054 A 
BRANCH  74  75
ATOM     75  S   UNL A   1      33.345  34.824  29.156  1.00  0.00     0.124 S 
ATOM     76  O   UNL A   1      32.712  33.937  28.184  1.00  0.00    -0.237 OA
ATOM     77  O   UNL A   1      32.742  34.840  30.485  1.00  0.00    -0.237 OA
ATOM     78  O   UNL A   1      33.742  36.134  28.645  1.00  0.00    -0.744 OA
ENDBRANCH  74  75
ENDBRANCH  46  69
BRANCH  58  79
ATOM     79  C   UNL A   1      43.300  34.433  33.095  1.00  0.00    -0.014 A 
ATOM     80  C   UNL A   1      43.990  35.439  32.395  1.00  0.00     0.010 A 
ATOM     81  C   UNL A   1      42.970  34.638  34.447  1.00  0.00     0.010 A 
ATOM     82  C   UNL A   1      44.365  36.617  33.044  1.00  0.00     0.020 A 
ATOM     83  C   UNL A   1      43.321  35.826  35.092  1.00  0.00     0.020 A 
ATOM     84  C   UNL A   1      44.028  36.803  34.389  1.00  0.00     0.054 A 
BRANCH  84  85
ATOM     85  S   UNL A   1      44.481  38.363  35.196  1.00  0.00     0.124 S 
ATOM     86  O   UNL A   1      45.940  38.316  35.148  1.00  0.00    -0.237 OA
ATOM     87  O   UNL A   1      43.857  39.363  34.334  1.00  0.00    -0.237 OA
ATOM     88  O   UNL A   1      43.897  38.247  36.529  1.00  0.00    -0.744 OA
ENDBRANCH  84  85
ENDBRANCH  58  79
ENDBRANCH  32  33
ENDBRANCH  24  27
ENDBRANCH  22  23
ENDBRANCH   1  22
TORSDOF 15
ENDMDL
