MODEL 1
REMARK VINA RESULT:     -11.0      0.000      0.000
REMARK SMILES CCC[C@]1(C(=O)NCCCNC(=O)c2ccc(-c3c4nc(c(-c5ccc(S(=O)(=O)[O-])cc5)c5ccc([nH]5)c(-c5ccc(S(=O)(=O)[O-])cc5)c5nc(c(-c6ccc(S(=O)(=O)[O-])cc6)c6ccc3[nH]6)C=C5)C=C4)cc2)CCCN(C(=O)N[C@H]2CCOC2)C1
REMARK SMILES IDX 9 1 8 2 7 3 5 4 6 5 4 7 74 8 86 9 75 10 77 11 76 12 3 13
REMARK SMILES IDX 2 14 1 15 78 16 79 17 80 18 81 20 82 21 85 22 83 23 84 24
REMARK SMILES IDX 10 25 11 26 12 27 13 29 14 30 15 31 73 32 16 33 72 34 17 35
REMARK SMILES IDX 18 36 19 37 66 38 20 39 71 40 65 41 67 42 21 43 70 44 64 45
REMARK SMILES IDX 63 46 22 48 52 49 33 50 51 51 34 52 37 53 50 54 68 55 35 56
REMARK SMILES IDX 36 57 49 59 69 60 38 61 23 62 24 63 32 64 25 65 31 66 26 67
REMARK SMILES IDX 27 68 28 69 29 70 30 71 53 72 54 73 62 74 55 75 61 76 56 77
REMARK SMILES IDX 57 78 58 79 59 80 60 81 39 82 40 83 48 84 41 85 47 86 42 87
REMARK SMILES IDX 43 88 44 89 45 90 46 91
REMARK H PARENT 7 6 80 19 11 28 67 47 37 58
REMARK Flexibility Score: inf
ROOT
ATOM      1  C   UNL A   1      32.990  27.429  25.753  1.00  0.00     0.042 C 
ENDROOT
BRANCH   1   2
ATOM      2  C   UNL A   1      33.807  26.608  24.764  1.00  0.00     0.117 C 
BRANCH   2   3
ATOM      3  N   UNL A   1      33.005  25.656  24.007  1.00  0.00    -0.355 N 
ATOM      4  C   UNL A   1      33.018  24.295  23.914  1.00  0.00     0.228 C 
ATOM      5  O   UNL A   1      32.257  23.820  23.066  1.00  0.00    -0.274 OA
ATOM      6  H   UNL A   1      32.314  26.081  23.450  1.00  0.00     0.163 HD
BRANCH   4   7
ATOM      7  C   UNL A   1      33.969  23.408  24.750  1.00  0.00     0.067 C 
ATOM      8  C   UNL A   1      33.596  23.683  26.244  1.00  0.00     0.020 C 
ATOM      9  C   UNL A   1      33.834  21.914  24.344  1.00  0.00     0.138 C 
ATOM     10  C   UNL A   1      33.974  22.573  27.214  1.00  0.00     0.023 C 
ATOM     11  N   UNL A   1      34.306  21.001  25.397  1.00  0.00    -0.324 N 
ATOM     12  C   UNL A   1      33.616  21.209  26.653  1.00  0.00     0.121 C 
BRANCH   7  13
ATOM     13  C   UNL A   1      35.460  23.876  24.578  1.00  0.00     0.018 C 
BRANCH  13  14
ATOM     14  C   UNL A   1      36.340  24.108  25.819  1.00  0.00    -0.002 C 
ATOM     15  C   UNL A   1      37.766  23.593  25.740  1.00  0.00     0.004 C 
ENDBRANCH  13  14
ENDBRANCH   7  13
BRANCH  11  16
ATOM     16  C   UNL A   1      35.308  20.134  25.096  1.00  0.00     0.317 C 
ATOM     17  O   UNL A   1      36.496  20.477  25.149  1.00  0.00    -0.249 OA
ATOM     18  N   UNL A   1      35.146  18.854  24.741  1.00  0.00    -0.333 N 
ATOM     19  H   UNL A   1      36.028  18.422  24.681  1.00  0.00     0.165 HD
BRANCH  18  20
ATOM     20  C   UNL A   1      34.113  17.875  24.412  1.00  0.00     0.112 C 
ATOM     21  C   UNL A   1      34.144  16.560  25.153  1.00  0.00     0.056 C 
ATOM     22  C   UNL A   1      32.680  18.373  24.464  1.00  0.00     0.185 C 
ATOM     23  C   UNL A   1      32.705  16.295  25.549  1.00  0.00     0.162 C 
ATOM     24  O   UNL A   1      31.875  17.345  25.047  1.00  0.00    -0.379 OA
ENDBRANCH  18  20
ENDBRANCH  11  16
ENDBRANCH   4   7
ENDBRANCH   2   3
ENDBRANCH   1   2
BRANCH   1  25
ATOM     25  C   UNL A   1      33.793  27.974  26.919  1.00  0.00     0.118 C 
BRANCH  25  26
ATOM     26  N   UNL A   1      33.539  29.388  27.148  1.00  0.00    -0.352 N 
ATOM     27  C   UNL A   1      34.307  30.325  27.790  1.00  0.00     0.251 C 
ATOM     28  H   UNL A   1      32.687  29.724  26.786  1.00  0.00     0.163 HD
ATOM     29  O   UNL A   1      33.811  31.413  28.084  1.00  0.00    -0.269 OA
BRANCH  27  30
ATOM     30  C   UNL A   1      35.712  30.029  28.144  1.00  0.00     0.039 A 
ATOM     31  C   UNL A   1      36.012  29.593  29.436  1.00  0.00     0.014 A 
ATOM     32  C   UNL A   1      36.739  30.203  27.213  1.00  0.00     0.014 A 
ATOM     33  C   UNL A   1      37.330  29.281  29.775  1.00  0.00     0.010 A 
ATOM     34  C   UNL A   1      38.032  29.793  27.517  1.00  0.00     0.010 A 
ATOM     35  C   UNL A   1      38.347  29.349  28.809  1.00  0.00    -0.014 A 
BRANCH  35  36
ATOM     36  C   UNL A   1      39.754  29.001  29.134  1.00  0.00     0.031 A 
ATOM     37  C   UNL A   1      40.651  30.025  29.779  1.00  0.00     0.074 A 
ATOM     38  C   UNL A   1      40.241  27.790  28.796  1.00  0.00     0.049 A 
ATOM     39  N   UNL A   1      41.921  29.938  30.079  1.00  0.00    -0.248 NA
ATOM     40  C   UNL A   1      40.049  31.330  30.105  1.00  0.00     0.031 C 
ATOM     41  C   UNL A   1      39.485  26.725  28.133  1.00  0.00     0.029 A 
ATOM     42  N   UNL A   1      41.493  27.252  28.961  1.00  0.00    -0.354 N 
ATOM     43  C   UNL A   1      42.272  31.176  30.605  1.00  0.00     0.074 A 
ATOM     44  C   UNL A   1      41.098  32.016  30.531  1.00  0.00     0.031 C 
ATOM     45  C   UNL A   1      40.278  25.653  27.976  1.00  0.00     0.029 A 
ATOM     46  C   UNL A   1      41.609  25.967  28.483  1.00  0.00     0.049 A 
ATOM     47  H   UNL A   1      42.237  27.739  29.382  1.00  0.00     0.167 HD
ATOM     48  C   UNL A   1      43.457  31.573  31.127  1.00  0.00     0.031 A 
ATOM     49  C   UNL A   1      42.670  25.138  28.451  1.00  0.00     0.031 A 
ATOM     50  C   UNL A   1      44.617  30.728  31.213  1.00  0.00     0.049 A 
ATOM     51  C   UNL A   1      43.981  25.605  29.026  1.00  0.00     0.074 A 
ATOM     52  C   UNL A   1      45.850  31.015  31.774  1.00  0.00     0.029 A 
ATOM     53  N   UNL A   1      44.691  29.431  30.728  1.00  0.00    -0.354 N 
ATOM     54  N   UNL A   1      44.274  26.759  29.578  1.00  0.00    -0.248 NA
ATOM     55  C   UNL A   1      45.100  24.654  28.986  1.00  0.00     0.031 C 
ATOM     56  C   UNL A   1      46.686  29.912  31.576  1.00  0.00     0.029 A 
ATOM     57  C   UNL A   1      45.954  28.913  30.954  1.00  0.00     0.049 A 
ATOM     58  H   UNL A   1      43.952  28.950  30.288  1.00  0.00     0.167 HD
ATOM     59  C   UNL A   1      45.602  26.659  29.979  1.00  0.00     0.074 A 
ATOM     60  C   UNL A   1      46.048  25.328  29.620  1.00  0.00     0.031 C 
ATOM     61  C   UNL A   1      46.381  27.584  30.593  1.00  0.00     0.031 A 
BRANCH  48  62
ATOM     62  C   UNL A   1      43.556  32.986  31.641  1.00  0.00    -0.014 A 
ATOM     63  C   UNL A   1      43.185  33.310  32.959  1.00  0.00     0.010 A 
ATOM     64  C   UNL A   1      44.065  33.999  30.807  1.00  0.00     0.010 A 
ATOM     65  C   UNL A   1      43.281  34.626  33.420  1.00  0.00     0.020 A 
ATOM     66  C   UNL A   1      44.194  35.310  31.275  1.00  0.00     0.020 A 
ATOM     67  C   UNL A   1      43.784  35.618  32.573  1.00  0.00     0.054 A 
BRANCH  67  68
ATOM     68  S   UNL A   1      43.923  37.311  33.210  1.00  0.00     0.124 S 
ATOM     69  O   UNL A   1      45.232  37.282  33.858  1.00  0.00    -0.237 OA
ATOM     70  O   UNL A   1      43.841  38.117  31.995  1.00  0.00    -0.237 OA
ATOM     71  O   UNL A   1      42.784  37.437  34.115  1.00  0.00    -0.744 OA
ENDBRANCH  67  68
ENDBRANCH  48  62
BRANCH  49  72
ATOM     72  C   UNL A   1      42.534  23.776  27.866  1.00  0.00    -0.014 A 
ATOM     73  C   UNL A   1      42.811  23.550  26.505  1.00  0.00     0.010 A 
ATOM     74  C   UNL A   1      42.133  22.692  28.668  1.00  0.00     0.010 A 
ATOM     75  C   UNL A   1      42.667  22.274  25.954  1.00  0.00     0.020 A 
ATOM     76  C   UNL A   1      42.017  21.408  28.128  1.00  0.00     0.020 A 
ATOM     77  C   UNL A   1      42.273  21.210  26.770  1.00  0.00     0.054 A 
BRANCH  77  78
ATOM     78  S   UNL A   1      42.134  19.553  26.042  1.00  0.00     0.124 S 
ATOM     79  O   UNL A   1      43.026  19.652  24.891  1.00  0.00    -0.237 OA
ATOM     80  O   UNL A   1      42.594  18.693  27.130  1.00  0.00    -0.237 OA
ATOM     81  O   UNL A   1      40.713  19.437  25.725  1.00  0.00    -0.744 OA
ENDBRANCH  77  78
ENDBRANCH  49  72
BRANCH  61  82
ATOM     82  C   UNL A   1      47.785  27.180  30.956  1.00  0.00    -0.014 A 
ATOM     83  C   UNL A   1      48.063  26.468  32.135  1.00  0.00     0.010 A 
ATOM     84  C   UNL A   1      48.838  27.471  30.066  1.00  0.00     0.010 A 
ATOM     85  C   UNL A   1      49.372  26.083  32.435  1.00  0.00     0.020 A 
ATOM     86  C   UNL A   1      50.143  27.060  30.347  1.00  0.00     0.020 A 
ATOM     87  C   UNL A   1      50.403  26.381  31.538  1.00  0.00     0.054 A 
BRANCH  87  88
ATOM     88  S   UNL A   1      52.086  25.829  31.931  1.00  0.00     0.124 S 
ATOM     89  O   UNL A   1      51.850  24.490  32.467  1.00  0.00    -0.237 OA
ATOM     90  O   UNL A   1      52.750  25.877  30.631  1.00  0.00    -0.237 OA
ATOM     91  O   UNL A   1      52.557  26.814  32.902  1.00  0.00    -0.744 OA
ENDBRANCH  87  88
ENDBRANCH  61  82
ENDBRANCH  35  36
ENDBRANCH  27  30
ENDBRANCH  25  26
ENDBRANCH   1  25
TORSDOF 17
ENDMDL
MODEL 2
REMARK VINA RESULT:     -10.8      2.705      3.513
REMARK SMILES CCC[C@]1(C(=O)NCCCNC(=O)c2ccc(-c3c4nc(c(-c5ccc(S(=O)(=O)[O-])cc5)c5ccc([nH]5)c(-c5ccc(S(=O)(=O)[O-])cc5)c5nc(c(-c6ccc(S(=O)(=O)[O-])cc6)c6ccc3[nH]6)C=C5)C=C4)cc2)CCCN(C(=O)N[C@H]2CCOC2)C1
REMARK SMILES IDX 9 1 8 2 7 3 5 4 6 5 4 7 74 8 86 9 75 10 77 11 76 12 3 13
REMARK SMILES IDX 2 14 1 15 78 16 79 17 80 18 81 20 82 21 85 22 83 23 84 24
REMARK SMILES IDX 10 25 11 26 12 27 13 29 14 30 15 31 73 32 16 33 72 34 17 35
REMARK SMILES IDX 18 36 19 37 66 38 20 39 71 40 65 41 67 42 21 43 70 44 64 45
REMARK SMILES IDX 63 46 22 48 52 49 33 50 51 51 34 52 37 53 50 54 68 55 35 56
REMARK SMILES IDX 36 57 49 59 69 60 38 61 23 62 24 63 32 64 25 65 31 66 26 67
REMARK SMILES IDX 27 68 28 69 29 70 30 71 53 72 54 73 62 74 55 75 61 76 56 77
REMARK SMILES IDX 57 78 58 79 59 80 60 81 39 82 40 83 48 84 41 85 47 86 42 87
REMARK SMILES IDX 43 88 44 89 45 90 46 91
REMARK H PARENT 7 6 80 19 11 28 67 47 37 58
REMARK Flexibility Score: inf
ROOT
ATOM      1  C   UNL A   1      32.927  27.823  26.889  1.00  0.00     0.042 C 
ENDROOT
BRANCH   1   2
ATOM      2  C   UNL A   1      32.574  26.614  26.031  1.00  0.00     0.117 C 
BRANCH   2   3
ATOM      3  N   UNL A   1      31.766  25.627  26.735  1.00  0.00    -0.355 N 
ATOM      4  C   UNL A   1      31.624  24.277  26.605  1.00  0.00     0.228 C 
ATOM      5  O   UNL A   1      30.744  23.771  27.307  1.00  0.00    -0.274 OA
ATOM      6  H   UNL A   1      31.210  26.012  27.450  1.00  0.00     0.163 HD
BRANCH   4   7
ATOM      7  C   UNL A   1      32.448  23.442  25.597  1.00  0.00     0.067 C 
ATOM      8  C   UNL A   1      33.945  23.655  25.998  1.00  0.00     0.020 C 
ATOM      9  C   UNL A   1      32.007  21.953  25.619  1.00  0.00     0.138 C 
ATOM     10  C   UNL A   1      34.892  22.553  25.546  1.00  0.00     0.023 C 
ATOM     11  N   UNL A   1      33.042  21.053  25.087  1.00  0.00    -0.324 N 
ATOM     12  C   UNL A   1      34.297  21.180  25.799  1.00  0.00     0.121 C 
BRANCH   7  13
ATOM     13  C   UNL A   1      32.299  24.023  24.142  1.00  0.00     0.018 C 
BRANCH  13  14
ATOM     14  C   UNL A   1      30.926  24.012  23.448  1.00  0.00    -0.002 C 
ATOM     15  C   UNL A   1      30.171  25.328  23.428  1.00  0.00     0.004 C 
ENDBRANCH  13  14
ENDBRANCH   7  13
BRANCH  11  16
ATOM     16  C   UNL A   1      32.730  20.269  24.022  1.00  0.00     0.317 C 
ATOM     17  O   UNL A   1      32.160  20.731  23.026  1.00  0.00    -0.249 OA
ATOM     18  N   UNL A   1      33.004  18.963  23.913  1.00  0.00    -0.333 N 
ATOM     19  H   UNL A   1      32.769  18.659  23.007  1.00  0.00     0.165 HD
BRANCH  18  20
ATOM     20  C   UNL A   1      33.533  17.832  24.672  1.00  0.00     0.112 C 
ATOM     21  C   UNL A   1      32.609  17.172  25.665  1.00  0.00     0.056 C 
ATOM     22  C   UNL A   1      34.167  16.720  23.856  1.00  0.00     0.185 C 
ATOM     23  C   UNL A   1      32.793  15.683  25.447  1.00  0.00     0.162 C 
ATOM     24  O   UNL A   1      33.780  15.471  24.435  1.00  0.00    -0.379 OA
ENDBRANCH  18  20
ENDBRANCH  11  16
ENDBRANCH   4   7
ENDBRANCH   2   3
ENDBRANCH   1   2
BRANCH   1  25
ATOM     25  C   UNL A   1      34.026  28.693  26.310  1.00  0.00     0.118 C 
BRANCH  25  26
ATOM     26  N   UNL A   1      33.826  30.103  26.608  1.00  0.00    -0.352 N 
ATOM     27  C   UNL A   1      34.475  30.911  27.505  1.00  0.00     0.251 C 
ATOM     28  H   UNL A   1      33.118  30.544  26.085  1.00  0.00     0.163 HD
ATOM     29  O   UNL A   1      34.001  32.015  27.775  1.00  0.00    -0.269 OA
BRANCH  27  30
ATOM     30  C   UNL A   1      35.722  30.458  28.159  1.00  0.00     0.039 A 
ATOM     31  C   UNL A   1      36.952  30.859  27.632  1.00  0.00     0.014 A 
ATOM     32  C   UNL A   1      35.683  29.621  29.277  1.00  0.00     0.014 A 
ATOM     33  C   UNL A   1      38.136  30.465  28.258  1.00  0.00     0.010 A 
ATOM     34  C   UNL A   1      36.856  29.316  29.959  1.00  0.00     0.010 A 
ATOM     35  C   UNL A   1      38.098  29.715  29.445  1.00  0.00    -0.014 A 
BRANCH  35  36
ATOM     36  C   UNL A   1      39.340  29.301  30.145  1.00  0.00     0.031 A 
ATOM     37  C   UNL A   1      39.777  30.027  31.391  1.00  0.00     0.074 A 
ATOM     38  C   UNL A   1      40.105  28.317  29.630  1.00  0.00     0.049 A 
ATOM     39  N   UNL A   1      40.860  29.861  32.106  1.00  0.00    -0.248 NA
ATOM     40  C   UNL A   1      38.895  31.099  31.884  1.00  0.00     0.031 C 
ATOM     41  C   UNL A   1      39.811  27.564  28.408  1.00  0.00     0.029 A 
ATOM     42  N   UNL A   1      41.291  27.784  30.069  1.00  0.00    -0.354 N 
ATOM     43  C   UNL A   1      40.798  30.818  33.113  1.00  0.00     0.074 A 
ATOM     44  C   UNL A   1      39.603  31.597  32.885  1.00  0.00     0.031 C 
ATOM     45  C   UNL A   1      40.773  26.648  28.214  1.00  0.00     0.029 A 
ATOM     46  C   UNL A   1      41.774  26.777  29.267  1.00  0.00     0.049 A 
ATOM     47  H   UNL A   1      41.752  28.094  30.881  1.00  0.00     0.167 HD
ATOM     48  C   UNL A   1      41.646  31.015  34.151  1.00  0.00     0.031 A 
ATOM     49  C   UNL A   1      42.900  26.044  29.365  1.00  0.00     0.031 A 
ATOM     50  C   UNL A   1      42.825  30.225  34.383  1.00  0.00     0.049 A 
ATOM     51  C   UNL A   1      43.834  26.289  30.519  1.00  0.00     0.074 A 
ATOM     52  C   UNL A   1      43.721  30.307  35.435  1.00  0.00     0.029 A 
ATOM     53  N   UNL A   1      43.273  29.208  33.553  1.00  0.00    -0.354 N 
ATOM     54  N   UNL A   1      43.724  27.157  31.498  1.00  0.00    -0.248 NA
ATOM     55  C   UNL A   1      45.036  25.448  30.591  1.00  0.00     0.031 C 
ATOM     56  C   UNL A   1      44.742  29.378  35.210  1.00  0.00     0.029 A 
ATOM     57  C   UNL A   1      44.446  28.671  34.056  1.00  0.00     0.049 A 
ATOM     58  H   UNL A   1      42.823  28.912  32.729  1.00  0.00     0.167 HD
ATOM     59  C   UNL A   1      44.828  26.942  32.318  1.00  0.00     0.074 A 
ATOM     60  C   UNL A   1      45.581  25.855  31.728  1.00  0.00     0.031 C 
ATOM     61  C   UNL A   1      45.182  27.585  33.458  1.00  0.00     0.031 A 
BRANCH  48  62
ATOM     62  C   UNL A   1      41.329  32.132  35.110  1.00  0.00    -0.014 A 
ATOM     63  C   UNL A   1      41.819  33.434  34.902  1.00  0.00     0.010 A 
ATOM     64  C   UNL A   1      40.495  31.886  36.217  1.00  0.00     0.010 A 
ATOM     65  C   UNL A   1      41.518  34.459  35.803  1.00  0.00     0.020 A 
ATOM     66  C   UNL A   1      40.164  32.916  37.103  1.00  0.00     0.020 A 
ATOM     67  C   UNL A   1      40.692  34.192  36.900  1.00  0.00     0.054 A 
BRANCH  67  68
ATOM     68  S   UNL A   1      40.296  35.548  38.036  1.00  0.00     0.124 S 
ATOM     69  O   UNL A   1      41.536  35.675  38.798  1.00  0.00    -0.237 OA
ATOM     70  O   UNL A   1      40.002  36.652  37.127  1.00  0.00    -0.237 OA
ATOM     71  O   UNL A   1      39.150  35.046  38.792  1.00  0.00    -0.744 OA
ENDBRANCH  67  68
ENDBRANCH  48  62
BRANCH  49  72
ATOM     72  C   UNL A   1      43.201  25.000  28.346  1.00  0.00    -0.014 A 
ATOM     73  C   UNL A   1      42.757  23.677  28.525  1.00  0.00     0.010 A 
ATOM     74  C   UNL A   1      43.929  25.324  27.187  1.00  0.00     0.010 A 
ATOM     75  C   UNL A   1      43.054  22.695  27.576  1.00  0.00     0.020 A 
ATOM     76  C   UNL A   1      44.202  24.352  26.220  1.00  0.00     0.020 A 
ATOM     77  C   UNL A   1      43.773  23.040  26.427  1.00  0.00     0.054 A 
BRANCH  77  78
ATOM     78  S   UNL A   1      44.110  21.757  25.188  1.00  0.00     0.124 S 
ATOM     79  O   UNL A   1      43.038  20.800  25.443  1.00  0.00    -0.237 OA
ATOM     80  O   UNL A   1      44.013  22.500  23.934  1.00  0.00    -0.237 OA
ATOM     81  O   UNL A   1      45.455  21.298  25.529  1.00  0.00    -0.744 OA
ENDBRANCH  77  78
ENDBRANCH  49  72
BRANCH  61  82
ATOM     82  C   UNL A   1      46.419  27.105  34.171  1.00  0.00    -0.014 A 
ATOM     83  C   UNL A   1      47.680  27.667  33.912  1.00  0.00     0.010 A 
ATOM     84  C   UNL A   1      46.301  26.111  35.162  1.00  0.00     0.010 A 
ATOM     85  C   UNL A   1      48.807  27.222  34.607  1.00  0.00     0.020 A 
ATOM     86  C   UNL A   1      47.420  25.686  35.881  1.00  0.00     0.020 A 
ATOM     87  C   UNL A   1      48.669  26.234  35.588  1.00  0.00     0.054 A 
BRANCH  87  88
ATOM     88  S   UNL A   1      50.141  25.706  36.507  1.00  0.00     0.124 S 
ATOM     89  O   UNL A   1      50.180  24.274  36.222  1.00  0.00    -0.237 OA
ATOM     90  O   UNL A   1      51.203  26.499  35.893  1.00  0.00    -0.237 OA
ATOM     91  O   UNL A   1      49.831  26.058  37.891  1.00  0.00    -0.744 OA
ENDBRANCH  87  88
ENDBRANCH  61  82
ENDBRANCH  35  36
ENDBRANCH  27  30
ENDBRANCH  25  26
ENDBRANCH   1  25
TORSDOF 17
ENDMDL
MODEL 3
REMARK VINA RESULT:     -10.7      2.558      3.069
REMARK SMILES CCC[C@]1(C(=O)NCCCNC(=O)c2ccc(-c3c4nc(c(-c5ccc(S(=O)(=O)[O-])cc5)c5ccc([nH]5)c(-c5ccc(S(=O)(=O)[O-])cc5)c5nc(c(-c6ccc(S(=O)(=O)[O-])cc6)c6ccc3[nH]6)C=C5)C=C4)cc2)CCCN(C(=O)N[C@H]2CCOC2)C1
REMARK SMILES IDX 9 1 8 2 7 3 5 4 6 5 4 7 74 8 86 9 75 10 77 11 76 12 3 13
REMARK SMILES IDX 2 14 1 15 78 16 79 17 80 18 81 20 82 21 85 22 83 23 84 24
REMARK SMILES IDX 10 25 11 26 12 27 13 29 14 30 15 31 73 32 16 33 72 34 17 35
REMARK SMILES IDX 18 36 19 37 66 38 20 39 71 40 65 41 67 42 21 43 70 44 64 45
REMARK SMILES IDX 63 46 22 48 52 49 33 50 51 51 34 52 37 53 50 54 68 55 35 56
REMARK SMILES IDX 36 57 49 59 69 60 38 61 23 62 24 63 32 64 25 65 31 66 26 67
REMARK SMILES IDX 27 68 28 69 29 70 30 71 53 72 54 73 62 74 55 75 61 76 56 77
REMARK SMILES IDX 57 78 58 79 59 80 60 81 39 82 40 83 48 84 41 85 47 86 42 87
REMARK SMILES IDX 43 88 44 89 45 90 46 91
REMARK H PARENT 7 6 80 19 11 28 67 47 37 58
REMARK Flexibility Score: inf
ROOT
ATOM      1  C   UNL A   1      34.106  28.173  24.735  1.00  0.00     0.042 C 
ENDROOT
BRANCH   1   2
ATOM      2  C   UNL A   1      32.859  27.423  24.283  1.00  0.00     0.117 C 
BRANCH   2   3
ATOM      3  N   UNL A   1      33.139  26.376  23.311  1.00  0.00    -0.355 N 
ATOM      4  C   UNL A   1      33.425  25.047  23.431  1.00  0.00     0.228 C 
ATOM      5  O   UNL A   1      33.730  24.479  22.379  1.00  0.00    -0.274 OA
ATOM      6  H   UNL A   1      33.117  26.689  22.379  1.00  0.00     0.163 HD
BRANCH   4   7
ATOM      7  C   UNL A   1      33.444  24.315  24.793  1.00  0.00     0.067 C 
ATOM      8  C   UNL A   1      32.319  24.985  25.647  1.00  0.00     0.020 C 
ATOM      9  C   UNL A   1      33.249  22.785  24.603  1.00  0.00     0.138 C 
ATOM     10  C   UNL A   1      31.769  24.122  26.774  1.00  0.00     0.023 C 
ATOM     11  N   UNL A   1      32.767  22.124  25.825  1.00  0.00    -0.324 N 
ATOM     12  C   UNL A   1      31.527  22.699  26.306  1.00  0.00     0.121 C 
BRANCH   7  13
ATOM     13  C   UNL A   1      34.793  24.591  25.553  1.00  0.00     0.018 C 
BRANCH  13  14
ATOM     14  C   UNL A   1      36.105  23.974  25.038  1.00  0.00    -0.002 C 
ATOM     15  C   UNL A   1      37.136  23.608  26.090  1.00  0.00     0.004 C 
ENDBRANCH  13  14
ENDBRANCH   7  13
BRANCH  11  16
ATOM     16  C   UNL A   1      33.517  21.124  26.357  1.00  0.00     0.317 C 
ATOM     17  O   UNL A   1      34.420  21.357  27.171  1.00  0.00    -0.249 OA
ATOM     18  N   UNL A   1      33.369  19.820  26.094  1.00  0.00    -0.333 N 
ATOM     19  H   UNL A   1      33.964  19.304  26.684  1.00  0.00     0.165 HD
BRANCH  18  20
ATOM     20  C   UNL A   1      32.630  18.897  25.237  1.00  0.00     0.112 C 
ATOM     21  C   UNL A   1      32.931  18.933  23.758  1.00  0.00     0.056 C 
ATOM     22  C   UNL A   1      32.654  17.437  25.653  1.00  0.00     0.185 C 
ATOM     23  C   UNL A   1      33.045  17.480  23.341  1.00  0.00     0.162 C 
ATOM     24  O   UNL A   1      32.789  16.643  24.471  1.00  0.00    -0.379 OA
ENDBRANCH  18  20
ENDBRANCH  11  16
ENDBRANCH   4   7
ENDBRANCH   2   3
ENDBRANCH   1   2
BRANCH   1  25
ATOM     25  C   UNL A   1      34.131  28.498  26.216  1.00  0.00     0.118 C 
BRANCH  25  26
ATOM     26  N   UNL A   1      33.800  29.890  26.479  1.00  0.00    -0.352 N 
ATOM     27  C   UNL A   1      34.333  30.761  27.394  1.00  0.00     0.251 C 
ATOM     28  H   UNL A   1      33.085  30.264  25.915  1.00  0.00     0.163 HD
ATOM     29  O   UNL A   1      33.756  31.825  27.621  1.00  0.00    -0.269 OA
BRANCH  27  30
ATOM     30  C   UNL A   1      35.579  30.422  28.117  1.00  0.00     0.039 A 
ATOM     31  C   UNL A   1      35.505  29.644  29.274  1.00  0.00     0.014 A 
ATOM     32  C   UNL A   1      36.817  30.888  27.669  1.00  0.00     0.014 A 
ATOM     33  C   UNL A   1      36.675  29.291  29.949  1.00  0.00     0.010 A 
ATOM     34  C   UNL A   1      37.987  30.450  28.279  1.00  0.00     0.010 A 
ATOM     35  C   UNL A   1      37.929  29.666  29.440  1.00  0.00    -0.014 A 
BRANCH  35  36
ATOM     36  C   UNL A   1      39.192  29.285  30.123  1.00  0.00     0.031 A 
ATOM     37  C   UNL A   1      39.631  30.028  31.358  1.00  0.00     0.074 A 
ATOM     38  C   UNL A   1      39.971  28.316  29.601  1.00  0.00     0.049 A 
ATOM     39  N   UNL A   1      40.728  29.891  32.056  1.00  0.00    -0.248 NA
ATOM     40  C   UNL A   1      38.731  31.082  31.858  1.00  0.00     0.031 C 
ATOM     41  C   UNL A   1      39.676  27.549  28.388  1.00  0.00     0.029 A 
ATOM     42  N   UNL A   1      41.176  27.813  30.024  1.00  0.00    -0.354 N 
ATOM     43  C   UNL A   1      40.660  30.852  33.059  1.00  0.00     0.074 A 
ATOM     44  C   UNL A   1      39.444  31.602  32.846  1.00  0.00     0.031 C 
ATOM     45  C   UNL A   1      40.657  26.655  28.183  1.00  0.00     0.029 A 
ATOM     46  C   UNL A   1      41.671  26.813  29.220  1.00  0.00     0.049 A 
ATOM     47  H   UNL A   1      41.642  28.138  30.828  1.00  0.00     0.167 HD
ATOM     48  C   UNL A   1      41.519  31.075  34.082  1.00  0.00     0.031 A 
ATOM     49  C   UNL A   1      42.815  26.107  29.304  1.00  0.00     0.031 A 
ATOM     50  C   UNL A   1      42.720  30.314  34.301  1.00  0.00     0.049 A 
ATOM     51  C   UNL A   1      43.761  26.381  30.443  1.00  0.00     0.074 A 
ATOM     52  C   UNL A   1      43.630  30.423  35.338  1.00  0.00     0.029 A 
ATOM     53  N   UNL A   1      43.178  29.303  33.470  1.00  0.00    -0.354 N 
ATOM     54  N   UNL A   1      43.645  27.251  31.419  1.00  0.00    -0.248 NA
ATOM     55  C   UNL A   1      44.983  25.568  30.500  1.00  0.00     0.031 C 
ATOM     56  C   UNL A   1      44.668  29.516  35.102  1.00  0.00     0.029 A 
ATOM     57  C   UNL A   1      44.371  28.796  33.956  1.00  0.00     0.049 A 
ATOM     58  H   UNL A   1      42.723  28.992  32.654  1.00  0.00     0.167 HD
ATOM     59  C   UNL A   1      44.766  27.067  32.222  1.00  0.00     0.074 A 
ATOM     60  C   UNL A   1      45.536  25.994  31.627  1.00  0.00     0.031 C 
ATOM     61  C   UNL A   1      45.123  27.724  33.353  1.00  0.00     0.031 A 
BRANCH  48  62
ATOM     62  C   UNL A   1      41.190  32.190  35.041  1.00  0.00    -0.014 A 
ATOM     63  C   UNL A   1      41.631  33.506  34.808  1.00  0.00     0.010 A 
ATOM     64  C   UNL A   1      40.396  31.927  36.172  1.00  0.00     0.010 A 
ATOM     65  C   UNL A   1      41.320  34.528  35.709  1.00  0.00     0.020 A 
ATOM     66  C   UNL A   1      40.055  32.953  37.058  1.00  0.00     0.020 A 
ATOM     67  C   UNL A   1      40.534  34.244  36.830  1.00  0.00     0.054 A 
BRANCH  67  68
ATOM     68  S   UNL A   1      40.123  35.597  37.965  1.00  0.00     0.124 S 
ATOM     69  O   UNL A   1      41.348  35.711  38.753  1.00  0.00    -0.237 OA
ATOM     70  O   UNL A   1      39.857  36.708  37.055  1.00  0.00    -0.237 OA
ATOM     71  O   UNL A   1      38.958  35.099  38.693  1.00  0.00    -0.744 OA
ENDBRANCH  67  68
ENDBRANCH  48  62
BRANCH  49  72
ATOM     72  C   UNL A   1      43.124  25.064  28.287  1.00  0.00    -0.014 A 
ATOM     73  C   UNL A   1      43.777  25.404  27.088  1.00  0.00     0.010 A 
ATOM     74  C   UNL A   1      42.773  23.721  28.515  1.00  0.00     0.010 A 
ATOM     75  C   UNL A   1      44.051  24.426  26.128  1.00  0.00     0.020 A 
ATOM     76  C   UNL A   1      43.073  22.735  27.571  1.00  0.00     0.020 A 
ATOM     77  C   UNL A   1      43.699  23.097  26.377  1.00  0.00     0.054 A 
BRANCH  77  78
ATOM     78  S   UNL A   1      44.104  21.837  25.134  1.00  0.00     0.124 S 
ATOM     79  O   UNL A   1      43.997  22.593  23.890  1.00  0.00    -0.237 OA
ATOM     80  O   UNL A   1      45.455  21.439  25.520  1.00  0.00    -0.237 OA
ATOM     81  O   UNL A   1      43.079  20.815  25.337  1.00  0.00    -0.744 OA
ENDBRANCH  77  78
ENDBRANCH  49  72
BRANCH  61  82
ATOM     82  C   UNL A   1      46.381  27.278  34.049  1.00  0.00    -0.014 A 
ATOM     83  C   UNL A   1      46.363  26.256  35.014  1.00  0.00     0.010 A 
ATOM     84  C   UNL A   1      47.613  27.856  33.686  1.00  0.00     0.010 A 
ATOM     85  C   UNL A   1      47.549  25.842  35.626  1.00  0.00     0.020 A 
ATOM     86  C   UNL A   1      48.804  27.423  34.272  1.00  0.00     0.020 A 
ATOM     87  C   UNL A   1      48.762  26.428  35.250  1.00  0.00     0.054 A 
BRANCH  87  88
ATOM     88  S   UNL A   1      50.292  25.840  36.028  1.00  0.00     0.124 S 
ATOM     89  O   UNL A   1      49.789  25.192  37.236  1.00  0.00    -0.237 OA
ATOM     90  O   UNL A   1      50.842  24.944  35.015  1.00  0.00    -0.237 OA
ATOM     91  O   UNL A   1      51.060  27.064  36.251  1.00  0.00    -0.744 OA
ENDBRANCH  87  88
ENDBRANCH  61  82
ENDBRANCH  35  36
ENDBRANCH  27  30
ENDBRANCH  25  26
ENDBRANCH   1  25
TORSDOF 17
ENDMDL
