MODEL 1
REMARK VINA RESULT:     -11.8      0.000      0.000
REMARK SMILES O=C(CSc1nc2cccnc2n1CC(F)(F)F)NCCCNC(=O)c1ccc(-c2c3nc(c(-c4ccc(S(=O)(=O)[O-])cc4)c4ccc([nH]4)c(-c4ccc(S(=O)(=O)[O-])cc4)c4nc(c(-c5ccc(S(=O)(=O)[O-])cc5)c5ccc2[nH]5)C=C4)C=C3)cc1
REMARK SMILES IDX 20 1 19 2 1 3 2 4 3 6 4 7 5 8 6 9 13 10 7 11 12 12 8 13
REMARK SMILES IDX 11 14 9 15 10 16 14 17 15 18 16 19 17 20 18 21 21 22 22 23
REMARK SMILES IDX 23 24 24 25 25 27 26 28 27 29 85 30 28 31 84 32 29 33 30 34
REMARK SMILES IDX 31 35 78 36 32 37 83 38 77 39 79 40 33 41 82 42 76 43 75 44
REMARK SMILES IDX 34 46 64 47 45 48 63 49 46 50 49 51 62 52 80 53 47 54 48 55
REMARK SMILES IDX 61 57 81 58 50 59 35 60 36 61 44 62 37 63 43 64 38 65 39 66
REMARK SMILES IDX 40 67 41 68 42 69 65 70 66 71 74 72 67 73 73 74 68 75 69 76
REMARK SMILES IDX 70 77 71 78 72 79 51 80 52 81 60 82 53 83 59 84 54 85 55 86
REMARK SMILES IDX 56 87 57 88 58 89
REMARK H PARENT 19 5 23 26 79 45 49 56
REMARK Flexibility Score: inf
ROOT
ATOM      1  C   UNL A   1      39.639  22.232  26.814  1.00  0.00     0.117 C 
ENDROOT
BRANCH   1   2
ATOM      2  N   UNL A   1      38.479  22.204  25.941  1.00  0.00    -0.355 N 
ATOM      3  O   UNL A   1      37.730  24.321  26.427  1.00  0.00    -0.274 OA
ATOM      4  C   UNL A   1      37.632  23.278  25.782  1.00  0.00     0.230 C 
ATOM      5  H   UNL A   1      38.289  21.378  25.439  1.00  0.00     0.163 HD
BRANCH   4   6
ATOM      6  C   UNL A   1      36.483  23.061  24.815  1.00  0.00     0.178 C 
BRANCH   6   7
ATOM      7  S   UNL A   1      34.921  22.668  25.636  1.00  0.00    -0.078 SA
BRANCH   7   8
ATOM      8  C   UNL A   1      34.550  21.092  25.024  1.00  0.00     0.171 A 
ATOM      9  N   UNL A   1      35.419  20.105  25.042  1.00  0.00    -0.221 NA
ATOM     10  N   UNL A   1      33.316  20.692  24.575  1.00  0.00    -0.294 N 
ATOM     11  C   UNL A   1      34.727  19.013  24.591  1.00  0.00     0.109 A 
ATOM     12  C   UNL A   1      33.416  19.352  24.286  1.00  0.00     0.160 A 
ATOM     13  C   UNL A   1      35.119  17.683  24.405  1.00  0.00     0.034 A 
ATOM     14  N   UNL A   1      32.448  18.545  23.807  1.00  0.00    -0.237 NA
ATOM     15  C   UNL A   1      34.158  16.797  23.916  1.00  0.00     0.022 A 
ATOM     16  C   UNL A   1      32.878  17.270  23.641  1.00  0.00     0.113 A 
BRANCH  10  17
ATOM     17  C   UNL A   1      32.118  21.469  24.354  1.00  0.00     0.241 C 
BRANCH  17  18
ATOM     18  C   UNL A   1      32.023  22.102  22.987  1.00  0.00     0.406 C 
ATOM     19  F   UNL A   1      33.215  22.552  22.549  1.00  0.00    -0.169 F 
ATOM     20  F   UNL A   1      31.601  21.179  22.087  1.00  0.00    -0.169 F 
ATOM     21  F   UNL A   1      31.146  23.126  22.948  1.00  0.00    -0.169 F 
ENDBRANCH  17  18
ENDBRANCH  10  17
ENDBRANCH   7   8
ENDBRANCH   6   7
ENDBRANCH   4   6
ENDBRANCH   1   2
BRANCH   1  22
ATOM     22  C   UNL A   1      40.842  21.474  26.247  1.00  0.00     0.042 C 
BRANCH  22  23
ATOM     23  C   UNL A   1      42.165  21.897  26.869  1.00  0.00     0.118 C 
BRANCH  23  24
ATOM     24  N   UNL A   1      43.166  22.305  25.888  1.00  0.00    -0.352 N 
ATOM     25  C   UNL A   1      43.447  23.575  25.421  1.00  0.00     0.251 C 
ATOM     26  H   UNL A   1      43.714  21.580  25.510  1.00  0.00     0.163 HD
ATOM     27  O   UNL A   1      44.074  23.711  24.378  1.00  0.00    -0.269 OA
BRANCH  25  28
ATOM     28  C   UNL A   1      42.987  24.762  26.179  1.00  0.00     0.039 A 
ATOM     29  C   UNL A   1      43.539  25.061  27.428  1.00  0.00     0.014 A 
ATOM     30  C   UNL A   1      41.964  25.557  25.662  1.00  0.00     0.014 A 
ATOM     31  C   UNL A   1      43.097  26.192  28.114  1.00  0.00     0.010 A 
ATOM     32  C   UNL A   1      41.610  26.735  26.278  1.00  0.00     0.010 A 
ATOM     33  C   UNL A   1      42.139  27.033  27.525  1.00  0.00    -0.014 A 
BRANCH  33  34
ATOM     34  C   UNL A   1      41.764  28.292  28.154  1.00  0.00     0.031 A 
ATOM     35  C   UNL A   1      42.747  29.386  27.953  1.00  0.00     0.074 A 
ATOM     36  C   UNL A   1      40.561  28.530  28.719  1.00  0.00     0.049 A 
ATOM     37  N   UNL A   1      43.602  29.825  28.813  1.00  0.00    -0.248 NA
ATOM     38  C   UNL A   1      42.910  29.953  26.605  1.00  0.00     0.031 C 
ATOM     39  C   UNL A   1      39.372  27.668  28.745  1.00  0.00     0.029 A 
ATOM     40  N   UNL A   1      40.119  29.662  29.333  1.00  0.00    -0.354 N 
ATOM     41  C   UNL A   1      44.254  30.885  28.197  1.00  0.00     0.074 A 
ATOM     42  C   UNL A   1      43.927  30.799  26.796  1.00  0.00     0.031 C 
ATOM     43  C   UNL A   1      38.297  28.385  29.149  1.00  0.00     0.029 A 
ATOM     44  C   UNL A   1      38.750  29.696  29.579  1.00  0.00     0.049 A 
ATOM     45  H   UNL A   1      40.721  30.399  29.584  1.00  0.00     0.167 HD
ATOM     46  C   UNL A   1      44.797  31.899  28.926  1.00  0.00     0.031 A 
ATOM     47  C   UNL A   1      38.049  30.730  30.110  1.00  0.00     0.031 A 
ATOM     48  C   UNL A   1      44.823  31.584  30.332  1.00  0.00     0.049 A 
ATOM     49  C   UNL A   1      39.025  31.531  30.887  1.00  0.00     0.074 A 
ATOM     50  C   UNL A   1      45.440  30.637  31.121  1.00  0.00     0.029 A 
ATOM     51  N   UNL A   1      43.784  32.095  31.072  1.00  0.00    -0.354 N 
ATOM     52  N   UNL A   1      39.645  31.084  31.944  1.00  0.00    -0.248 NA
ATOM     53  C   UNL A   1      39.623  32.695  30.255  1.00  0.00     0.031 C 
ATOM     54  C   UNL A   1      44.487  30.323  32.134  1.00  0.00     0.029 A 
ATOM     55  C   UNL A   1      43.364  31.132  31.950  1.00  0.00     0.049 A 
ATOM     56  H   UNL A   1      43.405  32.999  30.985  1.00  0.00     0.167 HD
ATOM     57  C   UNL A   1      40.918  31.627  31.860  1.00  0.00     0.074 A 
ATOM     58  C   UNL A   1      40.808  32.697  30.870  1.00  0.00     0.031 C 
ATOM     59  C   UNL A   1      41.994  30.985  32.399  1.00  0.00     0.031 A 
BRANCH  46  60
ATOM     60  C   UNL A   1      44.878  33.330  28.457  1.00  0.00    -0.014 A 
ATOM     61  C   UNL A   1      45.820  34.185  29.066  1.00  0.00     0.010 A 
ATOM     62  C   UNL A   1      43.870  33.934  27.677  1.00  0.00     0.010 A 
ATOM     63  C   UNL A   1      45.710  35.577  28.963  1.00  0.00     0.020 A 
ATOM     64  C   UNL A   1      43.778  35.320  27.534  1.00  0.00     0.020 A 
ATOM     65  C   UNL A   1      44.680  36.134  28.205  1.00  0.00     0.054 A 
BRANCH  65  66
ATOM     66  S   UNL A   1      44.473  37.931  28.187  1.00  0.00     0.124 S 
ATOM     67  O   UNL A   1      43.447  38.110  27.164  1.00  0.00    -0.237 OA
ATOM     68  O   UNL A   1      44.056  38.203  29.559  1.00  0.00    -0.237 OA
ATOM     69  O   UNL A   1      45.802  38.424  27.833  1.00  0.00    -0.744 OA
ENDBRANCH  65  66
ENDBRANCH  46  60
BRANCH  47  70
ATOM     70  C   UNL A   1      36.721  31.269  29.705  1.00  0.00    -0.014 A 
ATOM     71  C   UNL A   1      35.844  31.793  30.677  1.00  0.00     0.010 A 
ATOM     72  C   UNL A   1      36.450  31.570  28.355  1.00  0.00     0.010 A 
ATOM     73  C   UNL A   1      34.804  32.671  30.325  1.00  0.00     0.020 A 
ATOM     74  C   UNL A   1      35.408  32.438  27.995  1.00  0.00     0.020 A 
ATOM     75  C   UNL A   1      34.616  33.016  28.985  1.00  0.00     0.054 A 
BRANCH  75  76
ATOM     76  S   UNL A   1      33.403  34.303  28.562  1.00  0.00     0.124 S 
ATOM     77  O   UNL A   1      32.828  34.637  29.862  1.00  0.00    -0.237 OA
ATOM     78  O   UNL A   1      34.242  35.335  27.959  1.00  0.00    -0.237 OA
ATOM     79  O   UNL A   1      32.492  33.628  27.638  1.00  0.00    -0.744 OA
ENDBRANCH  75  76
ENDBRANCH  47  70
BRANCH  59  80
ATOM     80  C   UNL A   1      41.751  29.892  33.409  1.00  0.00    -0.014 A 
ATOM     81  C   UNL A   1      41.569  28.535  33.080  1.00  0.00     0.010 A 
ATOM     82  C   UNL A   1      41.923  30.244  34.759  1.00  0.00     0.010 A 
ATOM     83  C   UNL A   1      41.580  27.554  34.087  1.00  0.00     0.020 A 
ATOM     84  C   UNL A   1      41.950  29.273  35.760  1.00  0.00     0.020 A 
ATOM     85  C   UNL A   1      41.790  27.931  35.419  1.00  0.00     0.054 A 
BRANCH  85  86
ATOM     86  S   UNL A   1      41.906  26.656  36.707  1.00  0.00     0.124 S 
ATOM     87  O   UNL A   1      43.065  27.086  37.485  1.00  0.00    -0.237 OA
ATOM     88  O   UNL A   1      40.616  26.770  37.385  1.00  0.00    -0.237 OA
ATOM     89  O   UNL A   1      42.095  25.416  35.956  1.00  0.00    -0.744 OA
ENDBRANCH  85  86
ENDBRANCH  59  80
ENDBRANCH  33  34
ENDBRANCH  25  28
ENDBRANCH  23  24
ENDBRANCH  22  23
ENDBRANCH   1  22
TORSDOF 17
ENDMDL
MODEL 2
REMARK VINA RESULT:     -11.7      2.112      3.394
REMARK SMILES O=C(CSc1nc2cccnc2n1CC(F)(F)F)NCCCNC(=O)c1ccc(-c2c3nc(c(-c4ccc(S(=O)(=O)[O-])cc4)c4ccc([nH]4)c(-c4ccc(S(=O)(=O)[O-])cc4)c4nc(c(-c5ccc(S(=O)(=O)[O-])cc5)c5ccc2[nH]5)C=C4)C=C3)cc1
REMARK SMILES IDX 20 1 19 2 1 3 2 4 3 6 4 7 5 8 6 9 13 10 7 11 12 12 8 13
REMARK SMILES IDX 11 14 9 15 10 16 14 17 15 18 16 19 17 20 18 21 21 22 22 23
REMARK SMILES IDX 23 24 24 25 25 27 26 28 27 29 85 30 28 31 84 32 29 33 30 34
REMARK SMILES IDX 31 35 78 36 32 37 83 38 77 39 79 40 33 41 82 42 76 43 75 44
REMARK SMILES IDX 34 46 64 47 45 48 63 49 46 50 49 51 62 52 80 53 47 54 48 55
REMARK SMILES IDX 61 57 81 58 50 59 35 60 36 61 44 62 37 63 43 64 38 65 39 66
REMARK SMILES IDX 40 67 41 68 42 69 65 70 66 71 74 72 67 73 73 74 68 75 69 76
REMARK SMILES IDX 70 77 71 78 72 79 51 80 52 81 60 82 53 83 59 84 54 85 55 86
REMARK SMILES IDX 56 87 57 88 58 89
REMARK H PARENT 19 5 23 26 79 45 49 56
REMARK Flexibility Score: inf
ROOT
ATOM      1  C   UNL A   1      38.262  22.033  25.762  1.00  0.00     0.117 C 
ENDROOT
BRANCH   1   2
ATOM      2  N   UNL A   1      36.870  22.255  26.113  1.00  0.00    -0.355 N 
ATOM      3  O   UNL A   1      36.296  23.406  24.210  1.00  0.00    -0.274 OA
ATOM      4  C   UNL A   1      35.978  22.893  25.281  1.00  0.00     0.230 C 
ATOM      5  H   UNL A   1      36.550  21.934  26.987  1.00  0.00     0.163 HD
BRANCH   4   6
ATOM      6  C   UNL A   1      34.564  23.016  25.819  1.00  0.00     0.178 C 
BRANCH   6   7
ATOM      7  S   UNL A   1      33.377  23.598  24.585  1.00  0.00    -0.078 SA
BRANCH   7   8
ATOM      8  C   UNL A   1      33.235  25.282  24.954  1.00  0.00     0.171 A 
ATOM      9  N   UNL A   1      33.847  25.836  25.977  1.00  0.00    -0.221 NA
ATOM     10  N   UNL A   1      32.581  26.205  24.176  1.00  0.00    -0.294 N 
ATOM     11  C   UNL A   1      33.588  27.176  25.865  1.00  0.00     0.109 A 
ATOM     12  C   UNL A   1      32.795  27.434  24.755  1.00  0.00     0.160 A 
ATOM     13  C   UNL A   1      33.983  28.262  26.654  1.00  0.00     0.034 A 
ATOM     14  N   UNL A   1      32.331  28.628  24.335  1.00  0.00    -0.237 NA
ATOM     15  C   UNL A   1      33.538  29.527  26.265  1.00  0.00     0.022 A 
ATOM     16  C   UNL A   1      32.737  29.646  25.133  1.00  0.00     0.113 A 
BRANCH  10  17
ATOM     17  C   UNL A   1      31.753  26.008  23.008  1.00  0.00     0.241 C 
BRANCH  17  18
ATOM     18  C   UNL A   1      32.507  25.984  21.700  1.00  0.00     0.406 C 
ATOM     19  F   UNL A   1      33.318  27.051  21.559  1.00  0.00    -0.169 F 
ATOM     20  F   UNL A   1      33.301  24.884  21.654  1.00  0.00    -0.169 F 
ATOM     21  F   UNL A   1      31.690  25.931  20.629  1.00  0.00    -0.169 F 
ENDBRANCH  17  18
ENDBRANCH  10  17
ENDBRANCH   7   8
ENDBRANCH   6   7
ENDBRANCH   4   6
ENDBRANCH   1   2
BRANCH   1  22
ATOM     22  C   UNL A   1      39.240  22.830  26.629  1.00  0.00     0.042 C 
BRANCH  22  23
ATOM     23  C   UNL A   1      40.336  21.970  27.240  1.00  0.00     0.118 C 
BRANCH  23  24
ATOM     24  N   UNL A   1      41.550  21.912  26.432  1.00  0.00    -0.352 N 
ATOM     25  C   UNL A   1      42.285  22.957  25.905  1.00  0.00     0.251 C 
ATOM     26  H   UNL A   1      41.892  21.009  26.238  1.00  0.00     0.163 HD
ATOM     27  O   UNL A   1      43.072  22.743  24.992  1.00  0.00    -0.269 OA
BRANCH  25  28
ATOM     28  C   UNL A   1      42.116  24.327  26.442  1.00  0.00     0.039 A 
ATOM     29  C   UNL A   1      41.550  25.332  25.652  1.00  0.00     0.014 A 
ATOM     30  C   UNL A   1      42.569  24.624  27.727  1.00  0.00     0.014 A 
ATOM     31  C   UNL A   1      41.390  26.610  26.189  1.00  0.00     0.010 A 
ATOM     32  C   UNL A   1      42.306  25.848  28.300  1.00  0.00     0.010 A 
ATOM     33  C   UNL A   1      41.760  26.856  27.521  1.00  0.00    -0.014 A 
BRANCH  33  34
ATOM     34  C   UNL A   1      41.475  28.140  28.149  1.00  0.00     0.031 A 
ATOM     35  C   UNL A   1      42.506  29.178  27.898  1.00  0.00     0.074 A 
ATOM     36  C   UNL A   1      40.308  28.447  28.754  1.00  0.00     0.049 A 
ATOM     37  N   UNL A   1      43.415  29.581  28.720  1.00  0.00    -0.248 NA
ATOM     38  C   UNL A   1      42.647  29.722  26.538  1.00  0.00     0.031 C 
ATOM     39  C   UNL A   1      39.078  27.649  28.835  1.00  0.00     0.029 A 
ATOM     40  N   UNL A   1      39.950  29.607  29.371  1.00  0.00    -0.354 N 
ATOM     41  C   UNL A   1      44.097  30.598  28.066  1.00  0.00     0.074 A 
ATOM     42  C   UNL A   1      43.713  30.515  26.680  1.00  0.00     0.031 C 
ATOM     43  C   UNL A   1      38.058  28.426  29.271  1.00  0.00     0.029 A 
ATOM     44  C   UNL A   1      38.595  29.715  29.667  1.00  0.00     0.049 A 
ATOM     45  H   UNL A   1      40.599  30.314  29.590  1.00  0.00     0.167 HD
ATOM     46  C   UNL A   1      44.720  31.590  28.763  1.00  0.00     0.031 A 
ATOM     47  C   UNL A   1      37.969  30.790  30.211  1.00  0.00     0.031 A 
ATOM     48  C   UNL A   1      44.783  31.288  30.170  1.00  0.00     0.049 A 
ATOM     49  C   UNL A   1      39.014  31.546  30.941  1.00  0.00     0.074 A 
ATOM     50  C   UNL A   1      45.379  30.318  30.948  1.00  0.00     0.029 A 
ATOM     51  N   UNL A   1      43.800  31.861  30.942  1.00  0.00    -0.354 N 
ATOM     52  N   UNL A   1      39.650  31.078  31.980  1.00  0.00    -0.248 NA
ATOM     53  C   UNL A   1      39.649  32.671  30.273  1.00  0.00     0.031 C 
ATOM     54  C   UNL A   1      44.450  30.065  31.999  1.00  0.00     0.029 A 
ATOM     55  C   UNL A   1      43.364  30.930  31.847  1.00  0.00     0.049 A 
ATOM     56  H   UNL A   1      43.466  32.783  30.859  1.00  0.00     0.167 HD
ATOM     57  C   UNL A   1      40.945  31.553  31.842  1.00  0.00     0.074 A 
ATOM     58  C   UNL A   1      40.854  32.616  30.844  1.00  0.00     0.031 C 
ATOM     59  C   UNL A   1      42.006  30.861  32.348  1.00  0.00     0.031 A 
BRANCH  46  60
ATOM     60  C   UNL A   1      44.857  33.009  28.273  1.00  0.00    -0.014 A 
ATOM     61  C   UNL A   1      46.152  33.511  28.024  1.00  0.00     0.010 A 
ATOM     62  C   UNL A   1      43.807  33.947  28.350  1.00  0.00     0.010 A 
ATOM     63  C   UNL A   1      46.392  34.888  27.933  1.00  0.00     0.020 A 
ATOM     64  C   UNL A   1      44.031  35.319  28.218  1.00  0.00     0.020 A 
ATOM     65  C   UNL A   1      45.327  35.783  28.044  1.00  0.00     0.054 A 
BRANCH  65  66
ATOM     66  S   UNL A   1      45.669  37.559  28.055  1.00  0.00     0.124 S 
ATOM     67  O   UNL A   1      45.980  37.800  29.461  1.00  0.00    -0.237 OA
ATOM     68  O   UNL A   1      46.794  37.659  27.130  1.00  0.00    -0.237 OA
ATOM     69  O   UNL A   1      44.421  38.151  27.582  1.00  0.00    -0.744 OA
ENDBRANCH  65  66
ENDBRANCH  46  60
BRANCH  47  70
ATOM     70  C   UNL A   1      36.657  31.395  29.849  1.00  0.00    -0.014 A 
ATOM     71  C   UNL A   1      35.815  31.911  30.855  1.00  0.00     0.010 A 
ATOM     72  C   UNL A   1      36.378  31.759  28.517  1.00  0.00     0.010 A 
ATOM     73  C   UNL A   1      34.804  32.841  30.554  1.00  0.00     0.020 A 
ATOM     74  C   UNL A   1      35.364  32.679  28.208  1.00  0.00     0.020 A 
ATOM     75  C   UNL A   1      34.609  33.246  29.233  1.00  0.00     0.054 A 
BRANCH  75  76
ATOM     76  S   UNL A   1      33.440  34.594  28.880  1.00  0.00     0.124 S 
ATOM     77  O   UNL A   1      32.854  34.856  30.192  1.00  0.00    -0.237 OA
ATOM     78  O   UNL A   1      34.317  35.639  28.361  1.00  0.00    -0.237 OA
ATOM     79  O   UNL A   1      32.526  34.010  27.900  1.00  0.00    -0.744 OA
ENDBRANCH  75  76
ENDBRANCH  47  70
BRANCH  59  80
ATOM     80  C   UNL A   1      41.745  29.793  33.380  1.00  0.00    -0.014 A 
ATOM     81  C   UNL A   1      41.527  28.434  33.077  1.00  0.00     0.010 A 
ATOM     82  C   UNL A   1      41.935  30.165  34.722  1.00  0.00     0.010 A 
ATOM     83  C   UNL A   1      41.522  27.471  34.102  1.00  0.00     0.020 A 
ATOM     84  C   UNL A   1      41.946  29.212  35.740  1.00  0.00     0.020 A 
ATOM     85  C   UNL A   1      41.751  27.868  35.425  1.00  0.00     0.054 A 
BRANCH  85  86
ATOM     86  S   UNL A   1      41.847  26.614  36.736  1.00  0.00     0.124 S 
ATOM     87  O   UNL A   1      40.582  26.790  37.445  1.00  0.00    -0.237 OA
ATOM     88  O   UNL A   1      41.975  25.371  35.978  1.00  0.00    -0.237 OA
ATOM     89  O   UNL A   1      43.037  26.992  37.497  1.00  0.00    -0.744 OA
ENDBRANCH  85  86
ENDBRANCH  59  80
ENDBRANCH  33  34
ENDBRANCH  25  28
ENDBRANCH  23  24
ENDBRANCH  22  23
ENDBRANCH   1  22
TORSDOF 17
ENDMDL
MODEL 3
REMARK VINA RESULT:     -11.6      1.323      2.238
REMARK SMILES O=C(CSc1nc2cccnc2n1CC(F)(F)F)NCCCNC(=O)c1ccc(-c2c3nc(c(-c4ccc(S(=O)(=O)[O-])cc4)c4ccc([nH]4)c(-c4ccc(S(=O)(=O)[O-])cc4)c4nc(c(-c5ccc(S(=O)(=O)[O-])cc5)c5ccc2[nH]5)C=C4)C=C3)cc1
REMARK SMILES IDX 20 1 19 2 1 3 2 4 3 6 4 7 5 8 6 9 13 10 7 11 12 12 8 13
REMARK SMILES IDX 11 14 9 15 10 16 14 17 15 18 16 19 17 20 18 21 21 22 22 23
REMARK SMILES IDX 23 24 24 25 25 27 26 28 27 29 85 30 28 31 84 32 29 33 30 34
REMARK SMILES IDX 31 35 78 36 32 37 83 38 77 39 79 40 33 41 82 42 76 43 75 44
REMARK SMILES IDX 34 46 64 47 45 48 63 49 46 50 49 51 62 52 80 53 47 54 48 55
REMARK SMILES IDX 61 57 81 58 50 59 35 60 36 61 44 62 37 63 43 64 38 65 39 66
REMARK SMILES IDX 40 67 41 68 42 69 65 70 66 71 74 72 67 73 73 74 68 75 69 76
REMARK SMILES IDX 70 77 71 78 72 79 51 80 52 81 60 82 53 83 59 84 54 85 55 86
REMARK SMILES IDX 56 87 57 88 58 89
REMARK H PARENT 19 5 23 26 79 45 49 56
REMARK Flexibility Score: inf
ROOT
ATOM      1  C   UNL A   1      39.928  21.812  26.858  1.00  0.00     0.117 C 
ENDROOT
BRANCH   1   2
ATOM      2  N   UNL A   1      39.049  22.733  26.160  1.00  0.00    -0.355 N 
ATOM      3  O   UNL A   1      37.695  21.139  25.210  1.00  0.00    -0.274 OA
ATOM      4  C   UNL A   1      37.964  22.320  25.419  1.00  0.00     0.230 C 
ATOM      5  H   UNL A   1      39.236  23.698  26.220  1.00  0.00     0.163 HD
BRANCH   4   6
ATOM      6  C   UNL A   1      37.156  23.432  24.777  1.00  0.00     0.178 C 
BRANCH   6   7
ATOM      7  S   UNL A   1      35.899  22.831  23.625  1.00  0.00    -0.078 SA
BRANCH   7   8
ATOM      8  C   UNL A   1      34.421  23.173  24.455  1.00  0.00     0.171 A 
ATOM      9  N   UNL A   1      33.808  24.333  24.360  1.00  0.00    -0.221 NA
ATOM     10  N   UNL A   1      33.699  22.262  25.186  1.00  0.00    -0.294 N 
ATOM     11  C   UNL A   1      32.637  24.176  25.051  1.00  0.00     0.109 A 
ATOM     12  C   UNL A   1      32.546  22.896  25.583  1.00  0.00     0.160 A 
ATOM     13  C   UNL A   1      31.578  25.059  25.286  1.00  0.00     0.034 A 
ATOM     14  N   UNL A   1      31.547  22.385  26.329  1.00  0.00    -0.237 NA
ATOM     15  C   UNL A   1      30.509  24.584  26.050  1.00  0.00     0.022 A 
ATOM     16  C   UNL A   1      30.548  23.279  26.532  1.00  0.00     0.113 A 
BRANCH  10  17
ATOM     17  C   UNL A   1      34.038  20.910  25.568  1.00  0.00     0.241 C 
BRANCH  17  18
ATOM     18  C   UNL A   1      33.386  19.837  24.729  1.00  0.00     0.406 C 
ATOM     19  F   UNL A   1      32.937  20.313  23.551  1.00  0.00    -0.169 F 
ATOM     20  F   UNL A   1      34.296  18.874  24.438  1.00  0.00    -0.169 F 
ATOM     21  F   UNL A   1      32.358  19.236  25.360  1.00  0.00    -0.169 F 
ENDBRANCH  17  18
ENDBRANCH  10  17
ENDBRANCH   7   8
ENDBRANCH   6   7
ENDBRANCH   4   6
ENDBRANCH   1   2
BRANCH   1  22
ATOM     22  C   UNL A   1      40.724  22.472  27.987  1.00  0.00     0.042 C 
BRANCH  22  23
ATOM     23  C   UNL A   1      42.194  22.077  27.994  1.00  0.00     0.118 C 
BRANCH  23  24
ATOM     24  N   UNL A   1      42.834  22.191  26.687  1.00  0.00    -0.352 N 
ATOM     25  C   UNL A   1      42.880  23.284  25.842  1.00  0.00     0.251 C 
ATOM     26  H   UNL A   1      43.295  21.382  26.365  1.00  0.00     0.163 HD
ATOM     27  O   UNL A   1      43.163  23.125  24.662  1.00  0.00    -0.269 OA
BRANCH  25  28
ATOM     28  C   UNL A   1      42.585  24.638  26.366  1.00  0.00     0.039 A 
ATOM     29  C   UNL A   1      41.581  25.418  25.785  1.00  0.00     0.014 A 
ATOM     30  C   UNL A   1      43.347  25.153  27.415  1.00  0.00     0.014 A 
ATOM     31  C   UNL A   1      41.315  26.684  26.307  1.00  0.00     0.010 A 
ATOM     32  C   UNL A   1      43.010  26.348  28.008  1.00  0.00     0.010 A 
ATOM     33  C   UNL A   1      42.028  27.137  27.429  1.00  0.00    -0.014 A 
BRANCH  33  34
ATOM     34  C   UNL A   1      41.675  28.393  28.080  1.00  0.00     0.031 A 
ATOM     35  C   UNL A   1      42.668  29.477  27.880  1.00  0.00     0.074 A 
ATOM     36  C   UNL A   1      40.482  28.637  28.662  1.00  0.00     0.049 A 
ATOM     37  N   UNL A   1      43.539  29.896  28.735  1.00  0.00    -0.248 NA
ATOM     38  C   UNL A   1      42.821  30.060  26.537  1.00  0.00     0.031 C 
ATOM     39  C   UNL A   1      39.284  27.788  28.692  1.00  0.00     0.029 A 
ATOM     40  N   UNL A   1      40.061  29.766  29.296  1.00  0.00    -0.354 N 
ATOM     41  C   UNL A   1      44.196  30.956  28.123  1.00  0.00     0.074 A 
ATOM     42  C   UNL A   1      43.849  30.891  26.725  1.00  0.00     0.031 C 
ATOM     43  C   UNL A   1      38.222  28.513  29.120  1.00  0.00     0.029 A 
ATOM     44  C   UNL A   1      38.696  29.812  29.560  1.00  0.00     0.049 A 
ATOM     45  H   UNL A   1      40.675  30.493  29.549  1.00  0.00     0.167 HD
ATOM     46  C   UNL A   1      44.760  31.954  28.859  1.00  0.00     0.031 A 
ATOM     47  C   UNL A   1      38.013  30.847  30.113  1.00  0.00     0.031 A 
ATOM     48  C   UNL A   1      44.800  31.620  30.259  1.00  0.00     0.049 A 
ATOM     49  C   UNL A   1      39.008  31.627  30.888  1.00  0.00     0.074 A 
ATOM     50  C   UNL A   1      45.415  30.657  31.029  1.00  0.00     0.029 A 
ATOM     51  N   UNL A   1      43.775  32.134  31.019  1.00  0.00    -0.354 N 
ATOM     52  N   UNL A   1      39.637  31.160  31.931  1.00  0.00    -0.248 NA
ATOM     53  C   UNL A   1      39.612  32.792  30.263  1.00  0.00     0.031 C 
ATOM     54  C   UNL A   1      44.472  30.341  32.050  1.00  0.00     0.029 A 
ATOM     55  C   UNL A   1      43.355  31.165  31.890  1.00  0.00     0.049 A 
ATOM     56  H   UNL A   1      43.406  33.044  30.949  1.00  0.00     0.167 HD
ATOM     57  C   UNL A   1      40.914  31.689  31.838  1.00  0.00     0.074 A 
ATOM     58  C   UNL A   1      40.804  32.773  30.863  1.00  0.00     0.031 C 
ATOM     59  C   UNL A   1      41.990  31.028  32.355  1.00  0.00     0.031 A 
BRANCH  46  60
ATOM     60  C   UNL A   1      44.851  33.390  28.406  1.00  0.00    -0.014 A 
ATOM     61  C   UNL A   1      45.951  34.161  28.836  1.00  0.00     0.010 A 
ATOM     62  C   UNL A   1      43.758  34.083  27.846  1.00  0.00     0.010 A 
ATOM     63  C   UNL A   1      45.924  35.560  28.780  1.00  0.00     0.020 A 
ATOM     64  C   UNL A   1      43.740  35.476  27.746  1.00  0.00     0.020 A 
ATOM     65  C   UNL A   1      44.809  36.207  28.244  1.00  0.00     0.054 A 
BRANCH  65  66
ATOM     66  S   UNL A   1      44.732  38.014  28.296  1.00  0.00     0.124 S 
ATOM     67  O   UNL A   1      44.014  38.324  27.064  1.00  0.00    -0.237 OA
ATOM     68  O   UNL A   1      43.999  38.251  29.536  1.00  0.00    -0.237 OA
ATOM     69  O   UNL A   1      46.137  38.416  28.319  1.00  0.00    -0.744 OA
ENDBRANCH  65  66
ENDBRANCH  46  60
BRANCH  47  70
ATOM     70  C   UNL A   1      36.687  31.407  29.732  1.00  0.00    -0.014 A 
ATOM     71  C   UNL A   1      35.827  31.926  30.722  1.00  0.00     0.010 A 
ATOM     72  C   UNL A   1      36.403  31.730  28.390  1.00  0.00     0.010 A 
ATOM     73  C   UNL A   1      34.793  32.821  30.394  1.00  0.00     0.020 A 
ATOM     74  C   UNL A   1      35.366  32.615  28.054  1.00  0.00     0.020 A 
ATOM     75  C   UNL A   1      34.593  33.187  29.063  1.00  0.00     0.054 A 
BRANCH  75  76
ATOM     76  S   UNL A   1      33.389  34.493  28.672  1.00  0.00     0.124 S 
ATOM     77  O   UNL A   1      32.774  34.755  29.970  1.00  0.00    -0.237 OA
ATOM     78  O   UNL A   1      34.243  35.557  28.152  1.00  0.00    -0.237 OA
ATOM     79  O   UNL A   1      32.510  33.868  27.685  1.00  0.00    -0.744 OA
ENDBRANCH  75  76
ENDBRANCH  47  70
BRANCH  59  80
ATOM     80  C   UNL A   1      41.747  29.925  33.354  1.00  0.00    -0.014 A 
ATOM     81  C   UNL A   1      41.615  28.565  33.016  1.00  0.00     0.010 A 
ATOM     82  C   UNL A   1      41.866  30.278  34.709  1.00  0.00     0.010 A 
ATOM     83  C   UNL A   1      41.622  27.581  34.020  1.00  0.00     0.020 A 
ATOM     84  C   UNL A   1      41.889  29.305  35.708  1.00  0.00     0.020 A 
ATOM     85  C   UNL A   1      41.779  27.959  35.359  1.00  0.00     0.054 A 
BRANCH  85  86
ATOM     86  S   UNL A   1      41.891  26.684  36.647  1.00  0.00     0.124 S 
ATOM     87  O   UNL A   1      40.640  26.853  37.381  1.00  0.00    -0.237 OA
ATOM     88  O   UNL A   1      42.001  25.453  35.867  1.00  0.00    -0.237 OA
ATOM     89  O   UNL A   1      43.096  27.045  37.393  1.00  0.00    -0.744 OA
ENDBRANCH  85  86
ENDBRANCH  59  80
ENDBRANCH  33  34
ENDBRANCH  25  28
ENDBRANCH  23  24
ENDBRANCH  22  23
ENDBRANCH   1  22
TORSDOF 17
ENDMDL
