MODEL 1
REMARK VINA RESULT:     -13.2      0.000      0.000
REMARK SMILES Cc1ccccc1OC1(C(=O)NCCCNC(=O)c2ccc(-c3c4nc(c(-c5ccc(S(=O)(=O)[O-])cc5)c5ccc([nH]5)c(-c5ccc(S(=O)(=O)[O-])cc5)c5nc(c(-c6ccc(S(=O)(=O)[O-])cc6)c6ccc3[nH]6)C=C5)C=C4)cc2)CCN(C(=O)[C@H]2CCCCO2)CC1
REMARK SMILES IDX 14 1 13 2 12 3 10 4 11 5 9 7 79 8 91 9 80 10 90 11 81 12
REMARK SMILES IDX 82 13 83 14 8 15 7 16 1 17 2 18 3 19 4 20 6 21 5 22 84 23
REMARK SMILES IDX 85 24 89 25 86 26 88 27 87 28 15 29 16 30 17 31 18 33 19 34
REMARK SMILES IDX 20 35 78 36 21 37 77 38 22 39 23 40 24 41 71 42 25 43 76 44
REMARK SMILES IDX 70 45 72 46 26 47 75 48 69 49 68 50 27 52 57 53 38 54 56 55
REMARK SMILES IDX 39 56 42 57 55 58 73 59 40 60 41 61 54 63 74 64 43 65 28 66
REMARK SMILES IDX 29 67 37 68 30 69 36 70 31 71 32 72 33 73 34 74 35 75 58 76
REMARK SMILES IDX 59 77 67 78 60 79 66 80 61 81 62 82 63 83 64 84 65 85 44 86
REMARK SMILES IDX 45 87 53 88 46 89 52 90 47 91 48 92 49 93 50 94 51 95
REMARK H PARENT 12 6 16 32 72 51 42 62
REMARK Flexibility Score: inf
ROOT
ATOM      1  C   UNL A   1      33.097  31.325  27.250  1.00  0.00     0.042 C 
ENDROOT
BRANCH   1   2
ATOM      2  C   UNL A   1      33.749  29.836  27.058  1.00  0.00     0.118 C 
BRANCH   2   3
ATOM      3  N   UNL A   1      34.422  29.320  25.822  1.00  0.00    -0.353 N 
ATOM      4  C   UNL A   1      34.013  28.678  24.648  1.00  0.00     0.264 C 
ATOM      5  O   UNL A   1      34.677  28.832  23.614  1.00  0.00    -0.270 OA
ATOM      6  H   UNL A   1      35.395  29.470  25.842  1.00  0.00     0.163 HD
BRANCH   4   7
ATOM      7  C   UNL A   1      32.771  27.674  24.643  1.00  0.00     0.190 C 
ATOM      8  C   UNL A   1      32.693  27.309  23.164  1.00  0.00     0.080 C 
ATOM      9  C   UNL A   1      33.068  26.649  25.725  1.00  0.00     0.080 C 
ATOM     10  C   UNL A   1      33.271  25.958  22.803  1.00  0.00     0.124 C 
ATOM     11  C   UNL A   1      33.433  25.257  25.267  1.00  0.00     0.124 C 
ATOM     12  N   UNL A   1      33.278  24.922  23.851  1.00  0.00    -0.340 N 
ATOM     13  C   UNL A   1      33.305  23.603  23.386  1.00  0.00     0.251 C 
ATOM     14  O   UNL A   1      33.196  23.346  22.184  1.00  0.00    -0.272 OA
BRANCH   7  15
ATOM     15  O   UNL A   1      31.506  28.341  24.997  1.00  0.00    -0.477 OA
BRANCH  15  16
ATOM     16  C   UNL A   1      30.355  28.505  24.240  1.00  0.00     0.123 A 
ATOM     17  C   UNL A   1      29.288  26.138  23.968  1.00  0.00     0.048 C 
ATOM     18  C   UNL A   1      29.355  27.611  23.801  1.00  0.00    -0.009 A 
ATOM     19  C   UNL A   1      28.236  28.074  23.055  1.00  0.00     0.007 A 
ATOM     20  C   UNL A   1      28.103  29.396  22.678  1.00  0.00     0.001 A 
ATOM     21  C   UNL A   1      30.194  29.843  23.822  1.00  0.00     0.047 A 
ATOM     22  C   UNL A   1      29.096  30.282  23.052  1.00  0.00     0.004 A 
ENDBRANCH  15  16
ENDBRANCH   7  15
BRANCH  13  23
ATOM     23  C   UNL A   1      33.428  22.470  24.428  1.00  0.00     0.207 C 
ATOM     24  C   UNL A   1      32.394  21.380  24.110  1.00  0.00     0.042 C 
ATOM     25  O   UNL A   1      34.761  21.952  24.352  1.00  0.00    -0.368 OA
ATOM     26  C   UNL A   1      32.635  20.099  24.889  1.00  0.00     0.006 C 
ATOM     27  C   UNL A   1      34.987  20.830  25.189  1.00  0.00     0.161 C 
ATOM     28  C   UNL A   1      34.089  19.680  24.768  1.00  0.00     0.029 C 
ENDBRANCH  13  23
ENDBRANCH   4   7
ENDBRANCH   2   3
ENDBRANCH   1   2
BRANCH   1  29
ATOM     29  C   UNL A   1      33.976  32.379  28.093  1.00  0.00     0.118 C 
BRANCH  29  30
ATOM     30  N   UNL A   1      35.319  32.165  28.939  1.00  0.00    -0.352 N 
ATOM     31  C   UNL A   1      36.600  31.443  28.958  1.00  0.00     0.251 C 
ATOM     32  H   UNL A   1      35.268  32.724  29.747  1.00  0.00     0.163 HD
ATOM     33  O   UNL A   1      37.562  32.203  29.193  1.00  0.00    -0.269 OA
BRANCH  31  34
ATOM     34  C   UNL A   1      37.077  29.939  28.722  1.00  0.00     0.039 A 
ATOM     35  C   UNL A   1      37.297  29.025  29.799  1.00  0.00     0.014 A 
ATOM     36  C   UNL A   1      37.379  29.367  27.505  1.00  0.00     0.014 A 
ATOM     37  C   UNL A   1      38.398  28.097  29.740  1.00  0.00     0.010 A 
ATOM     38  C   UNL A   1      38.433  28.419  27.428  1.00  0.00     0.010 A 
ATOM     39  C   UNL A   1      39.134  27.986  28.562  1.00  0.00    -0.014 A 
BRANCH  39  40
ATOM     40  C   UNL A   1      40.586  27.560  28.461  1.00  0.00     0.031 A 
ATOM     41  C   UNL A   1      40.922  26.170  28.183  1.00  0.00     0.074 A 
ATOM     42  C   UNL A   1      41.708  28.343  28.451  1.00  0.00     0.049 A 
ATOM     43  N   UNL A   1      41.787  25.473  28.842  1.00  0.00    -0.248 NA
ATOM     44  C   UNL A   1      40.320  25.479  27.058  1.00  0.00     0.031 C 
ATOM     45  C   UNL A   1      43.142  28.074  28.219  1.00  0.00     0.029 A 
ATOM     46  N   UNL A   1      41.777  29.705  28.627  1.00  0.00    -0.354 N 
ATOM     47  C   UNL A   1      42.090  24.404  28.029  1.00  0.00     0.074 A 
ATOM     48  C   UNL A   1      41.015  24.342  27.063  1.00  0.00     0.031 C 
ATOM     49  C   UNL A   1      43.882  29.116  28.675  1.00  0.00     0.029 A 
ATOM     50  C   UNL A   1      42.966  30.086  29.238  1.00  0.00     0.049 A 
ATOM     51  H   UNL A   1      41.071  30.333  28.354  1.00  0.00     0.167 HD
ATOM     52  C   UNL A   1      43.330  23.832  28.047  1.00  0.00     0.031 A 
ATOM     53  C   UNL A   1      42.899  30.614  30.499  1.00  0.00     0.031 A 
ATOM     54  C   UNL A   1      44.277  24.602  28.867  1.00  0.00     0.049 A 
ATOM     55  C   UNL A   1      43.413  29.610  31.486  1.00  0.00     0.074 A 
ATOM     56  C   UNL A   1      45.356  25.411  28.534  1.00  0.00     0.029 A 
ATOM     57  N   UNL A   1      43.987  24.883  30.199  1.00  0.00    -0.354 N 
ATOM     58  N   UNL A   1      43.686  28.387  31.145  1.00  0.00    -0.248 NA
ATOM     59  C   UNL A   1      43.685  29.862  32.894  1.00  0.00     0.031 C 
ATOM     60  C   UNL A   1      45.639  26.253  29.644  1.00  0.00     0.029 A 
ATOM     61  C   UNL A   1      44.764  25.930  30.666  1.00  0.00     0.049 A 
ATOM     62  H   UNL A   1      43.320  24.401  30.738  1.00  0.00     0.167 HD
ATOM     63  C   UNL A   1      44.200  27.701  32.194  1.00  0.00     0.074 A 
ATOM     64  C   UNL A   1      44.174  28.666  33.281  1.00  0.00     0.031 C 
ATOM     65  C   UNL A   1      44.610  26.411  32.040  1.00  0.00     0.031 A 
BRANCH  52  66
ATOM     66  C   UNL A   1      43.757  22.763  27.057  1.00  0.00    -0.014 A 
ATOM     67  C   UNL A   1      42.929  21.655  26.794  1.00  0.00     0.010 A 
ATOM     68  C   UNL A   1      44.959  22.817  26.319  1.00  0.00     0.010 A 
ATOM     69  C   UNL A   1      43.311  20.632  25.908  1.00  0.00     0.020 A 
ATOM     70  C   UNL A   1      45.382  21.779  25.479  1.00  0.00     0.020 A 
ATOM     71  C   UNL A   1      44.546  20.693  25.268  1.00  0.00     0.054 A 
BRANCH  71  72
ATOM     72  S   UNL A   1      45.015  19.386  24.107  1.00  0.00     0.124 S 
ATOM     73  O   UNL A   1      44.339  18.213  24.653  1.00  0.00    -0.237 OA
ATOM     74  O   UNL A   1      44.486  19.888  22.841  1.00  0.00    -0.237 OA
ATOM     75  O   UNL A   1      46.476  19.350  24.193  1.00  0.00    -0.744 OA
ENDBRANCH  71  72
ENDBRANCH  52  66
BRANCH  53  76
ATOM     76  C   UNL A   1      41.746  31.599  30.707  1.00  0.00    -0.014 A 
ATOM     77  C   UNL A   1      40.488  30.965  30.726  1.00  0.00     0.010 A 
ATOM     78  C   UNL A   1      41.915  32.539  31.712  1.00  0.00     0.010 A 
ATOM     79  C   UNL A   1      39.944  30.603  31.965  1.00  0.00     0.020 A 
ATOM     80  C   UNL A   1      41.227  32.298  32.916  1.00  0.00     0.020 A 
ATOM     81  C   UNL A   1      40.502  31.132  33.117  1.00  0.00     0.054 A 
BRANCH  81  82
ATOM     82  S   UNL A   1      40.415  29.950  34.754  1.00  0.00     0.124 S 
ATOM     83  O   UNL A   1      38.995  30.060  35.036  1.00  0.00    -0.237 OA
ATOM     84  O   UNL A   1      40.740  28.591  34.335  1.00  0.00    -0.237 OA
ATOM     85  O   UNL A   1      41.268  30.490  35.780  1.00  0.00    -0.744 OA
ENDBRANCH  81  82
ENDBRANCH  53  76
BRANCH  65  86
ATOM     86  C   UNL A   1      45.008  25.494  33.155  1.00  0.00    -0.014 A 
ATOM     87  C   UNL A   1      46.319  25.059  33.383  1.00  0.00     0.010 A 
ATOM     88  C   UNL A   1      44.026  25.132  34.108  1.00  0.00     0.010 A 
ATOM     89  C   UNL A   1      46.621  24.232  34.467  1.00  0.00     0.020 A 
ATOM     90  C   UNL A   1      44.328  24.360  35.224  1.00  0.00     0.020 A 
ATOM     91  C   UNL A   1      45.621  23.885  35.377  1.00  0.00     0.054 A 
BRANCH  91  92
ATOM     92  S   UNL A   1      46.039  22.839  36.787  1.00  0.00     0.124 S 
ATOM     93  O   UNL A   1      47.489  22.999  36.857  1.00  0.00    -0.237 OA
ATOM     94  O   UNL A   1      45.288  23.455  37.878  1.00  0.00    -0.237 OA
ATOM     95  O   UNL A   1      45.572  21.514  36.387  1.00  0.00    -0.744 OA
ENDBRANCH  91  92
ENDBRANCH  65  86
ENDBRANCH  39  40
ENDBRANCH  31  34
ENDBRANCH  29  30
ENDBRANCH   1  29
TORSDOF 16
ENDMDL
MODEL 2
REMARK VINA RESULT:     -13.1      4.421     10.703
REMARK SMILES Cc1ccccc1OC1(C(=O)NCCCNC(=O)c2ccc(-c3c4nc(c(-c5ccc(S(=O)(=O)[O-])cc5)c5ccc([nH]5)c(-c5ccc(S(=O)(=O)[O-])cc5)c5nc(c(-c6ccc(S(=O)(=O)[O-])cc6)c6ccc3[nH]6)C=C5)C=C4)cc2)CCN(C(=O)[C@H]2CCCCO2)CC1
REMARK SMILES IDX 14 1 13 2 12 3 10 4 11 5 9 7 79 8 91 9 80 10 90 11 81 12
REMARK SMILES IDX 82 13 83 14 8 15 7 16 1 17 2 18 3 19 4 20 6 21 5 22 84 23
REMARK SMILES IDX 85 24 89 25 86 26 88 27 87 28 15 29 16 30 17 31 18 33 19 34
REMARK SMILES IDX 20 35 78 36 21 37 77 38 22 39 23 40 24 41 71 42 25 43 76 44
REMARK SMILES IDX 70 45 72 46 26 47 75 48 69 49 68 50 27 52 57 53 38 54 56 55
REMARK SMILES IDX 39 56 42 57 55 58 73 59 40 60 41 61 54 63 74 64 43 65 28 66
REMARK SMILES IDX 29 67 37 68 30 69 36 70 31 71 32 72 33 73 34 74 35 75 58 76
REMARK SMILES IDX 59 77 67 78 60 79 66 80 61 81 62 82 63 83 64 84 65 85 44 86
REMARK SMILES IDX 45 87 53 88 46 89 52 90 47 91 48 92 49 93 50 94 51 95
REMARK H PARENT 12 6 16 32 72 51 42 62
REMARK Flexibility Score: inf
ROOT
ATOM      1  C   UNL A   1      38.608  21.649  25.668  1.00  0.00     0.042 C 
ENDROOT
BRANCH   1   2
ATOM      2  C   UNL A   1      37.453  22.775  25.947  1.00  0.00     0.118 C 
BRANCH   2   3
ATOM      3  N   UNL A   1      36.307  22.646  26.904  1.00  0.00    -0.353 N 
ATOM      4  C   UNL A   1      34.933  22.401  26.800  1.00  0.00     0.264 C 
ATOM      5  O   UNL A   1      34.345  21.851  27.741  1.00  0.00    -0.270 OA
ATOM      6  H   UNL A   1      36.592  22.761  27.839  1.00  0.00     0.163 HD
BRANCH   4   7
ATOM      7  C   UNL A   1      34.095  22.911  25.539  1.00  0.00     0.190 C 
ATOM      8  C   UNL A   1      32.666  22.719  26.039  1.00  0.00     0.080 C 
ATOM      9  C   UNL A   1      34.665  24.276  25.192  1.00  0.00     0.080 C 
ATOM     10  C   UNL A   1      31.972  23.981  26.503  1.00  0.00     0.124 C 
ATOM     11  C   UNL A   1      33.802  25.477  25.500  1.00  0.00     0.124 C 
ATOM     12  N   UNL A   1      32.415  25.255  25.909  1.00  0.00    -0.340 N 
ATOM     13  C   UNL A   1      31.466  26.284  25.928  1.00  0.00     0.251 C 
ATOM     14  O   UNL A   1      30.307  26.079  26.300  1.00  0.00    -0.272 OA
BRANCH   7  15
ATOM     15  O   UNL A   1      34.267  22.043  24.361  1.00  0.00    -0.477 OA
BRANCH  15  16
ATOM     16  C   UNL A   1      33.629  20.853  24.043  1.00  0.00     0.123 A 
ATOM     17  C   UNL A   1      31.748  21.436  22.331  1.00  0.00     0.048 C 
ATOM     18  C   UNL A   1      32.577  20.528  23.162  1.00  0.00    -0.009 A 
ATOM     19  C   UNL A   1      32.144  19.182  23.002  1.00  0.00     0.007 A 
ATOM     20  C   UNL A   1      32.687  18.147  23.736  1.00  0.00     0.001 A 
ATOM     21  C   UNL A   1      34.148  19.771  24.788  1.00  0.00     0.047 A 
ATOM     22  C   UNL A   1      33.686  18.446  24.645  1.00  0.00     0.004 A 
ENDBRANCH  15  16
ENDBRANCH   7  15
BRANCH  13  23
ATOM     23  C   UNL A   1      31.900  27.678  25.426  1.00  0.00     0.207 C 
ATOM     24  C   UNL A   1      30.716  28.346  24.712  1.00  0.00     0.042 C 
ATOM     25  O   UNL A   1      32.311  28.442  26.566  1.00  0.00    -0.368 OA
ATOM     26  C   UNL A   1      30.948  29.824  24.450  1.00  0.00     0.006 C 
ATOM     27  C   UNL A   1      32.641  29.787  26.262  1.00  0.00     0.161 C 
ATOM     28  C   UNL A   1      31.423  30.511  25.717  1.00  0.00     0.029 C 
ENDBRANCH  13  23
ENDBRANCH   4   7
ENDBRANCH   2   3
ENDBRANCH   1   2
BRANCH   1  29
ATOM     29  C   UNL A   1      39.981  21.825  26.491  1.00  0.00     0.118 C 
BRANCH  29  30
ATOM     30  N   UNL A   1      41.031  23.035  26.507  1.00  0.00    -0.352 N 
ATOM     31  C   UNL A   1      41.223  24.425  26.945  1.00  0.00     0.251 C 
ATOM     32  H   UNL A   1      41.853  22.736  26.057  1.00  0.00     0.163 HD
ATOM     33  O   UNL A   1      42.302  24.579  27.555  1.00  0.00    -0.269 OA
BRANCH  31  34
ATOM     34  C   UNL A   1      40.388  25.782  26.867  1.00  0.00     0.039 A 
ATOM     35  C   UNL A   1      40.884  26.953  26.213  1.00  0.00     0.014 A 
ATOM     36  C   UNL A   1      39.157  26.008  27.443  1.00  0.00     0.014 A 
ATOM     37  C   UNL A   1      40.629  28.253  26.778  1.00  0.00     0.010 A 
ATOM     38  C   UNL A   1      38.865  27.294  27.971  1.00  0.00     0.010 A 
ATOM     39  C   UNL A   1      39.760  28.368  27.862  1.00  0.00    -0.014 A 
BRANCH  39  40
ATOM     40  C   UNL A   1      39.801  29.454  28.920  1.00  0.00     0.031 A 
ATOM     41  C   UNL A   1      38.793  30.506  28.926  1.00  0.00     0.074 A 
ATOM     42  C   UNL A   1      40.600  29.539  30.027  1.00  0.00     0.049 A 
ATOM     43  N   UNL A   1      39.046  31.769  29.025  1.00  0.00    -0.248 NA
ATOM     44  C   UNL A   1      37.382  30.173  28.882  1.00  0.00     0.031 C 
ATOM     45  C   UNL A   1      40.644  30.449  31.190  1.00  0.00     0.029 A 
ATOM     46  N   UNL A   1      41.625  28.695  30.383  1.00  0.00    -0.354 N 
ATOM     47  C   UNL A   1      37.855  32.351  29.398  1.00  0.00     0.074 A 
ATOM     48  C   UNL A   1      36.837  31.373  29.084  1.00  0.00     0.031 C 
ATOM     49  C   UNL A   1      41.841  30.331  31.817  1.00  0.00     0.029 A 
ATOM     50  C   UNL A   1      42.626  29.364  31.078  1.00  0.00     0.049 A 
ATOM     51  H   UNL A   1      41.647  27.734  30.173  1.00  0.00     0.167 HD
ATOM     52  C   UNL A   1      37.830  33.469  30.182  1.00  0.00     0.031 A 
ATOM     53  C   UNL A   1      43.851  29.487  30.479  1.00  0.00     0.031 A 
ATOM     54  C   UNL A   1      39.167  33.814  30.687  1.00  0.00     0.049 A 
ATOM     55  C   UNL A   1      44.044  30.904  30.032  1.00  0.00     0.074 A 
ATOM     56  C   UNL A   1      39.740  33.720  31.948  1.00  0.00     0.029 A 
ATOM     57  N   UNL A   1      40.222  34.015  29.802  1.00  0.00    -0.354 N 
ATOM     58  N   UNL A   1      43.083  31.778  30.074  1.00  0.00    -0.248 NA
ATOM     59  C   UNL A   1      45.286  31.479  29.533  1.00  0.00     0.031 C 
ATOM     60  C   UNL A   1      41.154  33.759  31.797  1.00  0.00     0.029 A 
ATOM     61  C   UNL A   1      41.441  33.919  30.453  1.00  0.00     0.049 A 
ATOM     62  H   UNL A   1      40.117  34.201  28.842  1.00  0.00     0.167 HD
ATOM     63  C   UNL A   1      43.526  32.996  29.686  1.00  0.00     0.074 A 
ATOM     64  C   UNL A   1      44.920  32.763  29.344  1.00  0.00     0.031 C 
ATOM     65  C   UNL A   1      42.692  34.073  29.709  1.00  0.00     0.031 A 
BRANCH  52  66
ATOM     66  C   UNL A   1      36.545  34.046  30.750  1.00  0.00    -0.014 A 
ATOM     67  C   UNL A   1      35.427  34.264  29.922  1.00  0.00     0.010 A 
ATOM     68  C   UNL A   1      36.367  34.360  32.114  1.00  0.00     0.010 A 
ATOM     69  C   UNL A   1      34.236  34.828  30.411  1.00  0.00     0.020 A 
ATOM     70  C   UNL A   1      35.210  34.977  32.607  1.00  0.00     0.020 A 
ATOM     71  C   UNL A   1      34.141  35.198  31.751  1.00  0.00     0.054 A 
BRANCH  71  72
ATOM     72  S   UNL A   1      32.593  35.895  32.378  1.00  0.00     0.124 S 
ATOM     73  O   UNL A   1      31.886  34.717  32.871  1.00  0.00    -0.237 OA
ATOM     74  O   UNL A   1      33.062  36.825  33.402  1.00  0.00    -0.237 OA
ATOM     75  O   UNL A   1      31.993  36.526  31.202  1.00  0.00    -0.744 OA
ENDBRANCH  71  72
ENDBRANCH  52  66
BRANCH  53  76
ATOM     76  C   UNL A   1      44.328  28.224  29.759  1.00  0.00    -0.014 A 
ATOM     77  C   UNL A   1      43.702  28.044  28.508  1.00  0.00     0.010 A 
ATOM     78  C   UNL A   1      45.697  28.010  29.735  1.00  0.00     0.010 A 
ATOM     79  C   UNL A   1      44.351  28.523  27.365  1.00  0.00     0.020 A 
ATOM     80  C   UNL A   1      46.357  28.309  28.528  1.00  0.00     0.020 A 
ATOM     81  C   UNL A   1      45.686  28.881  27.457  1.00  0.00     0.054 A 
BRANCH  81  82
ATOM     82  S   UNL A   1      46.279  30.375  26.233  1.00  0.00     0.124 S 
ATOM     83  O   UNL A   1      46.482  29.605  25.019  1.00  0.00    -0.237 OA
ATOM     84  O   UNL A   1      45.149  31.285  26.067  1.00  0.00    -0.237 OA
ATOM     85  O   UNL A   1      47.473  30.981  26.760  1.00  0.00    -0.744 OA
ENDBRANCH  81  82
ENDBRANCH  53  76
BRANCH  65  86
ATOM     86  C   UNL A   1      43.003  35.418  29.127  1.00  0.00    -0.014 A 
ATOM     87  C   UNL A   1      43.592  36.466  29.843  1.00  0.00     0.010 A 
ATOM     88  C   UNL A   1      42.795  35.611  27.740  1.00  0.00     0.010 A 
ATOM     89  C   UNL A   1      43.886  37.682  29.221  1.00  0.00     0.020 A 
ATOM     90  C   UNL A   1      43.141  36.795  27.098  1.00  0.00     0.020 A 
ATOM     91  C   UNL A   1      43.654  37.839  27.854  1.00  0.00     0.054 A 
BRANCH  91  92
ATOM     92  S   UNL A   1      44.067  39.407  27.065  1.00  0.00     0.124 S 
ATOM     93  O   UNL A   1      45.291  39.065  26.345  1.00  0.00    -0.237 OA
ATOM     94  O   UNL A   1      42.898  39.664  26.227  1.00  0.00    -0.237 OA
ATOM     95  O   UNL A   1      44.235  40.327  28.187  1.00  0.00    -0.744 OA
ENDBRANCH  91  92
ENDBRANCH  65  86
ENDBRANCH  39  40
ENDBRANCH  31  34
ENDBRANCH  29  30
ENDBRANCH   1  29
TORSDOF 16
ENDMDL
MODEL 3
REMARK VINA RESULT:     -12.9      1.561      2.108
REMARK SMILES Cc1ccccc1OC1(C(=O)NCCCNC(=O)c2ccc(-c3c4nc(c(-c5ccc(S(=O)(=O)[O-])cc5)c5ccc([nH]5)c(-c5ccc(S(=O)(=O)[O-])cc5)c5nc(c(-c6ccc(S(=O)(=O)[O-])cc6)c6ccc3[nH]6)C=C5)C=C4)cc2)CCN(C(=O)[C@H]2CCCCO2)CC1
REMARK SMILES IDX 14 1 13 2 12 3 10 4 11 5 9 7 79 8 91 9 80 10 90 11 81 12
REMARK SMILES IDX 82 13 83 14 8 15 7 16 1 17 2 18 3 19 4 20 6 21 5 22 84 23
REMARK SMILES IDX 85 24 89 25 86 26 88 27 87 28 15 29 16 30 17 31 18 33 19 34
REMARK SMILES IDX 20 35 78 36 21 37 77 38 22 39 23 40 24 41 71 42 25 43 76 44
REMARK SMILES IDX 70 45 72 46 26 47 75 48 69 49 68 50 27 52 57 53 38 54 56 55
REMARK SMILES IDX 39 56 42 57 55 58 73 59 40 60 41 61 54 63 74 64 43 65 28 66
REMARK SMILES IDX 29 67 37 68 30 69 36 70 31 71 32 72 33 73 34 74 35 75 58 76
REMARK SMILES IDX 59 77 67 78 60 79 66 80 61 81 62 82 63 83 64 84 65 85 44 86
REMARK SMILES IDX 45 87 53 88 46 89 52 90 47 91 48 92 49 93 50 94 51 95
REMARK H PARENT 12 6 16 32 72 51 42 62
REMARK Flexibility Score: inf
ROOT
ATOM      1  C   UNL A   1      32.007  31.641  26.814  1.00  0.00     0.042 C 
ENDROOT
BRANCH   1   2
ATOM      2  C   UNL A   1      32.887  30.280  26.588  1.00  0.00     0.118 C 
BRANCH   2   3
ATOM      3  N   UNL A   1      33.613  29.895  25.334  1.00  0.00    -0.353 N 
ATOM      4  C   UNL A   1      33.371  29.037  24.255  1.00  0.00     0.264 C 
ATOM      5  O   UNL A   1      33.873  29.298  23.154  1.00  0.00    -0.270 OA
ATOM      6  H   UNL A   1      34.474  30.363  25.248  1.00  0.00     0.163 HD
BRANCH   4   7
ATOM      7  C   UNL A   1      32.550  27.680  24.445  1.00  0.00     0.190 C 
ATOM      8  C   UNL A   1      32.492  27.168  23.010  1.00  0.00     0.080 C 
ATOM      9  C   UNL A   1      33.260  26.924  25.556  1.00  0.00     0.080 C 
ATOM     10  C   UNL A   1      33.468  26.060  22.680  1.00  0.00     0.124 C 
ATOM     11  C   UNL A   1      34.044  25.696  25.155  1.00  0.00     0.124 C 
ATOM     12  N   UNL A   1      33.907  25.193  23.788  1.00  0.00    -0.340 N 
ATOM     13  C   UNL A   1      34.348  23.920  23.410  1.00  0.00     0.251 C 
ATOM     14  O   UNL A   1      34.244  23.526  22.245  1.00  0.00    -0.272 OA
BRANCH   7  15
ATOM     15  O   UNL A   1      31.163  27.917  24.883  1.00  0.00    -0.477 OA
BRANCH  15  16
ATOM     16  C   UNL A   1      30.069  28.347  24.147  1.00  0.00     0.123 A 
ATOM     17  C   UNL A   1      28.543  26.263  23.773  1.00  0.00     0.048 C 
ATOM     18  C   UNL A   1      28.909  27.698  23.676  1.00  0.00    -0.009 A 
ATOM     19  C   UNL A   1      27.906  28.414  22.964  1.00  0.00     0.007 A 
ATOM     20  C   UNL A   1      28.045  29.752  22.652  1.00  0.00     0.001 A 
ATOM     21  C   UNL A   1      30.184  29.710  23.794  1.00  0.00     0.047 A 
ATOM     22  C   UNL A   1      29.198  30.400  23.058  1.00  0.00     0.004 A 
ENDBRANCH  15  16
ENDBRANCH   7  15
BRANCH  13  23
ATOM     23  C   UNL A   1      34.928  23.000  24.506  1.00  0.00     0.207 C 
ATOM     24  C   UNL A   1      34.390  21.576  24.305  1.00  0.00     0.042 C 
ATOM     25  O   UNL A   1      36.355  23.031  24.389  1.00  0.00    -0.368 OA
ATOM     26  C   UNL A   1      35.129  20.547  25.141  1.00  0.00     0.006 C 
ATOM     27  C   UNL A   1      37.021  22.146  25.275  1.00  0.00     0.161 C 
ATOM     28  C   UNL A   1      36.628  20.712  24.967  1.00  0.00     0.029 C 
ENDBRANCH  13  23
ENDBRANCH   4   7
ENDBRANCH   2   3
ENDBRANCH   1   2
BRANCH   1  29
ATOM     29  C   UNL A   1      32.764  32.859  27.547  1.00  0.00     0.118 C 
BRANCH  29  30
ATOM     30  N   UNL A   1      33.800  32.849  28.768  1.00  0.00    -0.352 N 
ATOM     31  C   UNL A   1      35.104  32.329  29.206  1.00  0.00     0.251 C 
ATOM     32  H   UNL A   1      33.425  33.395  29.497  1.00  0.00     0.163 HD
ATOM     33  O   UNL A   1      35.828  33.225  29.686  1.00  0.00    -0.269 OA
BRANCH  31  34
ATOM     34  C   UNL A   1      35.841  30.914  29.195  1.00  0.00     0.039 A 
ATOM     35  C   UNL A   1      36.200  30.225  30.395  1.00  0.00     0.014 A 
ATOM     36  C   UNL A   1      36.258  30.228  28.074  1.00  0.00     0.014 A 
ATOM     37  C   UNL A   1      37.448  29.507  30.465  1.00  0.00     0.010 A 
ATOM     38  C   UNL A   1      37.464  29.480  28.129  1.00  0.00     0.010 A 
ATOM     39  C   UNL A   1      38.211  29.351  29.308  1.00  0.00    -0.014 A 
BRANCH  39  40
ATOM     40  C   UNL A   1      39.717  29.177  29.258  1.00  0.00     0.031 A 
ATOM     41  C   UNL A   1      40.291  27.899  28.858  1.00  0.00     0.074 A 
ATOM     42  C   UNL A   1      40.693  30.125  29.402  1.00  0.00     0.049 A 
ATOM     43  N   UNL A   1      41.228  27.280  29.495  1.00  0.00    -0.248 NA
ATOM     44  C   UNL A   1      39.865  27.254  27.630  1.00  0.00     0.031 C 
ATOM     45  C   UNL A   1      42.160  30.117  29.236  1.00  0.00     0.029 A 
ATOM     46  N   UNL A   1      40.526  31.452  29.724  1.00  0.00    -0.354 N 
ATOM     47  C   UNL A   1      41.742  26.372  28.596  1.00  0.00     0.074 A 
ATOM     48  C   UNL A   1      40.739  26.249  27.561  1.00  0.00     0.031 C 
ATOM     49  C   UNL A   1      42.695  31.205  29.846  1.00  0.00     0.029 A 
ATOM     50  C   UNL A   1      41.605  31.946  30.447  1.00  0.00     0.049 A 
ATOM     51  H   UNL A   1      39.739  31.986  29.473  1.00  0.00     0.167 HD
ATOM     52  C   UNL A   1      43.058  26.007  28.634  1.00  0.00     0.031 A 
ATOM     53  C   UNL A   1      41.393  32.310  31.750  1.00  0.00     0.031 A 
ATOM     54  C   UNL A   1      43.824  26.821  29.590  1.00  0.00     0.049 A 
ATOM     55  C   UNL A   1      42.020  31.295  32.657  1.00  0.00     0.074 A 
ATOM     56  C   UNL A   1      44.768  27.823  29.413  1.00  0.00     0.029 A 
ATOM     57  N   UNL A   1      43.430  26.898  30.922  1.00  0.00    -0.354 N 
ATOM     58  N   UNL A   1      42.508  30.178  32.209  1.00  0.00    -0.248 NA
ATOM     59  C   UNL A   1      42.181  31.425  34.099  1.00  0.00     0.031 C 
ATOM     60  C   UNL A   1      44.855  28.568  30.622  1.00  0.00     0.029 A 
ATOM     61  C   UNL A   1      44.000  27.995  31.546  1.00  0.00     0.049 A 
ATOM     62  H   UNL A   1      42.827  26.257  31.363  1.00  0.00     0.167 HD
ATOM     63  C   UNL A   1      43.079  29.468  33.211  1.00  0.00     0.074 A 
ATOM     64  C   UNL A   1      42.843  30.286  34.389  1.00  0.00     0.031 C 
ATOM     65  C   UNL A   1      43.704  28.286  32.949  1.00  0.00     0.031 A 
BRANCH  52  66
ATOM     66  C   UNL A   1      43.702  25.140  27.567  1.00  0.00    -0.014 A 
ATOM     67  C   UNL A   1      44.012  23.791  27.828  1.00  0.00     0.010 A 
ATOM     68  C   UNL A   1      43.992  25.593  26.263  1.00  0.00     0.010 A 
ATOM     69  C   UNL A   1      44.639  22.973  26.873  1.00  0.00     0.020 A 
ATOM     70  C   UNL A   1      44.670  24.810  25.319  1.00  0.00     0.020 A 
ATOM     71  C   UNL A   1      44.980  23.494  25.627  1.00  0.00     0.054 A 
BRANCH  71  72
ATOM     72  S   UNL A   1      45.760  22.424  24.393  1.00  0.00     0.124 S 
ATOM     73  O   UNL A   1      44.625  21.979  23.590  1.00  0.00    -0.237 OA
ATOM     74  O   UNL A   1      46.685  23.337  23.727  1.00  0.00    -0.237 OA
ATOM     75  O   UNL A   1      46.397  21.376  25.192  1.00  0.00    -0.744 OA
ENDBRANCH  71  72
ENDBRANCH  52  66
BRANCH  53  76
ATOM     76  C   UNL A   1      40.085  33.067  31.985  1.00  0.00    -0.014 A 
ATOM     77  C   UNL A   1      38.956  32.224  31.949  1.00  0.00     0.010 A 
ATOM     78  C   UNL A   1      40.077  33.969  33.038  1.00  0.00     0.010 A 
ATOM     79  C   UNL A   1      38.472  31.710  33.158  1.00  0.00     0.020 A 
ATOM     80  C   UNL A   1      39.430  33.550  34.216  1.00  0.00     0.020 A 
ATOM     81  C   UNL A   1      38.918  32.268  34.345  1.00  0.00     0.054 A 
BRANCH  81  82
ATOM     82  S   UNL A   1      39.022  31.006  35.920  1.00  0.00     0.124 S 
ATOM     83  O   UNL A   1      39.436  29.804  35.219  1.00  0.00    -0.237 OA
ATOM     84  O   UNL A   1      40.096  31.474  36.791  1.00  0.00    -0.237 OA
ATOM     85  O   UNL A   1      37.729  30.914  36.546  1.00  0.00    -0.744 OA
ENDBRANCH  81  82
ENDBRANCH  53  76
BRANCH  65  86
ATOM     86  C   UNL A   1      44.196  27.323  33.986  1.00  0.00    -0.014 A 
ATOM     87  C   UNL A   1      45.480  27.359  34.542  1.00  0.00     0.010 A 
ATOM     88  C   UNL A   1      43.278  26.390  34.523  1.00  0.00     0.010 A 
ATOM     89  C   UNL A   1      45.857  26.449  35.533  1.00  0.00     0.020 A 
ATOM     90  C   UNL A   1      43.624  25.521  35.552  1.00  0.00     0.020 A 
ATOM     91  C   UNL A   1      44.927  25.534  36.027  1.00  0.00     0.054 A 
BRANCH  91  92
ATOM     92  S   UNL A   1      45.426  24.387  37.327  1.00  0.00     0.124 S 
ATOM     93  O   UNL A   1      46.830  24.741  37.513  1.00  0.00    -0.237 OA
ATOM     94  O   UNL A   1      44.538  24.745  38.431  1.00  0.00    -0.237 OA
ATOM     95  O   UNL A   1      45.182  23.071  36.742  1.00  0.00    -0.744 OA
ENDBRANCH  91  92
ENDBRANCH  65  86
ENDBRANCH  39  40
ENDBRANCH  31  34
ENDBRANCH  29  30
ENDBRANCH   1  29
TORSDOF 16
ENDMDL
