MODEL 1
REMARK VINA RESULT:     -12.9      0.000      0.000
REMARK SMILES Cc1ccccc1/C=C1\SC(=S)N(CCC(=O)N[C@@H](C)C(=O)NCCCNC(=O)c2ccc(-c3c4nc(c(-c5ccc(S(=O)(=O)[O-])cc5)c5ccc([nH]5)c(-c5ccc(S(=O)(=O)[O-])cc5)c5nc(c(-c6ccc(S(=O)(=O)[O-])cc6)c6ccc3[nH]6)C=C5)C=C4)cc2)C1=O
REMARK SMILES IDX 24 1 23 2 21 3 22 4 19 6 20 7 18 8 16 9 17 10 15 12 14 13
REMARK SMILES IDX 13 14 8 15 9 16 10 17 90 18 11 19 91 20 12 21 7 22 1 23 2 24
REMARK SMILES IDX 3 25 4 26 6 27 5 28 25 29 26 30 27 31 28 32 29 34 30 35
REMARK SMILES IDX 31 36 89 37 32 38 88 39 33 40 34 41 35 42 82 43 36 44 87 45
REMARK SMILES IDX 81 46 83 47 37 48 86 49 80 50 79 51 38 53 68 54 49 55 67 56
REMARK SMILES IDX 50 57 53 58 66 59 84 60 51 61 52 62 65 64 85 65 54 66 39 67
REMARK SMILES IDX 40 68 48 69 41 70 47 71 42 72 43 73 44 74 45 75 46 76 69 77
REMARK SMILES IDX 70 78 78 79 71 80 77 81 72 82 73 83 74 84 75 85 76 86 55 87
REMARK SMILES IDX 56 88 64 89 57 90 63 91 58 92 59 93 60 94 61 95 62 96
REMARK H PARENT 23 5 18 11 27 33 83 52 53 63
REMARK Flexibility Score: inf
ROOT
ATOM      1  C   UNL A   1      32.691  29.912  25.679  1.00  0.00     0.117 C 
ENDROOT
BRANCH   1   2
ATOM      2  N   UNL A   1      31.516  29.171  25.228  1.00  0.00    -0.354 N 
ATOM      3  C   UNL A   1      31.300  28.309  24.201  1.00  0.00     0.242 C 
ATOM      4  O   UNL A   1      30.134  27.926  24.037  1.00  0.00    -0.273 OA
ATOM      5  H   UNL A   1      30.718  29.327  25.782  1.00  0.00     0.163 HD
BRANCH   3   6
ATOM      6  C   UNL A   1      32.400  27.766  23.249  1.00  0.00     0.168 C 
ATOM      7  C   UNL A   1      32.022  26.873  22.084  1.00  0.00     0.041 C 
BRANCH   6   8
ATOM      8  N   UNL A   1      33.442  27.050  23.991  1.00  0.00    -0.345 N 
ATOM      9  C   UNL A   1      33.269  26.278  25.103  1.00  0.00     0.222 C 
ATOM     10  O   UNL A   1      34.178  26.199  25.930  1.00  0.00    -0.275 OA
ATOM     11  H   UNL A   1      34.362  27.134  23.651  1.00  0.00     0.164 HD
BRANCH   9  12
ATOM     12  C   UNL A   1      31.995  25.469  25.262  1.00  0.00     0.122 C 
BRANCH  12  13
ATOM     13  C   UNL A   1      31.925  24.146  24.488  1.00  0.00     0.137 C 
BRANCH  13  14
ATOM     14  N   UNL A   1      32.916  23.142  24.921  1.00  0.00    -0.292 N 
ATOM     15  C   UNL A   1      36.144  21.840  24.158  1.00  0.00     0.029 C 
ATOM     16  C   UNL A   1      34.942  21.974  24.730  1.00  0.00     0.081 C 
ATOM     17  S   UNL A   1      34.470  21.647  26.342  1.00  0.00    -0.054 SA
ATOM     18  C   UNL A   1      33.832  22.648  24.008  1.00  0.00     0.266 C 
ATOM     19  C   UNL A   1      32.962  22.547  26.167  1.00  0.00     0.148 C 
ATOM     20  O   UNL A   1      33.776  22.757  22.792  1.00  0.00    -0.268 OA
ATOM     21  S   UNL A   1      31.818  22.602  27.380  1.00  0.00    -0.052 S 
BRANCH  15  22
ATOM     22  C   UNL A   1      37.391  21.418  24.809  1.00  0.00    -0.021 A 
ATOM     23  C   UNL A   1      37.790  23.754  25.721  1.00  0.00     0.045 C 
ATOM     24  C   UNL A   1      38.145  22.299  25.601  1.00  0.00    -0.044 A 
ATOM     25  C   UNL A   1      39.282  21.811  26.267  1.00  0.00     0.004 A 
ATOM     26  C   UNL A   1      39.643  20.465  26.181  1.00  0.00     0.000 A 
ATOM     27  C   UNL A   1      37.777  20.071  24.710  1.00  0.00     0.008 A 
ATOM     28  C   UNL A   1      38.890  19.594  25.402  1.00  0.00     0.001 A 
ENDBRANCH  15  22
ENDBRANCH  13  14
ENDBRANCH  12  13
ENDBRANCH   9  12
ENDBRANCH   6   8
ENDBRANCH   3   6
ENDBRANCH   1   2
BRANCH   1  29
ATOM     29  C   UNL A   1      33.109  29.511  27.090  1.00  0.00     0.042 C 
BRANCH  29  30
ATOM     30  C   UNL A   1      34.612  29.396  27.210  1.00  0.00     0.118 C 
BRANCH  30  31
ATOM     31  N   UNL A   1      35.296  30.671  27.309  1.00  0.00    -0.352 N 
ATOM     32  C   UNL A   1      36.497  30.886  27.976  1.00  0.00     0.251 C 
ATOM     33  H   UNL A   1      34.877  31.446  26.869  1.00  0.00     0.163 HD
ATOM     34  O   UNL A   1      36.846  31.954  28.414  1.00  0.00    -0.269 OA
BRANCH  32  35
ATOM     35  C   UNL A   1      37.424  29.729  27.943  1.00  0.00     0.039 A 
ATOM     36  C   UNL A   1      37.519  28.984  29.123  1.00  0.00     0.014 A 
ATOM     37  C   UNL A   1      38.408  29.672  26.961  1.00  0.00     0.014 A 
ATOM     38  C   UNL A   1      38.696  28.296  29.399  1.00  0.00     0.010 A 
ATOM     39  C   UNL A   1      39.617  29.095  27.296  1.00  0.00     0.010 A 
ATOM     40  C   UNL A   1      39.772  28.436  28.525  1.00  0.00    -0.014 A 
BRANCH  40  41
ATOM     41  C   UNL A   1      41.107  27.916  28.794  1.00  0.00     0.031 A 
ATOM     42  C   UNL A   1      41.390  26.506  28.434  1.00  0.00     0.074 A 
ATOM     43  C   UNL A   1      42.083  28.709  29.290  1.00  0.00     0.049 A 
ATOM     44  N   UNL A   1      42.360  25.798  28.906  1.00  0.00    -0.248 NA
ATOM     45  C   UNL A   1      40.516  25.751  27.540  1.00  0.00     0.031 C 
ATOM     46  C   UNL A   1      43.514  28.412  29.327  1.00  0.00     0.029 A 
ATOM     47  N   UNL A   1      41.959  29.861  30.071  1.00  0.00    -0.354 N 
ATOM     48  C   UNL A   1      42.414  24.631  28.173  1.00  0.00     0.074 A 
ATOM     49  C   UNL A   1      41.196  24.613  27.403  1.00  0.00     0.031 C 
ATOM     50  C   UNL A   1      44.076  29.138  30.306  1.00  0.00     0.029 A 
ATOM     51  C   UNL A   1      42.999  29.805  31.017  1.00  0.00     0.049 A 
ATOM     52  H   UNL A   1      41.283  30.569  29.978  1.00  0.00     0.167 HD
ATOM     53  C   UNL A   1      43.548  23.875  28.194  1.00  0.00     0.031 A 
ATOM     54  C   UNL A   1      42.800  29.749  32.368  1.00  0.00     0.031 A 
ATOM     55  C   UNL A   1      44.484  24.356  29.208  1.00  0.00     0.049 A 
ATOM     56  C   UNL A   1      43.392  28.502  32.998  1.00  0.00     0.074 A 
ATOM     57  C   UNL A   1      45.612  25.158  29.154  1.00  0.00     0.029 A 
ATOM     58  N   UNL A   1      44.120  24.277  30.547  1.00  0.00    -0.354 N 
ATOM     59  N   UNL A   1      43.793  27.462  32.318  1.00  0.00    -0.248 NA
ATOM     60  C   UNL A   1      43.532  28.307  34.440  1.00  0.00     0.031 C 
ATOM     61  C   UNL A   1      45.848  25.664  30.461  1.00  0.00     0.029 A 
ATOM     62  C   UNL A   1      44.893  25.132  31.311  1.00  0.00     0.049 A 
ATOM     63  H   UNL A   1      43.413  23.692  30.903  1.00  0.00     0.167 HD
ATOM     64  C   UNL A   1      44.208  26.480  33.176  1.00  0.00     0.074 A 
ATOM     65  C   UNL A   1      44.042  27.063  34.496  1.00  0.00     0.031 C 
ATOM     66  C   UNL A   1      44.640  25.262  32.739  1.00  0.00     0.031 A 
BRANCH  53  67
ATOM     67  C   UNL A   1      43.916  22.892  27.098  1.00  0.00    -0.014 A 
ATOM     68  C   UNL A   1      43.023  21.848  26.774  1.00  0.00     0.010 A 
ATOM     69  C   UNL A   1      45.148  22.874  26.417  1.00  0.00     0.010 A 
ATOM     70  C   UNL A   1      43.379  20.804  25.902  1.00  0.00     0.020 A 
ATOM     71  C   UNL A   1      45.532  21.824  25.570  1.00  0.00     0.020 A 
ATOM     72  C   UNL A   1      44.648  20.783  25.328  1.00  0.00     0.054 A 
BRANCH  72  73
ATOM     73  S   UNL A   1      45.133  19.391  24.277  1.00  0.00     0.124 S 
ATOM     74  O   UNL A   1      46.588  19.522  24.231  1.00  0.00    -0.237 OA
ATOM     75  O   UNL A   1      44.626  18.243  25.023  1.00  0.00    -0.237 OA
ATOM     76  O   UNL A   1      44.451  19.656  23.011  1.00  0.00    -0.744 OA
ENDBRANCH  72  73
ENDBRANCH  53  67
BRANCH  54  77
ATOM     77  C   UNL A   1      41.562  30.437  32.832  1.00  0.00    -0.014 A 
ATOM     78  C   UNL A   1      40.464  29.620  33.184  1.00  0.00     0.010 A 
ATOM     79  C   UNL A   1      41.632  31.741  33.350  1.00  0.00     0.010 A 
ATOM     80  C   UNL A   1      39.580  30.016  34.189  1.00  0.00     0.020 A 
ATOM     81  C   UNL A   1      40.739  32.142  34.355  1.00  0.00     0.020 A 
ATOM     82  C   UNL A   1      39.777  31.242  34.824  1.00  0.00     0.054 A 
BRANCH  82  83
ATOM     83  S   UNL A   1      38.900  31.546  36.389  1.00  0.00     0.124 S 
ATOM     84  O   UNL A   1      39.991  31.865  37.304  1.00  0.00    -0.237 OA
ATOM     85  O   UNL A   1      38.025  32.668  36.039  1.00  0.00    -0.237 OA
ATOM     86  O   UNL A   1      38.214  30.284  36.639  1.00  0.00    -0.744 OA
ENDBRANCH  82  83
ENDBRANCH  54  77
BRANCH  66  87
ATOM     87  C   UNL A   1      44.920  24.076  33.626  1.00  0.00    -0.014 A 
ATOM     88  C   UNL A   1      43.989  23.058  33.882  1.00  0.00     0.010 A 
ATOM     89  C   UNL A   1      46.235  23.891  34.115  1.00  0.00     0.010 A 
ATOM     90  C   UNL A   1      44.335  21.934  34.646  1.00  0.00     0.020 A 
ATOM     91  C   UNL A   1      46.602  22.755  34.842  1.00  0.00     0.020 A 
ATOM     92  C   UNL A   1      45.640  21.792  35.125  1.00  0.00     0.054 A 
BRANCH  92  93
ATOM     93  S   UNL A   1      46.098  20.309  36.058  1.00  0.00     0.124 S 
ATOM     94  O   UNL A   1      45.722  20.684  37.419  1.00  0.00    -0.237 OA
ATOM     95  O   UNL A   1      45.276  19.267  35.447  1.00  0.00    -0.237 OA
ATOM     96  O   UNL A   1      47.533  20.185  35.815  1.00  0.00    -0.744 OA
ENDBRANCH  92  93
ENDBRANCH  66  87
ENDBRANCH  40  41
ENDBRANCH  32  35
ENDBRANCH  30  31
ENDBRANCH  29  30
ENDBRANCH   1  29
TORSDOF 18
ENDMDL
MODEL 2
REMARK VINA RESULT:     -11.8      1.784      2.260
REMARK SMILES Cc1ccccc1/C=C1\SC(=S)N(CCC(=O)N[C@@H](C)C(=O)NCCCNC(=O)c2ccc(-c3c4nc(c(-c5ccc(S(=O)(=O)[O-])cc5)c5ccc([nH]5)c(-c5ccc(S(=O)(=O)[O-])cc5)c5nc(c(-c6ccc(S(=O)(=O)[O-])cc6)c6ccc3[nH]6)C=C5)C=C4)cc2)C1=O
REMARK SMILES IDX 24 1 23 2 21 3 22 4 19 6 20 7 18 8 16 9 17 10 15 12 14 13
REMARK SMILES IDX 13 14 8 15 9 16 10 17 90 18 11 19 91 20 12 21 7 22 1 23 2 24
REMARK SMILES IDX 3 25 4 26 6 27 5 28 25 29 26 30 27 31 28 32 29 34 30 35
REMARK SMILES IDX 31 36 89 37 32 38 88 39 33 40 34 41 35 42 82 43 36 44 87 45
REMARK SMILES IDX 81 46 83 47 37 48 86 49 80 50 79 51 38 53 68 54 49 55 67 56
REMARK SMILES IDX 50 57 53 58 66 59 84 60 51 61 52 62 65 64 85 65 54 66 39 67
REMARK SMILES IDX 40 68 48 69 41 70 47 71 42 72 43 73 44 74 45 75 46 76 69 77
REMARK SMILES IDX 70 78 78 79 71 80 77 81 72 82 73 83 74 84 75 85 76 86 55 87
REMARK SMILES IDX 56 88 64 89 57 90 63 91 58 92 59 93 60 94 61 95 62 96
REMARK H PARENT 23 5 18 11 27 33 83 52 53 63
REMARK Flexibility Score: inf
ROOT
ATOM      1  C   UNL A   1      31.834  30.694  26.155  1.00  0.00     0.117 C 
ENDROOT
BRANCH   1   2
ATOM      2  N   UNL A   1      31.162  30.311  24.917  1.00  0.00    -0.354 N 
ATOM      3  C   UNL A   1      31.256  29.225  24.107  1.00  0.00     0.242 C 
ATOM      4  O   UNL A   1      30.601  29.259  23.056  1.00  0.00    -0.273 OA
ATOM      5  H   UNL A   1      30.506  30.975  24.605  1.00  0.00     0.163 HD
BRANCH   3   6
ATOM      6  C   UNL A   1      32.099  27.957  24.414  1.00  0.00     0.168 C 
ATOM      7  C   UNL A   1      32.693  27.148  23.279  1.00  0.00     0.041 C 
BRANCH   6   8
ATOM      8  N   UNL A   1      31.351  27.008  25.244  1.00  0.00    -0.345 N 
ATOM      9  C   UNL A   1      30.467  26.062  24.811  1.00  0.00     0.222 C 
ATOM     10  O   UNL A   1      29.531  25.733  25.538  1.00  0.00    -0.275 OA
ATOM     11  H   UNL A   1      31.502  27.058  26.216  1.00  0.00     0.164 HD
BRANCH   9  12
ATOM     12  C   UNL A   1      30.701  25.376  23.477  1.00  0.00     0.122 C 
BRANCH  12  13
ATOM     13  C   UNL A   1      30.576  23.846  23.465  1.00  0.00     0.137 C 
BRANCH  13  14
ATOM     14  N   UNL A   1      31.685  23.147  24.143  1.00  0.00    -0.292 N 
ATOM     15  C   UNL A   1      35.188  22.525  23.929  1.00  0.00     0.029 C 
ATOM     16  C   UNL A   1      33.917  22.450  24.341  1.00  0.00     0.081 C 
ATOM     17  S   UNL A   1      33.306  22.212  25.922  1.00  0.00    -0.054 SA
ATOM     18  C   UNL A   1      32.801  22.770  23.414  1.00  0.00     0.266 C 
ATOM     19  C   UNL A   1      31.683  22.724  25.457  1.00  0.00     0.148 C 
ATOM     20  O   UNL A   1      32.892  22.724  22.196  1.00  0.00    -0.268 OA
ATOM     21  S   UNL A   1      30.397  22.659  26.518  1.00  0.00    -0.052 S 
BRANCH  15  22
ATOM     22  C   UNL A   1      36.394  22.471  24.765  1.00  0.00    -0.021 A 
ATOM     23  C   UNL A   1      36.462  19.936  24.625  1.00  0.00     0.045 C 
ATOM     24  C   UNL A   1      37.040  21.256  25.049  1.00  0.00    -0.044 A 
ATOM     25  C   UNL A   1      38.238  21.279  25.782  1.00  0.00     0.004 A 
ATOM     26  C   UNL A   1      38.807  22.487  26.192  1.00  0.00     0.000 A 
ATOM     27  C   UNL A   1      36.963  23.678  25.203  1.00  0.00     0.008 A 
ATOM     28  C   UNL A   1      38.169  23.687  25.903  1.00  0.00     0.001 A 
ENDBRANCH  15  22
ENDBRANCH  13  14
ENDBRANCH  12  13
ENDBRANCH   9  12
ENDBRANCH   6   8
ENDBRANCH   3   6
ENDBRANCH   1   2
BRANCH   1  29
ATOM     29  C   UNL A   1      32.037  29.501  27.084  1.00  0.00     0.042 C 
BRANCH  29  30
ATOM     30  C   UNL A   1      33.399  29.536  27.740  1.00  0.00     0.118 C 
BRANCH  30  31
ATOM     31  N   UNL A   1      33.996  30.858  27.789  1.00  0.00    -0.352 N 
ATOM     32  C   UNL A   1      35.166  31.183  28.467  1.00  0.00     0.251 C 
ATOM     33  H   UNL A   1      33.537  31.581  27.304  1.00  0.00     0.163 HD
ATOM     34  O   UNL A   1      35.435  32.291  28.859  1.00  0.00    -0.269 OA
BRANCH  32  35
ATOM     35  C   UNL A   1      36.167  30.090  28.507  1.00  0.00     0.039 A 
ATOM     36  C   UNL A   1      36.514  29.620  29.779  1.00  0.00     0.014 A 
ATOM     37  C   UNL A   1      36.979  29.868  27.400  1.00  0.00     0.014 A 
ATOM     38  C   UNL A   1      37.773  29.062  29.976  1.00  0.00     0.010 A 
ATOM     39  C   UNL A   1      38.270  29.432  27.626  1.00  0.00     0.010 A 
ATOM     40  C   UNL A   1      38.676  29.061  28.917  1.00  0.00    -0.014 A 
BRANCH  40  41
ATOM     41  C   UNL A   1      40.076  28.672  29.045  1.00  0.00     0.031 A 
ATOM     42  C   UNL A   1      40.433  27.258  28.777  1.00  0.00     0.074 A 
ATOM     43  C   UNL A   1      41.034  29.582  29.332  1.00  0.00     0.049 A 
ATOM     44  N   UNL A   1      41.514  26.677  29.172  1.00  0.00    -0.248 NA
ATOM     45  C   UNL A   1      39.521  26.354  28.080  1.00  0.00     0.031 C 
ATOM     46  C   UNL A   1      42.478  29.399  29.199  1.00  0.00     0.029 A 
ATOM     47  N   UNL A   1      40.911  30.794  30.017  1.00  0.00    -0.354 N 
ATOM     48  C   UNL A   1      41.576  25.450  28.546  1.00  0.00     0.074 A 
ATOM     49  C   UNL A   1      40.275  25.263  27.953  1.00  0.00     0.031 C 
ATOM     50  C   UNL A   1      43.096  30.259  30.024  1.00  0.00     0.029 A 
ATOM     51  C   UNL A   1      42.065  30.911  30.813  1.00  0.00     0.049 A 
ATOM     52  H   UNL A   1      40.168  31.436  29.954  1.00  0.00     0.167 HD
ATOM     53  C   UNL A   1      42.765  24.787  28.478  1.00  0.00     0.031 A 
ATOM     54  C   UNL A   1      42.047  30.974  32.178  1.00  0.00     0.031 A 
ATOM     55  C   UNL A   1      43.778  25.436  29.308  1.00  0.00     0.049 A 
ATOM     56  C   UNL A   1      42.823  29.844  32.830  1.00  0.00     0.074 A 
ATOM     57  C   UNL A   1      44.814  26.312  29.029  1.00  0.00     0.029 A 
ATOM     58  N   UNL A   1      43.598  25.463  30.686  1.00  0.00    -0.354 N 
ATOM     59  N   UNL A   1      43.223  28.776  32.196  1.00  0.00    -0.248 NA
ATOM     60  C   UNL A   1      43.164  29.805  34.250  1.00  0.00     0.031 C 
ATOM     61  C   UNL A   1      45.171  26.961  30.242  1.00  0.00     0.029 A 
ATOM     62  C   UNL A   1      44.384  26.446  31.258  1.00  0.00     0.049 A 
ATOM     63  H   UNL A   1      42.996  24.865  31.186  1.00  0.00     0.167 HD
ATOM     64  C   UNL A   1      43.830  27.918  33.073  1.00  0.00     0.074 A 
ATOM     65  C   UNL A   1      43.784  28.615  34.346  1.00  0.00     0.031 C 
ATOM     66  C   UNL A   1      44.307  26.698  32.691  1.00  0.00     0.031 A 
BRANCH  53  67
ATOM     67  C   UNL A   1      43.074  23.730  27.434  1.00  0.00    -0.014 A 
ATOM     68  C   UNL A   1      42.367  22.509  27.452  1.00  0.00     0.010 A 
ATOM     69  C   UNL A   1      44.098  23.827  26.473  1.00  0.00     0.010 A 
ATOM     70  C   UNL A   1      42.727  21.424  26.634  1.00  0.00     0.020 A 
ATOM     71  C   UNL A   1      44.492  22.746  25.672  1.00  0.00     0.020 A 
ATOM     72  C   UNL A   1      43.811  21.541  25.767  1.00  0.00     0.054 A 
BRANCH  72  73
ATOM     73  S   UNL A   1      44.326  20.113  24.779  1.00  0.00     0.124 S 
ATOM     74  O   UNL A   1      45.554  19.692  25.450  1.00  0.00    -0.237 OA
ATOM     75  O   UNL A   1      43.189  19.209  24.918  1.00  0.00    -0.237 OA
ATOM     76  O   UNL A   1      44.516  20.668  23.439  1.00  0.00    -0.744 OA
ENDBRANCH  72  73
ENDBRANCH  53  67
BRANCH  54  77
ATOM     77  C   UNL A   1      40.823  31.609  32.744  1.00  0.00    -0.014 A 
ATOM     78  C   UNL A   1      40.776  33.021  32.755  1.00  0.00     0.010 A 
ATOM     79  C   UNL A   1      39.618  30.889  32.804  1.00  0.00     0.010 A 
ATOM     80  C   UNL A   1      39.560  33.691  32.612  1.00  0.00     0.020 A 
ATOM     81  C   UNL A   1      38.394  31.562  32.666  1.00  0.00     0.020 A 
ATOM     82  C   UNL A   1      38.386  32.949  32.485  1.00  0.00     0.054 A 
BRANCH  82  83
ATOM     83  S   UNL A   1      36.896  33.800  31.879  1.00  0.00     0.124 S 
ATOM     84  O   UNL A   1      37.306  34.246  30.552  1.00  0.00    -0.237 OA
ATOM     85  O   UNL A   1      35.898  32.728  31.902  1.00  0.00    -0.237 OA
ATOM     86  O   UNL A   1      36.690  34.856  32.864  1.00  0.00    -0.744 OA
ENDBRANCH  82  83
ENDBRANCH  54  77
BRANCH  66  87
ATOM     87  C   UNL A   1      44.802  25.631  33.632  1.00  0.00    -0.014 A 
ATOM     88  C   UNL A   1      43.967  24.903  34.494  1.00  0.00     0.010 A 
ATOM     89  C   UNL A   1      46.157  25.229  33.550  1.00  0.00     0.010 A 
ATOM     90  C   UNL A   1      44.473  23.862  35.285  1.00  0.00     0.020 A 
ATOM     91  C   UNL A   1      46.662  24.167  34.303  1.00  0.00     0.020 A 
ATOM     92  C   UNL A   1      45.819  23.503  35.188  1.00  0.00     0.054 A 
BRANCH  92  93
ATOM     93  S   UNL A   1      46.452  22.117  36.166  1.00  0.00     0.124 S 
ATOM     94  O   UNL A   1      45.715  20.990  35.602  1.00  0.00    -0.237 OA
ATOM     95  O   UNL A   1      47.885  22.136  35.876  1.00  0.00    -0.237 OA
ATOM     96  O   UNL A   1      46.096  22.478  37.537  1.00  0.00    -0.744 OA
ENDBRANCH  92  93
ENDBRANCH  66  87
ENDBRANCH  40  41
ENDBRANCH  32  35
ENDBRANCH  30  31
ENDBRANCH  29  30
ENDBRANCH   1  29
TORSDOF 18
ENDMDL
MODEL 3
REMARK VINA RESULT:     -11.7      2.933      3.759
REMARK SMILES Cc1ccccc1/C=C1\SC(=S)N(CCC(=O)N[C@@H](C)C(=O)NCCCNC(=O)c2ccc(-c3c4nc(c(-c5ccc(S(=O)(=O)[O-])cc5)c5ccc([nH]5)c(-c5ccc(S(=O)(=O)[O-])cc5)c5nc(c(-c6ccc(S(=O)(=O)[O-])cc6)c6ccc3[nH]6)C=C5)C=C4)cc2)C1=O
REMARK SMILES IDX 24 1 23 2 21 3 22 4 19 6 20 7 18 8 16 9 17 10 15 12 14 13
REMARK SMILES IDX 13 14 8 15 9 16 10 17 90 18 11 19 91 20 12 21 7 22 1 23 2 24
REMARK SMILES IDX 3 25 4 26 6 27 5 28 25 29 26 30 27 31 28 32 29 34 30 35
REMARK SMILES IDX 31 36 89 37 32 38 88 39 33 40 34 41 35 42 82 43 36 44 87 45
REMARK SMILES IDX 81 46 83 47 37 48 86 49 80 50 79 51 38 53 68 54 49 55 67 56
REMARK SMILES IDX 50 57 53 58 66 59 84 60 51 61 52 62 65 64 85 65 54 66 39 67
REMARK SMILES IDX 40 68 48 69 41 70 47 71 42 72 43 73 44 74 45 75 46 76 69 77
REMARK SMILES IDX 70 78 78 79 71 80 77 81 72 82 73 83 74 84 75 85 76 86 55 87
REMARK SMILES IDX 56 88 64 89 57 90 63 91 58 92 59 93 60 94 61 95 62 96
REMARK H PARENT 23 5 18 11 27 33 83 52 53 63
REMARK Flexibility Score: inf
ROOT
ATOM      1  C   UNL A   1      34.186  30.436  27.536  1.00  0.00     0.117 C 
ENDROOT
BRANCH   1   2
ATOM      2  N   UNL A   1      32.969  30.875  26.859  1.00  0.00    -0.354 N 
ATOM      3  C   UNL A   1      31.990  30.214  26.188  1.00  0.00     0.242 C 
ATOM      4  O   UNL A   1      31.129  30.912  25.636  1.00  0.00    -0.273 OA
ATOM      5  H   UNL A   1      32.828  31.848  26.897  1.00  0.00     0.163 HD
BRANCH   3   6
ATOM      6  C   UNL A   1      31.870  28.669  26.085  1.00  0.00     0.168 C 
ATOM      7  C   UNL A   1      31.385  27.865  27.273  1.00  0.00     0.041 C 
BRANCH   6   8
ATOM      8  N   UNL A   1      33.138  28.061  25.670  1.00  0.00    -0.345 N 
ATOM      9  C   UNL A   1      33.500  27.708  24.403  1.00  0.00     0.222 C 
ATOM     10  O   UNL A   1      34.265  26.759  24.236  1.00  0.00    -0.275 OA
ATOM     11  H   UNL A   1      33.798  27.891  26.381  1.00  0.00     0.164 HD
BRANCH   9  12
ATOM     12  C   UNL A   1      33.017  28.539  23.228  1.00  0.00     0.122 C 
BRANCH  12  13
ATOM     13  C   UNL A   1      31.865  27.948  22.402  1.00  0.00     0.137 C 
BRANCH  13  14
ATOM     14  N   UNL A   1      31.639  26.508  22.629  1.00  0.00    -0.292 N 
ATOM     15  C   UNL A   1      33.274  23.342  22.560  1.00  0.00     0.029 C 
ATOM     16  C   UNL A   1      32.301  24.257  22.649  1.00  0.00     0.081 C 
ATOM     17  S   UNL A   1      30.891  24.242  23.617  1.00  0.00    -0.054 SA
ATOM     18  C   UNL A   1      32.446  25.581  21.991  1.00  0.00     0.266 C 
ATOM     19  C   UNL A   1      30.602  25.964  23.362  1.00  0.00     0.148 C 
ATOM     20  O   UNL A   1      33.193  25.795  21.047  1.00  0.00    -0.268 OA
ATOM     21  S   UNL A   1      29.242  26.731  23.950  1.00  0.00    -0.052 S 
BRANCH  15  22
ATOM     22  C   UNL A   1      33.391  22.097  23.330  1.00  0.00    -0.021 A 
ATOM     23  C   UNL A   1      35.487  22.931  24.495  1.00  0.00     0.045 C 
ATOM     24  C   UNL A   1      34.398  21.916  24.292  1.00  0.00    -0.044 A 
ATOM     25  C   UNL A   1      34.404  20.738  25.056  1.00  0.00     0.004 A 
ATOM     26  C   UNL A   1      33.408  19.773  24.898  1.00  0.00     0.000 A 
ATOM     27  C   UNL A   1      32.407  21.108  23.162  1.00  0.00     0.008 A 
ATOM     28  C   UNL A   1      32.408  19.958  23.950  1.00  0.00     0.001 A 
ENDBRANCH  15  22
ENDBRANCH  13  14
ENDBRANCH  12  13
ENDBRANCH   9  12
ENDBRANCH   6   8
ENDBRANCH   3   6
ENDBRANCH   1   2
BRANCH   1  29
ATOM     29  C   UNL A   1      35.182  31.579  27.711  1.00  0.00     0.042 C 
BRANCH  29  30
ATOM     30  C   UNL A   1      36.483  31.093  28.308  1.00  0.00     0.118 C 
BRANCH  30  31
ATOM     31  N   UNL A   1      36.452  30.949  29.751  1.00  0.00    -0.352 N 
ATOM     32  C   UNL A   1      36.696  29.767  30.443  1.00  0.00     0.251 C 
ATOM     33  H   UNL A   1      36.242  31.751  30.283  1.00  0.00     0.163 HD
ATOM     34  O   UNL A   1      36.279  29.533  31.550  1.00  0.00    -0.269 OA
BRANCH  32  35
ATOM     35  C   UNL A   1      37.683  28.875  29.789  1.00  0.00     0.039 A 
ATOM     36  C   UNL A   1      38.443  28.068  30.644  1.00  0.00     0.014 A 
ATOM     37  C   UNL A   1      38.091  29.147  28.487  1.00  0.00     0.014 A 
ATOM     38  C   UNL A   1      39.711  27.660  30.243  1.00  0.00     0.010 A 
ATOM     39  C   UNL A   1      39.395  28.849  28.146  1.00  0.00     0.010 A 
ATOM     40  C   UNL A   1      40.214  28.135  29.035  1.00  0.00    -0.014 A 
BRANCH  40  41
ATOM     41  C   UNL A   1      41.588  27.928  28.592  1.00  0.00     0.031 A 
ATOM     42  C   UNL A   1      42.055  26.534  28.399  1.00  0.00     0.074 A 
ATOM     43  C   UNL A   1      42.395  28.972  28.296  1.00  0.00     0.049 A 
ATOM     44  N   UNL A   1      43.289  26.162  28.360  1.00  0.00    -0.248 NA
ATOM     45  C   UNL A   1      41.119  25.416  28.310  1.00  0.00     0.031 C 
ATOM     46  C   UNL A   1      43.664  28.915  27.572  1.00  0.00     0.029 A 
ATOM     47  N   UNL A   1      42.346  30.280  28.785  1.00  0.00    -0.354 N 
ATOM     48  C   UNL A   1      43.310  24.845  27.952  1.00  0.00     0.074 A 
ATOM     49  C   UNL A   1      41.939  24.406  28.023  1.00  0.00     0.031 C 
ATOM     50  C   UNL A   1      44.398  29.987  27.911  1.00  0.00     0.029 A 
ATOM     51  C   UNL A   1      43.683  30.678  28.970  1.00  0.00     0.049 A 
ATOM     52  H   UNL A   1      41.540  30.815  28.963  1.00  0.00     0.167 HD
ATOM     53  C   UNL A   1      44.466  24.309  27.466  1.00  0.00     0.031 A 
ATOM     54  C   UNL A   1      44.217  31.021  30.180  1.00  0.00     0.031 A 
ATOM     55  C   UNL A   1      45.593  25.217  27.666  1.00  0.00     0.049 A 
ATOM     56  C   UNL A   1      45.384  30.137  30.580  1.00  0.00     0.074 A 
ATOM     57  C   UNL A   1      46.244  26.118  26.840  1.00  0.00     0.029 A 
ATOM     58  N   UNL A   1      45.994  25.511  28.964  1.00  0.00    -0.354 N 
ATOM     59  N   UNL A   1      45.675  29.007  29.995  1.00  0.00    -0.248 NA
ATOM     60  C   UNL A   1      46.280  30.429  31.697  1.00  0.00     0.031 C 
ATOM     61  C   UNL A   1      46.943  27.038  27.667  1.00  0.00     0.029 A 
ATOM     62  C   UNL A   1      46.752  26.666  28.987  1.00  0.00     0.049 A 
ATOM     63  H   UNL A   1      45.771  24.971  29.757  1.00  0.00     0.167 HD
ATOM     64  C   UNL A   1      46.735  28.418  30.630  1.00  0.00     0.074 A 
ATOM     65  C   UNL A   1      47.090  29.356  31.681  1.00  0.00     0.031 C 
ATOM     66  C   UNL A   1      47.226  27.201  30.257  1.00  0.00     0.031 A 
BRANCH  53  67
ATOM     67  C   UNL A   1      44.505  23.096  26.555  1.00  0.00    -0.014 A 
ATOM     68  C   UNL A   1      43.369  22.264  26.457  1.00  0.00     0.010 A 
ATOM     69  C   UNL A   1      45.641  22.662  25.846  1.00  0.00     0.010 A 
ATOM     70  C   UNL A   1      43.400  21.033  25.778  1.00  0.00     0.020 A 
ATOM     71  C   UNL A   1      45.700  21.423  25.191  1.00  0.00     0.020 A 
ATOM     72  C   UNL A   1      44.580  20.606  25.173  1.00  0.00     0.054 A 
BRANCH  72  73
ATOM     73  S   UNL A   1      44.640  18.980  24.377  1.00  0.00     0.124 S 
ATOM     74  O   UNL A   1      45.944  18.472  24.796  1.00  0.00    -0.237 OA
ATOM     75  O   UNL A   1      43.483  18.305  24.955  1.00  0.00    -0.237 OA
ATOM     76  O   UNL A   1      44.529  19.287  22.951  1.00  0.00    -0.744 OA
ENDBRANCH  72  73
ENDBRANCH  53  67
BRANCH  54  77
ATOM     77  C   UNL A   1      43.240  31.630  31.127  1.00  0.00    -0.014 A 
ATOM     78  C   UNL A   1      42.903  32.986  30.920  1.00  0.00     0.010 A 
ATOM     79  C   UNL A   1      42.356  30.813  31.852  1.00  0.00     0.010 A 
ATOM     80  C   UNL A   1      41.627  33.456  31.240  1.00  0.00     0.020 A 
ATOM     81  C   UNL A   1      41.076  31.285  32.178  1.00  0.00     0.020 A 
ATOM     82  C   UNL A   1      40.697  32.575  31.791  1.00  0.00     0.054 A 
BRANCH  82  83
ATOM     83  S   UNL A   1      38.947  33.073  31.801  1.00  0.00     0.124 S 
ATOM     84  O   UNL A   1      38.591  33.001  30.388  1.00  0.00    -0.237 OA
ATOM     85  O   UNL A   1      38.340  32.049  32.655  1.00  0.00    -0.237 OA
ATOM     86  O   UNL A   1      38.983  34.413  32.375  1.00  0.00    -0.744 OA
ENDBRANCH  82  83
ENDBRANCH  54  77
BRANCH  66  87
ATOM     87  C   UNL A   1      48.251  26.410  31.028  1.00  0.00    -0.014 A 
ATOM     88  C   UNL A   1      48.038  25.915  32.324  1.00  0.00     0.010 A 
ATOM     89  C   UNL A   1      49.439  26.013  30.368  1.00  0.00     0.010 A 
ATOM     90  C   UNL A   1      48.996  25.110  32.958  1.00  0.00     0.020 A 
ATOM     91  C   UNL A   1      50.380  25.179  30.976  1.00  0.00     0.020 A 
ATOM     92  C   UNL A   1      50.163  24.751  32.281  1.00  0.00     0.054 A 
BRANCH  92  93
ATOM     93  S   UNL A   1      51.368  23.662  33.083  1.00  0.00     0.124 S 
ATOM     94  O   UNL A   1      51.090  23.897  34.497  1.00  0.00    -0.237 OA
ATOM     95  O   UNL A   1      50.999  22.338  32.584  1.00  0.00    -0.237 OA
ATOM     96  O   UNL A   1      52.653  24.165  32.603  1.00  0.00    -0.744 OA
ENDBRANCH  92  93
ENDBRANCH  66  87
ENDBRANCH  40  41
ENDBRANCH  32  35
ENDBRANCH  30  31
ENDBRANCH  29  30
ENDBRANCH   1  29
TORSDOF 18
ENDMDL
