MODEL 1
REMARK VINA RESULT:     -11.6      0.000      0.000
REMARK SMILES CCc1ccc2c(c1)C=C(C(=O)NCCCNC(=O)c1ccc(-c3c4nc(c(-c5ccc(S(=O)(=O)[O-])cc5)c5ccc([nH]5)c(-c5ccc(S(=O)(=O)[O-])cc5)c5nc(c(-c6ccc(S(=O)(=O)[O-])cc6)c6ccc3[nH]6)C=C5)C=C4)cc1)[C@H](C(F)(F)F)O2
REMARK SMILES IDX 16 1 15 2 14 3 13 4 11 5 12 6 10 8 3 9 4 10 8 11 5 12 7 13
REMARK SMILES IDX 6 14 9 15 85 16 80 17 2 18 1 19 81 20 82 21 83 22 84 23
REMARK SMILES IDX 17 24 18 25 19 27 20 28 21 29 79 30 22 31 78 32 23 33 24 34
REMARK SMILES IDX 25 35 72 36 26 37 77 38 71 39 73 40 27 41 76 42 70 43 69 44
REMARK SMILES IDX 28 46 58 47 39 48 57 49 40 50 43 51 56 52 74 53 41 54 42 55
REMARK SMILES IDX 55 57 75 58 44 59 29 60 30 61 38 62 31 63 37 64 32 65 33 66
REMARK SMILES IDX 34 67 35 68 36 69 59 70 60 71 68 72 61 73 67 74 62 75 63 76
REMARK SMILES IDX 64 77 65 78 66 79 45 80 46 81 54 82 47 83 53 84 48 85 49 86
REMARK SMILES IDX 50 87 51 88 52 89
REMARK H PARENT 13 7 17 26 73 45 43 56
REMARK Flexibility Score: inf
ROOT
ATOM      1  C   UNL A   1      34.244  28.763  25.995  1.00  0.00     0.118 C 
ENDROOT
BRANCH   1   2
ATOM      2  C   UNL A   1      33.419  27.589  26.517  1.00  0.00     0.042 C 
BRANCH   2   3
ATOM      3  C   UNL A   1      33.687  26.277  25.775  1.00  0.00     0.118 C 
BRANCH   3   4
ATOM      4  N   UNL A   1      34.020  26.530  24.381  1.00  0.00    -0.352 N 
ATOM      5  C   UNL A   1      33.275  26.852  23.292  1.00  0.00     0.251 C 
ATOM      6  O   UNL A   1      33.839  26.893  22.201  1.00  0.00    -0.270 OA
ATOM      7  H   UNL A   1      34.983  26.452  24.189  1.00  0.00     0.163 HD
BRANCH   5   8
ATOM      8  C   UNL A   1      31.840  27.229  23.375  1.00  0.00     0.067 C 
ATOM      9  C   UNL A   1      28.172  30.387  23.145  1.00  0.00    -0.047 A 
ATOM     10  C   UNL A   1      27.267  29.321  23.227  1.00  0.00     0.007 A 
ATOM     11  C   UNL A   1      29.545  30.106  23.231  1.00  0.00     0.015 A 
ATOM     12  C   UNL A   1      27.727  28.005  23.335  1.00  0.00     0.047 A 
ATOM     13  C   UNL A   1      30.006  28.788  23.342  1.00  0.00     0.017 A 
ATOM     14  C   UNL A   1      29.094  27.741  23.385  1.00  0.00     0.128 A 
ATOM     15  C   UNL A   1      31.430  28.502  23.318  1.00  0.00     0.025 C 
ATOM     16  O   UNL A   1      29.462  26.430  23.412  1.00  0.00    -0.475 OA
ATOM     17  C   UNL A   1      30.856  26.106  23.700  1.00  0.00     0.314 C 
BRANCH   9  18
ATOM     18  C   UNL A   1      27.725  31.824  23.007  1.00  0.00     0.032 C 
ATOM     19  C   UNL A   1      28.229  32.535  21.757  1.00  0.00     0.009 C 
ENDBRANCH   9  18
BRANCH  17  20
ATOM     20  C   UNL A   1      31.137  24.732  23.050  1.00  0.00     0.429 C 
ATOM     21  F   UNL A   1      32.022  23.987  23.749  1.00  0.00    -0.167 F 
ATOM     22  F   UNL A   1      30.004  23.979  22.995  1.00  0.00    -0.167 F 
ATOM     23  F   UNL A   1      31.588  24.843  21.778  1.00  0.00    -0.167 F 
ENDBRANCH  17  20
ENDBRANCH   5   8
ENDBRANCH   3   4
ENDBRANCH   2   3
ENDBRANCH   1   2
BRANCH   1  24
ATOM     24  N   UNL A   1      33.965  29.990  26.729  1.00  0.00    -0.352 N 
ATOM     25  C   UNL A   1      34.651  30.569  27.767  1.00  0.00     0.251 C 
ATOM     26  H   UNL A   1      33.162  30.477  26.436  1.00  0.00     0.163 HD
ATOM     27  O   UNL A   1      34.120  31.475  28.402  1.00  0.00    -0.269 OA
BRANCH  25  28
ATOM     28  C   UNL A   1      36.011  30.108  28.129  1.00  0.00     0.039 A 
ATOM     29  C   UNL A   1      37.039  30.244  27.190  1.00  0.00     0.014 A 
ATOM     30  C   UNL A   1      36.268  29.496  29.358  1.00  0.00     0.014 A 
ATOM     31  C   UNL A   1      38.331  29.813  27.503  1.00  0.00     0.010 A 
ATOM     32  C   UNL A   1      37.569  29.125  29.693  1.00  0.00     0.010 A 
ATOM     33  C   UNL A   1      38.613  29.275  28.768  1.00  0.00    -0.014 A 
BRANCH  33  34
ATOM     34  C   UNL A   1      39.991  28.866  29.142  1.00  0.00     0.031 A 
ATOM     35  C   UNL A   1      40.914  29.839  29.826  1.00  0.00     0.074 A 
ATOM     36  C   UNL A   1      40.434  27.637  28.807  1.00  0.00     0.049 A 
ATOM     37  N   UNL A   1      42.171  29.689  30.158  1.00  0.00    -0.248 NA
ATOM     38  C   UNL A   1      40.358  31.160  30.161  1.00  0.00     0.031 C 
ATOM     39  C   UNL A   1      39.646  26.613  28.116  1.00  0.00     0.029 A 
ATOM     40  N   UNL A   1      41.657  27.044  28.994  1.00  0.00    -0.354 N 
ATOM     41  C   UNL A   1      42.562  30.897  30.723  1.00  0.00     0.074 A 
ATOM     42  C   UNL A   1      41.420  31.784  30.649  1.00  0.00     0.031 C 
ATOM     43  C   UNL A   1      40.399  25.513  27.958  1.00  0.00     0.029 A 
ATOM     44  C   UNL A   1      41.733  25.765  28.494  1.00  0.00     0.049 A 
ATOM     45  H   UNL A   1      42.410  27.492  29.443  1.00  0.00     0.167 HD
ATOM     46  C   UNL A   1      43.756  31.234  31.267  1.00  0.00     0.031 A 
ATOM     47  C   UNL A   1      42.762  24.896  28.460  1.00  0.00     0.031 A 
ATOM     48  C   UNL A   1      44.885  30.347  31.347  1.00  0.00     0.049 A 
ATOM     49  C   UNL A   1      44.082  25.298  29.056  1.00  0.00     0.074 A 
ATOM     50  C   UNL A   1      46.123  30.577  31.924  1.00  0.00     0.029 A 
ATOM     51  N   UNL A   1      44.918  29.058  30.835  1.00  0.00    -0.354 N 
ATOM     52  N   UNL A   1      44.414  26.429  29.632  1.00  0.00    -0.248 NA
ATOM     53  C   UNL A   1      45.163  24.305  29.004  1.00  0.00     0.031 C 
ATOM     54  C   UNL A   1      46.919  29.446  31.717  1.00  0.00     0.029 A 
ATOM     55  C   UNL A   1      46.160  28.489  31.063  1.00  0.00     0.049 A 
ATOM     56  H   UNL A   1      44.168  28.613  30.377  1.00  0.00     0.167 HD
ATOM     57  C   UNL A   1      45.736  26.272  30.035  1.00  0.00     0.074 A 
ATOM     58  C   UNL A   1      46.136  24.935  29.649  1.00  0.00     0.031 C 
ATOM     59  C   UNL A   1      46.543  27.157  30.671  1.00  0.00     0.031 A 
BRANCH  46  60
ATOM     60  C   UNL A   1      43.901  32.630  31.816  1.00  0.00    -0.014 A 
ATOM     61  C   UNL A   1      43.616  32.915  33.164  1.00  0.00     0.010 A 
ATOM     62  C   UNL A   1      44.367  33.666  30.984  1.00  0.00     0.010 A 
ATOM     63  C   UNL A   1      43.750  34.215  33.658  1.00  0.00     0.020 A 
ATOM     64  C   UNL A   1      44.528  34.962  31.480  1.00  0.00     0.020 A 
ATOM     65  C   UNL A   1      44.201  35.232  32.811  1.00  0.00     0.054 A 
BRANCH  65  66
ATOM     66  S   UNL A   1      44.378  36.908  33.482  1.00  0.00     0.124 S 
ATOM     67  O   UNL A   1      43.491  36.864  34.640  1.00  0.00    -0.237 OA
ATOM     68  O   UNL A   1      45.805  36.981  33.787  1.00  0.00    -0.237 OA
ATOM     69  O   UNL A   1      43.933  37.769  32.389  1.00  0.00    -0.744 OA
ENDBRANCH  65  66
ENDBRANCH  46  60
BRANCH  47  70
ATOM     70  C   UNL A   1      42.576  23.552  27.848  1.00  0.00    -0.014 A 
ATOM     71  C   UNL A   1      42.994  23.306  26.529  1.00  0.00     0.010 A 
ATOM     72  C   UNL A   1      41.996  22.505  28.588  1.00  0.00     0.010 A 
ATOM     73  C   UNL A   1      42.825  22.042  25.955  1.00  0.00     0.020 A 
ATOM     74  C   UNL A   1      41.850  21.233  28.027  1.00  0.00     0.020 A 
ATOM     75  C   UNL A   1      42.255  21.013  26.710  1.00  0.00     0.054 A 
BRANCH  75  76
ATOM     76  S   UNL A   1      42.099  19.365  25.967  1.00  0.00     0.124 S 
ATOM     77  O   UNL A   1      42.921  19.493  24.768  1.00  0.00    -0.237 OA
ATOM     78  O   UNL A   1      42.633  18.495  27.012  1.00  0.00    -0.237 OA
ATOM     79  O   UNL A   1      40.663  19.231  25.733  1.00  0.00    -0.744 OA
ENDBRANCH  75  76
ENDBRANCH  47  70
BRANCH  59  80
ATOM     80  C   UNL A   1      47.934  26.698  31.020  1.00  0.00    -0.014 A 
ATOM     81  C   UNL A   1      49.015  26.925  30.150  1.00  0.00     0.010 A 
ATOM     82  C   UNL A   1      48.170  26.085  32.264  1.00  0.00     0.010 A 
ATOM     83  C   UNL A   1      50.305  26.522  30.508  1.00  0.00     0.020 A 
ATOM     84  C   UNL A   1      49.461  25.705  32.636  1.00  0.00     0.020 A 
ATOM     85  C   UNL A   1      50.519  25.914  31.750  1.00  0.00     0.054 A 
BRANCH  85  86
ATOM     86  S   UNL A   1      52.210  25.447  32.213  1.00  0.00     0.124 S 
ATOM     87  O   UNL A   1      52.424  26.240  33.421  1.00  0.00    -0.237 OA
ATOM     88  O   UNL A   1      52.099  24.005  32.420  1.00  0.00    -0.237 OA
ATOM     89  O   UNL A   1      53.007  25.845  31.056  1.00  0.00    -0.744 OA
ENDBRANCH  85  86
ENDBRANCH  59  80
ENDBRANCH  33  34
ENDBRANCH  25  28
ENDBRANCH   1  24
TORSDOF 15
ENDMDL
MODEL 2
REMARK VINA RESULT:     -11.6      1.788      3.712
REMARK SMILES CCc1ccc2c(c1)C=C(C(=O)NCCCNC(=O)c1ccc(-c3c4nc(c(-c5ccc(S(=O)(=O)[O-])cc5)c5ccc([nH]5)c(-c5ccc(S(=O)(=O)[O-])cc5)c5nc(c(-c6ccc(S(=O)(=O)[O-])cc6)c6ccc3[nH]6)C=C5)C=C4)cc1)[C@H](C(F)(F)F)O2
REMARK SMILES IDX 16 1 15 2 14 3 13 4 11 5 12 6 10 8 3 9 4 10 8 11 5 12 7 13
REMARK SMILES IDX 6 14 9 15 85 16 80 17 2 18 1 19 81 20 82 21 83 22 84 23
REMARK SMILES IDX 17 24 18 25 19 27 20 28 21 29 79 30 22 31 78 32 23 33 24 34
REMARK SMILES IDX 25 35 72 36 26 37 77 38 71 39 73 40 27 41 76 42 70 43 69 44
REMARK SMILES IDX 28 46 58 47 39 48 57 49 40 50 43 51 56 52 74 53 41 54 42 55
REMARK SMILES IDX 55 57 75 58 44 59 29 60 30 61 38 62 31 63 37 64 32 65 33 66
REMARK SMILES IDX 34 67 35 68 36 69 59 70 60 71 68 72 61 73 67 74 62 75 63 76
REMARK SMILES IDX 64 77 65 78 66 79 45 80 46 81 54 82 47 83 53 84 48 85 49 86
REMARK SMILES IDX 50 87 51 88 52 89
REMARK H PARENT 13 7 17 26 73 45 43 56
REMARK Flexibility Score: inf
ROOT
ATOM      1  C   UNL A   1      33.682  28.420  27.242  1.00  0.00     0.118 C 
ENDROOT
BRANCH   1   2
ATOM      2  C   UNL A   1      33.283  28.089  25.805  1.00  0.00     0.042 C 
BRANCH   2   3
ATOM      3  C   UNL A   1      31.769  27.979  25.602  1.00  0.00     0.118 C 
BRANCH   3   4
ATOM      4  N   UNL A   1      31.238  26.812  26.292  1.00  0.00    -0.352 N 
ATOM      5  C   UNL A   1      31.500  25.483  26.202  1.00  0.00     0.251 C 
ATOM      6  O   UNL A   1      30.795  24.713  26.851  1.00  0.00    -0.270 OA
ATOM      7  H   UNL A   1      30.549  27.033  26.960  1.00  0.00     0.163 HD
BRANCH   5   8
ATOM      8  C   UNL A   1      32.640  24.932  25.425  1.00  0.00     0.067 C 
ATOM      9  C   UNL A   1      36.910  22.678  25.007  1.00  0.00    -0.047 A 
ATOM     10  C   UNL A   1      36.729  22.623  23.619  1.00  0.00     0.007 A 
ATOM     11  C   UNL A   1      35.942  23.339  25.781  1.00  0.00     0.015 A 
ATOM     12  C   UNL A   1      35.582  23.163  23.029  1.00  0.00     0.047 A 
ATOM     13  C   UNL A   1      34.795  23.883  25.190  1.00  0.00     0.017 A 
ATOM     14  C   UNL A   1      34.615  23.785  23.816  1.00  0.00     0.128 A 
ATOM     15  C   UNL A   1      33.749  24.464  26.013  1.00  0.00     0.025 C 
ATOM     16  O   UNL A   1      33.493  24.217  23.177  1.00  0.00    -0.475 OA
ATOM     17  C   UNL A   1      32.565  25.076  23.906  1.00  0.00     0.314 C 
BRANCH   9  18
ATOM     18  C   UNL A   1      38.122  22.091  25.693  1.00  0.00     0.032 C 
ATOM     19  C   UNL A   1      38.967  23.092  26.470  1.00  0.00     0.009 C 
ENDBRANCH   9  18
BRANCH  17  20
ATOM     20  C   UNL A   1      31.173  24.877  23.262  1.00  0.00     0.429 C 
ATOM     21  F   UNL A   1      30.326  25.901  23.505  1.00  0.00    -0.167 F 
ATOM     22  F   UNL A   1      31.271  24.810  21.905  1.00  0.00    -0.167 F 
ATOM     23  F   UNL A   1      30.576  23.729  23.662  1.00  0.00    -0.167 F 
ENDBRANCH  17  20
ENDBRANCH   5   8
ENDBRANCH   3   4
ENDBRANCH   2   3
ENDBRANCH   1   2
BRANCH   1  24
ATOM     24  N   UNL A   1      33.582  29.847  27.516  1.00  0.00    -0.352 N 
ATOM     25  C   UNL A   1      34.464  30.684  28.153  1.00  0.00     0.251 C 
ATOM     26  H   UNL A   1      32.756  30.276  27.196  1.00  0.00     0.163 HD
ATOM     27  O   UNL A   1      34.088  31.802  28.492  1.00  0.00    -0.269 OA
BRANCH  25  28
ATOM     28  C   UNL A   1      35.850  30.249  28.440  1.00  0.00     0.039 A 
ATOM     29  C   UNL A   1      36.808  30.343  27.425  1.00  0.00     0.014 A 
ATOM     30  C   UNL A   1      36.198  29.702  29.677  1.00  0.00     0.014 A 
ATOM     31  C   UNL A   1      38.122  29.936  27.666  1.00  0.00     0.010 A 
ATOM     32  C   UNL A   1      37.524  29.355  29.937  1.00  0.00     0.010 A 
ATOM     33  C   UNL A   1      38.498  29.464  28.934  1.00  0.00    -0.014 A 
BRANCH  33  34
ATOM     34  C   UNL A   1      39.903  29.082  29.229  1.00  0.00     0.031 A 
ATOM     35  C   UNL A   1      40.852  30.082  29.834  1.00  0.00     0.074 A 
ATOM     36  C   UNL A   1      40.343  27.852  28.892  1.00  0.00     0.049 A 
ATOM     37  N   UNL A   1      42.130  29.956  30.089  1.00  0.00    -0.248 NA
ATOM     38  C   UNL A   1      40.298  31.402  30.176  1.00  0.00     0.031 C 
ATOM     39  C   UNL A   1      39.528  26.803  28.273  1.00  0.00     0.029 A 
ATOM     40  N   UNL A   1      41.584  27.280  29.014  1.00  0.00    -0.354 N 
ATOM     41  C   UNL A   1      42.536  31.181  30.604  1.00  0.00     0.074 A 
ATOM     42  C   UNL A   1      41.379  32.051  30.584  1.00  0.00     0.031 C 
ATOM     43  C   UNL A   1      40.287  25.710  28.091  1.00  0.00     0.029 A 
ATOM     44  C   UNL A   1      41.648  25.992  28.537  1.00  0.00     0.049 A 
ATOM     45  H   UNL A   1      42.356  27.748  29.406  1.00  0.00     0.167 HD
ATOM     46  C   UNL A   1      43.757  31.546  31.066  1.00  0.00     0.031 A 
ATOM     47  C   UNL A   1      42.685  25.136  28.456  1.00  0.00     0.031 A 
ATOM     48  C   UNL A   1      44.902  30.676  31.092  1.00  0.00     0.049 A 
ATOM     49  C   UNL A   1      44.034  25.569  28.960  1.00  0.00     0.074 A 
ATOM     50  C   UNL A   1      46.169  30.936  31.585  1.00  0.00     0.029 A 
ATOM     51  N   UNL A   1      44.922  29.377  30.606  1.00  0.00    -0.354 N 
ATOM     52  N   UNL A   1      44.384  26.717  29.491  1.00  0.00    -0.248 NA
ATOM     53  C   UNL A   1      45.124  24.590  28.861  1.00  0.00     0.031 C 
ATOM     54  C   UNL A   1      46.968  29.812  31.352  1.00  0.00     0.029 A 
ATOM     55  C   UNL A   1      46.184  28.831  30.767  1.00  0.00     0.049 A 
ATOM     56  H   UNL A   1      44.152  28.913  30.204  1.00  0.00     0.167 HD
ATOM     57  C   UNL A   1      45.731  26.587  29.814  1.00  0.00     0.074 A 
ATOM     58  C   UNL A   1      46.126  25.247  29.430  1.00  0.00     0.031 C 
ATOM     59  C   UNL A   1      46.563  27.495  30.379  1.00  0.00     0.031 A 
BRANCH  46  60
ATOM     60  C   UNL A   1      43.915  32.955  31.575  1.00  0.00    -0.014 A 
ATOM     61  C   UNL A   1      43.697  33.267  32.929  1.00  0.00     0.010 A 
ATOM     62  C   UNL A   1      44.326  33.977  30.697  1.00  0.00     0.010 A 
ATOM     63  C   UNL A   1      43.842  34.580  33.387  1.00  0.00     0.020 A 
ATOM     64  C   UNL A   1      44.498  35.285  31.157  1.00  0.00     0.020 A 
ATOM     65  C   UNL A   1      44.237  35.582  32.496  1.00  0.00     0.054 A 
BRANCH  65  66
ATOM     66  S   UNL A   1      44.431  37.274  33.120  1.00  0.00     0.124 S 
ATOM     67  O   UNL A   1      44.690  38.020  31.892  1.00  0.00    -0.237 OA
ATOM     68  O   UNL A   1      43.139  37.533  33.751  1.00  0.00    -0.237 OA
ATOM     69  O   UNL A   1      45.562  37.178  34.041  1.00  0.00    -0.744 OA
ENDBRANCH  65  66
ENDBRANCH  46  60
BRANCH  47  70
ATOM     70  C   UNL A   1      42.481  23.777  27.885  1.00  0.00    -0.014 A 
ATOM     71  C   UNL A   1      42.677  23.545  26.513  1.00  0.00     0.010 A 
ATOM     72  C   UNL A   1      42.109  22.703  28.714  1.00  0.00     0.010 A 
ATOM     73  C   UNL A   1      42.492  22.267  25.976  1.00  0.00     0.020 A 
ATOM     74  C   UNL A   1      41.948  21.419  28.186  1.00  0.00     0.020 A 
ATOM     75  C   UNL A   1      42.130  21.212  26.818  1.00  0.00     0.054 A 
BRANCH  75  76
ATOM     76  S   UNL A   1      41.952  19.550  26.111  1.00  0.00     0.124 S 
ATOM     77  O   UNL A   1      42.831  19.618  24.949  1.00  0.00    -0.237 OA
ATOM     78  O   UNL A   1      42.409  18.692  27.202  1.00  0.00    -0.237 OA
ATOM     79  O   UNL A   1      40.524  19.456  25.815  1.00  0.00    -0.744 OA
ENDBRANCH  75  76
ENDBRANCH  47  70
BRANCH  59  80
ATOM     80  C   UNL A   1      47.979  27.064  30.649  1.00  0.00    -0.014 A 
ATOM     81  C   UNL A   1      49.004  27.304  29.718  1.00  0.00     0.010 A 
ATOM     82  C   UNL A   1      48.297  26.462  31.881  1.00  0.00     0.010 A 
ATOM     83  C   UNL A   1      50.319  26.927  30.003  1.00  0.00     0.020 A 
ATOM     84  C   UNL A   1      49.614  26.106  32.180  1.00  0.00     0.020 A 
ATOM     85  C   UNL A   1      50.615  26.330  31.233  1.00  0.00     0.054 A 
BRANCH  85  86
ATOM     86  S   UNL A   1      52.338  25.895  31.600  1.00  0.00     0.124 S 
ATOM     87  O   UNL A   1      52.678  26.857  32.646  1.00  0.00    -0.237 OA
ATOM     88  O   UNL A   1      52.232  24.505  32.036  1.00  0.00    -0.237 OA
ATOM     89  O   UNL A   1      53.023  26.092  30.326  1.00  0.00    -0.744 OA
ENDBRANCH  85  86
ENDBRANCH  59  80
ENDBRANCH  33  34
ENDBRANCH  25  28
ENDBRANCH   1  24
TORSDOF 15
ENDMDL
MODEL 3
REMARK VINA RESULT:     -11.5      3.118      4.804
REMARK SMILES CCc1ccc2c(c1)C=C(C(=O)NCCCNC(=O)c1ccc(-c3c4nc(c(-c5ccc(S(=O)(=O)[O-])cc5)c5ccc([nH]5)c(-c5ccc(S(=O)(=O)[O-])cc5)c5nc(c(-c6ccc(S(=O)(=O)[O-])cc6)c6ccc3[nH]6)C=C5)C=C4)cc1)[C@H](C(F)(F)F)O2
REMARK SMILES IDX 16 1 15 2 14 3 13 4 11 5 12 6 10 8 3 9 4 10 8 11 5 12 7 13
REMARK SMILES IDX 6 14 9 15 85 16 80 17 2 18 1 19 81 20 82 21 83 22 84 23
REMARK SMILES IDX 17 24 18 25 19 27 20 28 21 29 79 30 22 31 78 32 23 33 24 34
REMARK SMILES IDX 25 35 72 36 26 37 77 38 71 39 73 40 27 41 76 42 70 43 69 44
REMARK SMILES IDX 28 46 58 47 39 48 57 49 40 50 43 51 56 52 74 53 41 54 42 55
REMARK SMILES IDX 55 57 75 58 44 59 29 60 30 61 38 62 31 63 37 64 32 65 33 66
REMARK SMILES IDX 34 67 35 68 36 69 59 70 60 71 68 72 61 73 67 74 62 75 63 76
REMARK SMILES IDX 64 77 65 78 66 79 45 80 46 81 54 82 47 83 53 84 48 85 49 86
REMARK SMILES IDX 50 87 51 88 52 89
REMARK H PARENT 13 7 17 26 73 45 43 56
REMARK Flexibility Score: inf
ROOT
ATOM      1  C   UNL A   1      33.983  28.924  26.041  1.00  0.00     0.118 C 
ENDROOT
BRANCH   1   2
ATOM      2  C   UNL A   1      33.185  27.907  26.854  1.00  0.00     0.042 C 
BRANCH   2   3
ATOM      3  C   UNL A   1      31.862  27.503  26.196  1.00  0.00     0.118 C 
BRANCH   3   4
ATOM      4  N   UNL A   1      31.342  26.280  26.790  1.00  0.00    -0.352 N 
ATOM      5  C   UNL A   1      31.621  24.965  26.600  1.00  0.00     0.251 C 
ATOM      6  O   UNL A   1      30.922  24.139  27.181  1.00  0.00    -0.270 OA
ATOM      7  H   UNL A   1      30.645  26.439  27.468  1.00  0.00     0.163 HD
BRANCH   5   8
ATOM      8  C   UNL A   1      32.773  24.490  25.790  1.00  0.00     0.067 C 
ATOM      9  C   UNL A   1      37.255  22.727  25.253  1.00  0.00    -0.047 A 
ATOM     10  C   UNL A   1      37.002  22.537  23.889  1.00  0.00     0.007 A 
ATOM     11  C   UNL A   1      36.260  23.330  26.039  1.00  0.00     0.015 A 
ATOM     12  C   UNL A   1      35.765  22.890  23.339  1.00  0.00     0.047 A 
ATOM     13  C   UNL A   1      35.023  23.685  25.489  1.00  0.00     0.017 A 
ATOM     14  C   UNL A   1      34.777  23.455  24.141  1.00  0.00     0.128 A 
ATOM     15  C   UNL A   1      33.963  24.205  26.335  1.00  0.00     0.025 C 
ATOM     16  O   UNL A   1      33.575  23.699  23.548  1.00  0.00    -0.475 OA
ATOM     17  C   UNL A   1      32.593  24.500  24.273  1.00  0.00     0.314 C 
BRANCH   9  18
ATOM     18  C   UNL A   1      38.567  22.343  25.897  1.00  0.00     0.032 C 
ATOM     19  C   UNL A   1      39.239  23.454  26.695  1.00  0.00     0.009 C 
ENDBRANCH   9  18
BRANCH  17  20
ATOM     20  C   UNL A   1      31.201  24.087  23.740  1.00  0.00     0.429 C 
ATOM     21  F   UNL A   1      30.297  25.090  23.791  1.00  0.00    -0.167 F 
ATOM     22  F   UNL A   1      31.269  23.734  22.427  1.00  0.00    -0.167 F 
ATOM     23  F   UNL A   1      30.689  23.021  24.400  1.00  0.00    -0.167 F 
ENDBRANCH  17  20
ENDBRANCH   5   8
ENDBRANCH   3   4
ENDBRANCH   2   3
ENDBRANCH   1   2
BRANCH   1  24
ATOM     24  N   UNL A   1      33.709  30.290  26.465  1.00  0.00    -0.352 N 
ATOM     25  C   UNL A   1      34.273  31.027  27.477  1.00  0.00     0.251 C 
ATOM     26  H   UNL A   1      33.013  30.755  25.947  1.00  0.00     0.163 HD
ATOM     27  O   UNL A   1      33.737  32.075  27.823  1.00  0.00    -0.269 OA
BRANCH  25  28
ATOM     28  C   UNL A   1      35.507  30.568  28.153  1.00  0.00     0.039 A 
ATOM     29  C   UNL A   1      36.745  30.974  27.642  1.00  0.00     0.014 A 
ATOM     30  C   UNL A   1      35.456  29.700  29.246  1.00  0.00     0.014 A 
ATOM     31  C   UNL A   1      37.926  30.551  28.258  1.00  0.00     0.010 A 
ATOM     32  C   UNL A   1      36.632  29.330  29.898  1.00  0.00     0.010 A 
ATOM     33  C   UNL A   1      37.879  29.748  29.408  1.00  0.00    -0.014 A 
BRANCH  33  34
ATOM     34  C   UNL A   1      39.120  29.336  30.113  1.00  0.00     0.031 A 
ATOM     35  C   UNL A   1      39.572  30.068  31.348  1.00  0.00     0.074 A 
ATOM     36  C   UNL A   1      39.877  28.343  29.602  1.00  0.00     0.049 A 
ATOM     37  N   UNL A   1      40.664  29.904  32.051  1.00  0.00    -0.248 NA
ATOM     38  C   UNL A   1      38.693  31.138  31.846  1.00  0.00     0.031 C 
ATOM     39  C   UNL A   1      39.562  27.576  28.394  1.00  0.00     0.029 A 
ATOM     40  N   UNL A   1      41.069  27.815  30.029  1.00  0.00    -0.354 N 
ATOM     41  C   UNL A   1      40.613  30.859  33.060  1.00  0.00     0.074 A 
ATOM     42  C   UNL A   1      39.403  31.626  32.852  1.00  0.00     0.031 C 
ATOM     43  C   UNL A   1      40.526  26.663  28.191  1.00  0.00     0.029 A 
ATOM     44  C   UNL A   1      41.546  26.807  29.225  1.00  0.00     0.049 A 
ATOM     45  H   UNL A   1      41.539  28.129  30.835  1.00  0.00     0.167 HD
ATOM     46  C   UNL A   1      41.484  31.068  34.076  1.00  0.00     0.031 A 
ATOM     47  C   UNL A   1      42.682  26.086  29.302  1.00  0.00     0.031 A 
ATOM     48  C   UNL A   1      42.681  30.297  34.284  1.00  0.00     0.049 A 
ATOM     49  C   UNL A   1      43.641  26.347  30.429  1.00  0.00     0.074 A 
ATOM     50  C   UNL A   1      43.603  30.399  35.312  1.00  0.00     0.029 A 
ATOM     51  N   UNL A   1      43.124  29.281  33.451  1.00  0.00    -0.354 N 
ATOM     52  N   UNL A   1      43.547  27.221  31.404  1.00  0.00    -0.248 NA
ATOM     53  C   UNL A   1      44.855  25.521  30.472  1.00  0.00     0.031 C 
ATOM     54  C   UNL A   1      44.628  29.479  35.073  1.00  0.00     0.029 A 
ATOM     55  C   UNL A   1      44.316  28.763  33.928  1.00  0.00     0.049 A 
ATOM     56  H   UNL A   1      42.659  28.974  32.639  1.00  0.00     0.167 HD
ATOM     57  C   UNL A   1      44.679  27.030  32.191  1.00  0.00     0.074 A 
ATOM     58  C   UNL A   1      45.433  25.952  31.586  1.00  0.00     0.031 C 
ATOM     59  C   UNL A   1      45.055  27.689  33.314  1.00  0.00     0.031 A 
BRANCH  46  60
ATOM     60  C   UNL A   1      41.175  32.185  35.039  1.00  0.00    -0.014 A 
ATOM     61  C   UNL A   1      41.684  33.480  34.838  1.00  0.00     0.010 A 
ATOM     62  C   UNL A   1      40.332  31.947  36.141  1.00  0.00     0.010 A 
ATOM     63  C   UNL A   1      41.394  34.505  35.742  1.00  0.00     0.020 A 
ATOM     64  C   UNL A   1      40.017  32.975  37.034  1.00  0.00     0.020 A 
ATOM     65  C   UNL A   1      40.565  34.245  36.838  1.00  0.00     0.054 A 
BRANCH  65  66
ATOM     66  S   UNL A   1      40.194  35.597  37.989  1.00  0.00     0.124 S 
ATOM     67  O   UNL A   1      39.082  35.041  38.756  1.00  0.00    -0.237 OA
ATOM     68  O   UNL A   1      41.449  35.748  38.722  1.00  0.00    -0.237 OA
ATOM     69  O   UNL A   1      39.849  36.714  37.113  1.00  0.00    -0.744 OA
ENDBRANCH  65  66
ENDBRANCH  46  60
BRANCH  47  70
ATOM     70  C   UNL A   1      42.964  25.038  28.284  1.00  0.00    -0.014 A 
ATOM     71  C   UNL A   1      43.654  25.359  27.103  1.00  0.00     0.010 A 
ATOM     72  C   UNL A   1      42.560  23.707  28.499  1.00  0.00     0.010 A 
ATOM     73  C   UNL A   1      43.925  24.374  26.149  1.00  0.00     0.020 A 
ATOM     74  C   UNL A   1      42.852  22.714  27.561  1.00  0.00     0.020 A 
ATOM     75  C   UNL A   1      43.523  23.056  26.386  1.00  0.00     0.054 A 
BRANCH  75  76
ATOM     76  S   UNL A   1      43.935  21.781  25.162  1.00  0.00     0.124 S 
ATOM     77  O   UNL A   1      43.757  22.499  23.904  1.00  0.00    -0.237 OA
ATOM     78  O   UNL A   1      45.314  21.444  25.509  1.00  0.00    -0.237 OA
ATOM     79  O   UNL A   1      42.961  20.725  25.427  1.00  0.00    -0.744 OA
ENDBRANCH  75  76
ENDBRANCH  47  70
BRANCH  59  80
ATOM     80  C   UNL A   1      46.326  27.241  33.986  1.00  0.00    -0.014 A 
ATOM     81  C   UNL A   1      47.559  27.846  33.687  1.00  0.00     0.010 A 
ATOM     82  C   UNL A   1      46.273  26.241  34.974  1.00  0.00     0.010 A 
ATOM     83  C   UNL A   1      48.723  27.440  34.348  1.00  0.00     0.020 A 
ATOM     84  C   UNL A   1      47.428  25.850  35.654  1.00  0.00     0.020 A 
ATOM     85  C   UNL A   1      48.648  26.444  35.327  1.00  0.00     0.054 A 
BRANCH  85  86
ATOM     86  S   UNL A   1      50.163  25.970  36.206  1.00  0.00     0.124 S 
ATOM     87  O   UNL A   1      51.081  25.697  35.104  1.00  0.00    -0.237 OA
ATOM     88  O   UNL A   1      50.465  27.163  36.993  1.00  0.00    -0.237 OA
ATOM     89  O   UNL A   1      49.759  24.803  36.986  1.00  0.00    -0.744 OA
ENDBRANCH  85  86
ENDBRANCH  59  80
ENDBRANCH  33  34
ENDBRANCH  25  28
ENDBRANCH   1  24
TORSDOF 15
ENDMDL
