MODEL 1
REMARK VINA RESULT:     -11.7      0.000      0.000
REMARK SMILES C[C@](NC(=O)C[C@@H]1CCCCO1)(C(=O)NCCCNC(=O)c1ccc(-c2c3nc(c(-c4ccc(S(=O)(=O)[O-])cc4)c4ccc([nH]4)c(-c4ccc(S(=O)(=O)[O-])cc4)c4nc(c(-c5ccc(S(=O)(=O)[O-])cc5)c5ccc2[nH]5)C=C4)C=C3)cc1)c1ccccc1
REMARK SMILES IDX 17 1 16 2 15 3 13 4 14 5 2 7 1 8 82 9 83 10 87 11 84 12
REMARK SMILES IDX 86 13 85 14 3 15 4 16 5 18 6 19 7 20 8 21 12 22 9 23 11 24
REMARK SMILES IDX 10 25 18 26 19 27 20 28 21 30 22 31 23 32 81 33 24 34 80 35
REMARK SMILES IDX 25 36 26 37 27 38 74 39 28 40 79 41 73 42 75 43 29 44 78 45
REMARK SMILES IDX 72 46 71 47 30 49 60 50 41 51 59 52 42 53 45 54 58 55 76 56
REMARK SMILES IDX 43 57 44 58 57 60 77 61 46 62 31 63 32 64 40 65 33 66 39 67
REMARK SMILES IDX 34 68 35 69 36 70 37 71 38 72 61 73 62 74 70 75 63 76 69 77
REMARK SMILES IDX 64 78 65 79 66 80 67 81 68 82 47 83 48 84 56 85 49 86 55 87
REMARK SMILES IDX 50 88 51 89 52 90 53 91 54 92
REMARK H PARENT 15 6 3 17 19 29 75 48 45 59
REMARK Flexibility Score: inf
ROOT
ATOM      1  C   UNL A   1      33.783  28.790  25.799  1.00  0.00     0.042 C 
ENDROOT
BRANCH   1   2
ATOM      2  C   UNL A   1      32.751  29.363  24.848  1.00  0.00     0.117 C 
BRANCH   2   3
ATOM      3  N   UNL A   1      31.389  28.885  24.979  1.00  0.00    -0.354 N 
ATOM      4  C   UNL A   1      31.176  27.509  24.831  1.00  0.00     0.250 C 
ATOM      5  O   UNL A   1      31.094  26.819  25.852  1.00  0.00    -0.272 OA
ATOM      6  H   UNL A   1      30.645  29.503  25.162  1.00  0.00     0.163 HD
BRANCH   4   7
ATOM      7  C   UNL A   1      30.681  27.011  23.399  1.00  0.00     0.141 C 
ATOM      8  C   UNL A   1      29.880  25.701  23.309  1.00  0.00     0.051 C 
BRANCH   7   9
ATOM      9  C   UNL A   1      29.599  28.078  23.001  1.00  0.00    -0.013 A 
ATOM     10  C   UNL A   1      28.250  28.045  23.362  1.00  0.00     0.007 A 
ATOM     11  C   UNL A   1      30.021  29.168  22.184  1.00  0.00     0.007 A 
ATOM     12  C   UNL A   1      27.388  29.081  22.960  1.00  0.00     0.000 A 
ATOM     13  C   UNL A   1      29.176  30.208  21.815  1.00  0.00     0.000 A 
ATOM     14  C   UNL A   1      27.851  30.165  22.209  1.00  0.00     0.000 A 
ENDBRANCH   7   9
BRANCH   7  15
ATOM     15  N   UNL A   1      31.854  26.908  22.501  1.00  0.00    -0.338 N 
ATOM     16  C   UNL A   1      32.993  26.153  22.559  1.00  0.00     0.223 C 
ATOM     17  H   UNL A   1      31.805  27.495  21.713  1.00  0.00     0.164 HD
ATOM     18  O   UNL A   1      33.907  26.519  21.808  1.00  0.00    -0.275 OA
BRANCH  16  19
ATOM     19  C   UNL A   1      33.215  24.890  23.423  1.00  0.00     0.132 C 
BRANCH  19  20
ATOM     20  C   UNL A   1      34.294  24.929  24.529  1.00  0.00     0.127 C 
ATOM     21  C   UNL A   1      35.460  23.947  24.334  1.00  0.00     0.033 C 
ATOM     22  O   UNL A   1      33.785  24.917  25.863  1.00  0.00    -0.378 OA
ATOM     23  C   UNL A   1      35.297  22.627  25.075  1.00  0.00     0.005 C 
ATOM     24  C   UNL A   1      33.704  23.701  26.592  1.00  0.00     0.160 C 
ATOM     25  C   UNL A   1      34.975  22.895  26.534  1.00  0.00     0.029 C 
ENDBRANCH  19  20
ENDBRANCH  16  19
ENDBRANCH   7  15
ENDBRANCH   4   7
ENDBRANCH   2   3
ENDBRANCH   1   2
BRANCH   1  26
ATOM     26  C   UNL A   1      33.403  28.968  27.267  1.00  0.00     0.118 C 
BRANCH  26  27
ATOM     27  N   UNL A   1      33.594  30.313  27.814  1.00  0.00    -0.352 N 
ATOM     28  C   UNL A   1      34.725  30.919  28.330  1.00  0.00     0.251 C 
ATOM     29  H   UNL A   1      32.787  30.877  27.815  1.00  0.00     0.163 HD
ATOM     30  O   UNL A   1      34.672  32.074  28.723  1.00  0.00    -0.269 OA
BRANCH  28  31
ATOM     31  C   UNL A   1      35.980  30.143  28.466  1.00  0.00     0.039 A 
ATOM     32  C   UNL A   1      36.877  30.116  27.394  1.00  0.00     0.014 A 
ATOM     33  C   UNL A   1      36.310  29.517  29.665  1.00  0.00     0.014 A 
ATOM     34  C   UNL A   1      38.158  29.590  27.576  1.00  0.00     0.010 A 
ATOM     35  C   UNL A   1      37.617  29.103  29.880  1.00  0.00     0.010 A 
ATOM     36  C   UNL A   1      38.565  29.153  28.845  1.00  0.00    -0.014 A 
BRANCH  36  37
ATOM     37  C   UNL A   1      39.970  28.772  29.153  1.00  0.00     0.031 A 
ATOM     38  C   UNL A   1      40.915  29.803  29.712  1.00  0.00     0.074 A 
ATOM     39  C   UNL A   1      40.432  27.555  28.798  1.00  0.00     0.049 A 
ATOM     40  N   UNL A   1      42.216  29.753  29.832  1.00  0.00    -0.248 NA
ATOM     41  C   UNL A   1      40.319  31.079  30.143  1.00  0.00     0.031 C 
ATOM     42  C   UNL A   1      39.637  26.479  28.199  1.00  0.00     0.029 A 
ATOM     43  N   UNL A   1      41.698  27.025  28.868  1.00  0.00    -0.354 N 
ATOM     44  C   UNL A   1      42.597  31.005  30.299  1.00  0.00     0.074 A 
ATOM     45  C   UNL A   1      41.397  31.805  30.401  1.00  0.00     0.031 C 
ATOM     46  C   UNL A   1      40.425  25.413  27.982  1.00  0.00     0.029 A 
ATOM     47  C   UNL A   1      41.791  25.744  28.371  1.00  0.00     0.049 A 
ATOM     48  H   UNL A   1      42.468  27.515  29.238  1.00  0.00     0.167 HD
ATOM     49  C   UNL A   1      43.834  31.445  30.630  1.00  0.00     0.031 A 
ATOM     50  C   UNL A   1      42.857  24.933  28.228  1.00  0.00     0.031 A 
ATOM     51  C   UNL A   1      45.016  30.630  30.579  1.00  0.00     0.049 A 
ATOM     52  C   UNL A   1      44.215  25.427  28.644  1.00  0.00     0.074 A 
ATOM     53  C   UNL A   1      46.305  30.957  30.962  1.00  0.00     0.029 A 
ATOM     54  N   UNL A   1      45.051  29.318  30.133  1.00  0.00    -0.354 N 
ATOM     55  N   UNL A   1      44.551  26.602  29.122  1.00  0.00    -0.248 NA
ATOM     56  C   UNL A   1      45.336  24.487  28.510  1.00  0.00     0.031 C 
ATOM     57  C   UNL A   1      47.125  29.851  30.721  1.00  0.00     0.029 A 
ATOM     58  C   UNL A   1      46.339  28.820  30.229  1.00  0.00     0.049 A 
ATOM     59  H   UNL A   1      44.274  28.814  29.798  1.00  0.00     0.167 HD
ATOM     60  C   UNL A   1      45.915  26.530  29.375  1.00  0.00     0.074 A 
ATOM     61  C   UNL A   1      46.343  25.198  29.002  1.00  0.00     0.031 C 
ATOM     62  C   UNL A   1      46.739  27.483  29.874  1.00  0.00     0.031 A 
BRANCH  49  63
ATOM     63  C   UNL A   1      43.964  32.876  31.083  1.00  0.00    -0.014 A 
ATOM     64  C   UNL A   1      43.858  33.218  32.443  1.00  0.00     0.010 A 
ATOM     65  C   UNL A   1      44.214  33.888  30.139  1.00  0.00     0.010 A 
ATOM     66  C   UNL A   1      43.946  34.553  32.844  1.00  0.00     0.020 A 
ATOM     67  C   UNL A   1      44.333  35.221  30.541  1.00  0.00     0.020 A 
ATOM     68  C   UNL A   1      44.176  35.548  31.889  1.00  0.00     0.054 A 
BRANCH  68  69
ATOM     69  S   UNL A   1      44.295  37.272  32.440  1.00  0.00     0.124 S 
ATOM     70  O   UNL A   1      45.686  37.351  32.879  1.00  0.00    -0.237 OA
ATOM     71  O   UNL A   1      43.978  38.021  31.226  1.00  0.00    -0.237 OA
ATOM     72  O   UNL A   1      43.299  37.365  33.504  1.00  0.00    -0.744 OA
ENDBRANCH  68  69
ENDBRANCH  49  63
BRANCH  50  73
ATOM     73  C   UNL A   1      42.680  23.558  27.684  1.00  0.00    -0.014 A 
ATOM     74  C   UNL A   1      42.951  23.295  26.330  1.00  0.00     0.010 A 
ATOM     75  C   UNL A   1      42.259  22.502  28.513  1.00  0.00     0.010 A 
ATOM     76  C   UNL A   1      42.787  22.008  25.809  1.00  0.00     0.020 A 
ATOM     77  C   UNL A   1      42.117  21.208  28.003  1.00  0.00     0.020 A 
ATOM     78  C   UNL A   1      42.371  20.972  26.650  1.00  0.00     0.054 A 
BRANCH  78  79
ATOM     79  S   UNL A   1      42.212  19.299  25.962  1.00  0.00     0.124 S 
ATOM     80  O   UNL A   1      43.030  19.388  24.758  1.00  0.00    -0.237 OA
ATOM     81  O   UNL A   1      42.751  18.464  27.033  1.00  0.00    -0.237 OA
ATOM     82  O   UNL A   1      40.775  19.158  25.737  1.00  0.00    -0.744 OA
ENDBRANCH  78  79
ENDBRANCH  50  73
BRANCH  62  83
ATOM     83  C   UNL A   1      48.178  27.114  30.104  1.00  0.00    -0.014 A 
ATOM     84  C   UNL A   1      49.160  27.377  29.134  1.00  0.00     0.010 A 
ATOM     85  C   UNL A   1      48.561  26.583  31.349  1.00  0.00     0.010 A 
ATOM     86  C   UNL A   1      50.504  27.107  29.405  1.00  0.00     0.020 A 
ATOM     87  C   UNL A   1      49.906  26.333  31.631  1.00  0.00     0.020 A 
ATOM     88  C   UNL A   1      50.868  26.591  30.653  1.00  0.00     0.054 A 
BRANCH  88  89
ATOM     89  S   UNL A   1      52.627  26.327  31.011  1.00  0.00     0.124 S 
ATOM     90  O   UNL A   1      53.200  26.238  29.671  1.00  0.00    -0.237 OA
ATOM     91  O   UNL A   1      52.985  27.524  31.768  1.00  0.00    -0.237 OA
ATOM     92  O   UNL A   1      52.642  25.085  31.779  1.00  0.00    -0.744 OA
ENDBRANCH  88  89
ENDBRANCH  62  83
ENDBRANCH  36  37
ENDBRANCH  28  31
ENDBRANCH  26  27
ENDBRANCH   1  26
TORSDOF 17
ENDMDL
MODEL 2
REMARK VINA RESULT:     -11.3      4.887     10.757
REMARK SMILES C[C@](NC(=O)C[C@@H]1CCCCO1)(C(=O)NCCCNC(=O)c1ccc(-c2c3nc(c(-c4ccc(S(=O)(=O)[O-])cc4)c4ccc([nH]4)c(-c4ccc(S(=O)(=O)[O-])cc4)c4nc(c(-c5ccc(S(=O)(=O)[O-])cc5)c5ccc2[nH]5)C=C4)C=C3)cc1)c1ccccc1
REMARK SMILES IDX 17 1 16 2 15 3 13 4 14 5 2 7 1 8 82 9 83 10 87 11 84 12
REMARK SMILES IDX 86 13 85 14 3 15 4 16 5 18 6 19 7 20 8 21 12 22 9 23 11 24
REMARK SMILES IDX 10 25 18 26 19 27 20 28 21 30 22 31 23 32 81 33 24 34 80 35
REMARK SMILES IDX 25 36 26 37 27 38 74 39 28 40 79 41 73 42 75 43 29 44 78 45
REMARK SMILES IDX 72 46 71 47 30 49 60 50 41 51 59 52 42 53 45 54 58 55 76 56
REMARK SMILES IDX 43 57 44 58 57 60 77 61 46 62 31 63 32 64 40 65 33 66 39 67
REMARK SMILES IDX 34 68 35 69 36 70 37 71 38 72 61 73 62 74 70 75 63 76 69 77
REMARK SMILES IDX 64 78 65 79 66 80 67 81 68 82 47 83 48 84 56 85 49 86 55 87
REMARK SMILES IDX 50 88 51 89 52 90 53 91 54 92
REMARK H PARENT 15 6 3 17 19 29 75 48 45 59
REMARK Flexibility Score: inf
ROOT
ATOM      1  C   UNL A   1      37.441  22.979  25.425  1.00  0.00     0.042 C 
ENDROOT
BRANCH   1   2
ATOM      2  C   UNL A   1      36.320  23.710  24.715  1.00  0.00     0.117 C 
BRANCH   2   3
ATOM      3  N   UNL A   1      35.136  24.025  25.490  1.00  0.00    -0.354 N 
ATOM      4  C   UNL A   1      34.419  22.949  26.029  1.00  0.00     0.250 C 
ATOM      5  O   UNL A   1      34.624  22.643  27.208  1.00  0.00    -0.272 OA
ATOM      6  H   UNL A   1      34.848  24.955  25.631  1.00  0.00     0.163 HD
BRANCH   4   7
ATOM      7  C   UNL A   1      33.140  22.460  25.210  1.00  0.00     0.141 C 
ATOM      8  C   UNL A   1      32.900  23.035  23.804  1.00  0.00     0.051 C 
BRANCH   7   9
ATOM      9  C   UNL A   1      33.470  20.957  24.890  1.00  0.00    -0.013 A 
ATOM     10  C   UNL A   1      34.745  20.388  24.876  1.00  0.00     0.007 A 
ATOM     11  C   UNL A   1      32.378  20.100  24.567  1.00  0.00     0.007 A 
ATOM     12  C   UNL A   1      34.902  19.018  24.599  1.00  0.00     0.000 A 
ATOM     13  C   UNL A   1      32.530  18.740  24.325  1.00  0.00     0.000 A 
ATOM     14  C   UNL A   1      33.800  18.195  24.344  1.00  0.00     0.000 A 
ENDBRANCH   7   9
BRANCH   7  15
ATOM     15  N   UNL A   1      31.931  22.700  26.030  1.00  0.00    -0.338 N 
ATOM     16  C   UNL A   1      31.272  23.846  26.382  1.00  0.00     0.223 C 
ATOM     17  H   UNL A   1      31.526  21.880  26.392  1.00  0.00     0.164 HD
ATOM     18  O   UNL A   1      30.469  23.726  27.318  1.00  0.00    -0.275 OA
BRANCH  16  19
ATOM     19  C   UNL A   1      31.404  25.228  25.702  1.00  0.00     0.132 C 
BRANCH  19  20
ATOM     20  C   UNL A   1      32.360  26.271  26.323  1.00  0.00     0.127 C 
ATOM     21  C   UNL A   1      31.709  27.615  26.687  1.00  0.00     0.033 C 
ATOM     22  O   UNL A   1      33.601  26.432  25.634  1.00  0.00    -0.378 OA
ATOM     23  C   UNL A   1      31.851  28.689  25.617  1.00  0.00     0.005 C 
ATOM     24  C   UNL A   1      33.769  27.482  24.692  1.00  0.00     0.160 C 
ATOM     25  C   UNL A   1      33.308  28.819  25.212  1.00  0.00     0.029 C 
ENDBRANCH  19  20
ENDBRANCH  16  19
ENDBRANCH   7  15
ENDBRANCH   4   7
ENDBRANCH   2   3
ENDBRANCH   1   2
BRANCH   1  26
ATOM     26  C   UNL A   1      38.278  23.893  26.315  1.00  0.00     0.118 C 
BRANCH  26  27
ATOM     27  N   UNL A   1      39.727  23.690  26.251  1.00  0.00    -0.352 N 
ATOM     28  C   UNL A   1      40.758  24.404  26.835  1.00  0.00     0.251 C 
ATOM     29  H   UNL A   1      40.014  22.923  25.705  1.00  0.00     0.163 HD
ATOM     30  O   UNL A   1      41.915  24.051  26.667  1.00  0.00    -0.269 OA
BRANCH  28  31
ATOM     31  C   UNL A   1      40.459  25.634  27.606  1.00  0.00     0.039 A 
ATOM     32  C   UNL A   1      39.447  25.597  28.570  1.00  0.00     0.014 A 
ATOM     33  C   UNL A   1      41.223  26.787  27.442  1.00  0.00     0.014 A 
ATOM     34  C   UNL A   1      39.302  26.663  29.462  1.00  0.00     0.010 A 
ATOM     35  C   UNL A   1      41.156  27.789  28.399  1.00  0.00     0.010 A 
ATOM     36  C   UNL A   1      40.210  27.731  29.435  1.00  0.00    -0.014 A 
BRANCH  36  37
ATOM     37  C   UNL A   1      40.236  28.792  30.478  1.00  0.00     0.031 A 
ATOM     38  C   UNL A   1      41.161  28.652  31.658  1.00  0.00     0.074 A 
ATOM     39  C   UNL A   1      39.335  29.796  30.442  1.00  0.00     0.049 A 
ATOM     40  N   UNL A   1      41.179  29.325  32.778  1.00  0.00    -0.248 NA
ATOM     41  C   UNL A   1      42.162  27.575  31.587  1.00  0.00     0.031 C 
ATOM     42  C   UNL A   1      38.347  30.022  29.383  1.00  0.00     0.029 A 
ATOM     43  N   UNL A   1      39.089  30.808  31.338  1.00  0.00    -0.354 N 
ATOM     44  C   UNL A   1      42.153  28.720  33.564  1.00  0.00     0.074 A 
ATOM     45  C   UNL A   1      42.673  27.601  32.809  1.00  0.00     0.031 C 
ATOM     46  C   UNL A   1      37.623  31.114  29.677  1.00  0.00     0.029 A 
ATOM     47  C   UNL A   1      38.052  31.636  30.969  1.00  0.00     0.049 A 
ATOM     48  H   UNL A   1      39.605  30.930  32.168  1.00  0.00     0.167 HD
ATOM     49  C   UNL A   1      42.588  29.073  34.796  1.00  0.00     0.031 A 
ATOM     50  C   UNL A   1      37.497  32.685  31.607  1.00  0.00     0.031 A 
ATOM     51  C   UNL A   1      42.107  30.218  35.520  1.00  0.00     0.049 A 
ATOM     52  C   UNL A   1      38.027  33.087  32.955  1.00  0.00     0.074 A 
ATOM     53  C   UNL A   1      42.533  30.705  36.742  1.00  0.00     0.029 A 
ATOM     54  N   UNL A   1      41.103  31.066  35.077  1.00  0.00    -0.354 N 
ATOM     55  N   UNL A   1      38.976  32.527  33.665  1.00  0.00    -0.248 NA
ATOM     56  C   UNL A   1      37.417  34.266  33.586  1.00  0.00     0.031 C 
ATOM     57  C   UNL A   1      41.767  31.832  37.053  1.00  0.00     0.029 A 
ATOM     58  C   UNL A   1      40.894  32.073  36.003  1.00  0.00     0.049 A 
ATOM     59  H   UNL A   1      40.612  30.966  34.230  1.00  0.00     0.167 HD
ATOM     60  C   UNL A   1      39.100  33.303  34.811  1.00  0.00     0.074 A 
ATOM     61  C   UNL A   1      38.131  34.374  34.699  1.00  0.00     0.031 C 
ATOM     62  C   UNL A   1      39.941  33.144  35.861  1.00  0.00     0.031 A 
BRANCH  49  63
ATOM     63  C   UNL A   1      43.644  28.209  35.434  1.00  0.00    -0.014 A 
ATOM     64  C   UNL A   1      43.293  27.120  36.251  1.00  0.00     0.010 A 
ATOM     65  C   UNL A   1      45.004  28.478  35.197  1.00  0.00     0.010 A 
ATOM     66  C   UNL A   1      44.284  26.348  36.864  1.00  0.00     0.020 A 
ATOM     67  C   UNL A   1      45.997  27.689  35.783  1.00  0.00     0.020 A 
ATOM     68  C   UNL A   1      45.630  26.642  36.631  1.00  0.00     0.054 A 
BRANCH  68  69
ATOM     69  S   UNL A   1      46.896  25.619  37.431  1.00  0.00     0.124 S 
ATOM     70  O   UNL A   1      46.238  25.255  38.684  1.00  0.00    -0.237 OA
ATOM     71  O   UNL A   1      47.077  24.526  36.480  1.00  0.00    -0.237 OA
ATOM     72  O   UNL A   1      48.037  26.520  37.565  1.00  0.00    -0.744 OA
ENDBRANCH  68  69
ENDBRANCH  49  63
BRANCH  50  73
ATOM     73  C   UNL A   1      36.388  33.445  30.965  1.00  0.00    -0.014 A 
ATOM     74  C   UNL A   1      35.173  33.630  31.648  1.00  0.00     0.010 A 
ATOM     75  C   UNL A   1      36.543  34.002  29.683  1.00  0.00     0.010 A 
ATOM     76  C   UNL A   1      34.126  34.340  31.054  1.00  0.00     0.020 A 
ATOM     77  C   UNL A   1      35.507  34.735  29.095  1.00  0.00     0.020 A 
ATOM     78  C   UNL A   1      34.300  34.889  29.781  1.00  0.00     0.054 A 
BRANCH  78  79
ATOM     79  S   UNL A   1      32.943  35.850  29.051  1.00  0.00     0.124 S 
ATOM     80  O   UNL A   1      32.168  36.223  30.229  1.00  0.00    -0.237 OA
ATOM     81  O   UNL A   1      33.650  36.943  28.387  1.00  0.00    -0.237 OA
ATOM     82  O   UNL A   1      32.297  34.898  28.150  1.00  0.00    -0.744 OA
ENDBRANCH  78  79
ENDBRANCH  50  73
BRANCH  62  83
ATOM     83  C   UNL A   1      39.902  34.176  36.952  1.00  0.00    -0.014 A 
ATOM     84  C   UNL A   1      40.518  35.429  36.791  1.00  0.00     0.010 A 
ATOM     85  C   UNL A   1      39.154  33.919  38.115  1.00  0.00     0.010 A 
ATOM     86  C   UNL A   1      40.392  36.406  37.782  1.00  0.00     0.020 A 
ATOM     87  C   UNL A   1      39.008  34.902  39.097  1.00  0.00     0.020 A 
ATOM     88  C   UNL A   1      39.635  36.137  38.926  1.00  0.00     0.054 A 
BRANCH  88  89
ATOM     89  S   UNL A   1      39.417  37.450  40.160  1.00  0.00     0.124 S 
ATOM     90  O   UNL A   1      38.586  38.410  39.439  1.00  0.00    -0.237 OA
ATOM     91  O   UNL A   1      38.759  36.752  41.261  1.00  0.00    -0.237 OA
ATOM     92  O   UNL A   1      40.782  37.892  40.439  1.00  0.00    -0.744 OA
ENDBRANCH  88  89
ENDBRANCH  62  83
ENDBRANCH  36  37
ENDBRANCH  28  31
ENDBRANCH  26  27
ENDBRANCH   1  26
TORSDOF 17
ENDMDL
MODEL 3
REMARK VINA RESULT:     -11.2      3.025      9.515
REMARK SMILES C[C@](NC(=O)C[C@@H]1CCCCO1)(C(=O)NCCCNC(=O)c1ccc(-c2c3nc(c(-c4ccc(S(=O)(=O)[O-])cc4)c4ccc([nH]4)c(-c4ccc(S(=O)(=O)[O-])cc4)c4nc(c(-c5ccc(S(=O)(=O)[O-])cc5)c5ccc2[nH]5)C=C4)C=C3)cc1)c1ccccc1
REMARK SMILES IDX 17 1 16 2 15 3 13 4 14 5 2 7 1 8 82 9 83 10 87 11 84 12
REMARK SMILES IDX 86 13 85 14 3 15 4 16 5 18 6 19 7 20 8 21 12 22 9 23 11 24
REMARK SMILES IDX 10 25 18 26 19 27 20 28 21 30 22 31 23 32 81 33 24 34 80 35
REMARK SMILES IDX 25 36 26 37 27 38 74 39 28 40 79 41 73 42 75 43 29 44 78 45
REMARK SMILES IDX 72 46 71 47 30 49 60 50 41 51 59 52 42 53 45 54 58 55 76 56
REMARK SMILES IDX 43 57 44 58 57 60 77 61 46 62 31 63 32 64 40 65 33 66 39 67
REMARK SMILES IDX 34 68 35 69 36 70 37 71 38 72 61 73 62 74 70 75 63 76 69 77
REMARK SMILES IDX 64 78 65 79 66 80 67 81 68 82 47 83 48 84 56 85 49 86 55 87
REMARK SMILES IDX 50 88 51 89 52 90 53 91 54 92
REMARK H PARENT 15 6 3 17 19 29 75 48 45 59
REMARK Flexibility Score: inf
ROOT
ATOM      1  C   UNL A   1      36.115  22.361  24.423  1.00  0.00     0.042 C 
ENDROOT
BRANCH   1   2
ATOM      2  C   UNL A   1      35.277  23.156  23.442  1.00  0.00     0.117 C 
BRANCH   2   3
ATOM      3  N   UNL A   1      34.231  23.996  23.991  1.00  0.00    -0.354 N 
ATOM      4  C   UNL A   1      33.437  23.448  25.007  1.00  0.00     0.250 C 
ATOM      5  O   UNL A   1      33.719  23.718  26.178  1.00  0.00    -0.272 OA
ATOM      6  H   UNL A   1      34.084  24.912  23.663  1.00  0.00     0.163 HD
BRANCH   4   7
ATOM      7  C   UNL A   1      32.027  22.844  24.566  1.00  0.00     0.141 C 
ATOM      8  C   UNL A   1      31.485  23.184  23.168  1.00  0.00     0.051 C 
BRANCH   7   9
ATOM      9  C   UNL A   1      32.322  21.306  24.431  1.00  0.00    -0.013 A 
ATOM     10  C   UNL A   1      32.726  20.460  25.465  1.00  0.00     0.007 A 
ATOM     11  C   UNL A   1      32.184  20.722  23.138  1.00  0.00     0.007 A 
ATOM     12  C   UNL A   1      32.931  19.091  25.216  1.00  0.00     0.000 A 
ATOM     13  C   UNL A   1      32.356  19.364  22.898  1.00  0.00     0.000 A 
ATOM     14  C   UNL A   1      32.729  18.542  23.946  1.00  0.00     0.000 A 
ENDBRANCH   7   9
BRANCH   7  15
ATOM     15  N   UNL A   1      31.011  23.226  25.572  1.00  0.00    -0.338 N 
ATOM     16  C   UNL A   1      30.452  24.430  25.902  1.00  0.00     0.223 C 
ATOM     17  H   UNL A   1      30.675  22.471  26.105  1.00  0.00     0.164 HD
ATOM     18  O   UNL A   1      29.852  24.454  26.985  1.00  0.00    -0.275 OA
BRANCH  16  19
ATOM     19  C   UNL A   1      30.465  25.716  25.042  1.00  0.00     0.132 C 
BRANCH  19  20
ATOM     20  C   UNL A   1      31.703  26.639  25.110  1.00  0.00     0.127 C 
ATOM     21  C   UNL A   1      32.185  26.978  26.529  1.00  0.00     0.033 C 
ATOM     22  O   UNL A   1      31.640  27.788  24.264  1.00  0.00    -0.378 OA
ATOM     23  C   UNL A   1      31.651  28.295  27.074  1.00  0.00     0.005 C 
ATOM     24  C   UNL A   1      31.218  29.042  24.783  1.00  0.00     0.160 C 
ATOM     25  C   UNL A   1      31.908  29.406  26.072  1.00  0.00     0.029 C 
ENDBRANCH  19  20
ENDBRANCH  16  19
ENDBRANCH   7  15
ENDBRANCH   4   7
ENDBRANCH   2   3
ENDBRANCH   1   2
BRANCH   1  26
ATOM     26  C   UNL A   1      37.205  23.196  25.090  1.00  0.00     0.118 C 
BRANCH  26  27
ATOM     27  N   UNL A   1      38.415  22.469  25.479  1.00  0.00    -0.352 N 
ATOM     28  C   UNL A   1      39.469  22.851  26.289  1.00  0.00     0.251 C 
ATOM     29  H   UNL A   1      38.491  21.562  25.103  1.00  0.00     0.163 HD
ATOM     30  O   UNL A   1      40.385  22.074  26.503  1.00  0.00    -0.269 OA
BRANCH  28  31
ATOM     31  C   UNL A   1      39.514  24.227  26.839  1.00  0.00     0.039 A 
ATOM     32  C   UNL A   1      38.995  24.459  28.117  1.00  0.00     0.014 A 
ATOM     33  C   UNL A   1      40.135  25.259  26.142  1.00  0.00     0.014 A 
ATOM     34  C   UNL A   1      39.231  25.684  28.747  1.00  0.00     0.010 A 
ATOM     35  C   UNL A   1      40.469  26.428  26.811  1.00  0.00     0.010 A 
ATOM     36  C   UNL A   1      40.041  26.648  28.129  1.00  0.00    -0.014 A 
BRANCH  36  37
ATOM     37  C   UNL A   1      40.494  27.883  28.825  1.00  0.00     0.031 A 
ATOM     38  C   UNL A   1      41.833  27.898  29.515  1.00  0.00     0.074 A 
ATOM     39  C   UNL A   1      39.653  28.929  28.960  1.00  0.00     0.049 A 
ATOM     40  N   UNL A   1      42.316  28.769  30.362  1.00  0.00    -0.248 NA
ATOM     41  C   UNL A   1      42.721  26.752  29.259  1.00  0.00     0.031 C 
ATOM     42  C   UNL A   1      38.308  29.026  28.386  1.00  0.00     0.029 A 
ATOM     43  N   UNL A   1      39.799  30.109  29.649  1.00  0.00    -0.354 N 
ATOM     44  C   UNL A   1      43.536  28.250  30.778  1.00  0.00     0.074 A 
ATOM     45  C   UNL A   1      43.699  26.971  30.124  1.00  0.00     0.031 C 
ATOM     46  C   UNL A   1      37.765  30.207  28.722  1.00  0.00     0.029 A 
ATOM     47  C   UNL A   1      38.695  30.930  29.582  1.00  0.00     0.049 A 
ATOM     48  H   UNL A   1      40.616  30.347  30.144  1.00  0.00     0.167 HD
ATOM     49  C   UNL A   1      44.448  28.796  31.617  1.00  0.00     0.031 A 
ATOM     50  C   UNL A   1      38.451  32.122  30.162  1.00  0.00     0.031 A 
ATOM     51  C   UNL A   1      44.306  30.092  32.222  1.00  0.00     0.049 A 
ATOM     52  C   UNL A   1      39.497  32.731  31.054  1.00  0.00     0.074 A 
ATOM     53  C   UNL A   1      45.204  30.768  33.028  1.00  0.00     0.029 A 
ATOM     54  N   UNL A   1      43.201  30.916  32.073  1.00  0.00    -0.354 N 
ATOM     55  N   UNL A   1      40.663  32.243  31.404  1.00  0.00    -0.248 NA
ATOM     56  C   UNL A   1      39.200  34.052  31.624  1.00  0.00     0.031 C 
ATOM     57  C   UNL A   1      44.630  31.990  33.390  1.00  0.00     0.029 A 
ATOM     58  C   UNL A   1      43.393  32.094  32.773  1.00  0.00     0.049 A 
ATOM     59  H   UNL A   1      42.399  30.696  31.546  1.00  0.00     0.167 HD
ATOM     60  C   UNL A   1      41.251  33.212  32.208  1.00  0.00     0.074 A 
ATOM     61  C   UNL A   1      40.316  34.314  32.291  1.00  0.00     0.031 C 
ATOM     62  C   UNL A   1      42.459  33.190  32.822  1.00  0.00     0.031 A 
BRANCH  49  63
ATOM     63  C   UNL A   1      45.683  27.989  31.921  1.00  0.00    -0.014 A 
ATOM     64  C   UNL A   1      45.710  27.083  32.996  1.00  0.00     0.010 A 
ATOM     65  C   UNL A   1      46.823  28.125  31.110  1.00  0.00     0.010 A 
ATOM     66  C   UNL A   1      46.873  26.367  33.287  1.00  0.00     0.020 A 
ATOM     67  C   UNL A   1      47.979  27.387  31.380  1.00  0.00     0.020 A 
ATOM     68  C   UNL A   1      48.004  26.529  32.481  1.00  0.00     0.054 A 
BRANCH  68  69
ATOM     69  S   UNL A   1      49.498  25.580  32.876  1.00  0.00     0.124 S 
ATOM     70  O   UNL A   1      48.992  24.617  33.851  1.00  0.00    -0.237 OA
ATOM     71  O   UNL A   1      49.877  25.020  31.581  1.00  0.00    -0.237 OA
ATOM     72  O   UNL A   1      50.415  26.584  33.409  1.00  0.00    -0.744 OA
ENDBRANCH  68  69
ENDBRANCH  49  63
BRANCH  50  73
ATOM     73  C   UNL A   1      37.168  32.830  29.897  1.00  0.00    -0.014 A 
ATOM     74  C   UNL A   1      36.139  32.807  30.856  1.00  0.00     0.010 A 
ATOM     75  C   UNL A   1      36.971  33.544  28.702  1.00  0.00     0.010 A 
ATOM     76  C   UNL A   1      34.931  33.467  30.617  1.00  0.00     0.020 A 
ATOM     77  C   UNL A   1      35.773  34.228  28.469  1.00  0.00     0.020 A 
ATOM     78  C   UNL A   1      34.755  34.174  29.424  1.00  0.00     0.054 A 
BRANCH  78  79
ATOM     79  S   UNL A   1      33.196  35.065  29.158  1.00  0.00     0.124 S 
ATOM     80  O   UNL A   1      32.583  35.005  30.480  1.00  0.00    -0.237 OA
ATOM     81  O   UNL A   1      33.654  36.385  28.732  1.00  0.00    -0.237 OA
ATOM     82  O   UNL A   1      32.529  34.281  28.120  1.00  0.00    -0.744 OA
ENDBRANCH  78  79
ENDBRANCH  50  73
BRANCH  62  83
ATOM     83  C   UNL A   1      42.874  34.411  33.593  1.00  0.00    -0.014 A 
ATOM     84  C   UNL A   1      42.566  34.551  34.957  1.00  0.00     0.010 A 
ATOM     85  C   UNL A   1      43.668  35.385  32.962  1.00  0.00     0.010 A 
ATOM     86  C   UNL A   1      43.039  35.651  35.675  1.00  0.00     0.020 A 
ATOM     87  C   UNL A   1      44.161  36.476  33.683  1.00  0.00     0.020 A 
ATOM     88  C   UNL A   1      43.837  36.605  35.034  1.00  0.00     0.054 A 
BRANCH  88  89
ATOM     89  S   UNL A   1      44.508  37.981  36.007  1.00  0.00     0.124 S 
ATOM     90  O   UNL A   1      45.947  37.773  35.876  1.00  0.00    -0.237 OA
ATOM     91  O   UNL A   1      43.977  39.153  35.315  1.00  0.00    -0.237 OA
ATOM     92  O   UNL A   1      43.965  37.757  37.345  1.00  0.00    -0.744 OA
ENDBRANCH  88  89
ENDBRANCH  62  83
ENDBRANCH  36  37
ENDBRANCH  28  31
ENDBRANCH  26  27
ENDBRANCH   1  26
TORSDOF 17
ENDMDL
