MODEL 1
REMARK VINA RESULT:     -11.9      0.000      0.000
REMARK SMILES O=C(NCCCNC(=O)c1ccc2c(c1)CCN2C(=O)c1ccn[nH]1)c1ccc(-c2c3nc(c(-c4ccc(S(=O)(=O)[O-])cc4)c4ccc([nH]4)c(-c4ccc(S(=O)(=O)[O-])cc4)c4nc(c(-c5ccc(S(=O)(=O)[O-])cc5)c5ccc2[nH]5)C=C4)C=C3)cc1
REMARK SMILES IDX 4 1 3 2 1 3 2 4 26 6 27 7 85 8 28 9 84 10 29 11 30 12 31 13
REMARK SMILES IDX 78 14 32 15 83 16 77 17 79 18 33 19 82 20 76 21 75 22 34 24
REMARK SMILES IDX 64 25 45 26 63 27 46 28 49 29 62 30 80 31 47 32 48 33 61 35
REMARK SMILES IDX 81 36 50 37 35 38 36 39 44 40 37 41 43 42 38 43 39 44 40 45
REMARK SMILES IDX 41 46 42 47 65 48 66 49 74 50 67 51 73 52 68 53 69 54 70 55
REMARK SMILES IDX 71 56 72 57 51 58 52 59 60 60 53 61 59 62 54 63 55 64 56 65
REMARK SMILES IDX 57 66 58 67 5 68 6 69 7 70 8 71 9 73 10 74 11 75 15 76 12 77
REMARK SMILES IDX 14 78 13 79 16 80 18 81 17 82 19 83 20 84 21 85 22 86 25 87
REMARK SMILES IDX 23 88 24 89
REMARK H PARENT 3 5 79 23 49 34 7 72 25 90
REMARK Flexibility Score: inf
ROOT
ATOM      1  C   UNL A   1      33.704  28.303  27.013  1.00  0.00     0.118 C 
ENDROOT
BRANCH   1   2
ATOM      2  N   UNL A   1      33.590  29.703  27.400  1.00  0.00    -0.352 N 
ATOM      3  O   UNL A   1      34.111  31.594  28.497  1.00  0.00    -0.269 OA
ATOM      4  C   UNL A   1      34.479  30.500  28.079  1.00  0.00     0.251 C 
ATOM      5  H   UNL A   1      32.751  30.143  27.134  1.00  0.00     0.163 HD
BRANCH   4   6
ATOM      6  C   UNL A   1      35.865  30.041  28.310  1.00  0.00     0.039 A 
ATOM      7  C   UNL A   1      36.837  30.185  27.317  1.00  0.00     0.014 A 
ATOM      8  C   UNL A   1      36.211  29.502  29.553  1.00  0.00     0.014 A 
ATOM      9  C   UNL A   1      38.112  29.673  27.513  1.00  0.00     0.010 A 
ATOM     10  C   UNL A   1      37.521  29.077  29.785  1.00  0.00     0.010 A 
ATOM     11  C   UNL A   1      38.479  29.149  28.761  1.00  0.00    -0.014 A 
BRANCH  11  12
ATOM     12  C   UNL A   1      39.902  28.817  29.008  1.00  0.00     0.031 A 
ATOM     13  C   UNL A   1      40.485  27.498  28.595  1.00  0.00     0.074 A 
ATOM     14  C   UNL A   1      40.666  29.746  29.619  1.00  0.00     0.049 A 
ATOM     15  N   UNL A   1      41.710  27.064  28.750  1.00  0.00    -0.248 NA
ATOM     16  C   UNL A   1      39.589  26.537  27.931  1.00  0.00     0.031 C 
ATOM     17  C   UNL A   1      40.192  31.055  30.084  1.00  0.00     0.029 A 
ATOM     18  N   UNL A   1      41.996  29.742  29.951  1.00  0.00    -0.354 N 
ATOM     19  C   UNL A   1      41.728  25.776  28.231  1.00  0.00     0.074 A 
ATOM     20  C   UNL A   1      40.390  25.492  27.759  1.00  0.00     0.031 C 
ATOM     21  C   UNL A   1      41.220  31.737  30.608  1.00  0.00     0.029 A 
ATOM     22  C   UNL A   1      42.405  30.892  30.582  1.00  0.00     0.049 A 
ATOM     23  H   UNL A   1      42.598  28.988  29.758  1.00  0.00     0.167 HD
ATOM     24  C   UNL A   1      42.770  24.914  28.161  1.00  0.00     0.031 A 
ATOM     25  C   UNL A   1      43.596  31.223  31.115  1.00  0.00     0.031 A 
ATOM     26  C   UNL A   1      44.100  25.216  28.618  1.00  0.00     0.049 A 
ATOM     27  C   UNL A   1      44.719  30.234  31.045  1.00  0.00     0.074 A 
ATOM     28  C   UNL A   1      45.241  24.437  28.515  1.00  0.00     0.029 A 
ATOM     29  N   UNL A   1      44.468  26.378  29.279  1.00  0.00    -0.354 N 
ATOM     30  N   UNL A   1      44.733  29.049  30.482  1.00  0.00    -0.248 NA
ATOM     31  C   UNL A   1      45.980  30.616  31.691  1.00  0.00     0.031 C 
ATOM     32  C   UNL A   1      46.285  25.105  29.164  1.00  0.00     0.029 A 
ATOM     33  C   UNL A   1      45.806  26.318  29.630  1.00  0.00     0.049 A 
ATOM     34  H   UNL A   1      43.867  27.134  29.470  1.00  0.00     0.167 HD
ATOM     35  C   UNL A   1      46.005  28.542  30.711  1.00  0.00     0.074 A 
ATOM     36  C   UNL A   1      46.740  29.560  31.435  1.00  0.00     0.031 C 
ATOM     37  C   UNL A   1      46.513  27.336  30.364  1.00  0.00     0.031 A 
BRANCH  24  38
ATOM     38  C   UNL A   1      42.524  23.543  27.590  1.00  0.00    -0.014 A 
ATOM     39  C   UNL A   1      42.814  23.250  26.247  1.00  0.00     0.010 A 
ATOM     40  C   UNL A   1      42.099  22.507  28.443  1.00  0.00     0.010 A 
ATOM     41  C   UNL A   1      42.674  21.945  25.764  1.00  0.00     0.020 A 
ATOM     42  C   UNL A   1      41.973  21.198  27.967  1.00  0.00     0.020 A 
ATOM     43  C   UNL A   1      42.256  20.927  26.628  1.00  0.00     0.054 A 
BRANCH  43  44
ATOM     44  S   UNL A   1      42.145  19.232  25.989  1.00  0.00     0.124 S 
ATOM     45  O   UNL A   1      40.713  19.099  25.737  1.00  0.00    -0.237 OA
ATOM     46  O   UNL A   1      42.989  19.282  24.797  1.00  0.00    -0.237 OA
ATOM     47  O   UNL A   1      42.664  18.414  27.081  1.00  0.00    -0.744 OA
ENDBRANCH  43  44
ENDBRANCH  24  38
BRANCH  25  48
ATOM     48  C   UNL A   1      43.754  32.524  31.819  1.00  0.00    -0.014 A 
ATOM     49  C   UNL A   1      44.170  33.672  31.126  1.00  0.00     0.010 A 
ATOM     50  C   UNL A   1      43.471  32.614  33.194  1.00  0.00     0.010 A 
ATOM     51  C   UNL A   1      44.320  34.886  31.803  1.00  0.00     0.020 A 
ATOM     52  C   UNL A   1      43.593  33.831  33.868  1.00  0.00     0.020 A 
ATOM     53  C   UNL A   1      44.033  34.957  33.170  1.00  0.00     0.054 A 
BRANCH  53  54
ATOM     54  S   UNL A   1      44.196  36.548  34.026  1.00  0.00     0.124 S 
ATOM     55  O   UNL A   1      45.211  36.246  35.030  1.00  0.00    -0.237 OA
ATOM     56  O   UNL A   1      44.613  37.447  32.953  1.00  0.00    -0.237 OA
ATOM     57  O   UNL A   1      42.851  36.792  34.544  1.00  0.00    -0.744 OA
ENDBRANCH  53  54
ENDBRANCH  25  48
BRANCH  37  58
ATOM     58  C   UNL A   1      47.931  27.052  30.772  1.00  0.00    -0.014 A 
ATOM     59  C   UNL A   1      48.204  26.319  31.940  1.00  0.00     0.010 A 
ATOM     60  C   UNL A   1      48.994  27.477  29.957  1.00  0.00     0.010 A 
ATOM     61  C   UNL A   1      49.523  26.035  32.298  1.00  0.00     0.020 A 
ATOM     62  C   UNL A   1      50.313  27.175  30.301  1.00  0.00     0.020 A 
ATOM     63  C   UNL A   1      50.569  26.464  31.477  1.00  0.00     0.054 A 
BRANCH  63  64
ATOM     64  S   UNL A   1      52.271  26.037  31.934  1.00  0.00     0.124 S 
ATOM     65  O   UNL A   1      52.116  24.676  32.440  1.00  0.00    -0.237 OA
ATOM     66  O   UNL A   1      52.986  26.158  30.666  1.00  0.00    -0.237 OA
ATOM     67  O   UNL A   1      52.620  27.040  32.938  1.00  0.00    -0.744 OA
ENDBRANCH  63  64
ENDBRANCH  37  58
ENDBRANCH  11  12
ENDBRANCH   4   6
ENDBRANCH   1   2
BRANCH   1  68
ATOM     68  C   UNL A   1      33.967  28.135  25.527  1.00  0.00     0.042 C 
BRANCH  68  69
ATOM     69  C   UNL A   1      33.226  26.961  24.911  1.00  0.00     0.118 C 
BRANCH  69  70
ATOM     70  N   UNL A   1      33.166  27.038  23.455  1.00  0.00    -0.352 N 
ATOM     71  C   UNL A   1      33.453  26.071  22.522  1.00  0.00     0.251 C 
ATOM     72  H   UNL A   1      32.880  27.906  23.088  1.00  0.00     0.163 HD
ATOM     73  O   UNL A   1      33.519  26.347  21.328  1.00  0.00    -0.269 OA
BRANCH  71  74
ATOM     74  C   UNL A   1      33.699  24.688  22.973  1.00  0.00     0.040 A 
ATOM     75  C   UNL A   1      32.737  23.696  22.741  1.00  0.00     0.016 A 
ATOM     76  C   UNL A   1      34.871  24.392  23.668  1.00  0.00     0.019 A 
ATOM     77  C   UNL A   1      32.863  22.436  23.325  1.00  0.00     0.027 A 
ATOM     78  C   UNL A   1      35.005  23.112  24.194  1.00  0.00    -0.022 A 
ATOM     79  C   UNL A   1      33.999  22.145  24.057  1.00  0.00     0.047 A 
ATOM     80  C   UNL A   1      36.136  22.616  25.036  1.00  0.00     0.059 C 
ATOM     81  N   UNL A   1      34.358  20.986  24.771  1.00  0.00    -0.306 N 
ATOM     82  C   UNL A   1      35.732  21.160  25.272  1.00  0.00     0.131 C 
BRANCH  81  83
ATOM     83  C   UNL A   1      33.663  19.826  25.098  1.00  0.00     0.276 C 
ATOM     84  O   UNL A   1      32.967  19.785  26.114  1.00  0.00    -0.267 OA
BRANCH  83  85
ATOM     85  C   UNL A   1      33.696  18.694  24.216  1.00  0.00     0.123 A 
ATOM     86  C   UNL A   1      34.573  17.632  24.110  1.00  0.00     0.055 A 
ATOM     87  N   UNL A   1      32.684  18.411  23.340  1.00  0.00    -0.273 N 
ATOM     88  C   UNL A   1      34.062  16.842  23.064  1.00  0.00     0.135 A 
ATOM     89  N   UNL A   1      32.917  17.325  22.579  1.00  0.00    -0.183 NA
ATOM     90  H   UNL A   1      31.863  18.950  23.271  1.00  0.00     0.190 HD
ENDBRANCH  83  85
ENDBRANCH  81  83
ENDBRANCH  71  74
ENDBRANCH  69  70
ENDBRANCH  68  69
ENDBRANCH   1  68
TORSDOF 15
ENDMDL
MODEL 2
REMARK VINA RESULT:     -11.8      3.877      9.843
REMARK SMILES O=C(NCCCNC(=O)c1ccc2c(c1)CCN2C(=O)c1ccn[nH]1)c1ccc(-c2c3nc(c(-c4ccc(S(=O)(=O)[O-])cc4)c4ccc([nH]4)c(-c4ccc(S(=O)(=O)[O-])cc4)c4nc(c(-c5ccc(S(=O)(=O)[O-])cc5)c5ccc2[nH]5)C=C4)C=C3)cc1
REMARK SMILES IDX 4 1 3 2 1 3 2 4 26 6 27 7 85 8 28 9 84 10 29 11 30 12 31 13
REMARK SMILES IDX 78 14 32 15 83 16 77 17 79 18 33 19 82 20 76 21 75 22 34 24
REMARK SMILES IDX 64 25 45 26 63 27 46 28 49 29 62 30 80 31 47 32 48 33 61 35
REMARK SMILES IDX 81 36 50 37 35 38 36 39 44 40 37 41 43 42 38 43 39 44 40 45
REMARK SMILES IDX 41 46 42 47 65 48 66 49 74 50 67 51 73 52 68 53 69 54 70 55
REMARK SMILES IDX 71 56 72 57 51 58 52 59 60 60 53 61 59 62 54 63 55 64 56 65
REMARK SMILES IDX 57 66 58 67 5 68 6 69 7 70 8 71 9 73 10 74 11 75 15 76 12 77
REMARK SMILES IDX 14 78 13 79 16 80 18 81 17 82 19 83 20 84 21 85 22 86 25 87
REMARK SMILES IDX 23 88 24 89
REMARK H PARENT 3 5 79 23 49 34 7 72 25 90
REMARK Flexibility Score: inf
ROOT
ATOM      1  C   UNL A   1      40.587  21.537  26.683  1.00  0.00     0.118 C 
ENDROOT
BRANCH   1   2
ATOM      2  N   UNL A   1      39.394  21.857  25.911  1.00  0.00    -0.352 N 
ATOM      3  O   UNL A   1      37.521  22.974  25.365  1.00  0.00    -0.269 OA
ATOM      4  C   UNL A   1      38.607  22.982  25.939  1.00  0.00     0.251 C 
ATOM      5  H   UNL A   1      39.111  21.164  25.273  1.00  0.00     0.163 HD
BRANCH   4   6
ATOM      6  C   UNL A   1      39.060  24.191  26.660  1.00  0.00     0.039 A 
ATOM      7  C   UNL A   1      38.663  24.423  27.979  1.00  0.00     0.014 A 
ATOM      8  C   UNL A   1      39.933  25.081  26.026  1.00  0.00     0.014 A 
ATOM      9  C   UNL A   1      39.024  25.603  28.616  1.00  0.00     0.010 A 
ATOM     10  C   UNL A   1      40.376  26.219  26.704  1.00  0.00     0.010 A 
ATOM     11  C   UNL A   1      39.915  26.494  28.001  1.00  0.00    -0.014 A 
BRANCH  11  12
ATOM     12  C   UNL A   1      40.455  27.626  28.789  1.00  0.00     0.031 A 
ATOM     13  C   UNL A   1      41.817  27.570  29.415  1.00  0.00     0.074 A 
ATOM     14  C   UNL A   1      39.680  28.722  28.927  1.00  0.00     0.049 A 
ATOM     15  N   UNL A   1      42.421  28.479  30.137  1.00  0.00    -0.248 NA
ATOM     16  C   UNL A   1      42.604  26.341  29.219  1.00  0.00     0.031 C 
ATOM     17  C   UNL A   1      38.327  28.872  28.376  1.00  0.00     0.029 A 
ATOM     18  N   UNL A   1      39.911  29.915  29.560  1.00  0.00    -0.354 N 
ATOM     19  C   UNL A   1      43.642  27.929  30.503  1.00  0.00     0.074 A 
ATOM     20  C   UNL A   1      43.696  26.601  29.929  1.00  0.00     0.031 C 
ATOM     21  C   UNL A   1      37.865  30.096  28.667  1.00  0.00     0.029 A 
ATOM     22  C   UNL A   1      38.854  30.790  29.481  1.00  0.00     0.049 A 
ATOM     23  H   UNL A   1      40.751  30.124  30.027  1.00  0.00     0.167 HD
ATOM     24  C   UNL A   1      44.623  28.485  31.253  1.00  0.00     0.031 A 
ATOM     25  C   UNL A   1      38.678  32.005  30.032  1.00  0.00     0.031 A 
ATOM     26  C   UNL A   1      44.564  29.814  31.802  1.00  0.00     0.049 A 
ATOM     27  C   UNL A   1      39.773  32.579  30.879  1.00  0.00     0.074 A 
ATOM     28  C   UNL A   1      45.543  30.496  32.506  1.00  0.00     0.029 A 
ATOM     29  N   UNL A   1      43.466  30.656  31.727  1.00  0.00    -0.354 N 
ATOM     30  N   UNL A   1      40.951  32.070  31.150  1.00  0.00    -0.248 NA
ATOM     31  C   UNL A   1      39.514  33.881  31.505  1.00  0.00     0.031 C 
ATOM     32  C   UNL A   1      45.014  31.728  32.905  1.00  0.00     0.029 A 
ATOM     33  C   UNL A   1      43.725  31.832  32.411  1.00  0.00     0.049 A 
ATOM     34  H   UNL A   1      42.625  30.449  31.258  1.00  0.00     0.167 HD
ATOM     35  C   UNL A   1      41.573  32.989  31.985  1.00  0.00     0.074 A 
ATOM     36  C   UNL A   1      40.653  34.098  32.147  1.00  0.00     0.031 C 
ATOM     37  C   UNL A   1      42.790  32.915  32.573  1.00  0.00     0.031 A 
BRANCH  24  38
ATOM     38  C   UNL A   1      45.846  27.661  31.553  1.00  0.00    -0.014 A 
ATOM     39  C   UNL A   1      46.994  27.739  30.746  1.00  0.00     0.010 A 
ATOM     40  C   UNL A   1      45.881  26.879  32.723  1.00  0.00     0.010 A 
ATOM     41  C   UNL A   1      48.153  27.042  31.101  1.00  0.00     0.020 A 
ATOM     42  C   UNL A   1      47.044  26.195  33.088  1.00  0.00     0.020 A 
ATOM     43  C   UNL A   1      48.172  26.276  32.271  1.00  0.00     0.054 A 
BRANCH  43  44
ATOM     44  S   UNL A   1      49.710  25.435  32.738  1.00  0.00     0.124 S 
ATOM     45  O   UNL A   1      50.577  26.560  33.080  1.00  0.00    -0.237 OA
ATOM     46  O   UNL A   1      49.292  24.603  33.865  1.00  0.00    -0.237 OA
ATOM     47  O   UNL A   1      50.087  24.703  31.533  1.00  0.00    -0.744 OA
ENDBRANCH  43  44
ENDBRANCH  24  38
BRANCH  25  48
ATOM     48  C   UNL A   1      37.388  32.720  29.849  1.00  0.00    -0.014 A 
ATOM     49  C   UNL A   1      37.172  33.544  28.732  1.00  0.00     0.010 A 
ATOM     50  C   UNL A   1      36.359  32.562  30.796  1.00  0.00     0.010 A 
ATOM     51  C   UNL A   1      35.955  34.214  28.577  1.00  0.00     0.020 A 
ATOM     52  C   UNL A   1      35.132  33.207  30.630  1.00  0.00     0.020 A 
ATOM     53  C   UNL A   1      34.945  34.043  29.528  1.00  0.00     0.054 A 
BRANCH  53  54
ATOM     54  S   UNL A   1      33.357  34.890  29.294  1.00  0.00     0.124 S 
ATOM     55  O   UNL A   1      32.701  34.032  28.313  1.00  0.00    -0.237 OA
ATOM     56  O   UNL A   1      32.783  34.872  30.636  1.00  0.00    -0.237 OA
ATOM     57  O   UNL A   1      33.749  36.213  28.810  1.00  0.00    -0.744 OA
ENDBRANCH  53  54
ENDBRANCH  25  48
BRANCH  37  58
ATOM     58  C   UNL A   1      43.191  34.064  33.453  1.00  0.00    -0.014 A 
ATOM     59  C   UNL A   1      43.777  35.217  32.901  1.00  0.00     0.010 A 
ATOM     60  C   UNL A   1      42.937  34.012  34.834  1.00  0.00     0.010 A 
ATOM     61  C   UNL A   1      44.122  36.292  33.721  1.00  0.00     0.020 A 
ATOM     62  C   UNL A   1      43.260  35.095  35.655  1.00  0.00     0.020 A 
ATOM     63  C   UNL A   1      43.861  36.225  35.093  1.00  0.00     0.054 A 
BRANCH  63  64
ATOM     64  S   UNL A   1      44.269  37.654  36.131  1.00  0.00     0.124 S 
ATOM     65  O   UNL A   1      44.019  38.770  35.221  1.00  0.00    -0.237 OA
ATOM     66  O   UNL A   1      43.328  37.526  37.240  1.00  0.00    -0.237 OA
ATOM     67  O   UNL A   1      45.670  37.437  36.482  1.00  0.00    -0.744 OA
ENDBRANCH  63  64
ENDBRANCH  37  58
ENDBRANCH  11  12
ENDBRANCH   4   6
ENDBRANCH   1   2
BRANCH   1  68
ATOM     68  C   UNL A   1      41.141  20.164  26.346  1.00  0.00     0.042 C 
BRANCH  68  69
ATOM     69  C   UNL A   1      42.527  19.916  26.915  1.00  0.00     0.118 C 
BRANCH  69  70
ATOM     70  N   UNL A   1      43.482  19.487  25.898  1.00  0.00    -0.352 N 
ATOM     71  C   UNL A   1      44.320  20.246  25.118  1.00  0.00     0.251 C 
ATOM     72  H   UNL A   1      43.533  18.514  25.750  1.00  0.00     0.163 HD
ATOM     73  O   UNL A   1      44.940  19.745  24.186  1.00  0.00    -0.269 OA
BRANCH  71  74
ATOM     74  C   UNL A   1      44.456  21.687  25.403  1.00  0.00     0.040 A 
ATOM     75  C   UNL A   1      43.818  22.625  24.581  1.00  0.00     0.016 A 
ATOM     76  C   UNL A   1      45.259  22.104  26.464  1.00  0.00     0.019 A 
ATOM     77  C   UNL A   1      44.090  23.987  24.715  1.00  0.00     0.027 A 
ATOM     78  C   UNL A   1      45.472  23.469  26.618  1.00  0.00    -0.022 A 
ATOM     79  C   UNL A   1      44.923  24.409  25.735  1.00  0.00     0.047 A 
ATOM     80  C   UNL A   1      46.358  24.117  27.632  1.00  0.00     0.059 C 
ATOM     81  N   UNL A   1      45.385  25.696  26.068  1.00  0.00    -0.306 N 
ATOM     82  C   UNL A   1      46.154  25.600  27.319  1.00  0.00     0.131 C 
BRANCH  81  83
ATOM     83  C   UNL A   1      45.287  26.928  25.429  1.00  0.00     0.276 C 
ATOM     84  O   UNL A   1      46.186  27.313  24.681  1.00  0.00    -0.267 OA
BRANCH  83  85
ATOM     85  C   UNL A   1      44.103  27.726  25.583  1.00  0.00     0.123 A 
ATOM     86  C   UNL A   1      43.730  28.648  26.542  1.00  0.00     0.055 A 
ATOM     87  N   UNL A   1      43.123  27.785  24.630  1.00  0.00    -0.273 N 
ATOM     88  C   UNL A   1      42.463  29.103  26.134  1.00  0.00     0.135 A 
ATOM     89  N   UNL A   1      42.081  28.565  24.974  1.00  0.00    -0.183 NA
ATOM     90  H   UNL A   1      43.174  27.302  23.773  1.00  0.00     0.190 HD
ENDBRANCH  83  85
ENDBRANCH  81  83
ENDBRANCH  71  74
ENDBRANCH  69  70
ENDBRANCH  68  69
ENDBRANCH   1  68
TORSDOF 15
ENDMDL
MODEL 3
REMARK VINA RESULT:     -11.7      0.498      8.258
REMARK SMILES O=C(NCCCNC(=O)c1ccc2c(c1)CCN2C(=O)c1ccn[nH]1)c1ccc(-c2c3nc(c(-c4ccc(S(=O)(=O)[O-])cc4)c4ccc([nH]4)c(-c4ccc(S(=O)(=O)[O-])cc4)c4nc(c(-c5ccc(S(=O)(=O)[O-])cc5)c5ccc2[nH]5)C=C4)C=C3)cc1
REMARK SMILES IDX 4 1 3 2 1 3 2 4 26 6 27 7 85 8 28 9 84 10 29 11 30 12 31 13
REMARK SMILES IDX 78 14 32 15 83 16 77 17 79 18 33 19 82 20 76 21 75 22 34 24
REMARK SMILES IDX 64 25 45 26 63 27 46 28 49 29 62 30 80 31 47 32 48 33 61 35
REMARK SMILES IDX 81 36 50 37 35 38 36 39 44 40 37 41 43 42 38 43 39 44 40 45
REMARK SMILES IDX 41 46 42 47 65 48 66 49 74 50 67 51 73 52 68 53 69 54 70 55
REMARK SMILES IDX 71 56 72 57 51 58 52 59 60 60 53 61 59 62 54 63 55 64 56 65
REMARK SMILES IDX 57 66 58 67 5 68 6 69 7 70 8 71 9 73 10 74 11 75 15 76 12 77
REMARK SMILES IDX 14 78 13 79 16 80 18 81 17 82 19 83 20 84 21 85 22 86 25 87
REMARK SMILES IDX 23 88 24 89
REMARK H PARENT 3 5 79 23 49 34 7 72 25 90
REMARK Flexibility Score: inf
ROOT
ATOM      1  C   UNL A   1      33.653  28.188  27.173  1.00  0.00     0.118 C 
ENDROOT
BRANCH   1   2
ATOM      2  N   UNL A   1      33.519  29.619  27.408  1.00  0.00    -0.352 N 
ATOM      3  O   UNL A   1      34.005  31.623  28.304  1.00  0.00    -0.269 OA
ATOM      4  C   UNL A   1      34.390  30.495  28.008  1.00  0.00     0.251 C 
ATOM      5  H   UNL A   1      32.678  30.018  27.090  1.00  0.00     0.163 HD
BRANCH   4   6
ATOM      6  C   UNL A   1      35.779  30.081  28.299  1.00  0.00     0.039 A 
ATOM      7  C   UNL A   1      36.769  30.169  27.317  1.00  0.00     0.014 A 
ATOM      8  C   UNL A   1      36.109  29.644  29.586  1.00  0.00     0.014 A 
ATOM      9  C   UNL A   1      38.049  29.697  27.576  1.00  0.00     0.010 A 
ATOM     10  C   UNL A   1      37.422  29.262  29.874  1.00  0.00     0.010 A 
ATOM     11  C   UNL A   1      38.399  29.275  28.866  1.00  0.00    -0.014 A 
BRANCH  11  12
ATOM     12  C   UNL A   1      39.822  28.990  29.166  1.00  0.00     0.031 A 
ATOM     13  C   UNL A   1      40.715  30.020  29.794  1.00  0.00     0.074 A 
ATOM     14  C   UNL A   1      40.296  27.765  28.858  1.00  0.00     0.049 A 
ATOM     15  N   UNL A   1      41.980  29.917  30.109  1.00  0.00    -0.248 NA
ATOM     16  C   UNL A   1      40.125  31.332  30.103  1.00  0.00     0.031 C 
ATOM     17  C   UNL A   1      39.516  26.695  28.223  1.00  0.00     0.029 A 
ATOM     18  N   UNL A   1      41.534  27.207  29.038  1.00  0.00    -0.354 N 
ATOM     19  C   UNL A   1      42.347  31.153  30.627  1.00  0.00     0.074 A 
ATOM     20  C   UNL A   1      41.171  31.996  30.581  1.00  0.00     0.031 C 
ATOM     21  C   UNL A   1      40.284  25.604  28.098  1.00  0.00     0.029 A 
ATOM     22  C   UNL A   1      41.623  25.915  28.577  1.00  0.00     0.049 A 
ATOM     23  H   UNL A   1      42.285  27.685  29.456  1.00  0.00     0.167 HD
ATOM     24  C   UNL A   1      43.557  31.542  31.094  1.00  0.00     0.031 A 
ATOM     25  C   UNL A   1      42.676  25.079  28.510  1.00  0.00     0.031 A 
ATOM     26  C   UNL A   1      44.713  30.687  31.151  1.00  0.00     0.049 A 
ATOM     27  C   UNL A   1      44.007  25.552  29.010  1.00  0.00     0.074 A 
ATOM     28  C   UNL A   1      45.961  30.966  31.683  1.00  0.00     0.029 A 
ATOM     29  N   UNL A   1      44.774  29.398  30.646  1.00  0.00    -0.354 N 
ATOM     30  N   UNL A   1      44.312  26.701  29.565  1.00  0.00    -0.248 NA
ATOM     31  C   UNL A   1      45.137  24.627  28.864  1.00  0.00     0.031 C 
ATOM     32  C   UNL A   1      46.792  29.864  31.449  1.00  0.00     0.029 A 
ATOM     33  C   UNL A   1      46.049  28.884  30.812  1.00  0.00     0.049 A 
ATOM     34  H   UNL A   1      44.021  28.917  30.231  1.00  0.00     0.167 HD
ATOM     35  C   UNL A   1      45.674  26.637  29.830  1.00  0.00     0.074 A 
ATOM     36  C   UNL A   1      46.124  25.327  29.405  1.00  0.00     0.031 C 
ATOM     37  C   UNL A   1      46.479  27.584  30.367  1.00  0.00     0.031 A 
BRANCH  24  38
ATOM     38  C   UNL A   1      43.717  32.962  31.565  1.00  0.00    -0.014 A 
ATOM     39  C   UNL A   1      43.456  33.322  32.898  1.00  0.00     0.010 A 
ATOM     40  C   UNL A   1      44.241  33.926  30.683  1.00  0.00     0.010 A 
ATOM     41  C   UNL A   1      43.708  34.625  33.338  1.00  0.00     0.020 A 
ATOM     42  C   UNL A   1      44.509  35.225  31.125  1.00  0.00     0.020 A 
ATOM     43  C   UNL A   1      44.235  35.568  32.449  1.00  0.00     0.054 A 
BRANCH  43  44
ATOM     44  S   UNL A   1      44.611  37.233  33.066  1.00  0.00     0.124 S 
ATOM     45  O   UNL A   1      43.656  38.052  32.325  1.00  0.00    -0.237 OA
ATOM     46  O   UNL A   1      44.352  37.111  34.499  1.00  0.00    -0.237 OA
ATOM     47  O   UNL A   1      46.012  37.429  32.704  1.00  0.00    -0.744 OA
ENDBRANCH  43  44
ENDBRANCH  24  38
BRANCH  25  48
ATOM     48  C   UNL A   1      42.517  23.739  27.885  1.00  0.00    -0.014 A 
ATOM     49  C   UNL A   1      42.682  23.565  26.501  1.00  0.00     0.010 A 
ATOM     50  C   UNL A   1      42.211  22.624  28.688  1.00  0.00     0.010 A 
ATOM     51  C   UNL A   1      42.523  22.301  25.928  1.00  0.00     0.020 A 
ATOM     52  C   UNL A   1      42.080  21.354  28.122  1.00  0.00     0.020 A 
ATOM     53  C   UNL A   1      42.220  21.204  26.742  1.00  0.00     0.054 A 
BRANCH  53  54
ATOM     54  S   UNL A   1      42.055  19.563  25.987  1.00  0.00     0.124 S 
ATOM     55  O   UNL A   1      40.637  19.533  25.640  1.00  0.00    -0.237 OA
ATOM     56  O   UNL A   1      42.981  19.633  24.860  1.00  0.00    -0.237 OA
ATOM     57  O   UNL A   1      42.459  18.655  27.059  1.00  0.00    -0.744 OA
ENDBRANCH  53  54
ENDBRANCH  25  48
BRANCH  37  58
ATOM     58  C   UNL A   1      47.933  27.236  30.515  1.00  0.00    -0.014 A 
ATOM     59  C   UNL A   1      48.864  27.628  29.537  1.00  0.00     0.010 A 
ATOM     60  C   UNL A   1      48.379  26.557  31.661  1.00  0.00     0.010 A 
ATOM     61  C   UNL A   1      50.217  27.326  29.694  1.00  0.00     0.020 A 
ATOM     62  C   UNL A   1      49.736  26.274  31.833  1.00  0.00     0.020 A 
ATOM     63  C   UNL A   1      50.645  26.651  30.841  1.00  0.00     0.054 A 
BRANCH  63  64
ATOM     64  S   UNL A   1      52.415  26.317  31.049  1.00  0.00     0.124 S 
ATOM     65  O   UNL A   1      52.858  27.489  31.800  1.00  0.00    -0.237 OA
ATOM     66  O   UNL A   1      52.421  25.058  31.788  1.00  0.00    -0.237 OA
ATOM     67  O   UNL A   1      52.913  26.230  29.678  1.00  0.00    -0.744 OA
ENDBRANCH  63  64
ENDBRANCH  37  58
ENDBRANCH  11  12
ENDBRANCH   4   6
ENDBRANCH   1   2
BRANCH   1  68
ATOM     68  C   UNL A   1      34.062  27.875  25.744  1.00  0.00     0.042 C 
BRANCH  68  69
ATOM     69  C   UNL A   1      33.133  26.893  25.052  1.00  0.00     0.118 C 
BRANCH  69  70
ATOM     70  N   UNL A   1      33.164  27.020  23.598  1.00  0.00    -0.352 N 
ATOM     71  C   UNL A   1      33.518  26.089  22.652  1.00  0.00     0.251 C 
ATOM     72  H   UNL A   1      32.895  27.899  23.245  1.00  0.00     0.163 HD
ATOM     73  O   UNL A   1      33.657  26.407  21.475  1.00  0.00    -0.269 OA
BRANCH  71  74
ATOM     74  C   UNL A   1      33.747  24.693  23.069  1.00  0.00     0.040 A 
ATOM     75  C   UNL A   1      32.750  23.730  22.863  1.00  0.00     0.016 A 
ATOM     76  C   UNL A   1      34.939  24.354  23.708  1.00  0.00     0.019 A 
ATOM     77  C   UNL A   1      32.868  22.457  23.422  1.00  0.00     0.027 A 
ATOM     78  C   UNL A   1      35.062  23.062  24.207  1.00  0.00    -0.022 A 
ATOM     79  C   UNL A   1      34.027  22.124  24.099  1.00  0.00     0.047 A 
ATOM     80  C   UNL A   1      36.215  22.523  24.990  1.00  0.00     0.059 C 
ATOM     81  N   UNL A   1      34.385  20.944  24.777  1.00  0.00    -0.306 N 
ATOM     82  C   UNL A   1      35.784  21.074  25.220  1.00  0.00     0.131 C 
BRANCH  81  83
ATOM     83  C   UNL A   1      33.675  19.797  25.115  1.00  0.00     0.276 C 
ATOM     84  O   UNL A   1      32.971  19.778  26.125  1.00  0.00    -0.267 OA
BRANCH  83  85
ATOM     85  C   UNL A   1      33.702  18.652  24.249  1.00  0.00     0.123 A 
ATOM     86  C   UNL A   1      34.521  17.540  24.216  1.00  0.00     0.055 A 
ATOM     87  N   UNL A   1      32.737  18.414  23.309  1.00  0.00    -0.273 N 
ATOM     88  C   UNL A   1      34.037  16.765  23.145  1.00  0.00     0.135 A 
ATOM     89  N   UNL A   1      32.957  17.306  22.578  1.00  0.00    -0.183 NA
ATOM     90  H   UNL A   1      31.955  18.998  23.179  1.00  0.00     0.190 HD
ENDBRANCH  83  85
ENDBRANCH  81  83
ENDBRANCH  71  74
ENDBRANCH  69  70
ENDBRANCH  68  69
ENDBRANCH   1  68
TORSDOF 15
ENDMDL
