MODEL 1
REMARK VINA RESULT:     -10.2      0.000      0.000
REMARK SMILES CC(C)CCc1cc2c(cc1Cl)C=C(C(=O)NCCCNC(=O)c1ccc(-c3c4nc(c(-c5ccc(S(=O)(=O)[O-])cc5)c5ccc([nH]5)c(-c5ccc(S(=O)(=O)[O-])cc5)c5nc(c(-c6ccc(S(=O)(=O)[O-])cc6)c6ccc3[nH]6)C=C5)C=C4)cc1)[C@@H](C(F)(F)F)O2
REMARK SMILES IDX 19 1 18 2 17 3 15 4 16 5 14 7 6 8 7 9 11 10 8 11 10 12 12 13
REMARK SMILES IDX 9 14 89 15 13 16 84 17 5 18 4 19 2 20 1 21 3 22 85 23 86 24
REMARK SMILES IDX 87 25 88 26 20 27 21 28 22 29 23 31 24 32 25 33 83 34 26 35
REMARK SMILES IDX 82 36 27 37 28 38 29 39 76 40 30 41 81 42 75 43 77 44 31 45
REMARK SMILES IDX 80 46 74 47 73 48 32 50 62 51 43 52 61 53 44 54 47 55 60 56
REMARK SMILES IDX 78 57 45 58 46 59 59 61 79 62 48 63 33 64 34 65 42 66 35 67
REMARK SMILES IDX 41 68 36 69 37 70 38 71 39 72 40 73 63 74 64 75 72 76 65 77
REMARK SMILES IDX 71 78 66 79 67 80 68 81 69 82 70 83 49 84 50 85 58 86 51 87
REMARK SMILES IDX 57 88 52 89 53 90 54 91 55 92 56 93
REMARK H PARENT 17 6 21 30 77 49 47 60
REMARK Flexibility Score: inf
ROOT
ATOM      1  C   UNL A   1      35.067  32.967  27.870  1.00  0.00     0.042 C 
ENDROOT
BRANCH   1   2
ATOM      2  C   UNL A   1      35.419  34.183  28.711  1.00  0.00     0.118 C 
BRANCH   2   3
ATOM      3  N   UNL A   1      34.491  34.381  29.818  1.00  0.00    -0.352 N 
ATOM      4  C   UNL A   1      34.453  34.119  31.146  1.00  0.00     0.251 C 
ATOM      5  O   UNL A   1      33.430  34.487  31.733  1.00  0.00    -0.270 OA
ATOM      6  H   UNL A   1      33.665  34.826  29.517  1.00  0.00     0.163 HD
BRANCH   4   7
ATOM      7  C   UNL A   1      35.537  33.441  31.914  1.00  0.00     0.067 C 
ATOM      8  C   UNL A   1      38.941  30.171  33.737  1.00  0.00    -0.026 A 
ATOM      9  C   UNL A   1      38.635  31.521  33.912  1.00  0.00     0.052 A 
ATOM     10  C   UNL A   1      38.079  29.430  32.909  1.00  0.00     0.045 A 
ATOM     11  C   UNL A   1      37.627  32.145  33.195  1.00  0.00     0.128 A 
ATOM     12  C   UNL A   1      37.007  30.050  32.233  1.00  0.00     0.032 A 
ATOM     13  Cl  UNL A   1      38.262  27.725  32.685  1.00  0.00    -0.084 Cl
ATOM     14  C   UNL A   1      36.791  31.424  32.358  1.00  0.00     0.019 A 
ATOM     15  O   UNL A   1      37.585  33.495  33.337  1.00  0.00    -0.475 OA
ATOM     16  C   UNL A   1      35.744  32.138  31.636  1.00  0.00     0.025 C 
ATOM     17  C   UNL A   1      36.356  34.148  32.957  1.00  0.00     0.314 C 
BRANCH   8  18
ATOM     18  C   UNL A   1      40.138  29.603  34.472  1.00  0.00     0.037 C 
BRANCH  18  19
ATOM     19  C   UNL A   1      41.018  28.597  33.684  1.00  0.00     0.008 C 
BRANCH  19  20
ATOM     20  C   UNL A   1      42.282  28.018  34.365  1.00  0.00    -0.017 C 
ATOM     21  C   UNL A   1      42.863  28.934  35.444  1.00  0.00     0.007 C 
ATOM     22  C   UNL A   1      41.994  26.638  34.963  1.00  0.00     0.007 C 
ENDBRANCH  19  20
ENDBRANCH  18  19
ENDBRANCH   8  18
BRANCH  17  23
ATOM     23  C   UNL A   1      35.579  34.453  34.249  1.00  0.00     0.429 C 
ATOM     24  F   UNL A   1      36.419  34.454  35.315  1.00  0.00    -0.167 F 
ATOM     25  F   UNL A   1      34.977  35.664  34.234  1.00  0.00    -0.167 F 
ATOM     26  F   UNL A   1      34.612  33.541  34.499  1.00  0.00    -0.167 F 
ENDBRANCH  17  23
ENDBRANCH   4   7
ENDBRANCH   2   3
ENDBRANCH   1   2
BRANCH   1  27
ATOM     27  C   UNL A   1      33.954  32.140  28.499  1.00  0.00     0.118 C 
BRANCH  27  28
ATOM     28  N   UNL A   1      33.601  30.980  27.681  1.00  0.00    -0.352 N 
ATOM     29  C   UNL A   1      34.380  29.953  27.200  1.00  0.00     0.251 C 
ATOM     30  H   UNL A   1      32.650  30.925  27.435  1.00  0.00     0.163 HD
ATOM     31  O   UNL A   1      33.932  29.199  26.347  1.00  0.00    -0.269 OA
BRANCH  29  32
ATOM     32  C   UNL A   1      35.760  29.779  27.702  1.00  0.00     0.039 A 
ATOM     33  C   UNL A   1      36.846  30.104  26.892  1.00  0.00     0.014 A 
ATOM     34  C   UNL A   1      35.971  29.279  28.990  1.00  0.00     0.014 A 
ATOM     35  C   UNL A   1      38.124  29.732  27.278  1.00  0.00     0.010 A 
ATOM     36  C   UNL A   1      37.273  29.017  29.426  1.00  0.00     0.010 A 
ATOM     37  C   UNL A   1      38.358  29.188  28.552  1.00  0.00    -0.014 A 
BRANCH  37  38
ATOM     38  C   UNL A   1      39.748  28.822  28.927  1.00  0.00     0.031 A 
ATOM     39  C   UNL A   1      40.560  29.704  29.839  1.00  0.00     0.074 A 
ATOM     40  C   UNL A   1      40.238  27.634  28.520  1.00  0.00     0.049 A 
ATOM     41  N   UNL A   1      41.758  29.495  30.323  1.00  0.00    -0.248 NA
ATOM     42  C   UNL A   1      39.962  30.982  30.262  1.00  0.00     0.031 C 
ATOM     43  C   UNL A   1      39.529  26.688  27.652  1.00  0.00     0.029 A 
ATOM     44  N   UNL A   1      41.412  26.990  28.818  1.00  0.00    -0.354 N 
ATOM     45  C   UNL A   1      42.064  30.615  31.087  1.00  0.00     0.074 A 
ATOM     46  C   UNL A   1      40.939  31.518  30.981  1.00  0.00     0.031 C 
ATOM     47  C   UNL A   1      40.235  25.553  27.570  1.00  0.00     0.029 A 
ATOM     48  C   UNL A   1      41.485  25.717  28.303  1.00  0.00     0.049 A 
ATOM     49  H   UNL A   1      42.132  27.400  29.350  1.00  0.00     0.167 HD
ATOM     50  C   UNL A   1      43.176  30.861  31.818  1.00  0.00     0.031 A 
ATOM     51  C   UNL A   1      42.447  24.779  28.402  1.00  0.00     0.031 A 
ATOM     52  C   UNL A   1      44.281  29.946  31.933  1.00  0.00     0.049 A 
ATOM     53  C   UNL A   1      43.684  25.089  29.192  1.00  0.00     0.074 A 
ATOM     54  C   UNL A   1      45.451  30.105  32.656  1.00  0.00     0.029 A 
ATOM     55  N   UNL A   1      44.352  28.702  31.326  1.00  0.00    -0.354 N 
ATOM     56  N   UNL A   1      43.959  26.165  29.891  1.00  0.00    -0.248 NA
ATOM     57  C   UNL A   1      44.741  24.070  29.203  1.00  0.00     0.031 C 
ATOM     58  C   UNL A   1      46.253  28.982  32.441  1.00  0.00     0.029 A 
ATOM     59  C   UNL A   1      45.555  28.091  31.639  1.00  0.00     0.049 A 
ATOM     60  H   UNL A   1      43.650  28.309  30.759  1.00  0.00     0.167 HD
ATOM     61  C   UNL A   1      45.225  25.955  30.423  1.00  0.00     0.074 A 
ATOM     62  C   UNL A   1      45.647  24.638  29.991  1.00  0.00     0.031 C 
ATOM     63  C   UNL A   1      45.969  26.785  31.192  1.00  0.00     0.031 A 
BRANCH  50  64
ATOM     64  C   UNL A   1      43.274  32.172  32.556  1.00  0.00    -0.014 A 
ATOM     65  C   UNL A   1      42.771  32.272  33.867  1.00  0.00     0.010 A 
ATOM     66  C   UNL A   1      43.753  33.330  31.918  1.00  0.00     0.010 A 
ATOM     67  C   UNL A   1      42.718  33.508  34.516  1.00  0.00     0.020 A 
ATOM     68  C   UNL A   1      43.725  34.564  32.574  1.00  0.00     0.020 A 
ATOM     69  C   UNL A   1      43.186  34.649  33.860  1.00  0.00     0.054 A 
BRANCH  69  70
ATOM     70  S   UNL A   1      43.091  36.250  34.708  1.00  0.00     0.124 S 
ATOM     71  O   UNL A   1      41.652  36.426  34.877  1.00  0.00    -0.237 OA
ATOM     72  O   UNL A   1      43.847  36.009  35.935  1.00  0.00    -0.237 OA
ATOM     73  O   UNL A   1      43.729  37.171  33.769  1.00  0.00    -0.744 OA
ENDBRANCH  69  70
ENDBRANCH  50  64
BRANCH  51  74
ATOM     74  C   UNL A   1      42.245  23.462  27.736  1.00  0.00    -0.014 A 
ATOM     75  C   UNL A   1      41.651  22.396  28.440  1.00  0.00     0.010 A 
ATOM     76  C   UNL A   1      42.740  23.235  26.441  1.00  0.00     0.010 A 
ATOM     77  C   UNL A   1      41.621  21.113  27.890  1.00  0.00     0.020 A 
ATOM     78  C   UNL A   1      42.680  21.958  25.874  1.00  0.00     0.020 A 
ATOM     79  C   UNL A   1      42.152  20.898  26.617  1.00  0.00     0.054 A 
BRANCH  79  80
ATOM     80  S   UNL A   1      42.162  19.213  25.948  1.00  0.00     0.124 S 
ATOM     81  O   UNL A   1      40.750  19.008  25.638  1.00  0.00    -0.237 OA
ATOM     82  O   UNL A   1      43.049  19.330  24.794  1.00  0.00    -0.237 OA
ATOM     83  O   UNL A   1      42.683  18.410  27.052  1.00  0.00    -0.744 OA
ENDBRANCH  79  80
ENDBRANCH  51  74
BRANCH  63  84
ATOM     84  C   UNL A   1      47.334  26.315  31.617  1.00  0.00    -0.014 A 
ATOM     85  C   UNL A   1      48.431  26.481  30.750  1.00  0.00     0.010 A 
ATOM     86  C   UNL A   1      47.504  25.600  32.815  1.00  0.00     0.010 A 
ATOM     87  C   UNL A   1      49.668  25.913  31.060  1.00  0.00     0.020 A 
ATOM     88  C   UNL A   1      48.749  25.053  33.140  1.00  0.00     0.020 A 
ATOM     89  C   UNL A   1      49.815  25.192  32.249  1.00  0.00     0.054 A 
BRANCH  89  90
ATOM     90  S   UNL A   1      51.422  24.437  32.622  1.00  0.00     0.124 S 
ATOM     91  O   UNL A   1      52.315  25.152  31.714  1.00  0.00    -0.237 OA
ATOM     92  O   UNL A   1      51.596  24.735  34.041  1.00  0.00    -0.237 OA
ATOM     93  O   UNL A   1      51.216  23.024  32.311  1.00  0.00    -0.744 OA
ENDBRANCH  89  90
ENDBRANCH  63  84
ENDBRANCH  37  38
ENDBRANCH  29  32
ENDBRANCH  27  28
ENDBRANCH   1  27
TORSDOF 17
ENDMDL
MODEL 2
REMARK VINA RESULT:      -9.8      5.751     11.637
REMARK SMILES CC(C)CCc1cc2c(cc1Cl)C=C(C(=O)NCCCNC(=O)c1ccc(-c3c4nc(c(-c5ccc(S(=O)(=O)[O-])cc5)c5ccc([nH]5)c(-c5ccc(S(=O)(=O)[O-])cc5)c5nc(c(-c6ccc(S(=O)(=O)[O-])cc6)c6ccc3[nH]6)C=C5)C=C4)cc1)[C@@H](C(F)(F)F)O2
REMARK SMILES IDX 19 1 18 2 17 3 15 4 16 5 14 7 6 8 7 9 11 10 8 11 10 12 12 13
REMARK SMILES IDX 9 14 89 15 13 16 84 17 5 18 4 19 2 20 1 21 3 22 85 23 86 24
REMARK SMILES IDX 87 25 88 26 20 27 21 28 22 29 23 31 24 32 25 33 83 34 26 35
REMARK SMILES IDX 82 36 27 37 28 38 29 39 76 40 30 41 81 42 75 43 77 44 31 45
REMARK SMILES IDX 80 46 74 47 73 48 32 50 62 51 43 52 61 53 44 54 47 55 60 56
REMARK SMILES IDX 78 57 45 58 46 59 59 61 79 62 48 63 33 64 34 65 42 66 35 67
REMARK SMILES IDX 41 68 36 69 37 70 38 71 39 72 40 73 63 74 64 75 72 76 65 77
REMARK SMILES IDX 71 78 66 79 67 80 68 81 69 82 70 83 49 84 50 85 58 86 51 87
REMARK SMILES IDX 57 88 52 89 53 90 54 91 55 92 56 93
REMARK H PARENT 17 6 21 30 77 49 47 60
REMARK Flexibility Score: inf
ROOT
ATOM      1  C   UNL A   1      37.961  20.416  24.832  1.00  0.00     0.042 C 
ENDROOT
BRANCH   1   2
ATOM      2  C   UNL A   1      36.603  20.898  25.314  1.00  0.00     0.118 C 
BRANCH   2   3
ATOM      3  N   UNL A   1      35.543  19.935  25.039  1.00  0.00    -0.352 N 
ATOM      4  C   UNL A   1      34.202  19.955  24.849  1.00  0.00     0.251 C 
ATOM      5  O   UNL A   1      33.680  18.860  24.618  1.00  0.00    -0.270 OA
ATOM      6  H   UNL A   1      35.900  19.019  24.973  1.00  0.00     0.163 HD
BRANCH   4   7
ATOM      7  C   UNL A   1      33.352  21.179  24.896  1.00  0.00     0.067 C 
ATOM      8  C   UNL A   1      30.760  25.389  23.816  1.00  0.00    -0.026 A 
ATOM      9  C   UNL A   1      30.891  24.529  24.907  1.00  0.00     0.052 A 
ATOM     10  C   UNL A   1      31.588  25.135  22.707  1.00  0.00     0.045 A 
ATOM     11  C   UNL A   1      31.682  23.393  24.856  1.00  0.00     0.128 A 
ATOM     12  C   UNL A   1      32.448  24.016  22.683  1.00  0.00     0.032 A 
ATOM     13  Cl  UNL A   1      31.622  26.176  21.328  1.00  0.00    -0.084 Cl
ATOM     14  C   UNL A   1      32.480  23.124  23.757  1.00  0.00     0.019 A 
ATOM     15  O   UNL A   1      31.550  22.564  25.924  1.00  0.00    -0.475 OA
ATOM     16  C   UNL A   1      33.296  21.914  23.767  1.00  0.00     0.025 C 
ATOM     17  C   UNL A   1      32.602  21.599  26.129  1.00  0.00     0.314 C 
BRANCH   8  18
ATOM     18  C   UNL A   1      29.779  26.539  23.919  1.00  0.00     0.037 C 
BRANCH  18  19
ATOM     19  C   UNL A   1      30.390  27.951  24.119  1.00  0.00     0.008 C 
BRANCH  19  20
ATOM     20  C   UNL A   1      31.686  28.091  24.953  1.00  0.00    -0.017 C 
ATOM     21  C   UNL A   1      32.362  29.454  24.798  1.00  0.00     0.007 C 
ATOM     22  C   UNL A   1      31.414  27.817  26.435  1.00  0.00     0.007 C 
ENDBRANCH  19  20
ENDBRANCH  18  19
ENDBRANCH   8  18
BRANCH  17  23
ATOM     23  C   UNL A   1      33.509  22.139  27.249  1.00  0.00     0.429 C 
ATOM     24  F   UNL A   1      32.759  22.681  28.242  1.00  0.00    -0.167 F 
ATOM     25  F   UNL A   1      34.272  21.182  27.823  1.00  0.00    -0.167 F 
ATOM     26  F   UNL A   1      34.354  23.101  26.811  1.00  0.00    -0.167 F 
ENDBRANCH  17  23
ENDBRANCH   4   7
ENDBRANCH   2   3
ENDBRANCH   1   2
BRANCH   1  27
ATOM     27  C   UNL A   1      39.058  20.682  25.853  1.00  0.00     0.118 C 
BRANCH  27  28
ATOM     28  N   UNL A   1      39.976  19.551  25.983  1.00  0.00    -0.352 N 
ATOM     29  C   UNL A   1      41.345  19.519  26.115  1.00  0.00     0.251 C 
ATOM     30  H   UNL A   1      39.543  18.667  25.974  1.00  0.00     0.163 HD
ATOM     31  O   UNL A   1      41.944  18.460  25.985  1.00  0.00    -0.269 OA
BRANCH  29  32
ATOM     32  C   UNL A   1      42.086  20.768  26.394  1.00  0.00     0.039 A 
ATOM     33  C   UNL A   1      42.368  21.136  27.709  1.00  0.00     0.014 A 
ATOM     34  C   UNL A   1      42.494  21.584  25.335  1.00  0.00     0.014 A 
ATOM     35  C   UNL A   1      42.858  22.405  27.974  1.00  0.00     0.010 A 
ATOM     36  C   UNL A   1      43.102  22.814  25.603  1.00  0.00     0.010 A 
ATOM     37  C   UNL A   1      43.238  23.260  26.926  1.00  0.00    -0.014 A 
BRANCH  37  38
ATOM     38  C   UNL A   1      43.776  24.604  27.262  1.00  0.00     0.031 A 
ATOM     39  C   UNL A   1      45.218  24.947  26.998  1.00  0.00     0.074 A 
ATOM     40  C   UNL A   1      42.925  25.548  27.714  1.00  0.00     0.049 A 
ATOM     41  N   UNL A   1      45.828  26.093  27.162  1.00  0.00    -0.248 NA
ATOM     42  C   UNL A   1      46.091  23.876  26.488  1.00  0.00     0.031 C 
ATOM     43  C   UNL A   1      41.501  25.333  27.985  1.00  0.00     0.029 A 
ATOM     44  N   UNL A   1      43.112  26.883  27.973  1.00  0.00    -0.354 N 
ATOM     45  C   UNL A   1      47.152  25.879  26.798  1.00  0.00     0.074 A 
ATOM     46  C   UNL A   1      47.268  24.485  26.430  1.00  0.00     0.031 C 
ATOM     47  C   UNL A   1      40.926  26.507  28.274  1.00  0.00     0.029 A 
ATOM     48  C   UNL A   1      41.951  27.545  28.298  1.00  0.00     0.049 A 
ATOM     49  H   UNL A   1      43.991  27.322  27.931  1.00  0.00     0.167 HD
ATOM     50  C   UNL A   1      48.173  26.767  26.762  1.00  0.00     0.031 A 
ATOM     51  C   UNL A   1      41.726  28.842  28.584  1.00  0.00     0.031 A 
ATOM     52  C   UNL A   1      48.041  28.157  27.110  1.00  0.00     0.049 A 
ATOM     53  C   UNL A   1      42.881  29.799  28.569  1.00  0.00     0.074 A 
ATOM     54  C   UNL A   1      49.020  29.137  27.101  1.00  0.00     0.029 A 
ATOM     55  N   UNL A   1      46.866  28.770  27.515  1.00  0.00    -0.354 N 
ATOM     56  N   UNL A   1      44.129  29.568  28.240  1.00  0.00    -0.248 NA
ATOM     57  C   UNL A   1      42.604  31.184  28.969  1.00  0.00     0.031 C 
ATOM     58  C   UNL A   1      48.448  30.328  27.553  1.00  0.00     0.029 A 
ATOM     59  C   UNL A   1      47.098  30.109  27.780  1.00  0.00     0.049 A 
ATOM     60  H   UNL A   1      45.994  28.320  27.600  1.00  0.00     0.167 HD
ATOM     61  C   UNL A   1      44.791  30.779  28.397  1.00  0.00     0.074 A 
ATOM     62  C   UNL A   1      43.798  31.746  28.821  1.00  0.00     0.031 C 
ATOM     63  C   UNL A   1      46.104  31.058  28.214  1.00  0.00     0.031 A 
BRANCH  50  64
ATOM     64  C   UNL A   1      49.534  26.277  26.338  1.00  0.00    -0.014 A 
ATOM     65  C   UNL A   1      50.427  25.776  27.304  1.00  0.00     0.010 A 
ATOM     66  C   UNL A   1      49.975  26.419  25.010  1.00  0.00     0.010 A 
ATOM     67  C   UNL A   1      51.741  25.454  26.959  1.00  0.00     0.020 A 
ATOM     68  C   UNL A   1      51.282  26.072  24.655  1.00  0.00     0.020 A 
ATOM     69  C   UNL A   1      52.164  25.614  25.637  1.00  0.00     0.054 A 
BRANCH  69  70
ATOM     70  S   UNL A   1      53.880  25.210  25.209  1.00  0.00     0.124 S 
ATOM     71  O   UNL A   1      54.134  26.098  24.079  1.00  0.00    -0.237 OA
ATOM     72  O   UNL A   1      54.601  25.529  26.439  1.00  0.00    -0.237 OA
ATOM     73  O   UNL A   1      53.824  23.785  24.886  1.00  0.00    -0.744 OA
ENDBRANCH  69  70
ENDBRANCH  50  64
BRANCH  51  74
ATOM     74  C   UNL A   1      40.338  29.284  28.893  1.00  0.00    -0.014 A 
ATOM     75  C   UNL A   1      39.392  29.425  27.859  1.00  0.00     0.010 A 
ATOM     76  C   UNL A   1      39.986  29.669  30.198  1.00  0.00     0.010 A 
ATOM     77  C   UNL A   1      38.149  30.008  28.110  1.00  0.00     0.020 A 
ATOM     78  C   UNL A   1      38.728  30.223  30.459  1.00  0.00     0.020 A 
ATOM     79  C   UNL A   1      37.831  30.420  29.405  1.00  0.00     0.054 A 
BRANCH  79  80
ATOM     80  S   UNL A   1      36.237  31.234  29.696  1.00  0.00     0.124 S 
ATOM     81  O   UNL A   1      35.393  30.607  28.683  1.00  0.00    -0.237 OA
ATOM     82  O   UNL A   1      35.938  30.869  31.078  1.00  0.00    -0.237 OA
ATOM     83  O   UNL A   1      36.531  32.648  29.479  1.00  0.00    -0.744 OA
ENDBRANCH  79  80
ENDBRANCH  51  74
BRANCH  63  84
ATOM     84  C   UNL A   1      46.568  32.464  28.482  1.00  0.00    -0.014 A 
ATOM     85  C   UNL A   1      46.545  33.417  27.446  1.00  0.00     0.010 A 
ATOM     86  C   UNL A   1      47.140  32.806  29.720  1.00  0.00     0.010 A 
ATOM     87  C   UNL A   1      47.116  34.677  27.633  1.00  0.00     0.020 A 
ATOM     88  C   UNL A   1      47.688  34.076  29.918  1.00  0.00     0.020 A 
ATOM     89  C   UNL A   1      47.693  34.995  28.865  1.00  0.00     0.054 A 
BRANCH  89  90
ATOM     90  S   UNL A   1      48.454  36.627  29.081  1.00  0.00     0.124 S 
ATOM     91  O   UNL A   1      47.401  37.367  29.771  1.00  0.00    -0.237 OA
ATOM     92  O   UNL A   1      49.640  36.327  29.880  1.00  0.00    -0.237 OA
ATOM     93  O   UNL A   1      48.729  37.060  27.713  1.00  0.00    -0.744 OA
ENDBRANCH  89  90
ENDBRANCH  63  84
ENDBRANCH  37  38
ENDBRANCH  29  32
ENDBRANCH  27  28
ENDBRANCH   1  27
TORSDOF 17
ENDMDL
MODEL 3
REMARK VINA RESULT:      -9.5      5.747     11.651
REMARK SMILES CC(C)CCc1cc2c(cc1Cl)C=C(C(=O)NCCCNC(=O)c1ccc(-c3c4nc(c(-c5ccc(S(=O)(=O)[O-])cc5)c5ccc([nH]5)c(-c5ccc(S(=O)(=O)[O-])cc5)c5nc(c(-c6ccc(S(=O)(=O)[O-])cc6)c6ccc3[nH]6)C=C5)C=C4)cc1)[C@@H](C(F)(F)F)O2
REMARK SMILES IDX 19 1 18 2 17 3 15 4 16 5 14 7 6 8 7 9 11 10 8 11 10 12 12 13
REMARK SMILES IDX 9 14 89 15 13 16 84 17 5 18 4 19 2 20 1 21 3 22 85 23 86 24
REMARK SMILES IDX 87 25 88 26 20 27 21 28 22 29 23 31 24 32 25 33 83 34 26 35
REMARK SMILES IDX 82 36 27 37 28 38 29 39 76 40 30 41 81 42 75 43 77 44 31 45
REMARK SMILES IDX 80 46 74 47 73 48 32 50 62 51 43 52 61 53 44 54 47 55 60 56
REMARK SMILES IDX 78 57 45 58 46 59 59 61 79 62 48 63 33 64 34 65 42 66 35 67
REMARK SMILES IDX 41 68 36 69 37 70 38 71 39 72 40 73 63 74 64 75 72 76 65 77
REMARK SMILES IDX 71 78 66 79 67 80 68 81 69 82 70 83 49 84 50 85 58 86 51 87
REMARK SMILES IDX 57 88 52 89 53 90 54 91 55 92 56 93
REMARK H PARENT 17 6 21 30 77 49 47 60
REMARK Flexibility Score: inf
ROOT
ATOM      1  C   UNL A   1      38.009  20.493  25.060  1.00  0.00     0.042 C 
ENDROOT
BRANCH   1   2
ATOM      2  C   UNL A   1      37.024  21.651  25.061  1.00  0.00     0.118 C 
BRANCH   2   3
ATOM      3  N   UNL A   1      35.998  21.505  26.087  1.00  0.00    -0.352 N 
ATOM      4  C   UNL A   1      34.777  22.026  26.357  1.00  0.00     0.251 C 
ATOM      5  O   UNL A   1      34.224  21.588  27.371  1.00  0.00    -0.270 OA
ATOM      6  H   UNL A   1      36.266  20.849  26.771  1.00  0.00     0.163 HD
BRANCH   4   7
ATOM      7  C   UNL A   1      34.085  23.055  25.528  1.00  0.00     0.067 C 
ATOM      8  C   UNL A   1      31.957  27.282  23.736  1.00  0.00    -0.026 A 
ATOM      9  C   UNL A   1      32.288  26.021  23.238  1.00  0.00     0.052 A 
ATOM     10  C   UNL A   1      32.169  27.493  25.111  1.00  0.00     0.045 A 
ATOM     11  C   UNL A   1      32.930  25.069  24.013  1.00  0.00     0.128 A 
ATOM     12  C   UNL A   1      32.759  26.498  25.918  1.00  0.00     0.032 A 
ATOM     13  Cl  UNL A   1      31.705  28.962  25.896  1.00  0.00    -0.084 Cl
ATOM     14  C   UNL A   1      33.165  25.283  25.361  1.00  0.00     0.019 A 
ATOM     15  O   UNL A   1      33.353  23.975  23.329  1.00  0.00    -0.475 OA
ATOM     16  C   UNL A   1      33.841  24.239  26.124  1.00  0.00     0.025 C 
ATOM     17  C   UNL A   1      33.660  22.802  24.109  1.00  0.00     0.314 C 
BRANCH   8  18
ATOM     18  C   UNL A   1      31.366  28.301  22.783  1.00  0.00     0.037 C 
BRANCH  18  19
ATOM     19  C   UNL A   1      29.890  28.703  23.033  1.00  0.00     0.008 C 
BRANCH  19  20
ATOM     20  C   UNL A   1      29.397  30.083  22.532  1.00  0.00    -0.017 C 
ATOM     21  C   UNL A   1      28.177  29.995  21.615  1.00  0.00     0.007 C 
ATOM     22  C   UNL A   1      29.090  31.013  23.709  1.00  0.00     0.007 C 
ENDBRANCH  19  20
ENDBRANCH  18  19
ENDBRANCH   8  18
BRANCH  17  23
ATOM     23  C   UNL A   1      32.464  21.842  23.986  1.00  0.00     0.429 C 
ATOM     24  F   UNL A   1      31.663  21.945  25.076  1.00  0.00    -0.167 F 
ATOM     25  F   UNL A   1      31.684  22.100  22.911  1.00  0.00    -0.167 F 
ATOM     26  F   UNL A   1      32.846  20.548  23.888  1.00  0.00    -0.167 F 
ENDBRANCH  17  23
ENDBRANCH   4   7
ENDBRANCH   2   3
ENDBRANCH   1   2
BRANCH   1  27
ATOM     27  C   UNL A   1      39.137  20.701  26.061  1.00  0.00     0.118 C 
BRANCH  27  28
ATOM     28  N   UNL A   1      40.074  19.578  26.075  1.00  0.00    -0.352 N 
ATOM     29  C   UNL A   1      41.449  19.561  26.123  1.00  0.00     0.251 C 
ATOM     30  H   UNL A   1      39.652  18.690  26.045  1.00  0.00     0.163 HD
ATOM     31  O   UNL A   1      42.052  18.519  25.900  1.00  0.00    -0.269 OA
BRANCH  29  32
ATOM     32  C   UNL A   1      42.190  20.804  26.424  1.00  0.00     0.039 A 
ATOM     33  C   UNL A   1      42.493  21.137  27.742  1.00  0.00     0.014 A 
ATOM     34  C   UNL A   1      42.579  21.649  25.380  1.00  0.00     0.014 A 
ATOM     35  C   UNL A   1      42.984  22.400  28.034  1.00  0.00     0.010 A 
ATOM     36  C   UNL A   1      43.187  22.874  25.672  1.00  0.00     0.010 A 
ATOM     37  C   UNL A   1      43.343  23.285  27.004  1.00  0.00    -0.014 A 
BRANCH  37  38
ATOM     38  C   UNL A   1      43.883  24.621  27.367  1.00  0.00     0.031 A 
ATOM     39  C   UNL A   1      45.304  24.997  27.038  1.00  0.00     0.074 A 
ATOM     40  C   UNL A   1      43.048  25.532  27.907  1.00  0.00     0.049 A 
ATOM     41  N   UNL A   1      45.907  26.143  27.217  1.00  0.00    -0.248 NA
ATOM     42  C   UNL A   1      46.160  23.961  26.435  1.00  0.00     0.031 C 
ATOM     43  C   UNL A   1      41.643  25.284  28.247  1.00  0.00     0.029 A 
ATOM     44  N   UNL A   1      43.232  26.857  28.212  1.00  0.00    -0.354 N 
ATOM     45  C   UNL A   1      47.211  25.964  26.771  1.00  0.00     0.074 A 
ATOM     46  C   UNL A   1      47.324  24.589  26.337  1.00  0.00     0.031 C 
ATOM     47  C   UNL A   1      41.072  26.437  28.618  1.00  0.00     0.029 A 
ATOM     48  C   UNL A   1      42.082  27.488  28.629  1.00  0.00     0.049 A 
ATOM     49  H   UNL A   1      44.102  27.311  28.140  1.00  0.00     0.167 HD
ATOM     50  C   UNL A   1      48.218  26.868  26.717  1.00  0.00     0.031 A 
ATOM     51  C   UNL A   1      41.859  28.768  28.984  1.00  0.00     0.031 A 
ATOM     52  C   UNL A   1      48.089  28.240  27.132  1.00  0.00     0.049 A 
ATOM     53  C   UNL A   1      42.998  29.742  28.945  1.00  0.00     0.074 A 
ATOM     54  C   UNL A   1      49.052  29.234  27.111  1.00  0.00     0.029 A 
ATOM     55  N   UNL A   1      46.930  28.817  27.628  1.00  0.00    -0.354 N 
ATOM     56  N   UNL A   1      44.229  29.544  28.538  1.00  0.00    -0.248 NA
ATOM     57  C   UNL A   1      42.727  31.105  29.421  1.00  0.00     0.031 C 
ATOM     58  C   UNL A   1      48.493  30.396  27.645  1.00  0.00     0.029 A 
ATOM     59  C   UNL A   1      47.160  30.148  27.938  1.00  0.00     0.049 A 
ATOM     60  H   UNL A   1      46.071  28.352  27.742  1.00  0.00     0.167 HD
ATOM     61  C   UNL A   1      44.883  30.757  28.710  1.00  0.00     0.074 A 
ATOM     62  C   UNL A   1      43.904  31.690  29.231  1.00  0.00     0.031 C 
ATOM     63  C   UNL A   1      46.180  31.062  28.467  1.00  0.00     0.031 A 
BRANCH  50  64
ATOM     64  C   UNL A   1      49.559  26.417  26.197  1.00  0.00    -0.014 A 
ATOM     65  C   UNL A   1      50.471  25.794  27.070  1.00  0.00     0.010 A 
ATOM     66  C   UNL A   1      49.963  26.711  24.883  1.00  0.00     0.010 A 
ATOM     67  C   UNL A   1      51.770  25.500  26.649  1.00  0.00     0.020 A 
ATOM     68  C   UNL A   1      51.255  26.395  24.450  1.00  0.00     0.020 A 
ATOM     69  C   UNL A   1      52.158  25.812  25.344  1.00  0.00     0.054 A 
BRANCH  69  70
ATOM     70  S   UNL A   1      53.854  25.443  24.819  1.00  0.00     0.124 S 
ATOM     71  O   UNL A   1      53.895  23.987  24.906  1.00  0.00    -0.237 OA
ATOM     72  O   UNL A   1      53.901  25.997  23.468  1.00  0.00    -0.237 OA
ATOM     73  O   UNL A   1      54.676  26.153  25.799  1.00  0.00    -0.744 OA
ENDBRANCH  69  70
ENDBRANCH  50  64
BRANCH  51  74
ATOM     74  C   UNL A   1      40.484  29.176  29.389  1.00  0.00    -0.014 A 
ATOM     75  C   UNL A   1      39.515  29.469  28.410  1.00  0.00     0.010 A 
ATOM     76  C   UNL A   1      40.171  29.378  30.744  1.00  0.00     0.010 A 
ATOM     77  C   UNL A   1      38.286  30.024  28.773  1.00  0.00     0.020 A 
ATOM     78  C   UNL A   1      38.927  29.902  31.112  1.00  0.00     0.020 A 
ATOM     79  C   UNL A   1      38.006  30.253  30.121  1.00  0.00     0.054 A 
BRANCH  79  80
ATOM     80  S   UNL A   1      36.431  31.034  30.566  1.00  0.00     0.124 S 
ATOM     81  O   UNL A   1      36.832  32.425  30.756  1.00  0.00    -0.237 OA
ATOM     82  O   UNL A   1      35.601  30.773  29.393  1.00  0.00    -0.237 OA
ATOM     83  O   UNL A   1      36.030  30.326  31.779  1.00  0.00    -0.744 OA
ENDBRANCH  79  80
ENDBRANCH  51  74
BRANCH  63  84
ATOM     84  C   UNL A   1      46.641  32.463  28.769  1.00  0.00    -0.014 A 
ATOM     85  C   UNL A   1      46.602  33.444  27.761  1.00  0.00     0.010 A 
ATOM     86  C   UNL A   1      47.225  32.772  30.010  1.00  0.00     0.010 A 
ATOM     87  C   UNL A   1      47.170  34.701  27.977  1.00  0.00     0.020 A 
ATOM     88  C   UNL A   1      47.770  34.039  30.238  1.00  0.00     0.020 A 
ATOM     89  C   UNL A   1      47.760  34.986  29.211  1.00  0.00     0.054 A 
BRANCH  89  90
ATOM     90  S   UNL A   1      48.516  36.615  29.465  1.00  0.00     0.124 S 
ATOM     91  O   UNL A   1      49.717  36.281  30.226  1.00  0.00    -0.237 OA
ATOM     92  O   UNL A   1      48.744  37.081  28.099  1.00  0.00    -0.237 OA
ATOM     93  O   UNL A   1      47.494  37.355  30.203  1.00  0.00    -0.744 OA
ENDBRANCH  89  90
ENDBRANCH  63  84
ENDBRANCH  37  38
ENDBRANCH  29  32
ENDBRANCH  27  28
ENDBRANCH   1  27
TORSDOF 17
ENDMDL
