MODEL 1
REMARK VINA RESULT:     -11.3      0.000      0.000
REMARK SMILES O=C(COc1ccccc1/C=C1\C(=O)Nc2ccccc21)NCCCNC(=O)c1ccc(-c2c3nc(c(-c4ccc(S(=O)(=O)[O-])cc4)c4ccc([nH]4)c(-c4ccc(S(=O)(=O)[O-])cc4)c4nc(c(-c5ccc(S(=O)(=O)[O-])cc5)c5ccc2[nH]5)C=C4)C=C3)cc1
REMARK SMILES IDX 24 1 23 2 22 3 1 4 2 5 3 7 4 8 5 9 6 10 10 11 7 12 9 13 8 14
REMARK SMILES IDX 11 15 12 16 13 17 21 18 14 19 15 20 16 21 20 22 17 24 19 25
REMARK SMILES IDX 18 26 25 27 26 28 27 29 28 31 29 32 30 33 88 34 31 35 87 36
REMARK SMILES IDX 32 37 33 38 34 39 81 40 35 41 86 42 80 43 82 44 36 45 85 46
REMARK SMILES IDX 79 47 78 48 37 50 67 51 48 52 66 53 49 54 52 55 65 56 83 57
REMARK SMILES IDX 50 58 51 59 64 61 84 62 53 63 38 64 39 65 47 66 40 67 46 68
REMARK SMILES IDX 41 69 42 70 43 71 44 72 45 73 68 74 69 75 77 76 70 77 76 78
REMARK SMILES IDX 71 79 72 80 73 81 74 82 75 83 54 84 55 85 63 86 56 87 62 88
REMARK SMILES IDX 57 89 58 90 59 91 60 92 61 93
REMARK H PARENT 22 6 15 23 26 30 82 49 52 60
REMARK Flexibility Score: inf
ROOT
ATOM      1  C   UNL A   1      36.029  22.444  24.700  1.00  0.00     0.042 C 
ENDROOT
BRANCH   1   2
ATOM      2  C   UNL A   1      35.648  21.318  25.628  1.00  0.00     0.117 C 
BRANCH   2   3
ATOM      3  N   UNL A   1      34.280  21.309  26.083  1.00  0.00    -0.353 N 
ATOM      4  O   UNL A   1      34.467  22.933  27.713  1.00  0.00    -0.271 OA
ATOM      5  C   UNL A   1      33.782  22.294  26.923  1.00  0.00     0.257 C 
ATOM      6  H   UNL A   1      33.683  20.583  25.791  1.00  0.00     0.163 HD
BRANCH   5   7
ATOM      7  C   UNL A   1      32.290  22.554  26.718  1.00  0.00     0.329 C 
BRANCH   7   8
ATOM      8  O   UNL A   1      32.203  23.902  26.244  1.00  0.00    -0.483 OA
BRANCH   8   9
ATOM      9  C   UNL A   1      32.395  24.069  24.897  1.00  0.00     0.127 A 
ATOM     10  C   UNL A   1      31.949  23.003  24.101  1.00  0.00     0.047 A 
ATOM     11  C   UNL A   1      33.265  25.062  24.391  1.00  0.00     0.017 A 
ATOM     12  C   UNL A   1      32.425  22.858  22.804  1.00  0.00     0.004 A 
ATOM     13  C   UNL A   1      33.823  24.804  23.133  1.00  0.00     0.012 A 
ATOM     14  C   UNL A   1      33.397  23.733  22.338  1.00  0.00     0.001 A 
BRANCH  11  15
ATOM     15  C   UNL A   1      33.646  26.277  25.164  1.00  0.00     0.026 C 
ATOM     16  C   UNL A   1      32.956  27.411  25.427  1.00  0.00     0.050 C 
ATOM     17  C   UNL A   1      31.565  27.821  24.980  1.00  0.00     0.256 C 
ATOM     18  C   UNL A   1      33.455  28.555  26.231  1.00  0.00     0.011 A 
ATOM     19  O   UNL A   1      30.714  27.178  24.386  1.00  0.00    -0.269 OA
ATOM     20  N   UNL A   1      31.401  29.125  25.407  1.00  0.00    -0.321 N 
ATOM     21  C   UNL A   1      32.485  29.556  26.156  1.00  0.00     0.049 A 
ATOM     22  C   UNL A   1      34.575  28.775  27.008  1.00  0.00     0.011 A 
ATOM     23  H   UNL A   1      30.612  29.679  25.206  1.00  0.00     0.170 HD
ATOM     24  C   UNL A   1      32.600  30.778  26.794  1.00  0.00     0.027 A 
ATOM     25  C   UNL A   1      34.720  30.001  27.675  1.00  0.00     0.001 A 
ATOM     26  C   UNL A   1      33.740  30.999  27.564  1.00  0.00     0.002 A 
ENDBRANCH  11  15
ENDBRANCH   8   9
ENDBRANCH   7   8
ENDBRANCH   5   7
ENDBRANCH   2   3
ENDBRANCH   1   2
BRANCH   1  27
ATOM     27  C   UNL A   1      37.231  23.259  25.142  1.00  0.00     0.118 C 
BRANCH  27  28
ATOM     28  N   UNL A   1      38.374  22.467  25.585  1.00  0.00    -0.352 N 
ATOM     29  C   UNL A   1      39.463  22.827  26.350  1.00  0.00     0.251 C 
ATOM     30  H   UNL A   1      38.365  21.527  25.292  1.00  0.00     0.163 HD
ATOM     31  O   UNL A   1      40.357  22.011  26.561  1.00  0.00    -0.269 OA
BRANCH  29  32
ATOM     32  C   UNL A   1      39.586  24.209  26.867  1.00  0.00     0.039 A 
ATOM     33  C   UNL A   1      39.133  24.493  28.158  1.00  0.00     0.014 A 
ATOM     34  C   UNL A   1      40.198  25.208  26.110  1.00  0.00     0.014 A 
ATOM     35  C   UNL A   1      39.413  25.737  28.732  1.00  0.00     0.010 A 
ATOM     36  C   UNL A   1      40.574  26.400  26.719  1.00  0.00     0.010 A 
ATOM     37  C   UNL A   1      40.197  26.674  28.042  1.00  0.00    -0.014 A 
BRANCH  37  38
ATOM     38  C   UNL A   1      40.664  27.931  28.684  1.00  0.00     0.031 A 
ATOM     39  C   UNL A   1      42.053  28.017  29.258  1.00  0.00     0.074 A 
ATOM     40  C   UNL A   1      39.805  28.961  28.839  1.00  0.00     0.049 A 
ATOM     41  N   UNL A   1      42.600  28.984  29.948  1.00  0.00    -0.248 NA
ATOM     42  C   UNL A   1      42.929  26.851  29.057  1.00  0.00     0.031 C 
ATOM     43  C   UNL A   1      38.414  28.986  28.381  1.00  0.00     0.029 A 
ATOM     44  N   UNL A   1      39.975  30.185  29.439  1.00  0.00    -0.354 N 
ATOM     45  C   UNL A   1      43.871  28.533  30.286  1.00  0.00     0.074 A 
ATOM     46  C   UNL A   1      43.996  27.189  29.767  1.00  0.00     0.031 C 
ATOM     47  C   UNL A   1      37.868  30.173  28.691  1.00  0.00     0.029 A 
ATOM     48  C   UNL A   1      38.852  30.977  29.407  1.00  0.00     0.049 A 
ATOM     49  H   UNL A   1      40.822  30.467  29.854  1.00  0.00     0.167 HD
ATOM     50  C   UNL A   1      44.854  29.185  30.951  1.00  0.00     0.031 A 
ATOM     51  C   UNL A   1      38.631  32.208  29.907  1.00  0.00     0.031 A 
ATOM     52  C   UNL A   1      44.740  30.531  31.444  1.00  0.00     0.049 A 
ATOM     53  C   UNL A   1      39.740  32.915  30.633  1.00  0.00     0.074 A 
ATOM     54  C   UNL A   1      45.706  31.302  32.067  1.00  0.00     0.029 A 
ATOM     55  N   UNL A   1      43.594  31.306  31.371  1.00  0.00    -0.354 N 
ATOM     56  N   UNL A   1      40.958  32.495  30.885  1.00  0.00    -0.248 NA
ATOM     57  C   UNL A   1      39.449  34.265  31.138  1.00  0.00     0.031 C 
ATOM     58  C   UNL A   1      45.128  32.530  32.409  1.00  0.00     0.029 A 
ATOM     59  C   UNL A   1      43.819  32.540  31.956  1.00  0.00     0.049 A 
ATOM     60  H   UNL A   1      42.744  31.021  30.962  1.00  0.00     0.167 HD
ATOM     61  C   UNL A   1      41.583  33.536  31.563  1.00  0.00     0.074 A 
ATOM     62  C   UNL A   1      40.616  34.610  31.665  1.00  0.00     0.031 C 
ATOM     63  C   UNL A   1      42.844  33.595  32.056  1.00  0.00     0.031 A 
BRANCH  50  64
ATOM     64  C   UNL A   1      46.145  28.443  31.178  1.00  0.00    -0.014 A 
ATOM     65  C   UNL A   1      47.222  28.571  30.283  1.00  0.00     0.010 A 
ATOM     66  C   UNL A   1      46.293  27.629  32.316  1.00  0.00     0.010 A 
ATOM     67  C   UNL A   1      48.407  27.864  30.495  1.00  0.00     0.020 A 
ATOM     68  C   UNL A   1      47.488  26.941  32.547  1.00  0.00     0.020 A 
ATOM     69  C   UNL A   1      48.530  27.049  31.624  1.00  0.00     0.054 A 
BRANCH  69  70
ATOM     70  S   UNL A   1      50.087  26.154  31.885  1.00  0.00     0.124 S 
ATOM     71  O   UNL A   1      50.081  25.961  33.333  1.00  0.00    -0.237 OA
ATOM     72  O   UNL A   1      49.901  24.944  31.090  1.00  0.00    -0.237 OA
ATOM     73  O   UNL A   1      51.104  27.076  31.384  1.00  0.00    -0.744 OA
ENDBRANCH  69  70
ENDBRANCH  50  64
BRANCH  51  74
ATOM     74  C   UNL A   1      37.304  32.858  29.724  1.00  0.00    -0.014 A 
ATOM     75  C   UNL A   1      36.344  32.812  30.749  1.00  0.00     0.010 A 
ATOM     76  C   UNL A   1      37.002  33.541  28.532  1.00  0.00     0.010 A 
ATOM     77  C   UNL A   1      35.100  33.426  30.581  1.00  0.00     0.020 A 
ATOM     78  C   UNL A   1      35.768  34.178  28.370  1.00  0.00     0.020 A 
ATOM     79  C   UNL A   1      34.820  34.108  29.394  1.00  0.00     0.054 A 
BRANCH  79  80
ATOM     80  S   UNL A   1      33.222  34.951  29.222  1.00  0.00     0.124 S 
ATOM     81  O   UNL A   1      32.554  34.134  28.214  1.00  0.00    -0.237 OA
ATOM     82  O   UNL A   1      32.672  34.867  30.572  1.00  0.00    -0.237 OA
ATOM     83  O   UNL A   1      33.593  36.299  28.794  1.00  0.00    -0.744 OA
ENDBRANCH  79  80
ENDBRANCH  51  74
BRANCH  63  84
ATOM     84  C   UNL A   1      43.258  34.871  32.737  1.00  0.00    -0.014 A 
ATOM     85  C   UNL A   1      43.859  35.916  32.014  1.00  0.00     0.010 A 
ATOM     86  C   UNL A   1      42.994  35.045  34.107  1.00  0.00     0.010 A 
ATOM     87  C   UNL A   1      44.215  37.105  32.657  1.00  0.00     0.020 A 
ATOM     88  C   UNL A   1      43.326  36.241  34.749  1.00  0.00     0.020 A 
ATOM     89  C   UNL A   1      43.947  37.258  34.021  1.00  0.00     0.054 A 
BRANCH  89  90
ATOM     90  S   UNL A   1      44.378  38.827  34.825  1.00  0.00     0.124 S 
ATOM     91  O   UNL A   1      45.762  39.015  34.400  1.00  0.00    -0.237 OA
ATOM     92  O   UNL A   1      43.411  39.759  34.250  1.00  0.00    -0.237 OA
ATOM     93  O   UNL A   1      44.195  38.547  36.248  1.00  0.00    -0.744 OA
ENDBRANCH  89  90
ENDBRANCH  63  84
ENDBRANCH  37  38
ENDBRANCH  29  32
ENDBRANCH  27  28
ENDBRANCH   1  27
TORSDOF 16
ENDMDL
MODEL 2
REMARK VINA RESULT:     -11.2      3.625      4.716
REMARK SMILES O=C(COc1ccccc1/C=C1\C(=O)Nc2ccccc21)NCCCNC(=O)c1ccc(-c2c3nc(c(-c4ccc(S(=O)(=O)[O-])cc4)c4ccc([nH]4)c(-c4ccc(S(=O)(=O)[O-])cc4)c4nc(c(-c5ccc(S(=O)(=O)[O-])cc5)c5ccc2[nH]5)C=C4)C=C3)cc1
REMARK SMILES IDX 24 1 23 2 22 3 1 4 2 5 3 7 4 8 5 9 6 10 10 11 7 12 9 13 8 14
REMARK SMILES IDX 11 15 12 16 13 17 21 18 14 19 15 20 16 21 20 22 17 24 19 25
REMARK SMILES IDX 18 26 25 27 26 28 27 29 28 31 29 32 30 33 88 34 31 35 87 36
REMARK SMILES IDX 32 37 33 38 34 39 81 40 35 41 86 42 80 43 82 44 36 45 85 46
REMARK SMILES IDX 79 47 78 48 37 50 67 51 48 52 66 53 49 54 52 55 65 56 83 57
REMARK SMILES IDX 50 58 51 59 64 61 84 62 53 63 38 64 39 65 47 66 40 67 46 68
REMARK SMILES IDX 41 69 42 70 43 71 44 72 45 73 68 74 69 75 77 76 70 77 76 78
REMARK SMILES IDX 71 79 72 80 73 81 74 82 75 83 54 84 55 85 63 86 56 87 62 88
REMARK SMILES IDX 57 89 58 90 59 91 60 92 61 93
REMARK H PARENT 22 6 15 23 26 30 82 49 52 60
REMARK Flexibility Score: inf
ROOT
ATOM      1  C   UNL A   1      40.308  22.192  27.325  1.00  0.00     0.042 C 
ENDROOT
BRANCH   1   2
ATOM      2  C   UNL A   1      39.457  21.927  26.108  1.00  0.00     0.117 C 
BRANCH   2   3
ATOM      3  N   UNL A   1      38.046  22.186  26.254  1.00  0.00    -0.353 N 
ATOM      4  O   UNL A   1      37.411  21.782  24.072  1.00  0.00    -0.271 OA
ATOM      5  C   UNL A   1      37.135  21.852  25.263  1.00  0.00     0.257 C 
ATOM      6  H   UNL A   1      37.721  22.612  27.080  1.00  0.00     0.163 HD
BRANCH   5   7
ATOM      7  C   UNL A   1      35.751  21.513  25.816  1.00  0.00     0.329 C 
BRANCH   7   8
ATOM      8  O   UNL A   1      34.835  21.839  24.765  1.00  0.00    -0.483 OA
BRANCH   8   9
ATOM      9  C   UNL A   1      33.864  20.904  24.516  1.00  0.00     0.127 A 
ATOM     10  C   UNL A   1      34.172  19.605  24.946  1.00  0.00     0.047 A 
ATOM     11  C   UNL A   1      32.808  21.157  23.610  1.00  0.00     0.017 A 
ATOM     12  C   UNL A   1      33.485  18.518  24.420  1.00  0.00     0.004 A 
ATOM     13  C   UNL A   1      32.237  20.031  23.006  1.00  0.00     0.012 A 
ATOM     14  C   UNL A   1      32.550  18.729  23.416  1.00  0.00     0.001 A 
BRANCH  11  15
ATOM     15  C   UNL A   1      32.368  22.532  23.241  1.00  0.00     0.026 C 
ATOM     16  C   UNL A   1      31.622  23.433  23.919  1.00  0.00     0.050 C 
ATOM     17  C   UNL A   1      30.958  23.311  25.279  1.00  0.00     0.256 C 
ATOM     18  C   UNL A   1      31.261  24.789  23.435  1.00  0.00     0.011 A 
ATOM     19  O   UNL A   1      31.046  22.425  26.114  1.00  0.00    -0.269 OA
ATOM     20  N   UNL A   1      30.207  24.460  25.436  1.00  0.00    -0.321 N 
ATOM     21  C   UNL A   1      30.392  25.339  24.380  1.00  0.00     0.049 A 
ATOM     22  C   UNL A   1      31.629  25.559  22.349  1.00  0.00     0.011 A 
ATOM     23  H   UNL A   1      29.614  24.635  26.203  1.00  0.00     0.170 HD
ATOM     24  C   UNL A   1      29.849  26.607  24.270  1.00  0.00     0.027 A 
ATOM     25  C   UNL A   1      31.104  26.852  22.210  1.00  0.00     0.001 A 
ATOM     26  C   UNL A   1      30.214  27.370  23.163  1.00  0.00     0.002 A 
ENDBRANCH  11  15
ENDBRANCH   8   9
ENDBRANCH   7   8
ENDBRANCH   5   7
ENDBRANCH   2   3
ENDBRANCH   1   2
BRANCH   1  27
ATOM     27  C   UNL A   1      41.615  22.911  27.046  1.00  0.00     0.118 C 
BRANCH  27  28
ATOM     28  N   UNL A   1      41.553  23.894  25.970  1.00  0.00    -0.352 N 
ATOM     29  C   UNL A   1      41.457  25.268  26.025  1.00  0.00     0.251 C 
ATOM     30  H   UNL A   1      41.585  23.517  25.062  1.00  0.00     0.163 HD
ATOM     31  O   UNL A   1      41.355  25.915  24.985  1.00  0.00    -0.269 OA
BRANCH  29  32
ATOM     32  C   UNL A   1      41.417  25.961  27.334  1.00  0.00     0.039 A 
ATOM     33  C   UNL A   1      42.524  26.712  27.737  1.00  0.00     0.014 A 
ATOM     34  C   UNL A   1      40.274  25.922  28.132  1.00  0.00     0.014 A 
ATOM     35  C   UNL A   1      42.432  27.523  28.872  1.00  0.00     0.010 A 
ATOM     36  C   UNL A   1      40.145  26.813  29.193  1.00  0.00     0.010 A 
ATOM     37  C   UNL A   1      41.218  27.633  29.568  1.00  0.00    -0.014 A 
BRANCH  37  38
ATOM     38  C   UNL A   1      41.030  28.616  30.668  1.00  0.00     0.031 A 
ATOM     39  C   UNL A   1      41.868  28.525  31.916  1.00  0.00     0.074 A 
ATOM     40  C   UNL A   1      40.039  29.529  30.587  1.00  0.00     0.049 A 
ATOM     41  N   UNL A   1      41.777  29.218  33.021  1.00  0.00    -0.248 NA
ATOM     42  C   UNL A   1      42.923  27.498  31.935  1.00  0.00     0.031 C 
ATOM     43  C   UNL A   1      39.118  29.688  29.459  1.00  0.00     0.029 A 
ATOM     44  N   UNL A   1      39.633  30.490  31.480  1.00  0.00    -0.354 N 
ATOM     45  C   UNL A   1      42.742  28.694  33.874  1.00  0.00     0.074 A 
ATOM     46  C   UNL A   1      43.373  27.596  33.177  1.00  0.00     0.031 C 
ATOM     47  C   UNL A   1      38.276  30.702  29.715  1.00  0.00     0.029 A 
ATOM     48  C   UNL A   1      38.566  31.237  31.040  1.00  0.00     0.049 A 
ATOM     49  H   UNL A   1      40.066  30.631  32.353  1.00  0.00     0.167 HD
ATOM     50  C   UNL A   1      43.086  29.103  35.118  1.00  0.00     0.031 A 
ATOM     51  C   UNL A   1      37.886  32.235  31.639  1.00  0.00     0.031 A 
ATOM     52  C   UNL A   1      42.477  30.212  35.802  1.00  0.00     0.049 A 
ATOM     53  C   UNL A   1      38.293  32.676  33.016  1.00  0.00     0.074 A 
ATOM     54  C   UNL A   1      42.807  30.747  37.034  1.00  0.00     0.029 A 
ATOM     55  N   UNL A   1      41.415  30.955  35.312  1.00  0.00    -0.354 N 
ATOM     56  N   UNL A   1      39.252  32.210  33.780  1.00  0.00    -0.248 NA
ATOM     57  C   UNL A   1      37.529  33.783  33.611  1.00  0.00     0.031 C 
ATOM     58  C   UNL A   1      41.914  31.789  37.309  1.00  0.00     0.029 A 
ATOM     59  C   UNL A   1      41.060  31.933  36.227  1.00  0.00     0.049 A 
ATOM     60  H   UNL A   1      40.977  30.811  34.442  1.00  0.00     0.167 HD
ATOM     61  C   UNL A   1      39.219  32.978  34.939  1.00  0.00     0.074 A 
ATOM     62  C   UNL A   1      38.157  33.949  34.767  1.00  0.00     0.031 C 
ATOM     63  C   UNL A   1      39.997  32.886  36.044  1.00  0.00     0.031 A 
BRANCH  50  64
ATOM     64  C   UNL A   1      44.181  28.342  35.818  1.00  0.00    -0.014 A 
ATOM     65  C   UNL A   1      45.530  28.709  35.667  1.00  0.00     0.010 A 
ATOM     66  C   UNL A   1      43.855  27.262  36.658  1.00  0.00     0.010 A 
ATOM     67  C   UNL A   1      46.537  27.984  36.307  1.00  0.00     0.020 A 
ATOM     68  C   UNL A   1      44.858  26.550  37.323  1.00  0.00     0.020 A 
ATOM     69  C   UNL A   1      46.195  26.905  37.127  1.00  0.00     0.054 A 
BRANCH  69  70
ATOM     70  S   UNL A   1      47.522  25.990  37.960  1.00  0.00     0.124 S 
ATOM     71  O   UNL A   1      46.988  25.855  39.313  1.00  0.00    -0.237 OA
ATOM     72  O   UNL A   1      47.595  24.753  37.188  1.00  0.00    -0.237 OA
ATOM     73  O   UNL A   1      48.682  26.870  37.833  1.00  0.00    -0.744 OA
ENDBRANCH  69  70
ENDBRANCH  50  64
BRANCH  51  74
ATOM     74  C   UNL A   1      36.755  32.894  30.929  1.00  0.00    -0.014 A 
ATOM     75  C   UNL A   1      35.430  32.510  31.195  1.00  0.00     0.010 A 
ATOM     76  C   UNL A   1      36.998  33.922  30.000  1.00  0.00     0.010 A 
ATOM     77  C   UNL A   1      34.367  33.132  30.534  1.00  0.00     0.020 A 
ATOM     78  C   UNL A   1      35.936  34.563  29.355  1.00  0.00     0.020 A 
ATOM     79  C   UNL A   1      34.626  34.157  29.620  1.00  0.00     0.054 A 
BRANCH  79  80
ATOM     80  S   UNL A   1      33.228  34.993  28.820  1.00  0.00     0.124 S 
ATOM     81  O   UNL A   1      33.880  36.134  28.184  1.00  0.00    -0.237 OA
ATOM     82  O   UNL A   1      32.721  33.967  27.913  1.00  0.00    -0.237 OA
ATOM     83  O   UNL A   1      32.342  35.318  29.936  1.00  0.00    -0.744 OA
ENDBRANCH  79  80
ENDBRANCH  51  74
BRANCH  63  84
ATOM     84  C   UNL A   1      39.742  33.873  37.150  1.00  0.00    -0.014 A 
ATOM     85  C   UNL A   1      39.067  33.489  38.322  1.00  0.00     0.010 A 
ATOM     86  C   UNL A   1      40.230  35.187  37.037  1.00  0.00     0.010 A 
ATOM     87  C   UNL A   1      38.859  34.411  39.351  1.00  0.00     0.020 A 
ATOM     88  C   UNL A   1      40.046  36.105  38.073  1.00  0.00     0.020 A 
ATOM     89  C   UNL A   1      39.349  35.715  39.218  1.00  0.00     0.054 A 
BRANCH  89  90
ATOM     90  S   UNL A   1      39.106  36.883  40.585  1.00  0.00     0.124 S 
ATOM     91  O   UNL A   1      38.113  36.192  41.402  1.00  0.00    -0.237 OA
ATOM     92  O   UNL A   1      40.443  36.979  41.168  1.00  0.00    -0.237 OA
ATOM     93  O   UNL A   1      38.635  38.097  39.922  1.00  0.00    -0.744 OA
ENDBRANCH  89  90
ENDBRANCH  63  84
ENDBRANCH  37  38
ENDBRANCH  29  32
ENDBRANCH  27  28
ENDBRANCH   1  27
TORSDOF 16
ENDMDL
MODEL 3
REMARK VINA RESULT:     -11.1      3.566      5.500
REMARK SMILES O=C(COc1ccccc1/C=C1\C(=O)Nc2ccccc21)NCCCNC(=O)c1ccc(-c2c3nc(c(-c4ccc(S(=O)(=O)[O-])cc4)c4ccc([nH]4)c(-c4ccc(S(=O)(=O)[O-])cc4)c4nc(c(-c5ccc(S(=O)(=O)[O-])cc5)c5ccc2[nH]5)C=C4)C=C3)cc1
REMARK SMILES IDX 24 1 23 2 22 3 1 4 2 5 3 7 4 8 5 9 6 10 10 11 7 12 9 13 8 14
REMARK SMILES IDX 11 15 12 16 13 17 21 18 14 19 15 20 16 21 20 22 17 24 19 25
REMARK SMILES IDX 18 26 25 27 26 28 27 29 28 31 29 32 30 33 88 34 31 35 87 36
REMARK SMILES IDX 32 37 33 38 34 39 81 40 35 41 86 42 80 43 82 44 36 45 85 46
REMARK SMILES IDX 79 47 78 48 37 50 67 51 48 52 66 53 49 54 52 55 65 56 83 57
REMARK SMILES IDX 50 58 51 59 64 61 84 62 53 63 38 64 39 65 47 66 40 67 46 68
REMARK SMILES IDX 41 69 42 70 43 71 44 72 45 73 68 74 69 75 77 76 70 77 76 78
REMARK SMILES IDX 71 79 72 80 73 81 74 82 75 83 54 84 55 85 63 86 56 87 62 88
REMARK SMILES IDX 57 89 58 90 59 91 60 92 61 93
REMARK H PARENT 22 6 15 23 26 30 82 49 52 60
REMARK Flexibility Score: inf
ROOT
ATOM      1  C   UNL A   1      40.201  22.346  27.362  1.00  0.00     0.042 C 
ENDROOT
BRANCH   1   2
ATOM      2  C   UNL A   1      39.379  22.039  26.134  1.00  0.00     0.117 C 
BRANCH   2   3
ATOM      3  N   UNL A   1      38.346  22.990  25.810  1.00  0.00    -0.353 N 
ATOM      4  O   UNL A   1      36.599  21.502  25.554  1.00  0.00    -0.271 OA
ATOM      5  C   UNL A   1      37.005  22.635  25.787  1.00  0.00     0.257 C 
ATOM      6  H   UNL A   1      38.599  23.918  25.599  1.00  0.00     0.163 HD
BRANCH   5   7
ATOM      7  C   UNL A   1      36.075  23.792  26.149  1.00  0.00     0.329 C 
BRANCH   7   8
ATOM      8  O   UNL A   1      35.456  24.177  24.918  1.00  0.00    -0.483 OA
BRANCH   8   9
ATOM      9  C   UNL A   1      34.247  24.813  25.037  1.00  0.00     0.127 A 
ATOM     10  C   UNL A   1      34.321  26.146  25.466  1.00  0.00     0.047 A 
ATOM     11  C   UNL A   1      33.031  24.092  25.056  1.00  0.00     0.017 A 
ATOM     12  C   UNL A   1      33.199  26.767  26.001  1.00  0.00     0.004 A 
ATOM     13  C   UNL A   1      31.966  24.706  25.724  1.00  0.00     0.012 A 
ATOM     14  C   UNL A   1      32.035  26.031  26.172  1.00  0.00     0.001 A 
BRANCH  11  15
ATOM     15  C   UNL A   1      32.889  22.725  24.480  1.00  0.00     0.026 C 
ATOM     16  C   UNL A   1      32.970  21.507  25.062  1.00  0.00     0.050 C 
ATOM     17  C   UNL A   1      33.269  21.143  26.506  1.00  0.00     0.256 C 
ATOM     18  C   UNL A   1      32.795  20.207  24.366  1.00  0.00     0.011 A 
ATOM     19  O   UNL A   1      33.385  21.863  27.484  1.00  0.00    -0.269 OA
ATOM     20  N   UNL A   1      33.369  19.765  26.534  1.00  0.00    -0.321 N 
ATOM     21  C   UNL A   1      33.074  19.206  25.300  1.00  0.00     0.049 A 
ATOM     22  C   UNL A   1      32.398  19.836  23.097  1.00  0.00     0.011 A 
ATOM     23  H   UNL A   1      33.618  19.244  27.331  1.00  0.00     0.170 HD
ATOM     24  C   UNL A   1      33.006  17.855  25.012  1.00  0.00     0.027 A 
ATOM     25  C   UNL A   1      32.311  18.473  22.774  1.00  0.00     0.001 A 
ATOM     26  C   UNL A   1      32.619  17.489  23.725  1.00  0.00     0.002 A 
ENDBRANCH  11  15
ENDBRANCH   8   9
ENDBRANCH   7   8
ENDBRANCH   5   7
ENDBRANCH   2   3
ENDBRANCH   1   2
BRANCH   1  27
ATOM     27  C   UNL A   1      41.533  23.019  27.088  1.00  0.00     0.118 C 
BRANCH  27  28
ATOM     28  N   UNL A   1      41.506  24.010  26.017  1.00  0.00    -0.352 N 
ATOM     29  C   UNL A   1      41.441  25.385  26.078  1.00  0.00     0.251 C 
ATOM     30  H   UNL A   1      41.540  23.637  25.107  1.00  0.00     0.163 HD
ATOM     31  O   UNL A   1      41.367  26.040  25.041  1.00  0.00    -0.269 OA
BRANCH  29  32
ATOM     32  C   UNL A   1      41.402  26.071  27.390  1.00  0.00     0.039 A 
ATOM     33  C   UNL A   1      42.522  26.791  27.813  1.00  0.00     0.014 A 
ATOM     34  C   UNL A   1      40.248  26.056  28.174  1.00  0.00     0.014 A 
ATOM     35  C   UNL A   1      42.436  27.599  28.951  1.00  0.00     0.010 A 
ATOM     36  C   UNL A   1      40.127  26.944  29.238  1.00  0.00     0.010 A 
ATOM     37  C   UNL A   1      41.216  27.735  29.632  1.00  0.00    -0.014 A 
BRANCH  37  38
ATOM     38  C   UNL A   1      41.039  28.716  30.735  1.00  0.00     0.031 A 
ATOM     39  C   UNL A   1      41.876  28.612  31.982  1.00  0.00     0.074 A 
ATOM     40  C   UNL A   1      40.057  29.639  30.658  1.00  0.00     0.049 A 
ATOM     41  N   UNL A   1      41.793  29.303  33.090  1.00  0.00    -0.248 NA
ATOM     42  C   UNL A   1      42.921  27.575  31.997  1.00  0.00     0.031 C 
ATOM     43  C   UNL A   1      39.136  29.811  29.531  1.00  0.00     0.029 A 
ATOM     44  N   UNL A   1      39.661  30.601  31.554  1.00  0.00    -0.354 N 
ATOM     45  C   UNL A   1      42.753  28.766  33.941  1.00  0.00     0.074 A 
ATOM     46  C   UNL A   1      43.373  27.665  33.240  1.00  0.00     0.031 C 
ATOM     47  C   UNL A   1      38.305  30.833  29.791  1.00  0.00     0.029 A 
ATOM     48  C   UNL A   1      38.601  31.360  31.118  1.00  0.00     0.049 A 
ATOM     49  H   UNL A   1      40.096  30.735  32.428  1.00  0.00     0.167 HD
ATOM     50  C   UNL A   1      43.102  29.168  35.186  1.00  0.00     0.031 A 
ATOM     51  C   UNL A   1      37.931  32.363  31.720  1.00  0.00     0.031 A 
ATOM     52  C   UNL A   1      42.505  30.281  35.873  1.00  0.00     0.049 A 
ATOM     53  C   UNL A   1      38.343  32.796  33.099  1.00  0.00     0.074 A 
ATOM     54  C   UNL A   1      42.840  30.809  37.108  1.00  0.00     0.029 A 
ATOM     55  N   UNL A   1      41.450  31.036  35.387  1.00  0.00    -0.354 N 
ATOM     56  N   UNL A   1      39.299  32.318  33.860  1.00  0.00    -0.248 NA
ATOM     57  C   UNL A   1      37.591  33.908  33.698  1.00  0.00     0.031 C 
ATOM     58  C   UNL A   1      41.958  31.858  37.387  1.00  0.00     0.029 A 
ATOM     59  C   UNL A   1      41.106  32.014  36.305  1.00  0.00     0.049 A 
ATOM     60  H   UNL A   1      41.010  30.899  34.517  1.00  0.00     0.167 HD
ATOM     61  C   UNL A   1      39.274  33.082  35.022  1.00  0.00     0.074 A 
ATOM     62  C   UNL A   1      38.222  34.064  34.854  1.00  0.00     0.031 C 
ATOM     63  C   UNL A   1      40.052  32.979  36.126  1.00  0.00     0.031 A 
BRANCH  50  64
ATOM     64  C   UNL A   1      44.190  28.393  35.882  1.00  0.00    -0.014 A 
ATOM     65  C   UNL A   1      43.885  27.284  36.691  1.00  0.00     0.010 A 
ATOM     66  C   UNL A   1      45.536  28.763  35.705  1.00  0.00     0.010 A 
ATOM     67  C   UNL A   1      44.901  26.585  37.346  1.00  0.00     0.020 A 
ATOM     68  C   UNL A   1      46.559  28.049  36.337  1.00  0.00     0.020 A 
ATOM     69  C   UNL A   1      46.232  26.976  37.169  1.00  0.00     0.054 A 
BRANCH  69  70
ATOM     70  S   UNL A   1      47.534  26.040  38.018  1.00  0.00     0.124 S 
ATOM     71  O   UNL A   1      47.286  26.385  39.416  1.00  0.00    -0.237 OA
ATOM     72  O   UNL A   1      47.232  24.661  37.649  1.00  0.00    -0.237 OA
ATOM     73  O   UNL A   1      48.770  26.577  37.455  1.00  0.00    -0.744 OA
ENDBRANCH  69  70
ENDBRANCH  50  64
BRANCH  51  74
ATOM     74  C   UNL A   1      36.807  33.036  31.014  1.00  0.00    -0.014 A 
ATOM     75  C   UNL A   1      37.062  33.893  29.930  1.00  0.00     0.010 A 
ATOM     76  C   UNL A   1      35.477  32.809  31.409  1.00  0.00     0.010 A 
ATOM     77  C   UNL A   1      36.008  34.522  29.262  1.00  0.00     0.020 A 
ATOM     78  C   UNL A   1      34.418  33.417  30.728  1.00  0.00     0.020 A 
ATOM     79  C   UNL A   1      34.691  34.278  29.663  1.00  0.00     0.054 A 
BRANCH  79  80
ATOM     80  S   UNL A   1      33.335  35.056  28.742  1.00  0.00     0.124 S 
ATOM     81  O   UNL A   1      32.810  33.934  27.969  1.00  0.00    -0.237 OA
ATOM     82  O   UNL A   1      32.468  35.550  29.809  1.00  0.00    -0.237 OA
ATOM     83  O   UNL A   1      34.004  36.097  27.964  1.00  0.00    -0.744 OA
ENDBRANCH  79  80
ENDBRANCH  51  74
BRANCH  63  84
ATOM     84  C   UNL A   1      39.807  33.964  37.236  1.00  0.00    -0.014 A 
ATOM     85  C   UNL A   1      38.952  33.651  38.307  1.00  0.00     0.010 A 
ATOM     86  C   UNL A   1      40.483  35.197  37.232  1.00  0.00     0.010 A 
ATOM     87  C   UNL A   1      38.754  34.569  39.343  1.00  0.00     0.020 A 
ATOM     88  C   UNL A   1      40.307  36.107  38.278  1.00  0.00     0.020 A 
ATOM     89  C   UNL A   1      39.432  35.792  39.320  1.00  0.00     0.054 A 
BRANCH  89  90
ATOM     90  S   UNL A   1      39.194  36.949  40.697  1.00  0.00     0.124 S 
ATOM     91  O   UNL A   1      38.320  37.955  40.100  1.00  0.00    -0.237 OA
ATOM     92  O   UNL A   1      38.577  36.108  41.721  1.00  0.00    -0.237 OA
ATOM     93  O   UNL A   1      40.549  37.402  41.006  1.00  0.00    -0.744 OA
ENDBRANCH  89  90
ENDBRANCH  63  84
ENDBRANCH  37  38
ENDBRANCH  29  32
ENDBRANCH  27  28
ENDBRANCH   1  27
TORSDOF 16
ENDMDL
