MODEL 1
REMARK VINA RESULT:      -9.5      0.000      0.000
REMARK SMILES COc1ccccc1-c1ccc(C(=O)NCCCNC(=O)c2ccc(-c3c4nc(c(-c5ccc(S(=O)(=O)[O-])cc5)c5ccc([nH]5)c(-c5ccc(S(=O)(=O)[O-])cc5)c5nc(c(-c6ccc(S(=O)(=O)[O-])cc6)c6ccc3[nH]6)C=C5)C=C4)cc2)c(O)c1
REMARK SMILES IDX 17 1 16 2 15 3 13 4 14 5 12 7 9 8 10 9 84 10 11 11 82 12
REMARK SMILES IDX 8 13 3 14 4 15 5 16 7 17 6 18 2 19 1 20 83 21 18 23 19 24
REMARK SMILES IDX 20 25 21 27 22 28 23 29 81 30 24 31 80 32 25 33 26 34 27 35
REMARK SMILES IDX 74 36 28 37 79 38 73 39 75 40 29 41 78 42 72 43 71 44 30 46
REMARK SMILES IDX 60 47 41 48 59 49 42 50 45 51 58 52 76 53 43 54 44 55 57 57
REMARK SMILES IDX 77 58 46 59 31 60 32 61 40 62 33 63 39 64 34 65 35 66 36 67
REMARK SMILES IDX 37 68 38 69 61 70 62 71 70 72 63 73 69 74 64 75 65 76 66 77
REMARK SMILES IDX 67 78 68 79 47 80 48 81 56 82 49 83 55 84 50 85 51 86 52 87
REMARK SMILES IDX 53 88 54 89
REMARK H PARENT 15 6 83 22 19 26 75 45 45 56
REMARK Flexibility Score: inf
ROOT
ATOM      1  C   UNL A   1      34.699  33.120  29.811  1.00  0.00     0.042 C 
ENDROOT
BRANCH   1   2
ATOM      2  C   UNL A   1      36.048  33.717  30.212  1.00  0.00     0.118 C 
BRANCH   2   3
ATOM      3  N   UNL A   1      35.922  34.541  31.399  1.00  0.00    -0.352 N 
ATOM      4  C   UNL A   1      36.449  34.419  32.659  1.00  0.00     0.255 C 
ATOM      5  O   UNL A   1      36.153  35.296  33.476  1.00  0.00    -0.269 OA
ATOM      6  H   UNL A   1      35.353  35.335  31.278  1.00  0.00     0.163 HD
BRANCH   4   7
ATOM      7  C   UNL A   1      37.430  33.375  33.066  1.00  0.00     0.081 A 
ATOM      8  C   UNL A   1      39.069  31.174  33.784  1.00  0.00    -0.011 A 
ATOM      9  C   UNL A   1      37.748  30.967  33.379  1.00  0.00     0.010 A 
ATOM     10  C   UNL A   1      39.574  32.480  33.779  1.00  0.00     0.055 A 
ATOM     11  C   UNL A   1      36.939  32.055  33.034  1.00  0.00     0.018 A 
ATOM     12  C   UNL A   1      38.774  33.563  33.400  1.00  0.00     0.128 A 
BRANCH   8  13
ATOM     13  C   UNL A   1      39.934  30.067  34.203  1.00  0.00     0.024 A 
ATOM     14  C   UNL A   1      40.543  30.014  35.473  1.00  0.00     0.126 A 
ATOM     15  C   UNL A   1      41.477  29.018  35.772  1.00  0.00     0.047 A 
ATOM     16  C   UNL A   1      41.794  28.042  34.828  1.00  0.00     0.004 A 
ATOM     17  C   UNL A   1      40.259  29.064  33.269  1.00  0.00     0.012 A 
ATOM     18  C   UNL A   1      41.181  28.062  33.579  1.00  0.00     0.001 A 
BRANCH  14  19
ATOM     19  O   UNL A   1      40.367  30.964  36.449  1.00  0.00    -0.496 OA
ATOM     20  C   UNL A   1      41.547  31.722  36.715  1.00  0.00     0.278 C 
ENDBRANCH  14  19
ENDBRANCH   8  13
BRANCH  12  21
ATOM     21  O   UNL A   1      39.377  34.781  33.330  1.00  0.00    -0.507 OA
ATOM     22  H   UNL A   1      39.167  35.369  32.632  1.00  0.00     0.293 HD
ENDBRANCH  12  21
ENDBRANCH   4   7
ENDBRANCH   2   3
ENDBRANCH   1   2
BRANCH   1  23
ATOM     23  C   UNL A   1      34.544  32.899  28.313  1.00  0.00     0.118 C 
BRANCH  23  24
ATOM     24  N   UNL A   1      33.763  31.710  28.012  1.00  0.00    -0.352 N 
ATOM     25  C   UNL A   1      34.181  30.416  27.827  1.00  0.00     0.251 C 
ATOM     26  H   UNL A   1      32.792  31.853  27.929  1.00  0.00     0.163 HD
ATOM     27  O   UNL A   1      33.395  29.590  27.357  1.00  0.00    -0.269 OA
BRANCH  25  28
ATOM     28  C   UNL A   1      35.562  30.008  28.170  1.00  0.00     0.039 A 
ATOM     29  C   UNL A   1      36.544  30.039  27.174  1.00  0.00     0.014 A 
ATOM     30  C   UNL A   1      35.891  29.560  29.454  1.00  0.00     0.014 A 
ATOM     31  C   UNL A   1      37.858  29.676  27.477  1.00  0.00     0.010 A 
ATOM     32  C   UNL A   1      37.216  29.271  29.774  1.00  0.00     0.010 A 
ATOM     33  C   UNL A   1      38.212  29.317  28.787  1.00  0.00    -0.014 A 
BRANCH  33  34
ATOM     34  C   UNL A   1      39.613  28.977  29.145  1.00  0.00     0.031 A 
ATOM     35  C   UNL A   1      40.490  29.997  29.823  1.00  0.00     0.074 A 
ATOM     36  C   UNL A   1      40.117  27.775  28.804  1.00  0.00     0.049 A 
ATOM     37  N   UNL A   1      41.753  29.911  30.150  1.00  0.00    -0.248 NA
ATOM     38  C   UNL A   1      39.869  31.290  30.155  1.00  0.00     0.031 C 
ATOM     39  C   UNL A   1      39.380  26.712  28.116  1.00  0.00     0.029 A 
ATOM     40  N   UNL A   1      41.371  27.246  28.982  1.00  0.00    -0.354 N 
ATOM     41  C   UNL A   1      42.084  31.141  30.708  1.00  0.00     0.074 A 
ATOM     42  C   UNL A   1      40.901  31.970  30.632  1.00  0.00     0.031 C 
ATOM     43  C   UNL A   1      40.187  25.652  27.953  1.00  0.00     0.029 A 
ATOM     44  C   UNL A   1      41.509  25.972  28.485  1.00  0.00     0.049 A 
ATOM     45  H   UNL A   1      42.103  27.734  29.424  1.00  0.00     0.167 HD
ATOM     46  C   UNL A   1      43.261  31.540  31.249  1.00  0.00     0.031 A 
ATOM     47  C   UNL A   1      42.578  25.154  28.452  1.00  0.00     0.031 A 
ATOM     48  C   UNL A   1      44.433  30.710  31.329  1.00  0.00     0.049 A 
ATOM     49  C   UNL A   1      43.878  25.623  29.043  1.00  0.00     0.074 A 
ATOM     50  C   UNL A   1      45.658  31.003  31.903  1.00  0.00     0.029 A 
ATOM     51  N   UNL A   1      44.529  29.426  30.816  1.00  0.00    -0.354 N 
ATOM     52  N   UNL A   1      44.156  26.770  29.616  1.00  0.00    -0.248 NA
ATOM     53  C   UNL A   1      45.008  24.685  28.991  1.00  0.00     0.031 C 
ATOM     54  C   UNL A   1      46.508  29.912  31.697  1.00  0.00     0.029 A 
ATOM     55  C   UNL A   1      45.799  28.920  31.040  1.00  0.00     0.049 A 
ATOM     56  H   UNL A   1      43.802  28.944  30.359  1.00  0.00     0.167 HD
ATOM     57  C   UNL A   1      45.485  26.683  30.013  1.00  0.00     0.074 A 
ATOM     58  C   UNL A   1      45.952  25.367  29.626  1.00  0.00     0.031 C 
ATOM     59  C   UNL A   1      46.249  27.609  30.644  1.00  0.00     0.031 A 
BRANCH  46  60
ATOM     60  C   UNL A   1      43.333  32.946  31.787  1.00  0.00    -0.014 A 
ATOM     61  C   UNL A   1      43.715  34.021  30.962  1.00  0.00     0.010 A 
ATOM     62  C   UNL A   1      42.996  33.201  33.129  1.00  0.00     0.010 A 
ATOM     63  C   UNL A   1      43.812  35.313  31.483  1.00  0.00     0.020 A 
ATOM     64  C   UNL A   1      43.065  34.498  33.646  1.00  0.00     0.020 A 
ATOM     65  C   UNL A   1      43.494  35.543  32.825  1.00  0.00     0.054 A 
BRANCH  65  66
ATOM     66  S   UNL A   1      43.630  37.231  33.476  1.00  0.00     0.124 S 
ATOM     67  O   UNL A   1      43.776  38.013  32.251  1.00  0.00    -0.237 OA
ATOM     68  O   UNL A   1      42.364  37.405  34.185  1.00  0.00    -0.237 OA
ATOM     69  O   UNL A   1      44.815  37.179  34.328  1.00  0.00    -0.744 OA
ENDBRANCH  65  66
ENDBRANCH  46  60
BRANCH  47  70
ATOM     70  C   UNL A   1      42.453  23.798  27.852  1.00  0.00    -0.014 A 
ATOM     71  C   UNL A   1      42.871  23.564  26.531  1.00  0.00     0.010 A 
ATOM     72  C   UNL A   1      41.947  22.726  28.610  1.00  0.00     0.010 A 
ATOM     73  C   UNL A   1      42.779  22.285  25.975  1.00  0.00     0.020 A 
ATOM     74  C   UNL A   1      41.877  21.440  28.065  1.00  0.00     0.020 A 
ATOM     75  C   UNL A   1      42.287  21.229  26.748  1.00  0.00     0.054 A 
BRANCH  75  76
ATOM     76  S   UNL A   1      42.245  19.564  26.029  1.00  0.00     0.124 S 
ATOM     77  O   UNL A   1      40.838  19.425  25.667  1.00  0.00    -0.237 OA
ATOM     78  O   UNL A   1      43.179  19.677  24.913  1.00  0.00    -0.237 OA
ATOM     79  O   UNL A   1      42.698  18.708  27.125  1.00  0.00    -0.744 OA
ENDBRANCH  75  76
ENDBRANCH  47  70
BRANCH  59  80
ATOM     80  C   UNL A   1      47.664  27.225  30.979  1.00  0.00    -0.014 A 
ATOM     81  C   UNL A   1      47.970  26.531  32.163  1.00  0.00     0.010 A 
ATOM     82  C   UNL A   1      48.696  27.511  30.064  1.00  0.00     0.010 A 
ATOM     83  C   UNL A   1      49.286  26.152  32.438  1.00  0.00     0.020 A 
ATOM     84  C   UNL A   1      50.008  27.112  30.325  1.00  0.00     0.020 A 
ATOM     85  C   UNL A   1      50.297  26.445  31.517  1.00  0.00     0.054 A 
BRANCH  85  86
ATOM     86  S   UNL A   1      51.989  25.896  31.874  1.00  0.00     0.124 S 
ATOM     87  O   UNL A   1      52.641  26.062  30.578  1.00  0.00    -0.237 OA
ATOM     88  O   UNL A   1      52.417  26.827  32.916  1.00  0.00    -0.237 OA
ATOM     89  O   UNL A   1      51.819  24.513  32.315  1.00  0.00    -0.744 OA
ENDBRANCH  85  86
ENDBRANCH  59  80
ENDBRANCH  33  34
ENDBRANCH  25  28
ENDBRANCH  23  24
ENDBRANCH   1  23
TORSDOF 16
ENDMDL
MODEL 2
REMARK VINA RESULT:      -9.4      3.923      7.140
REMARK SMILES COc1ccccc1-c1ccc(C(=O)NCCCNC(=O)c2ccc(-c3c4nc(c(-c5ccc(S(=O)(=O)[O-])cc5)c5ccc([nH]5)c(-c5ccc(S(=O)(=O)[O-])cc5)c5nc(c(-c6ccc(S(=O)(=O)[O-])cc6)c6ccc3[nH]6)C=C5)C=C4)cc2)c(O)c1
REMARK SMILES IDX 17 1 16 2 15 3 13 4 14 5 12 7 9 8 10 9 84 10 11 11 82 12
REMARK SMILES IDX 8 13 3 14 4 15 5 16 7 17 6 18 2 19 1 20 83 21 18 23 19 24
REMARK SMILES IDX 20 25 21 27 22 28 23 29 81 30 24 31 80 32 25 33 26 34 27 35
REMARK SMILES IDX 74 36 28 37 79 38 73 39 75 40 29 41 78 42 72 43 71 44 30 46
REMARK SMILES IDX 60 47 41 48 59 49 42 50 45 51 58 52 76 53 43 54 44 55 57 57
REMARK SMILES IDX 77 58 46 59 31 60 32 61 40 62 33 63 39 64 34 65 35 66 36 67
REMARK SMILES IDX 37 68 38 69 61 70 62 71 70 72 63 73 69 74 64 75 65 76 66 77
REMARK SMILES IDX 67 78 68 79 47 80 48 81 56 82 49 83 55 84 50 85 51 86 52 87
REMARK SMILES IDX 53 88 54 89
REMARK H PARENT 15 6 83 22 19 26 75 45 45 56
REMARK Flexibility Score: inf
ROOT
ATOM      1  C   UNL A   1      32.686  27.906  25.817  1.00  0.00     0.042 C 
ENDROOT
BRANCH   1   2
ATOM      2  C   UNL A   1      33.155  28.291  24.414  1.00  0.00     0.118 C 
BRANCH   2   3
ATOM      3  N   UNL A   1      32.054  28.263  23.470  1.00  0.00    -0.352 N 
ATOM      4  C   UNL A   1      31.481  27.237  22.762  1.00  0.00     0.255 C 
ATOM      5  O   UNL A   1      30.539  27.528  22.019  1.00  0.00    -0.269 OA
ATOM      6  H   UNL A   1      31.643  29.141  23.306  1.00  0.00     0.163 HD
BRANCH   4   7
ATOM      7  C   UNL A   1      31.842  25.799  22.918  1.00  0.00     0.081 A 
ATOM      8  C   UNL A   1      32.287  23.044  23.421  1.00  0.00    -0.011 A 
ATOM      9  C   UNL A   1      31.254  23.721  24.072  1.00  0.00     0.010 A 
ATOM     10  C   UNL A   1      33.060  23.742  22.484  1.00  0.00     0.055 A 
ATOM     11  C   UNL A   1      31.042  25.083  23.829  1.00  0.00     0.018 A 
ATOM     12  C   UNL A   1      32.824  25.095  22.217  1.00  0.00     0.128 A 
BRANCH   8  13
ATOM     13  C   UNL A   1      32.575  21.631  23.685  1.00  0.00     0.024 A 
ATOM     14  C   UNL A   1      33.501  21.212  24.662  1.00  0.00     0.126 A 
ATOM     15  C   UNL A   1      33.854  19.864  24.774  1.00  0.00     0.047 A 
ATOM     16  C   UNL A   1      33.268  18.911  23.943  1.00  0.00     0.004 A 
ATOM     17  C   UNL A   1      31.987  20.650  22.865  1.00  0.00     0.012 A 
ATOM     18  C   UNL A   1      32.331  19.302  22.992  1.00  0.00     0.001 A 
BRANCH  14  19
ATOM     19  O   UNL A   1      34.197  22.069  25.479  1.00  0.00    -0.496 OA
ATOM     20  C   UNL A   1      33.820  21.968  26.851  1.00  0.00     0.278 C 
ENDBRANCH  14  19
ENDBRANCH   8  13
BRANCH  12  21
ATOM     21  O   UNL A   1      33.557  25.663  21.222  1.00  0.00    -0.507 OA
ATOM     22  H   UNL A   1      33.215  26.395  20.747  1.00  0.00     0.293 HD
ENDBRANCH  12  21
ENDBRANCH   4   7
ENDBRANCH   2   3
ENDBRANCH   1   2
BRANCH   1  23
ATOM     23  C   UNL A   1      33.650  28.311  26.923  1.00  0.00     0.118 C 
BRANCH  23  24
ATOM     24  N   UNL A   1      33.511  29.712  27.286  1.00  0.00    -0.352 N 
ATOM     25  C   UNL A   1      34.372  30.520  27.984  1.00  0.00     0.251 C 
ATOM     26  H   UNL A   1      32.679  30.144  26.987  1.00  0.00     0.163 HD
ATOM     27  O   UNL A   1      33.976  31.617  28.386  1.00  0.00    -0.269 OA
BRANCH  25  28
ATOM     28  C   UNL A   1      35.758  30.086  28.272  1.00  0.00     0.039 A 
ATOM     29  C   UNL A   1      36.707  30.132  27.245  1.00  0.00     0.014 A 
ATOM     30  C   UNL A   1      36.123  29.603  29.532  1.00  0.00     0.014 A 
ATOM     31  C   UNL A   1      38.026  29.745  27.496  1.00  0.00     0.010 A 
ATOM     32  C   UNL A   1      37.453  29.291  29.802  1.00  0.00     0.010 A 
ATOM     33  C   UNL A   1      38.418  29.349  28.785  1.00  0.00    -0.014 A 
BRANCH  33  34
ATOM     34  C   UNL A   1      39.825  28.983  29.089  1.00  0.00     0.031 A 
ATOM     35  C   UNL A   1      40.754  29.996  29.704  1.00  0.00     0.074 A 
ATOM     36  C   UNL A   1      40.285  27.763  28.753  1.00  0.00     0.049 A 
ATOM     37  N   UNL A   1      42.028  29.887  29.977  1.00  0.00    -0.248 NA
ATOM     38  C   UNL A   1      40.179  31.311  30.033  1.00  0.00     0.031 C 
ATOM     39  C   UNL A   1      39.494  26.703  28.122  1.00  0.00     0.029 A 
ATOM     40  N   UNL A   1      41.534  27.208  28.887  1.00  0.00    -0.354 N 
ATOM     41  C   UNL A   1      42.412  31.121  30.491  1.00  0.00     0.074 A 
ATOM     42  C   UNL A   1      41.246  31.977  30.449  1.00  0.00     0.031 C 
ATOM     43  C   UNL A   1      40.269  25.620  27.948  1.00  0.00     0.029 A 
ATOM     44  C   UNL A   1      41.620  25.920  28.414  1.00  0.00     0.049 A 
ATOM     45  H   UNL A   1      42.296  27.687  29.286  1.00  0.00     0.167 HD
ATOM     46  C   UNL A   1      43.621  31.504  30.971  1.00  0.00     0.031 A 
ATOM     47  C   UNL A   1      42.668  25.077  28.352  1.00  0.00     0.031 A 
ATOM     48  C   UNL A   1      44.776  30.648  31.018  1.00  0.00     0.049 A 
ATOM     49  C   UNL A   1      44.003  25.526  28.875  1.00  0.00     0.074 A 
ATOM     50  C   UNL A   1      46.032  30.923  31.531  1.00  0.00     0.029 A 
ATOM     51  N   UNL A   1      44.820  29.350  30.531  1.00  0.00    -0.354 N 
ATOM     52  N   UNL A   1      44.333  26.679  29.409  1.00  0.00    -0.248 NA
ATOM     53  C   UNL A   1      45.107  24.561  28.794  1.00  0.00     0.031 C 
ATOM     54  C   UNL A   1      46.847  29.808  31.312  1.00  0.00     0.029 A 
ATOM     55  C   UNL A   1      46.086  28.819  30.710  1.00  0.00     0.049 A 
ATOM     56  H   UNL A   1      44.062  28.877  30.118  1.00  0.00     0.167 HD
ATOM     57  C   UNL A   1      45.675  26.569  29.749  1.00  0.00     0.074 A 
ATOM     58  C   UNL A   1      46.094  25.234  29.372  1.00  0.00     0.031 C 
ATOM     59  C   UNL A   1      46.488  27.490  30.324  1.00  0.00     0.031 A 
BRANCH  46  60
ATOM     60  C   UNL A   1      43.749  32.919  31.473  1.00  0.00    -0.014 A 
ATOM     61  C   UNL A   1      43.522  33.234  32.825  1.00  0.00     0.010 A 
ATOM     62  C   UNL A   1      44.120  33.945  30.585  1.00  0.00     0.010 A 
ATOM     63  C   UNL A   1      43.609  34.555  33.269  1.00  0.00     0.020 A 
ATOM     64  C   UNL A   1      44.236  35.265  31.031  1.00  0.00     0.020 A 
ATOM     65  C   UNL A   1      43.958  35.565  32.367  1.00  0.00     0.054 A 
BRANCH  65  66
ATOM     66  S   UNL A   1      44.063  37.273  32.969  1.00  0.00     0.124 S 
ATOM     67  O   UNL A   1      45.349  37.269  33.661  1.00  0.00    -0.237 OA
ATOM     68  O   UNL A   1      44.017  38.053  31.734  1.00  0.00    -0.237 OA
ATOM     69  O   UNL A   1      42.892  37.408  33.832  1.00  0.00    -0.744 OA
ENDBRANCH  65  66
ENDBRANCH  46  60
BRANCH  47  70
ATOM     70  C   UNL A   1      42.485  23.712  27.790  1.00  0.00    -0.014 A 
ATOM     71  C   UNL A   1      42.615  23.489  26.408  1.00  0.00     0.010 A 
ATOM     72  C   UNL A   1      42.214  22.621  28.636  1.00  0.00     0.010 A 
ATOM     73  C   UNL A   1      42.470  22.203  25.881  1.00  0.00     0.020 A 
ATOM     74  C   UNL A   1      42.093  21.329  28.115  1.00  0.00     0.020 A 
ATOM     75  C   UNL A   1      42.214  21.129  26.740  1.00  0.00     0.054 A 
BRANCH  75  76
ATOM     76  S   UNL A   1      42.102  19.457  26.041  1.00  0.00     0.124 S 
ATOM     77  O   UNL A   1      42.957  19.563  24.864  1.00  0.00    -0.237 OA
ATOM     78  O   UNL A   1      42.615  18.626  27.126  1.00  0.00    -0.237 OA
ATOM     79  O   UNL A   1      40.675  19.298  25.767  1.00  0.00    -0.744 OA
ENDBRANCH  75  76
ENDBRANCH  47  70
BRANCH  59  80
ATOM     80  C   UNL A   1      47.908  27.079  30.605  1.00  0.00    -0.014 A 
ATOM     81  C   UNL A   1      48.929  27.302  29.665  1.00  0.00     0.010 A 
ATOM     82  C   UNL A   1      48.233  26.518  31.854  1.00  0.00     0.010 A 
ATOM     83  C   UNL A   1      50.248  26.947  29.960  1.00  0.00     0.020 A 
ATOM     84  C   UNL A   1      49.554  26.184  32.161  1.00  0.00     0.020 A 
ATOM     85  C   UNL A   1      50.552  26.390  31.206  1.00  0.00     0.054 A 
BRANCH  85  86
ATOM     86  S   UNL A   1      52.280  25.986  31.585  1.00  0.00     0.124 S 
ATOM     87  O   UNL A   1      52.935  26.222  30.301  1.00  0.00    -0.237 OA
ATOM     88  O   UNL A   1      52.609  26.939  32.643  1.00  0.00    -0.237 OA
ATOM     89  O   UNL A   1      52.224  24.589  32.010  1.00  0.00    -0.744 OA
ENDBRANCH  85  86
ENDBRANCH  59  80
ENDBRANCH  33  34
ENDBRANCH  25  28
ENDBRANCH  23  24
ENDBRANCH   1  23
TORSDOF 16
ENDMDL
MODEL 3
REMARK VINA RESULT:      -9.4      3.633     10.881
REMARK SMILES COc1ccccc1-c1ccc(C(=O)NCCCNC(=O)c2ccc(-c3c4nc(c(-c5ccc(S(=O)(=O)[O-])cc5)c5ccc([nH]5)c(-c5ccc(S(=O)(=O)[O-])cc5)c5nc(c(-c6ccc(S(=O)(=O)[O-])cc6)c6ccc3[nH]6)C=C5)C=C4)cc2)c(O)c1
REMARK SMILES IDX 17 1 16 2 15 3 13 4 14 5 12 7 9 8 10 9 84 10 11 11 82 12
REMARK SMILES IDX 8 13 3 14 4 15 5 16 7 17 6 18 2 19 1 20 83 21 18 23 19 24
REMARK SMILES IDX 20 25 21 27 22 28 23 29 81 30 24 31 80 32 25 33 26 34 27 35
REMARK SMILES IDX 74 36 28 37 79 38 73 39 75 40 29 41 78 42 72 43 71 44 30 46
REMARK SMILES IDX 60 47 41 48 59 49 42 50 45 51 58 52 76 53 43 54 44 55 57 57
REMARK SMILES IDX 77 58 46 59 31 60 32 61 40 62 33 63 39 64 34 65 35 66 36 67
REMARK SMILES IDX 37 68 38 69 61 70 62 71 70 72 63 73 69 74 64 75 65 76 66 77
REMARK SMILES IDX 67 78 68 79 47 80 48 81 56 82 49 83 55 84 50 85 51 86 52 87
REMARK SMILES IDX 53 88 54 89
REMARK H PARENT 15 6 83 22 19 26 75 45 45 56
REMARK Flexibility Score: inf
ROOT
ATOM      1  C   UNL A   1      35.177  22.653  25.880  1.00  0.00     0.042 C 
ENDROOT
BRANCH   1   2
ATOM      2  C   UNL A   1      35.056  21.977  24.514  1.00  0.00     0.118 C 
BRANCH   2   3
ATOM      3  N   UNL A   1      33.676  21.941  24.069  1.00  0.00    -0.352 N 
ATOM      4  C   UNL A   1      32.674  22.876  24.118  1.00  0.00     0.255 C 
ATOM      5  O   UNL A   1      31.579  22.547  23.652  1.00  0.00    -0.269 OA
ATOM      6  H   UNL A   1      33.409  21.089  23.657  1.00  0.00     0.163 HD
BRANCH   4   7
ATOM      7  C   UNL A   1      32.851  24.279  24.586  1.00  0.00     0.081 A 
ATOM      8  C   UNL A   1      33.024  26.867  25.737  1.00  0.00    -0.011 A 
ATOM      9  C   UNL A   1      32.354  25.840  26.406  1.00  0.00     0.010 A 
ATOM     10  C   UNL A   1      33.646  26.574  24.516  1.00  0.00     0.055 A 
ATOM     11  C   UNL A   1      32.261  24.568  25.833  1.00  0.00     0.018 A 
ATOM     12  C   UNL A   1      33.583  25.292  23.961  1.00  0.00     0.128 A 
BRANCH   8  13
ATOM     13  C   UNL A   1      33.100  28.226  26.279  1.00  0.00     0.024 A 
ATOM     14  C   UNL A   1      32.127  29.209  26.007  1.00  0.00     0.126 A 
ATOM     15  C   UNL A   1      32.318  30.531  26.420  1.00  0.00     0.047 A 
ATOM     16  C   UNL A   1      33.459  30.887  27.138  1.00  0.00     0.004 A 
ATOM     17  C   UNL A   1      34.238  28.605  27.015  1.00  0.00     0.012 A 
ATOM     18  C   UNL A   1      34.416  29.923  27.440  1.00  0.00     0.001 A 
BRANCH  14  19
ATOM     19  O   UNL A   1      31.007  28.991  25.243  1.00  0.00    -0.496 OA
ATOM     20  C   UNL A   1      31.192  29.319  23.867  1.00  0.00     0.278 C 
ENDBRANCH  14  19
ENDBRANCH   8  13
BRANCH  12  21
ATOM     21  O   UNL A   1      34.299  25.077  22.824  1.00  0.00    -0.507 OA
ATOM     22  H   UNL A   1      35.017  25.639  22.609  1.00  0.00     0.293 HD
ENDBRANCH  12  21
ENDBRANCH   4   7
ENDBRANCH   2   3
ENDBRANCH   1   2
BRANCH   1  23
ATOM     23  C   UNL A   1      36.475  23.425  26.074  1.00  0.00     0.118 C 
BRANCH  23  24
ATOM     24  N   UNL A   1      37.638  22.552  26.068  1.00  0.00    -0.352 N 
ATOM     25  C   UNL A   1      38.954  22.854  26.311  1.00  0.00     0.251 C 
ATOM     26  H   UNL A   1      37.455  21.608  25.860  1.00  0.00     0.163 HD
ATOM     27  O   UNL A   1      39.823  22.023  26.037  1.00  0.00    -0.269 OA
BRANCH  25  28
ATOM     28  C   UNL A   1      39.341  24.164  26.882  1.00  0.00     0.039 A 
ATOM     29  C   UNL A   1      39.000  24.452  28.208  1.00  0.00     0.014 A 
ATOM     30  C   UNL A   1      40.005  25.125  26.113  1.00  0.00     0.014 A 
ATOM     31  C   UNL A   1      39.371  25.673  28.774  1.00  0.00     0.010 A 
ATOM     32  C   UNL A   1      40.440  26.311  26.701  1.00  0.00     0.010 A 
ATOM     33  C   UNL A   1      40.120  26.602  28.035  1.00  0.00    -0.014 A 
BRANCH  33  34
ATOM     34  C   UNL A   1      40.570  27.886  28.632  1.00  0.00     0.031 A 
ATOM     35  C   UNL A   1      41.971  28.022  29.166  1.00  0.00     0.074 A 
ATOM     36  C   UNL A   1      39.700  28.907  28.753  1.00  0.00     0.049 A 
ATOM     37  N   UNL A   1      42.524  29.034  29.783  1.00  0.00    -0.248 NA
ATOM     38  C   UNL A   1      42.858  26.858  29.006  1.00  0.00     0.031 C 
ATOM     39  C   UNL A   1      38.306  28.890  28.304  1.00  0.00     0.029 A 
ATOM     40  N   UNL A   1      39.857  30.158  29.297  1.00  0.00    -0.354 N 
ATOM     41  C   UNL A   1      43.814  28.624  30.101  1.00  0.00     0.074 A 
ATOM     42  C   UNL A   1      43.946  27.257  29.650  1.00  0.00     0.031 C 
ATOM     43  C   UNL A   1      37.744  30.081  28.568  1.00  0.00     0.029 A 
ATOM     44  C   UNL A   1      38.722  30.931  29.241  1.00  0.00     0.049 A 
ATOM     45  H   UNL A   1      40.703  30.472  29.689  1.00  0.00     0.167 HD
ATOM     46  C   UNL A   1      44.806  29.328  30.700  1.00  0.00     0.031 A 
ATOM     47  C   UNL A   1      38.488  32.179  29.689  1.00  0.00     0.031 A 
ATOM     48  C   UNL A   1      44.674  30.691  31.140  1.00  0.00     0.049 A 
ATOM     49  C   UNL A   1      39.597  32.936  30.364  1.00  0.00     0.074 A 
ATOM     50  C   UNL A   1      45.634  31.509  31.711  1.00  0.00     0.029 A 
ATOM     51  N   UNL A   1      43.508  31.438  31.064  1.00  0.00    -0.354 N 
ATOM     52  N   UNL A   1      40.828  32.551  30.606  1.00  0.00    -0.248 NA
ATOM     53  C   UNL A   1      39.289  34.298  30.821  1.00  0.00     0.031 C 
ATOM     54  C   UNL A   1      45.035  32.734  32.022  1.00  0.00     0.029 A 
ATOM     55  C   UNL A   1      43.717  32.699  31.597  1.00  0.00     0.049 A 
ATOM     56  H   UNL A   1      42.657  31.118  30.686  1.00  0.00     0.167 HD
ATOM     57  C   UNL A   1      41.448  33.631  31.222  1.00  0.00     0.074 A 
ATOM     58  C   UNL A   1      40.461  34.689  31.305  1.00  0.00     0.031 C 
ATOM     59  C   UNL A   1      42.721  33.738  31.676  1.00  0.00     0.031 A 
BRANCH  46  60
ATOM     60  C   UNL A   1      46.119  28.622  30.919  1.00  0.00    -0.014 A 
ATOM     61  C   UNL A   1      47.134  28.654  29.944  1.00  0.00     0.010 A 
ATOM     62  C   UNL A   1      46.351  27.933  32.123  1.00  0.00     0.010 A 
ATOM     63  C   UNL A   1      48.332  27.965  30.146  1.00  0.00     0.020 A 
ATOM     64  C   UNL A   1      47.560  27.265  32.341  1.00  0.00     0.020 A 
ATOM     65  C   UNL A   1      48.535  27.267  31.341  1.00  0.00     0.054 A 
BRANCH  65  66
ATOM     66  S   UNL A   1      50.099  26.380  31.576  1.00  0.00     0.124 S 
ATOM     67  O   UNL A   1      51.063  27.312  30.997  1.00  0.00    -0.237 OA
ATOM     68  O   UNL A   1      50.167  26.228  33.028  1.00  0.00    -0.237 OA
ATOM     69  O   UNL A   1      49.908  25.138  30.832  1.00  0.00    -0.744 OA
ENDBRANCH  65  66
ENDBRANCH  46  60
BRANCH  47  70
ATOM     70  C   UNL A   1      37.148  32.796  29.492  1.00  0.00    -0.014 A 
ATOM     71  C   UNL A   1      36.267  32.945  30.577  1.00  0.00     0.010 A 
ATOM     72  C   UNL A   1      36.760  33.269  28.225  1.00  0.00     0.010 A 
ATOM     73  C   UNL A   1      35.019  33.548  30.398  1.00  0.00     0.020 A 
ATOM     74  C   UNL A   1      35.522  33.896  28.048  1.00  0.00     0.020 A 
ATOM     75  C   UNL A   1      34.656  34.025  29.135  1.00  0.00     0.054 A 
BRANCH  75  76
ATOM     76  S   UNL A   1      33.061  34.869  28.943  1.00  0.00     0.124 S 
ATOM     77  O   UNL A   1      33.473  36.201  28.511  1.00  0.00    -0.237 OA
ATOM     78  O   UNL A   1      32.391  34.054  27.935  1.00  0.00    -0.237 OA
ATOM     79  O   UNL A   1      32.475  34.797  30.281  1.00  0.00    -0.744 OA
ENDBRANCH  75  76
ENDBRANCH  47  70
BRANCH  59  80
ATOM     80  C   UNL A   1      43.131  35.053  32.282  1.00  0.00    -0.014 A 
ATOM     81  C   UNL A   1      43.793  36.031  31.519  1.00  0.00     0.010 A 
ATOM     82  C   UNL A   1      42.794  35.336  33.619  1.00  0.00     0.010 A 
ATOM     83  C   UNL A   1      44.133  37.260  32.091  1.00  0.00     0.020 A 
ATOM     84  C   UNL A   1      43.110  36.572  34.186  1.00  0.00     0.020 A 
ATOM     85  C   UNL A   1      43.789  37.523  33.421  1.00  0.00     0.054 A 
BRANCH  85  86
ATOM     86  S   UNL A   1      44.195  39.145  34.124  1.00  0.00     0.124 S 
ATOM     87  O   UNL A   1      42.947  39.879  33.934  1.00  0.00    -0.237 OA
ATOM     88  O   UNL A   1      44.528  38.821  35.510  1.00  0.00    -0.237 OA
ATOM     89  O   UNL A   1      45.320  39.604  33.312  1.00  0.00    -0.744 OA
ENDBRANCH  85  86
ENDBRANCH  59  80
ENDBRANCH  33  34
ENDBRANCH  25  28
ENDBRANCH  23  24
ENDBRANCH   1  23
TORSDOF 16
ENDMDL
