MODEL 1
REMARK VINA RESULT:     -10.6      0.000      0.000
REMARK SMILES CC(C)(O)CCOc1ccc(C(=O)NCCCNC(=O)c2ccc(-c3c4nc(c(-c5ccc(S(=O)(=O)[O-])cc5)c5ccc([nH]5)c(-c5ccc(S(=O)(=O)[O-])cc5)c5nc(c(-c6ccc(S(=O)(=O)[O-])cc6)c6ccc3[nH]6)C=C5)C=C4)cc2)cc1
REMARK SMILES IDX 15 1 14 2 12 3 13 4 11 6 8 7 9 8 82 9 10 10 81 11 7 12 6 13
REMARK SMILES IDX 5 14 2 15 1 16 3 17 4 18 16 20 17 21 18 22 19 23 20 25 21 26
REMARK SMILES IDX 22 27 80 28 23 29 79 30 24 31 25 32 26 33 73 34 27 35 78 36
REMARK SMILES IDX 72 37 74 38 28 39 77 40 71 41 70 42 29 44 59 45 40 46 58 47
REMARK SMILES IDX 41 48 44 49 57 50 75 51 42 52 43 53 56 55 76 56 45 57 30 58
REMARK SMILES IDX 31 59 39 60 32 61 38 62 33 63 34 64 35 65 36 66 37 67 60 68
REMARK SMILES IDX 61 69 69 70 62 71 68 72 63 73 64 74 65 75 66 76 67 77 46 78
REMARK SMILES IDX 47 79 55 80 48 81 54 82 49 83 50 84 51 85 52 86 53 87
REMARK H PARENT 14 5 4 19 18 24 74 43 44 54
REMARK Flexibility Score: inf
ROOT
ATOM      1  C   UNL A   1      32.902  27.227  24.837  1.00  0.00     0.118 C 
ENDROOT
BRANCH   1   2
ATOM      2  N   UNL A   1      33.246  27.049  23.432  1.00  0.00    -0.352 N 
ATOM      3  C   UNL A   1      33.385  25.906  22.677  1.00  0.00     0.251 C 
ATOM      4  O   UNL A   1      33.789  25.989  21.519  1.00  0.00    -0.269 OA
ATOM      5  H   UNL A   1      33.407  27.888  22.941  1.00  0.00     0.163 HD
BRANCH   3   6
ATOM      6  C   UNL A   1      33.108  24.571  23.252  1.00  0.00     0.040 A 
ATOM      7  C   UNL A   1      32.570  21.906  23.888  1.00  0.00     0.119 A 
ATOM      8  C   UNL A   1      31.519  22.788  23.625  1.00  0.00     0.047 A 
ATOM      9  C   UNL A   1      33.852  22.422  24.064  1.00  0.00     0.047 A 
ATOM     10  C   UNL A   1      31.784  24.124  23.310  1.00  0.00     0.017 A 
ATOM     11  C   UNL A   1      34.129  23.749  23.725  1.00  0.00     0.017 A 
BRANCH   7  12
ATOM     12  O   UNL A   1      32.244  20.580  23.838  1.00  0.00    -0.493 OA
BRANCH  12  13
ATOM     13  C   UNL A   1      32.702  19.709  24.878  1.00  0.00     0.232 C 
BRANCH  13  14
ATOM     14  C   UNL A   1      32.623  18.190  24.600  1.00  0.00     0.076 C 
BRANCH  14  15
ATOM     15  C   UNL A   1      33.932  17.388  24.408  1.00  0.00     0.062 C 
ATOM     16  C   UNL A   1      34.086  16.865  22.975  1.00  0.00     0.042 C 
ATOM     17  C   UNL A   1      33.980  16.177  25.353  1.00  0.00     0.042 C 
BRANCH  15  18
ATOM     18  O   UNL A   1      35.047  18.198  24.779  1.00  0.00    -0.390 OA
ATOM     19  H   UNL A   1      35.016  19.035  24.290  1.00  0.00     0.211 HD
ENDBRANCH  15  18
ENDBRANCH  14  15
ENDBRANCH  13  14
ENDBRANCH  12  13
ENDBRANCH   7  12
ENDBRANCH   3   6
ENDBRANCH   1   2
BRANCH   1  20
ATOM     20  C   UNL A   1      33.861  28.149  25.589  1.00  0.00     0.042 C 
BRANCH  20  21
ATOM     21  C   UNL A   1      33.545  28.352  27.068  1.00  0.00     0.118 C 
BRANCH  21  22
ATOM     22  N   UNL A   1      33.473  29.757  27.450  1.00  0.00    -0.352 N 
ATOM     23  C   UNL A   1      34.395  30.559  28.079  1.00  0.00     0.251 C 
ATOM     24  H   UNL A   1      32.627  30.204  27.219  1.00  0.00     0.163 HD
ATOM     25  O   UNL A   1      34.054  31.685  28.442  1.00  0.00    -0.269 OA
BRANCH  23  26
ATOM     26  C   UNL A   1      35.774  30.087  28.350  1.00  0.00     0.039 A 
ATOM     27  C   UNL A   1      36.715  30.116  27.314  1.00  0.00     0.014 A 
ATOM     28  C   UNL A   1      36.143  29.580  29.598  1.00  0.00     0.014 A 
ATOM     29  C   UNL A   1      38.033  29.710  27.550  1.00  0.00     0.010 A 
ATOM     30  C   UNL A   1      37.474  29.253  29.855  1.00  0.00     0.010 A 
ATOM     31  C   UNL A   1      38.436  29.312  28.835  1.00  0.00    -0.014 A 
BRANCH  31  32
ATOM     32  C   UNL A   1      39.850  28.956  29.132  1.00  0.00     0.031 A 
ATOM     33  C   UNL A   1      40.779  29.974  29.742  1.00  0.00     0.074 A 
ATOM     34  C   UNL A   1      40.319  27.739  28.792  1.00  0.00     0.049 A 
ATOM     35  N   UNL A   1      42.058  29.871  30.007  1.00  0.00    -0.248 NA
ATOM     36  C   UNL A   1      40.203  31.286  30.076  1.00  0.00     0.031 C 
ATOM     37  C   UNL A   1      39.533  26.673  28.164  1.00  0.00     0.029 A 
ATOM     38  N   UNL A   1      41.572  27.191  28.920  1.00  0.00    -0.354 N 
ATOM     39  C   UNL A   1      42.440  31.104  30.522  1.00  0.00     0.074 A 
ATOM     40  C   UNL A   1      41.272  31.957  30.482  1.00  0.00     0.031 C 
ATOM     41  C   UNL A   1      40.313  25.594  27.989  1.00  0.00     0.029 A 
ATOM     42  C   UNL A   1      41.665  25.903  28.444  1.00  0.00     0.049 A 
ATOM     43  H   UNL A   1      42.333  27.675  29.314  1.00  0.00     0.167 HD
ATOM     44  C   UNL A   1      43.647  31.488  31.004  1.00  0.00     0.031 A 
ATOM     45  C   UNL A   1      42.719  25.066  28.372  1.00  0.00     0.031 A 
ATOM     46  C   UNL A   1      44.807  30.637  31.045  1.00  0.00     0.049 A 
ATOM     47  C   UNL A   1      44.056  25.525  28.888  1.00  0.00     0.074 A 
ATOM     48  C   UNL A   1      46.063  30.918  31.557  1.00  0.00     0.029 A 
ATOM     49  N   UNL A   1      44.857  29.340  30.556  1.00  0.00    -0.354 N 
ATOM     50  N   UNL A   1      44.381  26.676  29.427  1.00  0.00    -0.248 NA
ATOM     51  C   UNL A   1      45.167  24.567  28.796  1.00  0.00     0.031 C 
ATOM     52  C   UNL A   1      46.886  29.813  31.323  1.00  0.00     0.029 A 
ATOM     53  C   UNL A   1      46.127  28.817  30.730  1.00  0.00     0.049 A 
ATOM     54  H   UNL A   1      44.100  28.862  30.145  1.00  0.00     0.167 HD
ATOM     55  C   UNL A   1      45.725  26.567  29.769  1.00  0.00     0.074 A 
ATOM     56  C   UNL A   1      46.147  25.235  29.389  1.00  0.00     0.031 C 
ATOM     57  C   UNL A   1      46.535  27.487  30.350  1.00  0.00     0.031 A 
BRANCH  44  58
ATOM     58  C   UNL A   1      43.777  32.900  31.519  1.00  0.00    -0.014 A 
ATOM     59  C   UNL A   1      44.157  33.954  30.667  1.00  0.00     0.010 A 
ATOM     60  C   UNL A   1      43.476  33.186  32.863  1.00  0.00     0.010 A 
ATOM     61  C   UNL A   1      44.274  35.256  31.158  1.00  0.00     0.020 A 
ATOM     62  C   UNL A   1      43.561  34.494  33.351  1.00  0.00     0.020 A 
ATOM     63  C   UNL A   1      43.978  35.518  32.499  1.00  0.00     0.054 A 
BRANCH  63  64
ATOM     64  S   UNL A   1      44.120  37.223  33.102  1.00  0.00     0.124 S 
ATOM     65  O   UNL A   1      42.919  37.352  33.923  1.00  0.00    -0.237 OA
ATOM     66  O   UNL A   1      45.383  37.197  33.834  1.00  0.00    -0.237 OA
ATOM     67  O   UNL A   1      44.128  38.025  31.881  1.00  0.00    -0.744 OA
ENDBRANCH  63  64
ENDBRANCH  44  58
BRANCH  45  68
ATOM     68  C   UNL A   1      42.551  23.701  27.799  1.00  0.00    -0.014 A 
ATOM     69  C   UNL A   1      42.225  22.613  28.628  1.00  0.00     0.010 A 
ATOM     70  C   UNL A   1      42.714  23.481  26.419  1.00  0.00     0.010 A 
ATOM     71  C   UNL A   1      42.088  21.328  28.092  1.00  0.00     0.020 A 
ATOM     72  C   UNL A   1      42.546  22.205  25.874  1.00  0.00     0.020 A 
ATOM     73  C   UNL A   1      42.246  21.133  26.717  1.00  0.00     0.054 A 
BRANCH  73  74
ATOM     74  S   UNL A   1      42.018  19.467  26.038  1.00  0.00     0.124 S 
ATOM     75  O   UNL A   1      40.577  19.424  25.813  1.00  0.00    -0.237 OA
ATOM     76  O   UNL A   1      42.846  19.502  24.834  1.00  0.00    -0.237 OA
ATOM     77  O   UNL A   1      42.514  18.594  27.099  1.00  0.00    -0.744 OA
ENDBRANCH  73  74
ENDBRANCH  45  68
BRANCH  57  78
ATOM     78  C   UNL A   1      47.952  27.074  30.654  1.00  0.00    -0.014 A 
ATOM     79  C   UNL A   1      49.005  27.357  29.767  1.00  0.00     0.010 A 
ATOM     80  C   UNL A   1      48.238  26.440  31.877  1.00  0.00     0.010 A 
ATOM     81  C   UNL A   1      50.314  26.981  30.083  1.00  0.00     0.020 A 
ATOM     82  C   UNL A   1      49.549  26.092  32.210  1.00  0.00     0.020 A 
ATOM     83  C   UNL A   1      50.578  26.352  31.304  1.00  0.00     0.054 A 
BRANCH  83  84
ATOM     84  S   UNL A   1      52.291  25.916  31.709  1.00  0.00     0.124 S 
ATOM     85  O   UNL A   1      52.955  26.064  30.417  1.00  0.00    -0.237 OA
ATOM     86  O   UNL A   1      52.646  26.913  32.716  1.00  0.00    -0.237 OA
ATOM     87  O   UNL A   1      52.193  24.545  32.205  1.00  0.00    -0.744 OA
ENDBRANCH  83  84
ENDBRANCH  57  78
ENDBRANCH  31  32
ENDBRANCH  23  26
ENDBRANCH  21  22
ENDBRANCH  20  21
ENDBRANCH   1  20
TORSDOF 18
ENDMDL
MODEL 2
REMARK VINA RESULT:     -10.3      4.023     10.973
REMARK SMILES CC(C)(O)CCOc1ccc(C(=O)NCCCNC(=O)c2ccc(-c3c4nc(c(-c5ccc(S(=O)(=O)[O-])cc5)c5ccc([nH]5)c(-c5ccc(S(=O)(=O)[O-])cc5)c5nc(c(-c6ccc(S(=O)(=O)[O-])cc6)c6ccc3[nH]6)C=C5)C=C4)cc2)cc1
REMARK SMILES IDX 15 1 14 2 12 3 13 4 11 6 8 7 9 8 82 9 10 10 81 11 7 12 6 13
REMARK SMILES IDX 5 14 2 15 1 16 3 17 4 18 16 20 17 21 18 22 19 23 20 25 21 26
REMARK SMILES IDX 22 27 80 28 23 29 79 30 24 31 25 32 26 33 73 34 27 35 78 36
REMARK SMILES IDX 72 37 74 38 28 39 77 40 71 41 70 42 29 44 59 45 40 46 58 47
REMARK SMILES IDX 41 48 44 49 57 50 75 51 42 52 43 53 56 55 76 56 45 57 30 58
REMARK SMILES IDX 31 59 39 60 32 61 38 62 33 63 34 64 35 65 36 66 37 67 60 68
REMARK SMILES IDX 61 69 69 70 62 71 68 72 63 73 64 74 65 75 66 76 67 77 46 78
REMARK SMILES IDX 47 79 55 80 48 81 54 82 49 83 50 84 51 85 52 86 53 87
REMARK H PARENT 14 5 4 19 18 24 74 43 44 54
REMARK Flexibility Score: inf
ROOT
ATOM      1  C   UNL A   1      42.594  19.732  27.356  1.00  0.00     0.118 C 
ENDROOT
BRANCH   1   2
ATOM      2  N   UNL A   1      43.105  19.205  26.097  1.00  0.00    -0.352 N 
ATOM      3  C   UNL A   1      43.822  19.814  25.091  1.00  0.00     0.251 C 
ATOM      4  O   UNL A   1      44.061  19.195  24.056  1.00  0.00    -0.269 OA
ATOM      5  H   UNL A   1      42.903  18.254  25.939  1.00  0.00     0.163 HD
BRANCH   3   6
ATOM      6  C   UNL A   1      44.266  21.220  25.211  1.00  0.00     0.040 A 
ATOM      7  C   UNL A   1      45.303  23.805  25.017  1.00  0.00     0.119 A 
ATOM      8  C   UNL A   1      46.084  22.776  25.549  1.00  0.00     0.047 A 
ATOM      9  C   UNL A   1      43.944  23.580  24.815  1.00  0.00     0.047 A 
ATOM     10  C   UNL A   1      45.566  21.482  25.652  1.00  0.00     0.017 A 
ATOM     11  C   UNL A   1      43.426  22.285  24.888  1.00  0.00     0.017 A 
BRANCH   7  12
ATOM     12  O   UNL A   1      45.992  24.922  24.638  1.00  0.00    -0.493 OA
BRANCH  12  13
ATOM     13  C   UNL A   1      46.617  25.731  25.641  1.00  0.00     0.232 C 
BRANCH  13  14
ATOM     14  C   UNL A   1      45.688  26.623  26.497  1.00  0.00     0.076 C 
BRANCH  14  15
ATOM     15  C   UNL A   1      45.152  27.946  25.901  1.00  0.00     0.062 C 
ATOM     16  C   UNL A   1      45.803  29.176  26.543  1.00  0.00     0.042 C 
ATOM     17  C   UNL A   1      43.633  28.065  26.102  1.00  0.00     0.042 C 
BRANCH  15  18
ATOM     18  O   UNL A   1      45.344  27.945  24.487  1.00  0.00    -0.390 OA
ATOM     19  H   UNL A   1      44.601  27.492  24.059  1.00  0.00     0.211 HD
ENDBRANCH  15  18
ENDBRANCH  14  15
ENDBRANCH  13  14
ENDBRANCH  12  13
ENDBRANCH   7  12
ENDBRANCH   3   6
ENDBRANCH   1   2
BRANCH   1  20
ATOM     20  C   UNL A   1      41.121  20.133  27.297  1.00  0.00     0.042 C 
BRANCH  20  21
ATOM     21  C   UNL A   1      40.859  21.611  27.020  1.00  0.00     0.118 C 
BRANCH  21  22
ATOM     22  N   UNL A   1      39.626  21.844  26.278  1.00  0.00    -0.352 N 
ATOM     23  C   UNL A   1      38.824  22.959  26.209  1.00  0.00     0.251 C 
ATOM     24  H   UNL A   1      39.320  21.081  25.737  1.00  0.00     0.163 HD
ATOM     25  O   UNL A   1      37.739  22.874  25.633  1.00  0.00    -0.269 OA
BRANCH  23  26
ATOM     26  C   UNL A   1      39.226  24.242  26.834  1.00  0.00     0.039 A 
ATOM     27  C   UNL A   1      38.826  24.507  28.149  1.00  0.00     0.014 A 
ATOM     28  C   UNL A   1      39.957  25.201  26.132  1.00  0.00     0.014 A 
ATOM     29  C   UNL A   1      39.221  25.694  28.777  1.00  0.00     0.010 A 
ATOM     30  C   UNL A   1      40.419  26.345  26.783  1.00  0.00     0.010 A 
ATOM     31  C   UNL A   1      40.056  26.607  28.112  1.00  0.00    -0.014 A 
BRANCH  31  32
ATOM     32  C   UNL A   1      40.559  27.835  28.787  1.00  0.00     0.031 A 
ATOM     33  C   UNL A   1      41.955  27.875  29.353  1.00  0.00     0.074 A 
ATOM     34  C   UNL A   1      39.738  28.891  28.950  1.00  0.00     0.049 A 
ATOM     35  N   UNL A   1      42.543  28.827  30.033  1.00  0.00    -0.248 NA
ATOM     36  C   UNL A   1      42.792  26.682  29.148  1.00  0.00     0.031 C 
ATOM     37  C   UNL A   1      38.352  28.969  28.481  1.00  0.00     0.029 A 
ATOM     38  N   UNL A   1      39.945  30.103  29.563  1.00  0.00    -0.354 N 
ATOM     39  C   UNL A   1      43.807  28.343  30.349  1.00  0.00     0.074 A 
ATOM     40  C   UNL A   1      43.882  26.994  29.834  1.00  0.00     0.031 C 
ATOM     41  C   UNL A   1      37.845  30.172  28.796  1.00  0.00     0.029 A 
ATOM     42  C   UNL A   1      38.848  30.934  29.533  1.00  0.00     0.049 A 
ATOM     43  H   UNL A   1      40.798  30.354  29.985  1.00  0.00     0.167 HD
ATOM     44  C   UNL A   1      44.822  28.970  30.992  1.00  0.00     0.031 A 
ATOM     45  C   UNL A   1      38.665  32.167  30.047  1.00  0.00     0.031 A 
ATOM     46  C   UNL A   1      44.747  30.315  31.501  1.00  0.00     0.049 A 
ATOM     47  C   UNL A   1      39.797  32.831  30.781  1.00  0.00     0.074 A 
ATOM     48  C   UNL A   1      45.736  31.055  32.126  1.00  0.00     0.029 A 
ATOM     49  N   UNL A   1      43.619  31.120  31.448  1.00  0.00    -0.354 N 
ATOM     50  N   UNL A   1      41.006  32.379  31.017  1.00  0.00    -0.248 NA
ATOM     51  C   UNL A   1      39.545  34.179  31.309  1.00  0.00     0.031 C 
ATOM     52  C   UNL A   1      45.189  32.285  32.502  1.00  0.00     0.029 A 
ATOM     53  C   UNL A   1      43.880  32.340  32.049  1.00  0.00     0.049 A 
ATOM     54  H   UNL A   1      42.760  30.863  31.041  1.00  0.00     0.167 HD
ATOM     55  C   UNL A   1      41.668  33.400  31.690  1.00  0.00     0.074 A 
ATOM     56  C   UNL A   1      40.731  34.497  31.812  1.00  0.00     0.031 C 
ATOM     57  C   UNL A   1      42.939  33.427  32.162  1.00  0.00     0.031 A 
BRANCH  44  58
ATOM     58  C   UNL A   1      46.106  28.202  31.190  1.00  0.00    -0.014 A 
ATOM     59  C   UNL A   1      46.294  27.378  32.316  1.00  0.00     0.010 A 
ATOM     60  C   UNL A   1      47.120  28.269  30.218  1.00  0.00     0.010 A 
ATOM     61  C   UNL A   1      47.488  26.673  32.487  1.00  0.00     0.020 A 
ATOM     62  C   UNL A   1      48.303  27.540  30.369  1.00  0.00     0.020 A 
ATOM     63  C   UNL A   1      48.487  26.761  31.513  1.00  0.00     0.054 A 
BRANCH  63  64
ATOM     64  S   UNL A   1      50.017  25.817  31.753  1.00  0.00     0.124 S 
ATOM     65  O   UNL A   1      49.660  24.943  32.868  1.00  0.00    -0.237 OA
ATOM     66  O   UNL A   1      50.189  25.153  30.464  1.00  0.00    -0.237 OA
ATOM     67  O   UNL A   1      51.013  26.841  32.061  1.00  0.00    -0.744 OA
ENDBRANCH  63  64
ENDBRANCH  44  58
BRANCH  45  68
ATOM     68  C   UNL A   1      37.357  32.860  29.875  1.00  0.00    -0.014 A 
ATOM     69  C   UNL A   1      36.404  32.855  30.909  1.00  0.00     0.010 A 
ATOM     70  C   UNL A   1      37.058  33.533  28.676  1.00  0.00     0.010 A 
ATOM     71  C   UNL A   1      35.168  33.489  30.739  1.00  0.00     0.020 A 
ATOM     72  C   UNL A   1      35.838  34.195  28.513  1.00  0.00     0.020 A 
ATOM     73  C   UNL A   1      34.894  34.158  29.543  1.00  0.00     0.054 A 
BRANCH  73  74
ATOM     74  S   UNL A   1      33.304  35.011  29.362  1.00  0.00     0.124 S 
ATOM     75  O   UNL A   1      33.723  36.358  28.988  1.00  0.00    -0.237 OA
ATOM     76  O   UNL A   1      32.650  34.236  28.310  1.00  0.00    -0.237 OA
ATOM     77  O   UNL A   1      32.697  34.888  30.685  1.00  0.00    -0.744 OA
ENDBRANCH  73  74
ENDBRANCH  45  68
BRANCH  57  78
ATOM     78  C   UNL A   1      43.412  34.700  32.816  1.00  0.00    -0.014 A 
ATOM     79  C   UNL A   1      43.928  35.766  32.058  1.00  0.00     0.010 A 
ATOM     80  C   UNL A   1      43.284  34.848  34.209  1.00  0.00     0.010 A 
ATOM     81  C   UNL A   1      44.340  36.944  32.688  1.00  0.00     0.020 A 
ATOM     82  C   UNL A   1      43.665  36.036  34.838  1.00  0.00     0.020 A 
ATOM     83  C   UNL A   1      44.205  37.072  34.075  1.00  0.00     0.054 A 
BRANCH  83  84
ATOM     84  S   UNL A   1      44.705  38.628  34.860  1.00  0.00     0.124 S 
ATOM     85  O   UNL A   1      46.157  38.479  34.931  1.00  0.00    -0.237 OA
ATOM     86  O   UNL A   1      44.221  39.633  33.917  1.00  0.00    -0.237 OA
ATOM     87  O   UNL A   1      44.014  38.605  36.147  1.00  0.00    -0.744 OA
ENDBRANCH  83  84
ENDBRANCH  57  78
ENDBRANCH  31  32
ENDBRANCH  23  26
ENDBRANCH  21  22
ENDBRANCH  20  21
ENDBRANCH   1  20
TORSDOF 18
ENDMDL
MODEL 3
REMARK VINA RESULT:     -10.3      1.597      2.398
REMARK SMILES CC(C)(O)CCOc1ccc(C(=O)NCCCNC(=O)c2ccc(-c3c4nc(c(-c5ccc(S(=O)(=O)[O-])cc5)c5ccc([nH]5)c(-c5ccc(S(=O)(=O)[O-])cc5)c5nc(c(-c6ccc(S(=O)(=O)[O-])cc6)c6ccc3[nH]6)C=C5)C=C4)cc2)cc1
REMARK SMILES IDX 15 1 14 2 12 3 13 4 11 6 8 7 9 8 82 9 10 10 81 11 7 12 6 13
REMARK SMILES IDX 5 14 2 15 1 16 3 17 4 18 16 20 17 21 18 22 19 23 20 25 21 26
REMARK SMILES IDX 22 27 80 28 23 29 79 30 24 31 25 32 26 33 73 34 27 35 78 36
REMARK SMILES IDX 72 37 74 38 28 39 77 40 71 41 70 42 29 44 59 45 40 46 58 47
REMARK SMILES IDX 41 48 44 49 57 50 75 51 42 52 43 53 56 55 76 56 45 57 30 58
REMARK SMILES IDX 31 59 39 60 32 61 38 62 33 63 34 64 35 65 36 66 37 67 60 68
REMARK SMILES IDX 61 69 69 70 62 71 68 72 63 73 64 74 65 75 66 76 67 77 46 78
REMARK SMILES IDX 47 79 55 80 48 81 54 82 49 83 50 84 51 85 52 86 53 87
REMARK H PARENT 14 5 4 19 18 24 74 43 44 54
REMARK Flexibility Score: inf
ROOT
ATOM      1  C   UNL A   1      33.057  29.167  24.812  1.00  0.00     0.118 C 
ENDROOT
BRANCH   1   2
ATOM      2  N   UNL A   1      31.726  29.659  24.477  1.00  0.00    -0.352 N 
ATOM      3  C   UNL A   1      30.662  29.033  23.867  1.00  0.00     0.251 C 
ATOM      4  O   UNL A   1      29.656  29.681  23.588  1.00  0.00    -0.269 OA
ATOM      5  H   UNL A   1      31.561  30.596  24.730  1.00  0.00     0.163 HD
BRANCH   3   6
ATOM      6  C   UNL A   1      30.729  27.603  23.492  1.00  0.00     0.040 A 
ATOM      7  C   UNL A   1      31.269  24.906  23.013  1.00  0.00     0.119 A 
ATOM      8  C   UNL A   1      31.753  25.882  22.138  1.00  0.00     0.047 A 
ATOM      9  C   UNL A   1      30.328  25.271  23.972  1.00  0.00     0.047 A 
ATOM     10  C   UNL A   1      31.481  27.233  22.373  1.00  0.00     0.017 A 
ATOM     11  C   UNL A   1      30.073  26.620  24.231  1.00  0.00     0.017 A 
BRANCH   7  12
ATOM     12  O   UNL A   1      31.864  23.681  22.904  1.00  0.00    -0.493 OA
BRANCH  12  13
ATOM     13  C   UNL A   1      33.271  23.609  22.649  1.00  0.00     0.232 C 
BRANCH  13  14
ATOM     14  C   UNL A   1      34.137  22.885  23.705  1.00  0.00     0.076 C 
BRANCH  14  15
ATOM     15  C   UNL A   1      33.759  23.002  25.201  1.00  0.00     0.062 C 
ATOM     16  C   UNL A   1      33.874  24.441  25.716  1.00  0.00     0.042 C 
ATOM     17  C   UNL A   1      34.671  22.122  26.070  1.00  0.00     0.042 C 
BRANCH  15  18
ATOM     18  O   UNL A   1      32.442  22.491  25.402  1.00  0.00    -0.390 OA
ATOM     19  H   UNL A   1      32.073  22.859  26.220  1.00  0.00     0.211 HD
ENDBRANCH  15  18
ENDBRANCH  14  15
ENDBRANCH  13  14
ENDBRANCH  12  13
ENDBRANCH   7  12
ENDBRANCH   3   6
ENDBRANCH   1   2
BRANCH   1  20
ATOM     20  C   UNL A   1      33.049  28.019  25.820  1.00  0.00     0.042 C 
BRANCH  20  21
ATOM     21  C   UNL A   1      33.545  28.377  27.218  1.00  0.00     0.118 C 
BRANCH  21  22
ATOM     22  N   UNL A   1      33.517  29.809  27.487  1.00  0.00    -0.352 N 
ATOM     23  C   UNL A   1      34.463  30.629  28.056  1.00  0.00     0.251 C 
ATOM     24  H   UNL A   1      32.687  30.263  27.217  1.00  0.00     0.163 HD
ATOM     25  O   UNL A   1      34.157  31.791  28.326  1.00  0.00    -0.269 OA
BRANCH  23  26
ATOM     26  C   UNL A   1      35.826  30.135  28.371  1.00  0.00     0.039 A 
ATOM     27  C   UNL A   1      36.793  30.129  27.360  1.00  0.00     0.014 A 
ATOM     28  C   UNL A   1      36.152  29.644  29.637  1.00  0.00     0.014 A 
ATOM     29  C   UNL A   1      38.096  29.702  27.638  1.00  0.00     0.010 A 
ATOM     30  C   UNL A   1      37.469  29.296  29.935  1.00  0.00     0.010 A 
ATOM     31  C   UNL A   1      38.458  29.319  28.939  1.00  0.00    -0.014 A 
BRANCH  31  32
ATOM     32  C   UNL A   1      39.857  28.942  29.279  1.00  0.00     0.031 A 
ATOM     33  C   UNL A   1      40.773  29.936  29.946  1.00  0.00     0.074 A 
ATOM     34  C   UNL A   1      40.326  27.728  28.929  1.00  0.00     0.049 A 
ATOM     35  N   UNL A   1      42.039  29.814  30.255  1.00  0.00    -0.248 NA
ATOM     36  C   UNL A   1      40.197  31.246  30.290  1.00  0.00     0.031 C 
ATOM     37  C   UNL A   1      39.555  26.685  28.248  1.00  0.00     0.029 A 
ATOM     38  N   UNL A   1      41.569  27.164  29.089  1.00  0.00    -0.354 N 
ATOM     39  C   UNL A   1      42.414  31.031  30.813  1.00  0.00     0.074 A 
ATOM     40  C   UNL A   1      41.257  31.896  30.750  1.00  0.00     0.031 C 
ATOM     41  C   UNL A   1      40.330  25.602  28.076  1.00  0.00     0.029 A 
ATOM     42  C   UNL A   1      41.667  25.887  28.587  1.00  0.00     0.049 A 
ATOM     43  H   UNL A   1      42.319  27.632  29.522  1.00  0.00     0.167 HD
ATOM     44  C   UNL A   1      43.606  31.391  31.347  1.00  0.00     0.031 A 
ATOM     45  C   UNL A   1      42.716  25.041  28.535  1.00  0.00     0.031 A 
ATOM     46  C   UNL A   1      44.756  30.527  31.411  1.00  0.00     0.049 A 
ATOM     47  C   UNL A   1      44.037  25.475  29.109  1.00  0.00     0.074 A 
ATOM     48  C   UNL A   1      45.994  30.783  31.975  1.00  0.00     0.029 A 
ATOM     49  N   UNL A   1      44.811  29.242  30.894  1.00  0.00    -0.354 N 
ATOM     50  N   UNL A   1      44.353  26.609  29.687  1.00  0.00    -0.248 NA
ATOM     51  C   UNL A   1      45.141  24.508  29.035  1.00  0.00     0.031 C 
ATOM     52  C   UNL A   1      46.816  29.676  31.746  1.00  0.00     0.029 A 
ATOM     53  C   UNL A   1      46.069  28.702  31.102  1.00  0.00     0.049 A 
ATOM     54  H   UNL A   1      44.066  28.781  30.445  1.00  0.00     0.167 HD
ATOM     55  C   UNL A   1      45.682  26.479  30.075  1.00  0.00     0.074 A 
ATOM     56  C   UNL A   1      46.105  25.152  29.680  1.00  0.00     0.031 C 
ATOM     57  C   UNL A   1      46.478  27.377  30.706  1.00  0.00     0.031 A 
BRANCH  44  58
ATOM     58  C   UNL A   1      43.730  32.790  31.900  1.00  0.00    -0.014 A 
ATOM     59  C   UNL A   1      43.570  33.045  33.275  1.00  0.00     0.010 A 
ATOM     60  C   UNL A   1      44.054  33.857  31.042  1.00  0.00     0.010 A 
ATOM     61  C   UNL A   1      43.686  34.344  33.774  1.00  0.00     0.020 A 
ATOM     62  C   UNL A   1      44.202  35.154  31.542  1.00  0.00     0.020 A 
ATOM     63  C   UNL A   1      44.000  35.392  32.903  1.00  0.00     0.054 A 
BRANCH  63  64
ATOM     64  S   UNL A   1      44.164  37.066  33.584  1.00  0.00     0.124 S 
ATOM     65  O   UNL A   1      44.704  37.802  32.444  1.00  0.00    -0.237 OA
ATOM     66  O   UNL A   1      42.791  37.396  33.952  1.00  0.00    -0.237 OA
ATOM     67  O   UNL A   1      45.084  36.896  34.706  1.00  0.00    -0.744 OA
ENDBRANCH  63  64
ENDBRANCH  44  58
BRANCH  45  68
ATOM     68  C   UNL A   1      42.556  23.691  27.924  1.00  0.00    -0.014 A 
ATOM     69  C   UNL A   1      41.976  22.640  28.655  1.00  0.00     0.010 A 
ATOM     70  C   UNL A   1      42.981  23.450  26.604  1.00  0.00     0.010 A 
ATOM     71  C   UNL A   1      41.845  21.368  28.089  1.00  0.00     0.020 A 
ATOM     72  C   UNL A   1      42.822  22.189  26.022  1.00  0.00     0.020 A 
ATOM     73  C   UNL A   1      42.266  21.151  26.773  1.00  0.00     0.054 A 
BRANCH  73  74
ATOM     74  S   UNL A   1      42.045  19.506  26.043  1.00  0.00     0.124 S 
ATOM     75  O   UNL A   1      42.515  18.633  27.114  1.00  0.00    -0.237 OA
ATOM     76  O   UNL A   1      40.608  19.470  25.780  1.00  0.00    -0.237 OA
ATOM     77  O   UNL A   1      42.888  19.545  24.850  1.00  0.00    -0.744 OA
ENDBRANCH  73  74
ENDBRANCH  45  68
BRANCH  57  78
ATOM     78  C   UNL A   1      47.879  26.942  31.052  1.00  0.00    -0.014 A 
ATOM     79  C   UNL A   1      48.148  26.177  32.200  1.00  0.00     0.010 A 
ATOM     80  C   UNL A   1      48.936  27.262  30.179  1.00  0.00     0.010 A 
ATOM     81  C   UNL A   1      49.454  25.769  32.486  1.00  0.00     0.020 A 
ATOM     82  C   UNL A   1      50.237  26.829  30.445  1.00  0.00     0.020 A 
ATOM     83  C   UNL A   1      50.491  26.097  31.606  1.00  0.00     0.054 A 
BRANCH  83  84
ATOM     84  S   UNL A   1      52.168  25.517  31.978  1.00  0.00     0.124 S 
ATOM     85  O   UNL A   1      52.880  25.833  30.743  1.00  0.00    -0.237 OA
ATOM     86  O   UNL A   1      52.535  26.322  33.140  1.00  0.00    -0.237 OA
ATOM     87  O   UNL A   1      51.990  24.091  32.246  1.00  0.00    -0.744 OA
ENDBRANCH  83  84
ENDBRANCH  57  78
ENDBRANCH  31  32
ENDBRANCH  23  26
ENDBRANCH  21  22
ENDBRANCH  20  21
ENDBRANCH   1  20
TORSDOF 18
ENDMDL
