MODEL 1
REMARK VINA RESULT:     -13.1      0.000      0.000
REMARK SMILES Cc1cccc(N2CC[NH+]([C@@H](C(=O)NCCCNC(=O)c3ccc(-c4c5nc(c(-c6ccc(S(=O)(=O)[O-])cc6)c6ccc([nH]6)c(-c6ccc(S(=O)(=O)[O-])cc6)c6nc(c(-c7ccc(S(=O)(=O)[O-])cc7)c7ccc4[nH]7)C=C6)C=C5)cc3)c3c[nH]c4cc(NC(=O)C(C)C)ccc34)CC2)c1C
REMARK SMILES IDX 16 1 15 2 14 3 12 4 13 5 11 7 10 8 7 9 8 10 97 11 9 12 96 13
REMARK SMILES IDX 6 15 1 16 2 17 3 18 98 19 4 20 99 21 5 22 81 23 82 24 95 25
REMARK SMILES IDX 83 26 84 27 94 28 85 30 93 31 86 32 87 33 88 34 89 36 90 37
REMARK SMILES IDX 91 38 92 39 17 40 18 41 19 42 20 44 21 45 22 46 80 47 23 48
REMARK SMILES IDX 79 49 24 50 25 51 26 52 73 53 27 54 78 55 72 56 74 57 28 58
REMARK SMILES IDX 77 59 71 60 70 61 29 63 59 64 40 65 58 66 41 67 44 68 57 69
REMARK SMILES IDX 75 70 42 71 43 72 56 74 76 75 45 76 30 77 31 78 39 79 32 80
REMARK SMILES IDX 38 81 33 82 34 83 35 84 36 85 37 86 60 87 61 88 69 89 62 90
REMARK SMILES IDX 68 91 63 92 64 93 65 94 66 95 67 96 46 97 47 98 55 99 48 100
REMARK SMILES IDX 54 101 49 102 50 103 51 104 52 105 53 106
REMARK H PARENT 14 6 10 14 83 29 87 35 18 43 74 62 44 73
REMARK Flexibility Score: inf
ROOT
ATOM      1  C   UNL A   1      34.347  28.712  27.409  1.00  0.00     0.042 C 
ENDROOT
BRANCH   1   2
ATOM      2  C   UNL A   1      33.561  28.264  26.131  1.00  0.00     0.118 C 
BRANCH   2   3
ATOM      3  N   UNL A   1      32.183  27.779  26.283  1.00  0.00    -0.351 N 
ATOM      4  C   UNL A   1      31.528  26.578  26.094  1.00  0.00     0.283 C 
ATOM      5  O   UNL A   1      30.575  26.428  26.876  1.00  0.00    -0.268 OA
ATOM      6  H   UNL A   1      31.574  28.487  26.597  1.00  0.00     0.163 HD
BRANCH   4   7
ATOM      7  C   UNL A   1      31.949  25.430  25.112  1.00  0.00     0.307 C 
BRANCH   7   8
ATOM      8  N   UNL A   1      31.539  25.534  23.644  1.00  0.00    -0.318 N 
ATOM      9  N   UNL A   1      30.350  28.225  23.345  1.00  0.00    -0.360 N 
ATOM     10  C   UNL A   1      29.655  27.110  23.961  1.00  0.00     0.178 C 
ATOM     11  C   UNL A   1      31.719  28.006  22.869  1.00  0.00     0.178 C 
ATOM     12  C   UNL A   1      30.112  25.784  23.363  1.00  0.00     0.284 C 
ATOM     13  C   UNL A   1      32.207  26.517  22.794  1.00  0.00     0.284 C 
ATOM     14  H   UNL A   1      31.835  24.586  23.414  1.00  0.00     0.349 HD
BRANCH   9  15
ATOM     15  C   UNL A   1      29.919  29.534  23.581  1.00  0.00     0.040 A 
ATOM     16  C   UNL A   1      28.069  32.484  21.928  1.00  0.00     0.044 C 
ATOM     17  C   UNL A   1      28.852  31.663  22.923  1.00  0.00    -0.046 A 
ATOM     18  C   UNL A   1      29.458  32.300  24.004  1.00  0.00     0.004 A 
ATOM     19  C   UNL A   1      29.002  30.260  22.772  1.00  0.00    -0.025 A 
ATOM     20  C   UNL A   1      30.246  31.575  24.886  1.00  0.00     0.002 A 
ATOM     21  C   UNL A   1      28.134  29.602  21.740  1.00  0.00     0.047 C 
ATOM     22  C   UNL A   1      30.484  30.217  24.668  1.00  0.00     0.026 A 
ENDBRANCH   9  15
ENDBRANCH   7   8
BRANCH   7  23
ATOM     23  C   UNL A   1      31.579  23.946  25.578  1.00  0.00     0.044 A 
ATOM     24  C   UNL A   1      31.056  23.664  26.838  1.00  0.00     0.094 A 
ATOM     25  C   UNL A   1      32.087  22.647  25.134  1.00  0.00     0.009 A 
ATOM     26  N   UNL A   1      31.694  22.526  27.293  1.00  0.00    -0.361 N 
ATOM     27  C   UNL A   1      32.531  22.040  26.314  1.00  0.00     0.048 A 
ATOM     28  C   UNL A   1      32.510  22.039  23.936  1.00  0.00     0.013 A 
ATOM     29  H   UNL A   1      31.570  22.124  28.184  1.00  0.00     0.166 HD
ATOM     30  C   UNL A   1      33.692  21.226  26.361  1.00  0.00     0.052 A 
ATOM     31  C   UNL A   1      33.562  21.098  23.973  1.00  0.00     0.027 A 
ATOM     32  C   UNL A   1      34.280  20.866  25.148  1.00  0.00     0.043 A 
BRANCH  32  33
ATOM     33  N   UNL A   1      35.492  20.167  25.022  1.00  0.00    -0.326 N 
ATOM     34  C   UNL A   1      36.816  20.486  24.973  1.00  0.00     0.226 C 
ATOM     35  H   UNL A   1      35.347  19.196  24.951  1.00  0.00     0.169 HD
ATOM     36  O   UNL A   1      37.589  19.515  25.014  1.00  0.00    -0.274 OA
BRANCH  34  37
ATOM     37  C   UNL A   1      37.431  21.863  24.682  1.00  0.00     0.072 C 
ATOM     38  C   UNL A   1      36.671  22.632  23.596  1.00  0.00     0.018 C 
ATOM     39  C   UNL A   1      37.801  22.723  25.874  1.00  0.00     0.018 C 
ENDBRANCH  34  37
ENDBRANCH  32  33
ENDBRANCH   7  23
ENDBRANCH   4   7
ENDBRANCH   2   3
ENDBRANCH   1   2
BRANCH   1  40
ATOM     40  C   UNL A   1      34.969  30.129  27.474  1.00  0.00     0.118 C 
BRANCH  40  41
ATOM     41  N   UNL A   1      35.256  30.547  28.832  1.00  0.00    -0.352 N 
ATOM     42  C   UNL A   1      36.360  30.394  29.634  1.00  0.00     0.251 C 
ATOM     43  H   UNL A   1      34.516  31.035  29.261  1.00  0.00     0.163 HD
ATOM     44  O   UNL A   1      36.236  30.724  30.816  1.00  0.00    -0.269 OA
BRANCH  42  45
ATOM     45  C   UNL A   1      37.681  29.858  29.187  1.00  0.00     0.039 A 
ATOM     46  C   UNL A   1      38.600  29.510  30.192  1.00  0.00     0.014 A 
ATOM     47  C   UNL A   1      38.121  29.844  27.859  1.00  0.00     0.014 A 
ATOM     48  C   UNL A   1      39.924  29.160  29.883  1.00  0.00     0.010 A 
ATOM     49  C   UNL A   1      39.450  29.470  27.550  1.00  0.00     0.010 A 
ATOM     50  C   UNL A   1      40.374  29.133  28.555  1.00  0.00    -0.014 A 
BRANCH  50  51
ATOM     51  C   UNL A   1      41.791  28.739  28.258  1.00  0.00     0.031 A 
ATOM     52  C   UNL A   1      42.158  27.335  27.831  1.00  0.00     0.074 A 
ATOM     53  C   UNL A   1      42.774  29.662  28.342  1.00  0.00     0.049 A 
ATOM     54  N   UNL A   1      43.322  26.869  27.443  1.00  0.00    -0.248 NA
ATOM     55  C   UNL A   1      41.091  26.324  27.851  1.00  0.00     0.031 C 
ATOM     56  C   UNL A   1      42.593  31.048  28.776  1.00  0.00     0.029 A 
ATOM     57  N   UNL A   1      44.120  29.577  28.062  1.00  0.00    -0.354 N 
ATOM     58  C   UNL A   1      43.133  25.514  27.182  1.00  0.00     0.074 A 
ATOM     59  C   UNL A   1      41.745  25.228  27.483  1.00  0.00     0.031 C 
ATOM     60  C   UNL A   1      43.773  31.686  28.715  1.00  0.00     0.029 A 
ATOM     61  C   UNL A   1      44.804  30.755  28.259  1.00  0.00     0.049 A 
ATOM     62  H   UNL A   1      44.553  28.749  27.749  1.00  0.00     0.167 HD
ATOM     63  C   UNL A   1      44.023  24.595  26.726  1.00  0.00     0.031 A 
ATOM     64  C   UNL A   1      46.106  31.066  28.096  1.00  0.00     0.031 A 
ATOM     65  C   UNL A   1      45.402  24.868  26.405  1.00  0.00     0.049 A 
ATOM     66  C   UNL A   1      47.068  30.032  27.573  1.00  0.00     0.074 A 
ATOM     67  C   UNL A   1      46.342  24.010  25.853  1.00  0.00     0.029 A 
ATOM     68  N   UNL A   1      46.050  26.074  26.617  1.00  0.00    -0.354 N 
ATOM     69  N   UNL A   1      46.835  28.789  27.230  1.00  0.00    -0.248 NA
ATOM     70  C   UNL A   1      48.467  30.452  27.397  1.00  0.00     0.031 C 
ATOM     71  C   UNL A   1      47.568  24.678  25.785  1.00  0.00     0.029 A 
ATOM     72  C   UNL A   1      47.381  25.971  26.243  1.00  0.00     0.049 A 
ATOM     73  H   UNL A   1      45.626  26.885  26.980  1.00  0.00     0.167 HD
ATOM     74  C   UNL A   1      48.052  28.285  26.783  1.00  0.00     0.074 A 
ATOM     75  C   UNL A   1      49.013  29.363  26.874  1.00  0.00     0.031 C 
ATOM     76  C   UNL A   1      48.345  27.037  26.342  1.00  0.00     0.031 A 
BRANCH  63  77
ATOM     77  C   UNL A   1      43.546  23.175  26.540  1.00  0.00    -0.014 A 
ATOM     78  C   UNL A   1      43.779  22.479  25.341  1.00  0.00     0.010 A 
ATOM     79  C   UNL A   1      42.955  22.493  27.622  1.00  0.00     0.010 A 
ATOM     80  C   UNL A   1      43.409  21.136  25.218  1.00  0.00     0.020 A 
ATOM     81  C   UNL A   1      42.605  21.144  27.510  1.00  0.00     0.020 A 
ATOM     82  C   UNL A   1      42.825  20.476  26.304  1.00  0.00     0.054 A 
BRANCH  82  83
ATOM     83  S   UNL A   1      42.402  18.719  26.132  1.00  0.00     0.124 S 
ATOM     84  O   UNL A   1      41.004  18.784  25.716  1.00  0.00    -0.237 OA
ATOM     85  O   UNL A   1      43.341  18.262  25.111  1.00  0.00    -0.237 OA
ATOM     86  O   UNL A   1      42.628  18.175  27.471  1.00  0.00    -0.744 OA
ENDBRANCH  82  83
ENDBRANCH  63  77
BRANCH  64  87
ATOM     87  C   UNL A   1      46.594  32.431  28.442  1.00  0.00    -0.014 A 
ATOM     88  C   UNL A   1      47.015  32.740  29.747  1.00  0.00     0.010 A 
ATOM     89  C   UNL A   1      46.621  33.436  27.457  1.00  0.00     0.010 A 
ATOM     90  C   UNL A   1      47.428  34.037  30.068  1.00  0.00     0.020 A 
ATOM     91  C   UNL A   1      47.062  34.726  27.768  1.00  0.00     0.020 A 
ATOM     92  C   UNL A   1      47.448  35.022  29.076  1.00  0.00     0.054 A 
BRANCH  92  93
ATOM     93  S   UNL A   1      48.029  36.688  29.500  1.00  0.00     0.124 S 
ATOM     94  O   UNL A   1      49.095  36.403  30.455  1.00  0.00    -0.237 OA
ATOM     95  O   UNL A   1      48.457  37.215  28.208  1.00  0.00    -0.237 OA
ATOM     96  O   UNL A   1      46.840  37.329  30.061  1.00  0.00    -0.744 OA
ENDBRANCH  92  93
ENDBRANCH  64  87
BRANCH  76  97
ATOM     97  C   UNL A   1      49.763  26.768  25.905  1.00  0.00    -0.014 A 
ATOM     98  C   UNL A   1      50.672  26.105  26.750  1.00  0.00     0.010 A 
ATOM     99  C   UNL A   1      50.188  27.163  24.624  1.00  0.00     0.010 A 
ATOM    100  C   UNL A   1      51.989  25.881  26.340  1.00  0.00     0.020 A 
ATOM    101  C   UNL A   1      51.498  26.917  24.199  1.00  0.00     0.020 A 
ATOM    102  C   UNL A   1      52.396  26.295  25.068  1.00  0.00     0.054 A 
BRANCH 102 103
ATOM    103  S   UNL A   1      54.107  25.981  24.550  1.00  0.00     0.124 S 
ATOM    104  O   UNL A   1      54.304  24.598  24.973  1.00  0.00    -0.237 OA
ATOM    105  O   UNL A   1      54.052  26.195  23.106  1.00  0.00    -0.237 OA
ATOM    106  O   UNL A   1      54.881  26.976  25.290  1.00  0.00    -0.744 OA
ENDBRANCH 102 103
ENDBRANCH  76  97
ENDBRANCH  50  51
ENDBRANCH  42  45
ENDBRANCH  40  41
ENDBRANCH   1  40
TORSDOF 18
ENDMDL
MODEL 2
REMARK VINA RESULT:     -12.4      5.028      8.835
REMARK SMILES Cc1cccc(N2CC[NH+]([C@@H](C(=O)NCCCNC(=O)c3ccc(-c4c5nc(c(-c6ccc(S(=O)(=O)[O-])cc6)c6ccc([nH]6)c(-c6ccc(S(=O)(=O)[O-])cc6)c6nc(c(-c7ccc(S(=O)(=O)[O-])cc7)c7ccc4[nH]7)C=C6)C=C5)cc3)c3c[nH]c4cc(NC(=O)C(C)C)ccc34)CC2)c1C
REMARK SMILES IDX 16 1 15 2 14 3 12 4 13 5 11 7 10 8 7 9 8 10 97 11 9 12 96 13
REMARK SMILES IDX 6 15 1 16 2 17 3 18 98 19 4 20 99 21 5 22 81 23 82 24 95 25
REMARK SMILES IDX 83 26 84 27 94 28 85 30 93 31 86 32 87 33 88 34 89 36 90 37
REMARK SMILES IDX 91 38 92 39 17 40 18 41 19 42 20 44 21 45 22 46 80 47 23 48
REMARK SMILES IDX 79 49 24 50 25 51 26 52 73 53 27 54 78 55 72 56 74 57 28 58
REMARK SMILES IDX 77 59 71 60 70 61 29 63 59 64 40 65 58 66 41 67 44 68 57 69
REMARK SMILES IDX 75 70 42 71 43 72 56 74 76 75 45 76 30 77 31 78 39 79 32 80
REMARK SMILES IDX 38 81 33 82 34 83 35 84 36 85 37 86 60 87 61 88 69 89 62 90
REMARK SMILES IDX 68 91 63 92 64 93 65 94 66 95 67 96 46 97 47 98 55 99 48 100
REMARK SMILES IDX 54 101 49 102 50 103 51 104 52 105 53 106
REMARK H PARENT 14 6 10 14 83 29 87 35 18 43 74 62 44 73
REMARK Flexibility Score: inf
ROOT
ATOM      1  C   UNL A   1      33.584  28.722  27.426  1.00  0.00     0.042 C 
ENDROOT
BRANCH   1   2
ATOM      2  C   UNL A   1      33.194  27.522  26.499  1.00  0.00     0.118 C 
BRANCH   2   3
ATOM      3  N   UNL A   1      31.772  27.209  26.307  1.00  0.00    -0.351 N 
ATOM      4  C   UNL A   1      31.045  26.101  25.918  1.00  0.00     0.283 C 
ATOM      5  O   UNL A   1      29.926  26.055  26.452  1.00  0.00    -0.268 OA
ATOM      6  H   UNL A   1      31.193  27.979  26.507  1.00  0.00     0.163 HD
BRANCH   4   7
ATOM      7  C   UNL A   1      31.548  24.928  25.005  1.00  0.00     0.307 C 
BRANCH   7   8
ATOM      8  N   UNL A   1      31.011  24.826  23.579  1.00  0.00    -0.318 N 
ATOM      9  N   UNL A   1      29.783  27.455  23.009  1.00  0.00    -0.360 N 
ATOM     10  C   UNL A   1      29.152  26.442  23.834  1.00  0.00     0.178 C 
ATOM     11  C   UNL A   1      31.107  27.165  22.452  1.00  0.00     0.178 C 
ATOM     12  C   UNL A   1      29.564  25.043  23.391  1.00  0.00     0.284 C 
ATOM     13  C   UNL A   1      31.596  25.677  22.544  1.00  0.00     0.284 C 
ATOM     14  H   UNL A   1      31.293  23.854  23.460  1.00  0.00     0.349 HD
BRANCH   9  15
ATOM     15  C   UNL A   1      29.365  28.787  23.095  1.00  0.00     0.040 A 
ATOM     16  C   UNL A   1      30.095  32.104  24.919  1.00  0.00     0.044 C 
ATOM     17  C   UNL A   1      29.443  31.073  24.030  1.00  0.00    -0.046 A 
ATOM     18  C   UNL A   1      28.184  31.335  23.494  1.00  0.00     0.004 A 
ATOM     19  C   UNL A   1      30.075  29.835  23.744  1.00  0.00    -0.025 A 
ATOM     20  C   UNL A   1      27.536  30.369  22.737  1.00  0.00     0.002 A 
ATOM     21  C   UNL A   1      31.517  29.712  24.142  1.00  0.00     0.047 C 
ATOM     22  C   UNL A   1      28.112  29.111  22.555  1.00  0.00     0.026 A 
ENDBRANCH   9  15
ENDBRANCH   7   8
BRANCH   7  23
ATOM     23  C   UNL A   1      31.436  23.462  25.633  1.00  0.00     0.044 A 
ATOM     24  C   UNL A   1      31.064  23.239  26.958  1.00  0.00     0.094 A 
ATOM     25  C   UNL A   1      32.088  22.206  25.259  1.00  0.00     0.009 A 
ATOM     26  N   UNL A   1      31.895  22.250  27.448  1.00  0.00    -0.361 N 
ATOM     27  C   UNL A   1      32.710  21.787  26.440  1.00  0.00     0.048 A 
ATOM     28  C   UNL A   1      32.494  21.545  24.085  1.00  0.00     0.013 A 
ATOM     29  H   UNL A   1      31.904  21.927  28.379  1.00  0.00     0.166 HD
ATOM     30  C   UNL A   1      33.976  21.147  26.448  1.00  0.00     0.052 A 
ATOM     31  C   UNL A   1      33.671  20.764  24.104  1.00  0.00     0.027 A 
ATOM     32  C   UNL A   1      34.509  20.750  25.221  1.00  0.00     0.043 A 
BRANCH  32  33
ATOM     33  N   UNL A   1      35.794  20.213  25.042  1.00  0.00    -0.326 N 
ATOM     34  C   UNL A   1      37.061  20.703  24.914  1.00  0.00     0.226 C 
ATOM     35  H   UNL A   1      35.776  19.231  24.998  1.00  0.00     0.169 HD
ATOM     36  O   UNL A   1      37.957  19.843  24.931  1.00  0.00    -0.274 OA
BRANCH  34  37
ATOM     37  C   UNL A   1      37.472  22.141  24.563  1.00  0.00     0.072 C 
ATOM     38  C   UNL A   1      36.738  22.681  23.330  1.00  0.00     0.018 C 
ATOM     39  C   UNL A   1      37.541  23.138  25.702  1.00  0.00     0.018 C 
ENDBRANCH  34  37
ENDBRANCH  32  33
ENDBRANCH   7  23
ENDBRANCH   4   7
ENDBRANCH   2   3
ENDBRANCH   1   2
BRANCH   1  40
ATOM     40  C   UNL A   1      34.205  30.001  26.812  1.00  0.00     0.118 C 
BRANCH  40  41
ATOM     41  N   UNL A   1      34.058  31.158  27.672  1.00  0.00    -0.352 N 
ATOM     42  C   UNL A   1      34.827  31.653  28.698  1.00  0.00     0.251 C 
ATOM     43  H   UNL A   1      33.253  31.692  27.485  1.00  0.00     0.163 HD
ATOM     44  O   UNL A   1      34.344  32.580  29.354  1.00  0.00    -0.269 OA
BRANCH  42  45
ATOM     45  C   UNL A   1      36.184  31.154  29.074  1.00  0.00     0.039 A 
ATOM     46  C   UNL A   1      36.237  30.070  29.967  1.00  0.00     0.014 A 
ATOM     47  C   UNL A   1      37.382  31.793  28.741  1.00  0.00     0.014 A 
ATOM     48  C   UNL A   1      37.453  29.635  30.517  1.00  0.00     0.010 A 
ATOM     49  C   UNL A   1      38.609  31.338  29.280  1.00  0.00     0.010 A 
ATOM     50  C   UNL A   1      38.663  30.261  30.183  1.00  0.00    -0.014 A 
BRANCH  50  51
ATOM     51  C   UNL A   1      39.947  29.760  30.776  1.00  0.00     0.031 A 
ATOM     52  C   UNL A   1      40.536  30.361  32.034  1.00  0.00     0.074 A 
ATOM     53  C   UNL A   1      40.593  28.724  30.197  1.00  0.00     0.049 A 
ATOM     54  N   UNL A   1      41.583  29.971  32.721  1.00  0.00    -0.248 NA
ATOM     55  C   UNL A   1      39.875  31.553  32.583  1.00  0.00     0.031 C 
ATOM     56  C   UNL A   1      40.179  28.058  28.961  1.00  0.00     0.029 A 
ATOM     57  N   UNL A   1      41.730  28.044  30.572  1.00  0.00    -0.354 N 
ATOM     58  C   UNL A   1      41.714  30.870  33.776  1.00  0.00     0.074 A 
ATOM     59  C   UNL A   1      40.653  31.843  33.620  1.00  0.00     0.031 C 
ATOM     60  C   UNL A   1      41.034  27.059  28.691  1.00  0.00     0.029 A 
ATOM     61  C   UNL A   1      42.072  27.020  29.719  1.00  0.00     0.049 A 
ATOM     62  H   UNL A   1      42.250  28.270  31.377  1.00  0.00     0.167 HD
ATOM     63  C   UNL A   1      42.623  30.883  34.786  1.00  0.00     0.031 A 
ATOM     64  C   UNL A   1      43.096  26.142  29.748  1.00  0.00     0.031 A 
ATOM     65  C   UNL A   1      43.674  29.912  34.965  1.00  0.00     0.049 A 
ATOM     66  C   UNL A   1      44.079  26.168  30.888  1.00  0.00     0.074 A 
ATOM     67  C   UNL A   1      44.577  29.807  36.013  1.00  0.00     0.029 A 
ATOM     68  N   UNL A   1      43.980  28.892  34.080  1.00  0.00    -0.354 N 
ATOM     69  N   UNL A   1      44.111  26.962  31.930  1.00  0.00    -0.248 NA
ATOM     70  C   UNL A   1      45.155  25.164  30.863  1.00  0.00     0.031 C 
ATOM     71  C   UNL A   1      45.463  28.762  35.732  1.00  0.00     0.029 A 
ATOM     72  C   UNL A   1      45.078  28.179  34.537  1.00  0.00     0.049 A 
ATOM     73  H   UNL A   1      43.489  28.701  33.248  1.00  0.00     0.167 HD
ATOM     74  C   UNL A   1      45.198  26.543  32.691  1.00  0.00     0.074 A 
ATOM     75  C   UNL A   1      45.781  25.410  32.006  1.00  0.00     0.031 C 
ATOM     76  C   UNL A   1      45.670  27.058  33.853  1.00  0.00     0.031 A 
BRANCH  63  77
ATOM     77  C   UNL A   1      42.540  31.996  35.802  1.00  0.00    -0.014 A 
ATOM     78  C   UNL A   1      43.204  33.219  35.600  1.00  0.00     0.010 A 
ATOM     79  C   UNL A   1      41.695  31.856  36.921  1.00  0.00     0.010 A 
ATOM     80  C   UNL A   1      43.044  34.271  36.507  1.00  0.00     0.020 A 
ATOM     81  C   UNL A   1      41.515  32.913  37.818  1.00  0.00     0.020 A 
ATOM     82  C   UNL A   1      42.200  34.111  37.611  1.00  0.00     0.054 A 
BRANCH  82  83
ATOM     83  S   UNL A   1      41.973  35.511  38.744  1.00  0.00     0.124 S 
ATOM     84  O   UNL A   1      40.614  35.288  39.230  1.00  0.00    -0.237 OA
ATOM     85  O   UNL A   1      43.032  35.304  39.727  1.00  0.00    -0.237 OA
ATOM     86  O   UNL A   1      42.143  36.683  37.887  1.00  0.00    -0.744 OA
ENDBRANCH  82  83
ENDBRANCH  63  77
BRANCH  64  87
ATOM     87  C   UNL A   1      43.258  25.152  28.646  1.00  0.00    -0.014 A 
ATOM     88  C   UNL A   1      44.005  25.464  27.496  1.00  0.00     0.010 A 
ATOM     89  C   UNL A   1      42.644  23.890  28.741  1.00  0.00     0.010 A 
ATOM     90  C   UNL A   1      44.112  24.543  26.450  1.00  0.00     0.020 A 
ATOM     91  C   UNL A   1      42.774  22.955  27.709  1.00  0.00     0.020 A 
ATOM     92  C   UNL A   1      43.495  23.294  26.563  1.00  0.00     0.054 A 
BRANCH  92  93
ATOM     93  S   UNL A   1      43.680  22.093  25.215  1.00  0.00     0.124 S 
ATOM     94  O   UNL A   1      42.644  21.117  25.534  1.00  0.00    -0.237 OA
ATOM     95  O   UNL A   1      43.441  22.908  24.027  1.00  0.00    -0.237 OA
ATOM     96  O   UNL A   1      45.055  21.621  25.369  1.00  0.00    -0.744 OA
ENDBRANCH  92  93
ENDBRANCH  64  87
BRANCH  76  97
ATOM     97  C   UNL A   1      46.872  26.390  34.472  1.00  0.00    -0.014 A 
ATOM     98  C   UNL A   1      48.174  26.873  34.239  1.00  0.00     0.010 A 
ATOM     99  C   UNL A   1      46.700  25.279  35.316  1.00  0.00     0.010 A 
ATOM    100  C   UNL A   1      49.280  26.231  34.802  1.00  0.00     0.020 A 
ATOM    101  C   UNL A   1      47.802  24.650  35.904  1.00  0.00     0.020 A 
ATOM    102  C   UNL A   1      49.088  25.118  35.627  1.00  0.00     0.054 A 
BRANCH 102 103
ATOM    103  S   UNL A   1      50.537  24.309  36.361  1.00  0.00     0.124 S 
ATOM    104  O   UNL A   1      49.969  23.691  37.555  1.00  0.00    -0.237 OA
ATOM    105  O   UNL A   1      50.955  23.382  35.312  1.00  0.00    -0.237 OA
ATOM    106  O   UNL A   1      51.461  25.414  36.610  1.00  0.00    -0.744 OA
ENDBRANCH 102 103
ENDBRANCH  76  97
ENDBRANCH  50  51
ENDBRANCH  42  45
ENDBRANCH  40  41
ENDBRANCH   1  40
TORSDOF 18
ENDMDL
MODEL 3
REMARK VINA RESULT:     -11.8      3.190      8.363
REMARK SMILES Cc1cccc(N2CC[NH+]([C@@H](C(=O)NCCCNC(=O)c3ccc(-c4c5nc(c(-c6ccc(S(=O)(=O)[O-])cc6)c6ccc([nH]6)c(-c6ccc(S(=O)(=O)[O-])cc6)c6nc(c(-c7ccc(S(=O)(=O)[O-])cc7)c7ccc4[nH]7)C=C6)C=C5)cc3)c3c[nH]c4cc(NC(=O)C(C)C)ccc34)CC2)c1C
REMARK SMILES IDX 16 1 15 2 14 3 12 4 13 5 11 7 10 8 7 9 8 10 97 11 9 12 96 13
REMARK SMILES IDX 6 15 1 16 2 17 3 18 98 19 4 20 99 21 5 22 81 23 82 24 95 25
REMARK SMILES IDX 83 26 84 27 94 28 85 30 93 31 86 32 87 33 88 34 89 36 90 37
REMARK SMILES IDX 91 38 92 39 17 40 18 41 19 42 20 44 21 45 22 46 80 47 23 48
REMARK SMILES IDX 79 49 24 50 25 51 26 52 73 53 27 54 78 55 72 56 74 57 28 58
REMARK SMILES IDX 77 59 71 60 70 61 29 63 59 64 40 65 58 66 41 67 44 68 57 69
REMARK SMILES IDX 75 70 42 71 43 72 56 74 76 75 45 76 30 77 31 78 39 79 32 80
REMARK SMILES IDX 38 81 33 82 34 83 35 84 36 85 37 86 60 87 61 88 69 89 62 90
REMARK SMILES IDX 68 91 63 92 64 93 65 94 66 95 67 96 46 97 47 98 55 99 48 100
REMARK SMILES IDX 54 101 49 102 50 103 51 104 52 105 53 106
REMARK H PARENT 14 6 10 14 83 29 87 35 18 43 74 62 44 73
REMARK Flexibility Score: inf
ROOT
ATOM      1  C   UNL A   1      33.688  28.679  27.588  1.00  0.00     0.042 C 
ENDROOT
BRANCH   1   2
ATOM      2  C   UNL A   1      33.292  27.670  26.458  1.00  0.00     0.118 C 
BRANCH   2   3
ATOM      3  N   UNL A   1      31.875  27.325  26.284  1.00  0.00    -0.351 N 
ATOM      4  C   UNL A   1      31.167  26.191  25.935  1.00  0.00     0.283 C 
ATOM      5  O   UNL A   1      30.051  26.143  26.476  1.00  0.00    -0.268 OA
ATOM      6  H   UNL A   1      31.283  28.091  26.459  1.00  0.00     0.163 HD
BRANCH   4   7
ATOM      7  C   UNL A   1      31.688  24.998  25.060  1.00  0.00     0.307 C 
BRANCH   7   8
ATOM      8  N   UNL A   1      31.201  24.878  23.618  1.00  0.00    -0.318 N 
ATOM      9  N   UNL A   1      29.886  27.457  23.013  1.00  0.00    -0.360 N 
ATOM     10  C   UNL A   1      29.271  26.417  23.815  1.00  0.00     0.178 C 
ATOM     11  C   UNL A   1      31.238  27.222  22.497  1.00  0.00     0.178 C 
ATOM     12  C   UNL A   1      29.753  25.037  23.384  1.00  0.00     0.284 C 
ATOM     13  C   UNL A   1      31.784  25.755  22.603  1.00  0.00     0.284 C 
ATOM     14  H   UNL A   1      31.526  23.918  23.506  1.00  0.00     0.349 HD
BRANCH   9  15
ATOM     15  C   UNL A   1      29.412  28.770  23.088  1.00  0.00     0.040 A 
ATOM     16  C   UNL A   1      29.981  32.122  24.904  1.00  0.00     0.044 C 
ATOM     17  C   UNL A   1      29.384  31.061  24.013  1.00  0.00    -0.046 A 
ATOM     18  C   UNL A   1      28.121  31.268  23.460  1.00  0.00     0.004 A 
ATOM     19  C   UNL A   1      30.070  29.850  23.740  1.00  0.00    -0.025 A 
ATOM     20  C   UNL A   1      27.523  30.273  22.700  1.00  0.00     0.002 A 
ATOM     21  C   UNL A   1      31.511  29.789  24.156  1.00  0.00     0.047 C 
ATOM     22  C   UNL A   1      28.153  29.039  22.531  1.00  0.00     0.026 A 
ENDBRANCH   9  15
ENDBRANCH   7   8
BRANCH   7  23
ATOM     23  C   UNL A   1      31.535  23.544  25.707  1.00  0.00     0.044 A 
ATOM     24  C   UNL A   1      31.193  23.349  27.044  1.00  0.00     0.094 A 
ATOM     25  C   UNL A   1      32.127  22.259  25.329  1.00  0.00     0.009 A 
ATOM     26  N   UNL A   1      31.997  22.333  27.523  1.00  0.00    -0.361 N 
ATOM     27  C   UNL A   1      32.765  21.827  26.497  1.00  0.00     0.048 A 
ATOM     28  C   UNL A   1      32.473  21.570  24.152  1.00  0.00     0.013 A 
ATOM     29  H   UNL A   1      32.020  22.019  28.456  1.00  0.00     0.166 HD
ATOM     30  C   UNL A   1      34.004  21.138  26.477  1.00  0.00     0.052 A 
ATOM     31  C   UNL A   1      33.618  20.743  24.147  1.00  0.00     0.027 A 
ATOM     32  C   UNL A   1      34.485  20.707  25.240  1.00  0.00     0.043 A 
BRANCH  32  33
ATOM     33  N   UNL A   1      35.743  20.117  25.032  1.00  0.00    -0.326 N 
ATOM     34  C   UNL A   1      37.031  20.551  24.917  1.00  0.00     0.226 C 
ATOM     35  H   UNL A   1      35.678  19.140  24.946  1.00  0.00     0.169 HD
ATOM     36  O   UNL A   1      37.885  19.649  24.893  1.00  0.00    -0.274 OA
BRANCH  34  37
ATOM     37  C   UNL A   1      37.509  21.981  24.626  1.00  0.00     0.072 C 
ATOM     38  C   UNL A   1      36.751  22.632  23.464  1.00  0.00     0.018 C 
ATOM     39  C   UNL A   1      37.693  22.906  25.812  1.00  0.00     0.018 C 
ENDBRANCH  34  37
ENDBRANCH  32  33
ENDBRANCH   7  23
ENDBRANCH   4   7
ENDBRANCH   2   3
ENDBRANCH   1   2
BRANCH   1  40
ATOM     40  C   UNL A   1      34.407  30.002  27.223  1.00  0.00     0.118 C 
BRANCH  40  41
ATOM     41  N   UNL A   1      34.081  31.081  28.134  1.00  0.00    -0.352 N 
ATOM     42  C   UNL A   1      34.749  31.620  29.207  1.00  0.00     0.251 C 
ATOM     43  H   UNL A   1      33.215  31.509  27.948  1.00  0.00     0.163 HD
ATOM     44  O   UNL A   1      34.128  32.436  29.893  1.00  0.00    -0.269 OA
BRANCH  42  45
ATOM     45  C   UNL A   1      36.152  31.291  29.601  1.00  0.00     0.039 A 
ATOM     46  C   UNL A   1      37.172  31.704  28.726  1.00  0.00     0.014 A 
ATOM     47  C   UNL A   1      36.499  30.464  30.673  1.00  0.00     0.014 A 
ATOM     48  C   UNL A   1      38.503  31.300  28.912  1.00  0.00     0.010 A 
ATOM     49  C   UNL A   1      37.846  30.076  30.871  1.00  0.00     0.010 A 
ATOM     50  C   UNL A   1      38.866  30.478  29.989  1.00  0.00    -0.014 A 
BRANCH  50  51
ATOM     51  C   UNL A   1      40.301  30.078  30.169  1.00  0.00     0.031 A 
ATOM     52  C   UNL A   1      41.305  30.983  30.850  1.00  0.00     0.074 A 
ATOM     53  C   UNL A   1      40.716  28.866  29.742  1.00  0.00     0.049 A 
ATOM     54  N   UNL A   1      42.553  30.736  31.169  1.00  0.00    -0.248 NA
ATOM     55  C   UNL A   1      40.857  32.336  31.209  1.00  0.00     0.031 C 
ATOM     56  C   UNL A   1      39.884  27.892  29.033  1.00  0.00     0.029 A 
ATOM     57  N   UNL A   1      41.939  28.242  29.845  1.00  0.00    -0.354 N 
ATOM     58  C   UNL A   1      43.044  31.899  31.755  1.00  0.00     0.074 A 
ATOM     59  C   UNL A   1      41.963  32.863  31.722  1.00  0.00     0.031 C 
ATOM     60  C   UNL A   1      40.611  26.791  28.783  1.00  0.00     0.029 A 
ATOM     61  C   UNL A   1      41.968  26.982  29.292  1.00  0.00     0.049 A 
ATOM     62  H   UNL A   1      42.721  28.658  30.275  1.00  0.00     0.167 HD
ATOM     63  C   UNL A   1      44.272  32.144  32.281  1.00  0.00     0.031 A 
ATOM     64  C   UNL A   1      42.961  26.073  29.198  1.00  0.00     0.031 A 
ATOM     65  C   UNL A   1      45.353  31.191  32.337  1.00  0.00     0.049 A 
ATOM     66  C   UNL A   1      44.308  26.364  29.804  1.00  0.00     0.074 A 
ATOM     67  C   UNL A   1      46.596  31.336  32.935  1.00  0.00     0.029 A 
ATOM     68  N   UNL A   1      45.336  29.928  31.769  1.00  0.00    -0.354 N 
ATOM     69  N   UNL A   1      44.707  27.432  30.451  1.00  0.00    -0.248 NA
ATOM     70  C   UNL A   1      45.334  25.316  29.684  1.00  0.00     0.031 C 
ATOM     71  C   UNL A   1      47.349  30.186  32.678  1.00  0.00     0.029 A 
ATOM     72  C   UNL A   1      46.556  29.301  31.968  1.00  0.00     0.049 A 
ATOM     73  H   UNL A   1      44.569  29.534  31.292  1.00  0.00     0.167 HD
ATOM     74  C   UNL A   1      46.022  27.177  30.827  1.00  0.00     0.074 A 
ATOM     75  C   UNL A   1      46.343  25.845  30.361  1.00  0.00     0.031 C 
ATOM     76  C   UNL A   1      46.886  27.980  31.496  1.00  0.00     0.031 A 
BRANCH  63  77
ATOM     77  C   UNL A   1      44.541  33.517  32.850  1.00  0.00    -0.014 A 
ATOM     78  C   UNL A   1      44.318  33.799  34.209  1.00  0.00     0.010 A 
ATOM     79  C   UNL A   1      45.129  34.504  32.035  1.00  0.00     0.010 A 
ATOM     80  C   UNL A   1      44.656  35.048  34.738  1.00  0.00     0.020 A 
ATOM     81  C   UNL A   1      45.490  35.747  32.566  1.00  0.00     0.020 A 
ATOM     82  C   UNL A   1      45.240  36.015  33.913  1.00  0.00     0.054 A 
BRANCH  82  83
ATOM     83  S   UNL A   1      45.716  37.609  34.639  1.00  0.00     0.124 S 
ATOM     84  O   UNL A   1      45.020  37.575  35.922  1.00  0.00    -0.237 OA
ATOM     85  O   UNL A   1      47.171  37.509  34.711  1.00  0.00    -0.237 OA
ATOM     86  O   UNL A   1      45.208  38.592  33.682  1.00  0.00    -0.744 OA
ENDBRANCH  82  83
ENDBRANCH  63  77
BRANCH  64  87
ATOM     87  C   UNL A   1      42.726  24.785  28.486  1.00  0.00    -0.014 A 
ATOM     88  C   UNL A   1      42.691  23.566  29.186  1.00  0.00     0.010 A 
ATOM     89  C   UNL A   1      42.552  24.777  27.090  1.00  0.00     0.010 A 
ATOM     90  C   UNL A   1      42.514  22.361  28.501  1.00  0.00     0.020 A 
ATOM     91  C   UNL A   1      42.345  23.577  26.405  1.00  0.00     0.020 A 
ATOM     92  C   UNL A   1      42.343  22.374  27.113  1.00  0.00     0.054 A 
BRANCH  92  93
ATOM     93  S   UNL A   1      42.070  20.805  26.244  1.00  0.00     0.124 S 
ATOM     94  O   UNL A   1      41.994  19.855  27.349  1.00  0.00    -0.237 OA
ATOM     95  O   UNL A   1      40.820  21.049  25.529  1.00  0.00    -0.237 OA
ATOM     96  O   UNL A   1      43.250  20.680  25.391  1.00  0.00    -0.744 OA
ENDBRANCH  92  93
ENDBRANCH  64  87
BRANCH  76  97
ATOM     97  C   UNL A   1      48.262  27.436  31.783  1.00  0.00    -0.014 A 
ATOM     98  C   UNL A   1      48.518  26.675  32.939  1.00  0.00     0.010 A 
ATOM     99  C   UNL A   1      49.311  27.668  30.875  1.00  0.00     0.010 A 
ATOM    100  C   UNL A   1      49.804  26.195  33.203  1.00  0.00     0.020 A 
ATOM    101  C   UNL A   1      50.593  27.167  31.121  1.00  0.00     0.020 A 
ATOM    102  C   UNL A   1      50.837  26.450  32.294  1.00  0.00     0.054 A 
BRANCH 102 103
ATOM    103  S   UNL A   1      52.496  25.805  32.649  1.00  0.00     0.124 S 
ATOM    104  O   UNL A   1      52.211  24.422  33.021  1.00  0.00    -0.237 OA
ATOM    105  O   UNL A   1      53.190  25.983  31.377  1.00  0.00    -0.237 OA
ATOM    106  O   UNL A   1      52.973  26.658  33.736  1.00  0.00    -0.744 OA
ENDBRANCH 102 103
ENDBRANCH  76  97
ENDBRANCH  50  51
ENDBRANCH  42  45
ENDBRANCH  40  41
ENDBRANCH   1  40
TORSDOF 18
ENDMDL
