MODEL 1
REMARK VINA RESULT:     -10.4      0.000      0.000
REMARK SMILES COc1cc(Cl)cc(/C=C/C(=O)NCCCNC(=O)c2ccc(-c3c4nc(c(-c5ccc(S(=O)(=O)[O-])cc5)c5ccc([nH]5)c(-c5ccc(S(=O)(=O)[O-])cc5)c5nc(c(-c6ccc(S(=O)(=O)[O-])cc6)c6ccc3[nH]6)C=C5)C=C4)cc2)c1OC
REMARK SMILES IDX 15 1 14 2 13 3 11 4 12 5 10 7 9 8 8 9 3 10 4 11 80 12 5 13
REMARK SMILES IDX 6 14 7 15 2 16 1 17 81 18 82 19 16 20 17 21 18 22 19 24
REMARK SMILES IDX 20 25 21 26 79 27 22 28 78 29 23 30 24 31 25 32 72 33 26 34
REMARK SMILES IDX 77 35 71 36 73 37 27 38 76 39 70 40 69 41 28 43 58 44 39 45
REMARK SMILES IDX 57 46 40 47 43 48 56 49 74 50 41 51 42 52 55 54 75 55 44 56
REMARK SMILES IDX 29 57 30 58 38 59 31 60 37 61 32 62 33 63 34 64 35 65 36 66
REMARK SMILES IDX 59 67 60 68 68 69 61 70 67 71 62 72 63 73 64 74 65 75 66 76
REMARK SMILES IDX 45 77 46 78 54 79 47 80 53 81 48 82 49 83 50 84 51 85 52 86
REMARK H PARENT 13 6 17 23 73 42 43 53
REMARK Flexibility Score: inf
ROOT
ATOM      1  C   UNL A   1      33.198  28.694  24.765  1.00  0.00     0.042 C 
ENDROOT
BRANCH   1   2
ATOM      2  C   UNL A   1      34.029  28.205  23.581  1.00  0.00     0.118 C 
BRANCH   2   3
ATOM      3  N   UNL A   1      33.192  27.606  22.554  1.00  0.00    -0.352 N 
ATOM      4  C   UNL A   1      32.889  26.304  22.309  1.00  0.00     0.244 C 
ATOM      5  O   UNL A   1      32.054  26.024  21.451  1.00  0.00    -0.270 OA
ATOM      6  H   UNL A   1      32.776  28.249  21.935  1.00  0.00     0.163 HD
BRANCH   4   7
ATOM      7  C   UNL A   1      33.472  25.218  23.125  1.00  0.00     0.072 C 
ATOM      8  C   UNL A   1      33.801  24.006  22.657  1.00  0.00     0.018 C 
BRANCH   8   9
ATOM      9  C   UNL A   1      34.374  22.935  23.498  1.00  0.00     0.022 A 
ATOM     10  C   UNL A   1      34.148  20.870  24.769  1.00  0.00     0.162 A 
ATOM     11  C   UNL A   1      35.497  20.961  25.136  1.00  0.00     0.071 A 
ATOM     12  C   UNL A   1      33.574  21.846  23.931  1.00  0.00     0.168 A 
ATOM     13  C   UNL A   1      36.266  22.040  24.715  1.00  0.00     0.045 A 
ATOM     14  Cl  UNL A   1      37.921  22.142  25.179  1.00  0.00    -0.084 Cl
ATOM     15  C   UNL A   1      35.713  23.029  23.912  1.00  0.00     0.032 A 
BRANCH  10  16
ATOM     16  O   UNL A   1      33.433  19.763  25.154  1.00  0.00    -0.493 OA
ATOM     17  C   UNL A   1      33.788  18.587  24.423  1.00  0.00     0.278 C 
ENDBRANCH  10  16
BRANCH  12  18
ATOM     18  O   UNL A   1      32.291  21.860  23.439  1.00  0.00    -0.492 OA
ATOM     19  C   UNL A   1      31.979  21.097  22.283  1.00  0.00     0.278 C 
ENDBRANCH  12  18
ENDBRANCH   8   9
ENDBRANCH   4   7
ENDBRANCH   2   3
ENDBRANCH   1   2
BRANCH   1  20
ATOM     20  C   UNL A   1      33.983  28.761  26.075  1.00  0.00     0.118 C 
BRANCH  20  21
ATOM     21  N   UNL A   1      33.785  30.027  26.770  1.00  0.00    -0.352 N 
ATOM     22  C   UNL A   1      34.534  30.621  27.757  1.00  0.00     0.251 C 
ATOM     23  H   UNL A   1      32.990  30.535  26.489  1.00  0.00     0.163 HD
ATOM     24  O   UNL A   1      34.073  31.579  28.370  1.00  0.00    -0.269 OA
BRANCH  22  25
ATOM     25  C   UNL A   1      35.880  30.108  28.091  1.00  0.00     0.039 A 
ATOM     26  C   UNL A   1      36.874  30.126  27.109  1.00  0.00     0.014 A 
ATOM     27  C   UNL A   1      36.156  29.576  29.355  1.00  0.00     0.014 A 
ATOM     28  C   UNL A   1      38.162  29.677  27.414  1.00  0.00     0.010 A 
ATOM     29  C   UNL A   1      37.455  29.190  29.677  1.00  0.00     0.010 A 
ATOM     30  C   UNL A   1      38.472  29.241  28.712  1.00  0.00    -0.014 A 
BRANCH  30  31
ATOM     31  C   UNL A   1      39.857  28.862  29.092  1.00  0.00     0.031 A 
ATOM     32  C   UNL A   1      40.771  29.868  29.740  1.00  0.00     0.074 A 
ATOM     33  C   UNL A   1      40.317  27.634  28.778  1.00  0.00     0.049 A 
ATOM     34  N   UNL A   1      42.036  29.749  30.051  1.00  0.00    -0.248 NA
ATOM     35  C   UNL A   1      40.193  31.183  30.057  1.00  0.00     0.031 C 
ATOM     36  C   UNL A   1      39.539  26.581  28.120  1.00  0.00     0.029 A 
ATOM     37  N   UNL A   1      41.556  27.068  28.955  1.00  0.00    -0.354 N 
ATOM     38  C   UNL A   1      42.411  30.978  30.584  1.00  0.00     0.074 A 
ATOM     39  C   UNL A   1      41.250  31.839  30.516  1.00  0.00     0.031 C 
ATOM     40  C   UNL A   1      40.312  25.494  27.965  1.00  0.00     0.029 A 
ATOM     41  C   UNL A   1      41.651  25.786  28.467  1.00  0.00     0.049 A 
ATOM     42  H   UNL A   1      42.304  27.536  29.390  1.00  0.00     0.167 HD
ATOM     43  C   UNL A   1      43.609  31.349  31.095  1.00  0.00     0.031 A 
ATOM     44  C   UNL A   1      42.700  24.943  28.412  1.00  0.00     0.031 A 
ATOM     45  C   UNL A   1      44.759  30.487  31.165  1.00  0.00     0.049 A 
ATOM     46  C   UNL A   1      44.027  25.388  28.961  1.00  0.00     0.074 A 
ATOM     47  C   UNL A   1      46.001  30.751  31.718  1.00  0.00     0.029 A 
ATOM     48  N   UNL A   1      44.812  29.195  30.663  1.00  0.00    -0.354 N 
ATOM     49  N   UNL A   1      44.343  26.532  29.520  1.00  0.00    -0.248 NA
ATOM     50  C   UNL A   1      45.136  24.429  28.877  1.00  0.00     0.031 C 
ATOM     51  C   UNL A   1      46.821  29.639  31.501  1.00  0.00     0.029 A 
ATOM     52  C   UNL A   1      46.074  28.660  30.865  1.00  0.00     0.049 A 
ATOM     53  H   UNL A   1      44.064  28.727  30.228  1.00  0.00     0.167 HD
ATOM     54  C   UNL A   1      45.685  26.422  29.870  1.00  0.00     0.074 A 
ATOM     55  C   UNL A   1      46.114  25.096  29.477  1.00  0.00     0.031 C 
ATOM     56  C   UNL A   1      46.487  27.339  30.465  1.00  0.00     0.031 A 
BRANCH  43  57
ATOM     57  C   UNL A   1      43.741  32.758  31.612  1.00  0.00    -0.014 A 
ATOM     58  C   UNL A   1      44.100  33.815  30.755  1.00  0.00     0.010 A 
ATOM     59  C   UNL A   1      43.461  33.038  32.962  1.00  0.00     0.010 A 
ATOM     60  C   UNL A   1      44.218  35.118  31.249  1.00  0.00     0.020 A 
ATOM     61  C   UNL A   1      43.550  34.345  33.453  1.00  0.00     0.020 A 
ATOM     62  C   UNL A   1      43.946  35.373  32.596  1.00  0.00     0.054 A 
BRANCH  62  63
ATOM     63  S   UNL A   1      44.089  37.077  33.203  1.00  0.00     0.124 S 
ATOM     64  O   UNL A   1      42.860  37.224  33.979  1.00  0.00    -0.237 OA
ATOM     65  O   UNL A   1      45.323  37.037  33.984  1.00  0.00    -0.237 OA
ATOM     66  O   UNL A   1      44.154  37.877  31.983  1.00  0.00    -0.744 OA
ENDBRANCH  62  63
ENDBRANCH  43  57
BRANCH  44  67
ATOM     67  C   UNL A   1      42.533  23.591  27.813  1.00  0.00    -0.014 A 
ATOM     68  C   UNL A   1      42.909  23.350  26.481  1.00  0.00     0.010 A 
ATOM     69  C   UNL A   1      42.018  22.529  28.581  1.00  0.00     0.010 A 
ATOM     70  C   UNL A   1      42.762  22.076  25.922  1.00  0.00     0.020 A 
ATOM     71  C   UNL A   1      41.895  21.248  28.035  1.00  0.00     0.020 A 
ATOM     72  C   UNL A   1      42.258  21.033  26.704  1.00  0.00     0.054 A 
BRANCH  72  73
ATOM     73  S   UNL A   1      42.135  19.375  25.977  1.00  0.00     0.124 S 
ATOM     74  O   UNL A   1      42.984  19.497  24.797  1.00  0.00    -0.237 OA
ATOM     75  O   UNL A   1      42.651  18.522  27.045  1.00  0.00    -0.237 OA
ATOM     76  O   UNL A   1      40.706  19.226  25.710  1.00  0.00    -0.744 OA
ENDBRANCH  72  73
ENDBRANCH  44  67
BRANCH  56  77
ATOM     77  C   UNL A   1      47.910  26.938  30.746  1.00  0.00    -0.014 A 
ATOM     78  C   UNL A   1      48.937  27.216  29.827  1.00  0.00     0.010 A 
ATOM     79  C   UNL A   1      48.234  26.338  31.977  1.00  0.00     0.010 A 
ATOM     80  C   UNL A   1      50.261  26.885  30.127  1.00  0.00     0.020 A 
ATOM     81  C   UNL A   1      49.559  26.029  32.291  1.00  0.00     0.020 A 
ATOM     82  C   UNL A   1      50.564  26.297  31.359  1.00  0.00     0.054 A 
BRANCH  82  83
ATOM     83  S   UNL A   1      52.298  25.937  31.750  1.00  0.00     0.124 S 
ATOM     84  O   UNL A   1      52.955  26.175  30.468  1.00  0.00    -0.237 OA
ATOM     85  O   UNL A   1      52.599  26.908  32.800  1.00  0.00    -0.237 OA
ATOM     86  O   UNL A   1      52.273  24.543  32.188  1.00  0.00    -0.744 OA
ENDBRANCH  82  83
ENDBRANCH  56  77
ENDBRANCH  30  31
ENDBRANCH  22  25
ENDBRANCH  20  21
ENDBRANCH   1  20
TORSDOF 16
ENDMDL
MODEL 2
REMARK VINA RESULT:     -10.2      4.829     10.674
REMARK SMILES COc1cc(Cl)cc(/C=C/C(=O)NCCCNC(=O)c2ccc(-c3c4nc(c(-c5ccc(S(=O)(=O)[O-])cc5)c5ccc([nH]5)c(-c5ccc(S(=O)(=O)[O-])cc5)c5nc(c(-c6ccc(S(=O)(=O)[O-])cc6)c6ccc3[nH]6)C=C5)C=C4)cc2)c1OC
REMARK SMILES IDX 15 1 14 2 13 3 11 4 12 5 10 7 9 8 8 9 3 10 4 11 80 12 5 13
REMARK SMILES IDX 6 14 7 15 2 16 1 17 81 18 82 19 16 20 17 21 18 22 19 24
REMARK SMILES IDX 20 25 21 26 79 27 22 28 78 29 23 30 24 31 25 32 72 33 26 34
REMARK SMILES IDX 77 35 71 36 73 37 27 38 76 39 70 40 69 41 28 43 58 44 39 45
REMARK SMILES IDX 57 46 40 47 43 48 56 49 74 50 41 51 42 52 55 54 75 55 44 56
REMARK SMILES IDX 29 57 30 58 38 59 31 60 37 61 32 62 33 63 34 64 35 65 36 66
REMARK SMILES IDX 59 67 60 68 68 69 61 70 67 71 62 72 63 73 64 74 65 75 66 76
REMARK SMILES IDX 45 77 46 78 54 79 47 80 53 81 48 82 49 83 50 84 51 85 52 86
REMARK H PARENT 13 6 17 23 73 42 43 53
REMARK Flexibility Score: inf
ROOT
ATOM      1  C   UNL A   1      37.277  23.354  25.455  1.00  0.00     0.042 C 
ENDROOT
BRANCH   1   2
ATOM      2  C   UNL A   1      35.950  24.066  25.204  1.00  0.00     0.118 C 
BRANCH   2   3
ATOM      3  N   UNL A   1      34.846  23.383  25.859  1.00  0.00    -0.352 N 
ATOM      4  C   UNL A   1      33.641  23.851  26.277  1.00  0.00     0.244 C 
ATOM      5  O   UNL A   1      32.797  23.065  26.704  1.00  0.00    -0.270 OA
ATOM      6  H   UNL A   1      34.997  22.426  26.028  1.00  0.00     0.163 HD
BRANCH   4   7
ATOM      7  C   UNL A   1      33.284  25.278  26.132  1.00  0.00     0.072 C 
ATOM      8  C   UNL A   1      32.269  25.738  25.387  1.00  0.00     0.018 C 
BRANCH   8   9
ATOM      9  C   UNL A   1      31.940  27.172  25.253  1.00  0.00     0.022 A 
ATOM     10  C   UNL A   1      30.706  28.987  24.199  1.00  0.00     0.162 A 
ATOM     11  C   UNL A   1      31.395  29.907  25.001  1.00  0.00     0.071 A 
ATOM     12  C   UNL A   1      30.957  27.607  24.328  1.00  0.00     0.168 A 
ATOM     13  C   UNL A   1      32.364  29.468  25.895  1.00  0.00     0.045 A 
ATOM     14  Cl  UNL A   1      33.207  30.609  26.870  1.00  0.00    -0.084 Cl
ATOM     15  C   UNL A   1      32.648  28.113  26.018  1.00  0.00     0.032 A 
BRANCH  10  16
ATOM     16  O   UNL A   1      29.715  29.449  23.368  1.00  0.00    -0.493 OA
ATOM     17  C   UNL A   1      30.190  29.774  22.060  1.00  0.00     0.278 C 
ENDBRANCH  10  16
BRANCH  12  18
ATOM     18  O   UNL A   1      30.322  26.588  23.659  1.00  0.00    -0.492 OA
ATOM     19  C   UNL A   1      28.941  26.354  23.893  1.00  0.00     0.278 C 
ENDBRANCH  12  18
ENDBRANCH   8   9
ENDBRANCH   4   7
ENDBRANCH   2   3
ENDBRANCH   1   2
BRANCH   1  20
ATOM     20  C   UNL A   1      38.175  24.075  26.460  1.00  0.00     0.118 C 
BRANCH  20  21
ATOM     21  N   UNL A   1      39.590  23.852  26.191  1.00  0.00    -0.352 N 
ATOM     22  C   UNL A   1      40.687  24.598  26.550  1.00  0.00     0.251 C 
ATOM     23  H   UNL A   1      39.792  23.041  25.672  1.00  0.00     0.163 HD
ATOM     24  O   UNL A   1      41.774  24.360  26.032  1.00  0.00    -0.269 OA
BRANCH  22  25
ATOM     25  C   UNL A   1      40.565  25.687  27.542  1.00  0.00     0.039 A 
ATOM     26  C   UNL A   1      39.601  25.579  28.550  1.00  0.00     0.014 A 
ATOM     27  C   UNL A   1      41.368  26.829  27.463  1.00  0.00     0.014 A 
ATOM     28  C   UNL A   1      39.491  26.582  29.517  1.00  0.00     0.010 A 
ATOM     29  C   UNL A   1      41.301  27.796  28.464  1.00  0.00     0.010 A 
ATOM     30  C   UNL A   1      40.366  27.680  29.504  1.00  0.00    -0.014 A 
BRANCH  30  31
ATOM     31  C   UNL A   1      40.343  28.703  30.581  1.00  0.00     0.031 A 
ATOM     32  C   UNL A   1      41.251  28.572  31.774  1.00  0.00     0.074 A 
ATOM     33  C   UNL A   1      39.443  29.705  30.522  1.00  0.00     0.049 A 
ATOM     34  N   UNL A   1      41.303  29.309  32.853  1.00  0.00    -0.248 NA
ATOM     35  C   UNL A   1      42.210  27.456  31.761  1.00  0.00     0.031 C 
ATOM     36  C   UNL A   1      38.486  29.921  29.434  1.00  0.00     0.029 A 
ATOM     37  N   UNL A   1      39.175  30.722  31.404  1.00  0.00    -0.354 N 
ATOM     38  C   UNL A   1      42.284  28.738  33.655  1.00  0.00     0.074 A 
ATOM     39  C   UNL A   1      42.773  27.569  32.956  1.00  0.00     0.031 C 
ATOM     40  C   UNL A   1      37.750  31.010  29.705  1.00  0.00     0.029 A 
ATOM     41  C   UNL A   1      38.148  31.543  31.004  1.00  0.00     0.049 A 
ATOM     42  H   UNL A   1      39.673  30.852  32.244  1.00  0.00     0.167 HD
ATOM     43  C   UNL A   1      42.744  29.156  34.859  1.00  0.00     0.031 A 
ATOM     44  C   UNL A   1      37.574  32.596  31.619  1.00  0.00     0.031 A 
ATOM     45  C   UNL A   1      42.259  30.322  35.548  1.00  0.00     0.049 A 
ATOM     46  C   UNL A   1      38.084  33.024  32.967  1.00  0.00     0.074 A 
ATOM     47  C   UNL A   1      42.701  30.862  36.744  1.00  0.00     0.029 A 
ATOM     48  N   UNL A   1      41.219  31.127  35.107  1.00  0.00    -0.354 N 
ATOM     49  N   UNL A   1      39.057  32.508  33.680  1.00  0.00    -0.248 NA
ATOM     50  C   UNL A   1      37.423  34.178  33.591  1.00  0.00     0.031 C 
ATOM     51  C   UNL A   1      41.893  31.960  37.053  1.00  0.00     0.029 A 
ATOM     52  C   UNL A   1      40.984  32.141  36.021  1.00  0.00     0.049 A 
ATOM     53  H   UNL A   1      40.721  30.997  34.267  1.00  0.00     0.167 HD
ATOM     54  C   UNL A   1      39.136  33.287  34.829  1.00  0.00     0.074 A 
ATOM     55  C   UNL A   1      38.127  34.318  34.708  1.00  0.00     0.031 C 
ATOM     56  C   UNL A   1      39.972  33.158  35.888  1.00  0.00     0.031 A 
BRANCH  43  57
ATOM     57  C   UNL A   1      43.826  28.338  35.515  1.00  0.00    -0.014 A 
ATOM     58  C   UNL A   1      45.186  28.606  35.275  1.00  0.00     0.010 A 
ATOM     59  C   UNL A   1      43.481  27.314  36.417  1.00  0.00     0.010 A 
ATOM     60  C   UNL A   1      46.180  27.840  35.891  1.00  0.00     0.020 A 
ATOM     61  C   UNL A   1      44.472  26.564  37.058  1.00  0.00     0.020 A 
ATOM     62  C   UNL A   1      45.815  26.820  36.776  1.00  0.00     0.054 A 
BRANCH  62  63
ATOM     63  S   UNL A   1      47.127  25.855  37.576  1.00  0.00     0.124 S 
ATOM     64  O   UNL A   1      47.520  24.939  36.507  1.00  0.00    -0.237 OA
ATOM     65  O   UNL A   1      48.112  26.876  37.921  1.00  0.00    -0.237 OA
ATOM     66  O   UNL A   1      46.456  25.232  38.713  1.00  0.00    -0.744 OA
ENDBRANCH  62  63
ENDBRANCH  43  57
BRANCH  44  67
ATOM     67  C   UNL A   1      36.450  33.316  30.960  1.00  0.00    -0.014 A 
ATOM     68  C   UNL A   1      35.189  33.385  31.577  1.00  0.00     0.010 A 
ATOM     69  C   UNL A   1      36.642  33.957  29.722  1.00  0.00     0.010 A 
ATOM     70  C   UNL A   1      34.137  34.071  30.962  1.00  0.00     0.020 A 
ATOM     71  C   UNL A   1      35.601  34.667  29.118  1.00  0.00     0.020 A 
ATOM     72  C   UNL A   1      34.351  34.711  29.737  1.00  0.00     0.054 A 
BRANCH  72  73
ATOM     73  S   UNL A   1      32.989  35.648  28.989  1.00  0.00     0.124 S 
ATOM     74  O   UNL A   1      32.419  34.671  28.068  1.00  0.00    -0.237 OA
ATOM     75  O   UNL A   1      32.164  35.985  30.147  1.00  0.00    -0.237 OA
ATOM     76  O   UNL A   1      33.661  36.784  28.362  1.00  0.00    -0.744 OA
ENDBRANCH  72  73
ENDBRANCH  44  67
BRANCH  56  77
ATOM     77  C   UNL A   1      39.847  34.166  36.998  1.00  0.00    -0.014 A 
ATOM     78  C   UNL A   1      40.402  35.453  36.875  1.00  0.00     0.010 A 
ATOM     79  C   UNL A   1      39.105  33.845  38.150  1.00  0.00     0.010 A 
ATOM     80  C   UNL A   1      40.230  36.395  37.893  1.00  0.00     0.020 A 
ATOM     81  C   UNL A   1      38.910  34.792  39.158  1.00  0.00     0.020 A 
ATOM     82  C   UNL A   1      39.483  36.059  39.027  1.00  0.00     0.054 A 
BRANCH  82  83
ATOM     83  S   UNL A   1      39.221  37.321  40.303  1.00  0.00     0.124 S 
ATOM     84  O   UNL A   1      38.528  36.564  41.342  1.00  0.00    -0.237 OA
ATOM     85  O   UNL A   1      40.585  37.733  40.631  1.00  0.00    -0.237 OA
ATOM     86  O   UNL A   1      38.416  38.336  39.628  1.00  0.00    -0.744 OA
ENDBRANCH  82  83
ENDBRANCH  56  77
ENDBRANCH  30  31
ENDBRANCH  22  25
ENDBRANCH  20  21
ENDBRANCH   1  20
TORSDOF 16
ENDMDL
MODEL 3
REMARK VINA RESULT:     -10.1      3.114      9.504
REMARK SMILES COc1cc(Cl)cc(/C=C/C(=O)NCCCNC(=O)c2ccc(-c3c4nc(c(-c5ccc(S(=O)(=O)[O-])cc5)c5ccc([nH]5)c(-c5ccc(S(=O)(=O)[O-])cc5)c5nc(c(-c6ccc(S(=O)(=O)[O-])cc6)c6ccc3[nH]6)C=C5)C=C4)cc2)c1OC
REMARK SMILES IDX 15 1 14 2 13 3 11 4 12 5 10 7 9 8 8 9 3 10 4 11 80 12 5 13
REMARK SMILES IDX 6 14 7 15 2 16 1 17 81 18 82 19 16 20 17 21 18 22 19 24
REMARK SMILES IDX 20 25 21 26 79 27 22 28 78 29 23 30 24 31 25 32 72 33 26 34
REMARK SMILES IDX 77 35 71 36 73 37 27 38 76 39 70 40 69 41 28 43 58 44 39 45
REMARK SMILES IDX 57 46 40 47 43 48 56 49 74 50 41 51 42 52 55 54 75 55 44 56
REMARK SMILES IDX 29 57 30 58 38 59 31 60 37 61 32 62 33 63 34 64 35 65 36 66
REMARK SMILES IDX 59 67 60 68 68 69 61 70 67 71 62 72 63 73 64 74 65 75 66 76
REMARK SMILES IDX 45 77 46 78 54 79 47 80 53 81 48 82 49 83 50 84 51 85 52 86
REMARK H PARENT 13 6 17 23 73 42 43 53
REMARK Flexibility Score: inf
ROOT
ATOM      1  C   UNL A   1      35.458  23.430  25.028  1.00  0.00     0.042 C 
ENDROOT
BRANCH   1   2
ATOM      2  C   UNL A   1      34.978  23.721  26.448  1.00  0.00     0.118 C 
BRANCH   2   3
ATOM      3  N   UNL A   1      33.742  23.016  26.748  1.00  0.00    -0.352 N 
ATOM      4  C   UNL A   1      32.451  23.439  26.710  1.00  0.00     0.244 C 
ATOM      5  O   UNL A   1      31.540  22.633  26.888  1.00  0.00    -0.270 OA
ATOM      6  H   UNL A   1      33.859  22.078  27.023  1.00  0.00     0.163 HD
BRANCH   4   7
ATOM      7  C   UNL A   1      32.116  24.836  26.359  1.00  0.00     0.072 C 
ATOM      8  C   UNL A   1      32.002  25.299  25.106  1.00  0.00     0.018 C 
BRANCH   8   9
ATOM      9  C   UNL A   1      31.675  26.702  24.782  1.00  0.00     0.022 A 
ATOM     10  C   UNL A   1      30.959  28.417  23.207  1.00  0.00     0.162 A 
ATOM     11  C   UNL A   1      31.121  29.387  24.207  1.00  0.00     0.071 A 
ATOM     12  C   UNL A   1      31.217  27.061  23.488  1.00  0.00     0.168 A 
ATOM     13  C   UNL A   1      31.581  29.023  25.467  1.00  0.00     0.045 A 
ATOM     14  Cl  UNL A   1      31.781  30.225  26.683  1.00  0.00    -0.084 Cl
ATOM     15  C   UNL A   1      31.869  27.695  25.756  1.00  0.00     0.032 A 
BRANCH  10  16
ATOM     16  O   UNL A   1      30.448  28.801  21.992  1.00  0.00    -0.493 OA
ATOM     17  C   UNL A   1      29.648  29.983  22.072  1.00  0.00     0.278 C 
ENDBRANCH  10  16
BRANCH  12  18
ATOM     18  O   UNL A   1      31.047  25.996  22.635  1.00  0.00    -0.492 OA
ATOM     19  C   UNL A   1      31.952  25.815  21.556  1.00  0.00     0.278 C 
ENDBRANCH  12  18
ENDBRANCH   8   9
ENDBRANCH   4   7
ENDBRANCH   2   3
ENDBRANCH   1   2
BRANCH   1  20
ATOM     20  C   UNL A   1      36.928  23.777  24.798  1.00  0.00     0.118 C 
BRANCH  20  21
ATOM     21  N   UNL A   1      37.822  22.733  25.284  1.00  0.00    -0.352 N 
ATOM     22  C   UNL A   1      38.961  22.827  26.046  1.00  0.00     0.251 C 
ATOM     23  H   UNL A   1      37.571  21.817  25.025  1.00  0.00     0.163 HD
ATOM     24  O   UNL A   1      39.695  21.850  26.157  1.00  0.00    -0.269 OA
BRANCH  22  25
ATOM     25  C   UNL A   1      39.312  24.095  26.721  1.00  0.00     0.039 A 
ATOM     26  C   UNL A   1      38.836  24.327  28.015  1.00  0.00     0.014 A 
ATOM     27  C   UNL A   1      40.075  25.071  26.072  1.00  0.00     0.014 A 
ATOM     28  C   UNL A   1      39.184  25.505  28.683  1.00  0.00     0.010 A 
ATOM     29  C   UNL A   1      40.474  26.213  26.762  1.00  0.00     0.010 A 
ATOM     30  C   UNL A   1      40.037  26.440  28.076  1.00  0.00    -0.014 A 
BRANCH  30  31
ATOM     31  C   UNL A   1      40.509  27.645  28.804  1.00  0.00     0.031 A 
ATOM     32  C   UNL A   1      41.853  27.646  29.484  1.00  0.00     0.074 A 
ATOM     33  C   UNL A   1      39.691  28.710  28.923  1.00  0.00     0.049 A 
ATOM     34  N   UNL A   1      42.389  28.565  30.243  1.00  0.00    -0.248 NA
ATOM     35  C   UNL A   1      42.690  26.450  29.302  1.00  0.00     0.031 C 
ATOM     36  C   UNL A   1      38.351  28.818  28.338  1.00  0.00     0.029 A 
ATOM     37  N   UNL A   1      39.857  29.899  29.588  1.00  0.00    -0.354 N 
ATOM     38  C   UNL A   1      43.618  28.054  30.646  1.00  0.00     0.074 A 
ATOM     39  C   UNL A   1      43.728  26.727  30.079  1.00  0.00     0.031 C 
ATOM     40  C   UNL A   1      37.827  30.012  28.655  1.00  0.00     0.029 A 
ATOM     41  C   UNL A   1      38.769  30.735  29.503  1.00  0.00     0.049 A 
ATOM     42  H   UNL A   1      40.678  30.132  30.078  1.00  0.00     0.167 HD
ATOM     43  C   UNL A   1      44.572  28.641  31.408  1.00  0.00     0.031 A 
ATOM     44  C   UNL A   1      38.543  31.942  30.058  1.00  0.00     0.031 A 
ATOM     45  C   UNL A   1      44.459  29.963  31.966  1.00  0.00     0.049 A 
ATOM     46  C   UNL A   1      39.606  32.562  30.923  1.00  0.00     0.074 A 
ATOM     47  C   UNL A   1      45.395  30.669  32.702  1.00  0.00     0.029 A 
ATOM     48  N   UNL A   1      43.342  30.777  31.854  1.00  0.00    -0.354 N 
ATOM     49  N   UNL A   1      40.788  32.087  31.238  1.00  0.00    -0.248 NA
ATOM     50  C   UNL A   1      39.308  33.878  31.502  1.00  0.00     0.031 C 
ATOM     51  C   UNL A   1      44.823  31.887  33.081  1.00  0.00     0.029 A 
ATOM     52  C   UNL A   1      43.553  31.966  32.533  1.00  0.00     0.049 A 
ATOM     53  H   UNL A   1      42.521  30.545  31.363  1.00  0.00     0.167 HD
ATOM     54  C   UNL A   1      41.381  33.058  32.039  1.00  0.00     0.074 A 
ATOM     55  C   UNL A   1      40.437  34.150  32.144  1.00  0.00     0.031 C 
ATOM     56  C   UNL A   1      42.600  33.043  32.632  1.00  0.00     0.031 A 
BRANCH  43  57
ATOM     57  C   UNL A   1      45.822  27.850  31.693  1.00  0.00    -0.014 A 
ATOM     58  C   UNL A   1      46.922  27.889  30.816  1.00  0.00     0.010 A 
ATOM     59  C   UNL A   1      45.918  27.091  32.874  1.00  0.00     0.010 A 
ATOM     60  C   UNL A   1      48.076  27.151  31.093  1.00  0.00     0.020 A 
ATOM     61  C   UNL A   1      47.081  26.374  33.170  1.00  0.00     0.020 A 
ATOM     62  C   UNL A   1      48.146  26.395  32.267  1.00  0.00     0.054 A 
BRANCH  62  63
ATOM     63  S   UNL A   1      49.665  25.462  32.610  1.00  0.00     0.124 S 
ATOM     64  O   UNL A   1      50.457  26.441  33.350  1.00  0.00    -0.237 OA
ATOM     65  O   UNL A   1      49.176  24.329  33.391  1.00  0.00    -0.237 OA
ATOM     66  O   UNL A   1      50.173  25.126  31.282  1.00  0.00    -0.744 OA
ENDBRANCH  62  63
ENDBRANCH  43  57
BRANCH  44  67
ATOM     67  C   UNL A   1      37.253  32.642  29.811  1.00  0.00    -0.014 A 
ATOM     68  C   UNL A   1      36.170  32.471  30.689  1.00  0.00     0.010 A 
ATOM     69  C   UNL A   1      37.108  33.501  28.705  1.00  0.00     0.010 A 
ATOM     70  C   UNL A   1      34.961  33.137  30.462  1.00  0.00     0.020 A 
ATOM     71  C   UNL A   1      35.912  34.190  28.490  1.00  0.00     0.020 A 
ATOM     72  C   UNL A   1      34.841  33.995  29.364  1.00  0.00     0.054 A 
BRANCH  72  73
ATOM     73  S   UNL A   1      33.285  34.897  29.124  1.00  0.00     0.124 S 
ATOM     74  O   UNL A   1      33.753  36.175  28.599  1.00  0.00    -0.237 OA
ATOM     75  O   UNL A   1      32.569  34.046  28.177  1.00  0.00    -0.237 OA
ATOM     76  O   UNL A   1      32.708  34.943  30.466  1.00  0.00    -0.744 OA
ENDBRANCH  72  73
ENDBRANCH  44  67
BRANCH  56  77
ATOM     77  C   UNL A   1      42.996  34.252  33.436  1.00  0.00    -0.014 A 
ATOM     78  C   UNL A   1      42.879  34.261  34.837  1.00  0.00     0.010 A 
ATOM     79  C   UNL A   1      43.557  35.367  32.786  1.00  0.00     0.010 A 
ATOM     80  C   UNL A   1      43.301  35.371  35.573  1.00  0.00     0.020 A 
ATOM     81  C   UNL A   1      44.004  36.468  33.520  1.00  0.00     0.020 A 
ATOM     82  C   UNL A   1      43.864  36.466  34.910  1.00  0.00     0.054 A 
BRANCH  82  83
ATOM     83  S   UNL A   1      44.462  37.868  35.894  1.00  0.00     0.124 S 
ATOM     84  O   UNL A   1      43.610  37.794  37.078  1.00  0.00    -0.237 OA
ATOM     85  O   UNL A   1      45.868  37.530  36.111  1.00  0.00    -0.237 OA
ATOM     86  O   UNL A   1      44.231  39.023  35.029  1.00  0.00    -0.744 OA
ENDBRANCH  82  83
ENDBRANCH  56  77
ENDBRANCH  30  31
ENDBRANCH  22  25
ENDBRANCH  20  21
ENDBRANCH   1  20
TORSDOF 16
ENDMDL
