MODEL 1
REMARK VINA RESULT:     -11.7      0.000      0.000
REMARK SMILES Cc1cc(F)cc(N[C@@](C)(C(=O)NCCCNC(=O)c2ccc(-c3c4nc(c(-c5ccc(S(=O)(=O)[O-])cc5)c5ccc([nH]5)c(-c5ccc(S(=O)(=O)[O-])cc5)c5nc(c(-c6ccc(S(=O)(=O)[O-])cc6)c6ccc3[nH]6)C=C5)C=C4)cc2)c2ccc(O)cc2)c1
REMARK SMILES IDX 15 1 14 2 13 3 11 4 12 5 9 7 10 8 8 9 7 11 1 12 2 13 3 14
REMARK SMILES IDX 87 15 4 16 5 17 6 18 80 19 81 20 86 21 82 22 85 23 83 24
REMARK SMILES IDX 84 25 16 27 17 28 18 29 19 31 20 32 21 33 79 34 22 35 78 36
REMARK SMILES IDX 23 37 24 38 25 39 72 40 26 41 77 42 71 43 73 44 27 45 76 46
REMARK SMILES IDX 70 47 69 48 28 50 58 51 39 52 57 53 40 54 43 55 56 56 74 57
REMARK SMILES IDX 41 58 42 59 55 61 75 62 44 63 29 64 30 65 38 66 31 67 37 68
REMARK SMILES IDX 32 69 33 70 34 71 35 72 36 73 59 74 60 75 68 76 61 77 67 78
REMARK SMILES IDX 62 79 63 80 64 81 65 82 66 83 45 84 46 85 54 86 47 87 53 88
REMARK SMILES IDX 48 89 49 90 50 91 51 92 52 93
REMARK H PARENT 13 6 8 10 84 26 17 30 73 49 43 60
REMARK Flexibility Score: inf
ROOT
ATOM      1  C   UNL A   1      33.292  27.821  26.792  1.00  0.00     0.042 C 
ENDROOT
BRANCH   1   2
ATOM      2  C   UNL A   1      31.784  28.016  26.809  1.00  0.00     0.117 C 
BRANCH   2   3
ATOM      3  N   UNL A   1      31.065  26.758  26.884  1.00  0.00    -0.354 N 
ATOM      4  C   UNL A   1      30.695  25.833  25.946  1.00  0.00     0.250 C 
ATOM      5  O   UNL A   1      29.914  24.975  26.379  1.00  0.00    -0.272 OA
ATOM      6  H   UNL A   1      30.786  26.521  27.798  1.00  0.00     0.163 HD
BRANCH   4   7
ATOM      7  C   UNL A   1      31.203  25.879  24.441  1.00  0.00     0.139 C 
ATOM      8  C   UNL A   1      30.548  24.750  23.605  1.00  0.00     0.051 C 
BRANCH   7   9
ATOM      9  N   UNL A   1      32.678  25.651  24.476  1.00  0.00    -0.368 N 
ATOM     10  H   UNL A   1      33.209  26.406  24.135  1.00  0.00     0.161 HD
BRANCH   9  11
ATOM     11  C   UNL A   1      33.436  24.572  24.900  1.00  0.00     0.038 A 
ATOM     12  C   UNL A   1      36.626  22.835  23.645  1.00  0.00     0.044 C 
ATOM     13  C   UNL A   1      35.497  23.260  24.535  1.00  0.00    -0.046 A 
ATOM     14  C   UNL A   1      35.442  22.809  25.852  1.00  0.00     0.042 A 
ATOM     15  C   UNL A   1      34.514  24.162  24.087  1.00  0.00     0.029 A 
ATOM     16  C   UNL A   1      34.347  23.140  26.634  1.00  0.00     0.125 A 
ATOM     17  F   UNL A   1      34.291  22.703  27.900  1.00  0.00    -0.207 F 
ATOM     18  C   UNL A   1      33.325  23.954  26.145  1.00  0.00     0.065 A 
ENDBRANCH   9  11
ENDBRANCH   7   9
BRANCH   7  19
ATOM     19  C   UNL A   1      30.769  27.154  23.657  1.00  0.00    -0.013 A 
ATOM     20  C   UNL A   1      29.404  27.476  23.490  1.00  0.00     0.010 A 
ATOM     21  C   UNL A   1      31.705  28.066  23.135  1.00  0.00     0.010 A 
ATOM     22  C   UNL A   1      29.003  28.531  22.666  1.00  0.00     0.046 A 
ATOM     23  C   UNL A   1      31.308  29.137  22.329  1.00  0.00     0.046 A 
ATOM     24  C   UNL A   1      29.961  29.331  22.066  1.00  0.00     0.115 A 
BRANCH  24  25
ATOM     25  O   UNL A   1      29.545  30.307  21.209  1.00  0.00    -0.508 OA
ATOM     26  H   UNL A   1      30.175  30.848  20.775  1.00  0.00     0.293 HD
ENDBRANCH  24  25
ENDBRANCH   7  19
ENDBRANCH   4   7
ENDBRANCH   2   3
ENDBRANCH   1   2
BRANCH   1  27
ATOM     27  C   UNL A   1      34.070  28.988  26.201  1.00  0.00     0.118 C 
BRANCH  27  28
ATOM     28  N   UNL A   1      33.897  30.224  26.952  1.00  0.00    -0.352 N 
ATOM     29  C   UNL A   1      34.677  30.785  27.937  1.00  0.00     0.251 C 
ATOM     30  H   UNL A   1      33.092  30.740  26.718  1.00  0.00     0.163 HD
ATOM     31  O   UNL A   1      34.248  31.744  28.569  1.00  0.00    -0.269 OA
BRANCH  29  32
ATOM     32  C   UNL A   1      36.011  30.225  28.249  1.00  0.00     0.039 A 
ATOM     33  C   UNL A   1      36.987  30.203  27.250  1.00  0.00     0.014 A 
ATOM     34  C   UNL A   1      36.300  29.708  29.514  1.00  0.00     0.014 A 
ATOM     35  C   UNL A   1      38.269  29.729  27.542  1.00  0.00     0.010 A 
ATOM     36  C   UNL A   1      37.602  29.335  29.832  1.00  0.00     0.010 A 
ATOM     37  C   UNL A   1      38.599  29.327  28.847  1.00  0.00    -0.014 A 
BRANCH  37  38
ATOM     38  C   UNL A   1      39.973  28.884  29.199  1.00  0.00     0.031 A 
ATOM     39  C   UNL A   1      40.927  29.834  29.871  1.00  0.00     0.074 A 
ATOM     40  C   UNL A   1      40.388  27.652  28.847  1.00  0.00     0.049 A 
ATOM     41  N   UNL A   1      42.179  29.647  30.207  1.00  0.00    -0.248 NA
ATOM     42  C   UNL A   1      40.420  31.181  30.177  1.00  0.00     0.031 C 
ATOM     43  C   UNL A   1      39.580  26.655  28.140  1.00  0.00     0.029 A 
ATOM     44  N   UNL A   1      41.599  27.030  29.026  1.00  0.00    -0.354 N 
ATOM     45  C   UNL A   1      42.611  30.856  30.741  1.00  0.00     0.074 A 
ATOM     46  C   UNL A   1      41.509  31.785  30.625  1.00  0.00     0.031 C 
ATOM     47  C   UNL A   1      40.307  25.540  27.970  1.00  0.00     0.029 A 
ATOM     48  C   UNL A   1      41.645  25.755  28.514  1.00  0.00     0.049 A 
ATOM     49  H   UNL A   1      42.362  27.457  29.479  1.00  0.00     0.167 HD
ATOM     50  C   UNL A   1      43.809  31.163  31.297  1.00  0.00     0.031 A 
ATOM     51  C   UNL A   1      42.651  24.859  28.474  1.00  0.00     0.031 A 
ATOM     52  C   UNL A   1      44.903  30.235  31.407  1.00  0.00     0.049 A 
ATOM     53  C   UNL A   1      43.972  25.213  29.095  1.00  0.00     0.074 A 
ATOM     54  C   UNL A   1      46.136  30.423  32.006  1.00  0.00     0.029 A 
ATOM     55  N   UNL A   1      44.902  28.945  30.894  1.00  0.00    -0.354 N 
ATOM     56  N   UNL A   1      44.337  26.334  29.670  1.00  0.00    -0.248 NA
ATOM     57  C   UNL A   1      45.011  24.175  29.080  1.00  0.00     0.031 C 
ATOM     58  C   UNL A   1      46.903  29.272  31.800  1.00  0.00     0.029 A 
ATOM     59  C   UNL A   1      46.123  28.337  31.136  1.00  0.00     0.049 A 
ATOM     60  H   UNL A   1      44.145  28.524  30.426  1.00  0.00     0.167 HD
ATOM     61  C   UNL A   1      45.642  26.130  30.105  1.00  0.00     0.074 A 
ATOM     62  C   UNL A   1      45.995  24.773  29.741  1.00  0.00     0.031 C 
ATOM     63  C   UNL A   1      46.468  26.989  30.754  1.00  0.00     0.031 A 
BRANCH  50  64
ATOM     64  C   UNL A   1      43.993  32.573  31.802  1.00  0.00    -0.014 A 
ATOM     65  C   UNL A   1      44.506  33.588  30.974  1.00  0.00     0.010 A 
ATOM     66  C   UNL A   1      43.658  32.886  33.132  1.00  0.00     0.010 A 
ATOM     67  C   UNL A   1      44.753  34.865  31.484  1.00  0.00     0.020 A 
ATOM     68  C   UNL A   1      43.868  34.174  33.637  1.00  0.00     0.020 A 
ATOM     69  C   UNL A   1      44.443  35.145  32.818  1.00  0.00     0.054 A 
BRANCH  69  70
ATOM     70  S   UNL A   1      44.800  36.803  33.463  1.00  0.00     0.124 S 
ATOM     71  O   UNL A   1      46.101  36.603  34.097  1.00  0.00    -0.237 OA
ATOM     72  O   UNL A   1      44.812  37.622  32.254  1.00  0.00    -0.237 OA
ATOM     73  O   UNL A   1      43.694  37.064  34.379  1.00  0.00    -0.744 OA
ENDBRANCH  69  70
ENDBRANCH  50  64
BRANCH  51  74
ATOM     74  C   UNL A   1      42.420  23.537  27.833  1.00  0.00    -0.014 A 
ATOM     75  C   UNL A   1      42.809  23.307  26.502  1.00  0.00     0.010 A 
ATOM     76  C   UNL A   1      41.877  22.473  28.579  1.00  0.00     0.010 A 
ATOM     77  C   UNL A   1      42.666  22.039  25.931  1.00  0.00     0.020 A 
ATOM     78  C   UNL A   1      41.759  21.198  28.022  1.00  0.00     0.020 A 
ATOM     79  C   UNL A   1      42.154  20.989  26.700  1.00  0.00     0.054 A 
BRANCH  79  80
ATOM     80  S   UNL A   1      42.079  19.328  25.972  1.00  0.00     0.124 S 
ATOM     81  O   UNL A   1      40.653  19.177  25.700  1.00  0.00    -0.237 OA
ATOM     82  O   UNL A   1      42.937  19.462  24.797  1.00  0.00    -0.237 OA
ATOM     83  O   UNL A   1      42.611  18.468  27.026  1.00  0.00    -0.744 OA
ENDBRANCH  79  80
ENDBRANCH  51  74
BRANCH  63  84
ATOM     84  C   UNL A   1      47.834  26.479  31.141  1.00  0.00    -0.014 A 
ATOM     85  C   UNL A   1      48.936  26.602  30.276  1.00  0.00     0.010 A 
ATOM     86  C   UNL A   1      48.025  25.918  32.417  1.00  0.00     0.010 A 
ATOM     87  C   UNL A   1      50.195  26.138  30.668  1.00  0.00     0.020 A 
ATOM     88  C   UNL A   1      49.288  25.483  32.825  1.00  0.00     0.020 A 
ATOM     89  C   UNL A   1      50.364  25.583  31.941  1.00  0.00     0.054 A 
BRANCH  89  90
ATOM     90  S   UNL A   1      52.016  25.025  32.438  1.00  0.00     0.124 S 
ATOM     91  O   UNL A   1      51.840  23.577  32.508  1.00  0.00    -0.237 OA
ATOM     92  O   UNL A   1      52.858  25.505  31.345  1.00  0.00    -0.237 OA
ATOM     93  O   UNL A   1      52.234  25.689  33.722  1.00  0.00    -0.744 OA
ENDBRANCH  89  90
ENDBRANCH  63  84
ENDBRANCH  37  38
ENDBRANCH  29  32
ENDBRANCH  27  28
ENDBRANCH   1  27
TORSDOF 17
ENDMDL
MODEL 2
REMARK VINA RESULT:     -11.6      1.760      2.772
REMARK SMILES Cc1cc(F)cc(N[C@@](C)(C(=O)NCCCNC(=O)c2ccc(-c3c4nc(c(-c5ccc(S(=O)(=O)[O-])cc5)c5ccc([nH]5)c(-c5ccc(S(=O)(=O)[O-])cc5)c5nc(c(-c6ccc(S(=O)(=O)[O-])cc6)c6ccc3[nH]6)C=C5)C=C4)cc2)c2ccc(O)cc2)c1
REMARK SMILES IDX 15 1 14 2 13 3 11 4 12 5 9 7 10 8 8 9 7 11 1 12 2 13 3 14
REMARK SMILES IDX 87 15 4 16 5 17 6 18 80 19 81 20 86 21 82 22 85 23 83 24
REMARK SMILES IDX 84 25 16 27 17 28 18 29 19 31 20 32 21 33 79 34 22 35 78 36
REMARK SMILES IDX 23 37 24 38 25 39 72 40 26 41 77 42 71 43 73 44 27 45 76 46
REMARK SMILES IDX 70 47 69 48 28 50 58 51 39 52 57 53 40 54 43 55 56 56 74 57
REMARK SMILES IDX 41 58 42 59 55 61 75 62 44 63 29 64 30 65 38 66 31 67 37 68
REMARK SMILES IDX 32 69 33 70 34 71 35 72 36 73 59 74 60 75 68 76 61 77 67 78
REMARK SMILES IDX 62 79 63 80 64 81 65 82 66 83 45 84 46 85 54 86 47 87 53 88
REMARK SMILES IDX 48 89 49 90 50 91 51 92 52 93
REMARK H PARENT 13 6 8 10 84 26 17 30 73 49 43 60
REMARK Flexibility Score: inf
ROOT
ATOM      1  C   UNL A   1      33.614  27.687  25.320  1.00  0.00     0.042 C 
ENDROOT
BRANCH   1   2
ATOM      2  C   UNL A   1      33.384  26.202  25.084  1.00  0.00     0.117 C 
BRANCH   2   3
ATOM      3  N   UNL A   1      32.473  25.624  26.054  1.00  0.00    -0.354 N 
ATOM      4  C   UNL A   1      32.278  24.350  26.512  1.00  0.00     0.250 C 
ATOM      5  O   UNL A   1      31.261  24.224  27.208  1.00  0.00    -0.272 OA
ATOM      6  H   UNL A   1      31.871  26.285  26.467  1.00  0.00     0.163 HD
BRANCH   4   7
ATOM      7  C   UNL A   1      33.254  23.146  26.158  1.00  0.00     0.139 C 
ATOM      8  C   UNL A   1      33.099  21.993  27.182  1.00  0.00     0.051 C 
BRANCH   7   9
ATOM      9  N   UNL A   1      34.646  23.679  26.249  1.00  0.00    -0.368 N 
ATOM     10  H   UNL A   1      34.695  24.653  26.383  1.00  0.00     0.161 HD
BRANCH   9  11
ATOM     11  C   UNL A   1      35.881  23.056  26.179  1.00  0.00     0.038 A 
ATOM     12  C   UNL A   1      37.148  19.683  24.843  1.00  0.00     0.044 C 
ATOM     13  C   UNL A   1      37.131  21.097  25.343  1.00  0.00    -0.046 A 
ATOM     14  C   UNL A   1      38.315  21.828  25.403  1.00  0.00     0.042 A 
ATOM     15  C   UNL A   1      35.925  21.731  25.698  1.00  0.00     0.029 A 
ATOM     16  C   UNL A   1      38.295  23.101  25.949  1.00  0.00     0.125 A 
ATOM     17  F   UNL A   1      39.436  23.803  26.011  1.00  0.00    -0.207 F 
ATOM     18  C   UNL A   1      37.108  23.682  26.393  1.00  0.00     0.065 A 
ENDBRANCH   9  11
ENDBRANCH   7   9
BRANCH   7  19
ATOM     19  C   UNL A   1      32.926  22.430  24.814  1.00  0.00    -0.013 A 
ATOM     20  C   UNL A   1      33.038  23.109  23.581  1.00  0.00     0.010 A 
ATOM     21  C   UNL A   1      32.564  21.070  24.759  1.00  0.00     0.010 A 
ATOM     22  C   UNL A   1      32.606  22.524  22.388  1.00  0.00     0.046 A 
ATOM     23  C   UNL A   1      32.152  20.473  23.565  1.00  0.00     0.046 A 
ATOM     24  C   UNL A   1      32.135  21.222  22.397  1.00  0.00     0.115 A 
BRANCH  24  25
ATOM     25  O   UNL A   1      31.652  20.700  21.234  1.00  0.00    -0.508 OA
ATOM     26  H   UNL A   1      31.335  19.818  21.214  1.00  0.00     0.293 HD
ENDBRANCH  24  25
ENDBRANCH   7  19
ENDBRANCH   4   7
ENDBRANCH   2   3
ENDBRANCH   1   2
BRANCH   1  27
ATOM     27  C   UNL A   1      33.927  28.053  26.764  1.00  0.00     0.118 C 
BRANCH  27  28
ATOM     28  N   UNL A   1      33.645  29.450  27.069  1.00  0.00    -0.352 N 
ATOM     29  C   UNL A   1      34.395  30.381  27.751  1.00  0.00     0.251 C 
ATOM     30  H   UNL A   1      32.781  29.779  26.735  1.00  0.00     0.163 HD
ATOM     31  O   UNL A   1      33.886  31.454  28.054  1.00  0.00    -0.269 OA
BRANCH  29  32
ATOM     32  C   UNL A   1      35.793  30.085  28.136  1.00  0.00     0.039 A 
ATOM     33  C   UNL A   1      36.064  29.681  29.446  1.00  0.00     0.014 A 
ATOM     34  C   UNL A   1      36.839  30.218  27.220  1.00  0.00     0.014 A 
ATOM     35  C   UNL A   1      37.370  29.345  29.812  1.00  0.00     0.010 A 
ATOM     36  C   UNL A   1      38.116  29.783  27.555  1.00  0.00     0.010 A 
ATOM     37  C   UNL A   1      38.402  29.354  28.859  1.00  0.00    -0.014 A 
BRANCH  37  38
ATOM     38  C   UNL A   1      39.784  28.935  29.207  1.00  0.00     0.031 A 
ATOM     39  C   UNL A   1      40.723  29.902  29.878  1.00  0.00     0.074 A 
ATOM     40  C   UNL A   1      40.220  27.711  28.853  1.00  0.00     0.049 A 
ATOM     41  N   UNL A   1      41.979  29.736  30.211  1.00  0.00    -0.248 NA
ATOM     42  C   UNL A   1      40.192  31.239  30.187  1.00  0.00     0.031 C 
ATOM     43  C   UNL A   1      39.428  26.700  28.148  1.00  0.00     0.029 A 
ATOM     44  N   UNL A   1      41.442  27.110  29.029  1.00  0.00    -0.354 N 
ATOM     45  C   UNL A   1      42.391  30.953  30.744  1.00  0.00     0.074 A 
ATOM     46  C   UNL A   1      41.272  31.862  30.632  1.00  0.00     0.031 C 
ATOM     47  C   UNL A   1      40.174  25.599  27.975  1.00  0.00     0.029 A 
ATOM     48  C   UNL A   1      41.509  25.837  28.515  1.00  0.00     0.049 A 
ATOM     49  H   UNL A   1      42.198  27.550  29.480  1.00  0.00     0.167 HD
ATOM     50  C   UNL A   1      43.584  31.280  31.298  1.00  0.00     0.031 A 
ATOM     51  C   UNL A   1      42.531  24.959  28.472  1.00  0.00     0.031 A 
ATOM     52  C   UNL A   1      44.695  30.371  31.404  1.00  0.00     0.049 A 
ATOM     53  C   UNL A   1      43.847  25.336  29.091  1.00  0.00     0.074 A 
ATOM     54  C   UNL A   1      45.926  30.581  32.000  1.00  0.00     0.029 A 
ATOM     55  N   UNL A   1      44.716  29.082  30.890  1.00  0.00    -0.354 N 
ATOM     56  N   UNL A   1      44.194  26.463  29.665  1.00  0.00    -0.248 NA
ATOM     57  C   UNL A   1      44.904  24.316  29.072  1.00  0.00     0.031 C 
ATOM     58  C   UNL A   1      46.712  29.444  31.791  1.00  0.00     0.029 A 
ATOM     59  C   UNL A   1      45.948  28.495  31.129  1.00  0.00     0.049 A 
ATOM     60  H   UNL A   1      43.965  28.648  30.423  1.00  0.00     0.167 HD
ATOM     61  C   UNL A   1      45.503  26.281  30.097  1.00  0.00     0.074 A 
ATOM     62  C   UNL A   1      45.879  24.931  29.731  1.00  0.00     0.031 C 
ATOM     63  C   UNL A   1      46.316  27.155  30.745  1.00  0.00     0.031 A 
BRANCH  50  64
ATOM     64  C   UNL A   1      43.744  32.692  31.804  1.00  0.00    -0.014 A 
ATOM     65  C   UNL A   1      43.372  33.049  33.113  1.00  0.00     0.010 A 
ATOM     66  C   UNL A   1      44.265  33.683  30.952  1.00  0.00     0.010 A 
ATOM     67  C   UNL A   1      43.444  34.379  33.535  1.00  0.00     0.020 A 
ATOM     68  C   UNL A   1      44.374  35.010  31.383  1.00  0.00     0.020 A 
ATOM     69  C   UNL A   1      43.934  35.353  32.662  1.00  0.00     0.054 A 
BRANCH  69  70
ATOM     70  S   UNL A   1      43.990  37.077  33.225  1.00  0.00     0.124 S 
ATOM     71  O   UNL A   1      45.295  37.135  33.881  1.00  0.00    -0.237 OA
ATOM     72  O   UNL A   1      43.882  37.826  31.976  1.00  0.00    -0.237 OA
ATOM     73  O   UNL A   1      42.839  37.188  34.117  1.00  0.00    -0.744 OA
ENDBRANCH  69  70
ENDBRANCH  50  64
BRANCH  51  74
ATOM     74  C   UNL A   1      42.322  23.633  27.831  1.00  0.00    -0.014 A 
ATOM     75  C   UNL A   1      42.872  23.353  26.568  1.00  0.00     0.010 A 
ATOM     76  C   UNL A   1      41.633  22.615  28.517  1.00  0.00     0.010 A 
ATOM     77  C   UNL A   1      42.744  22.078  26.007  1.00  0.00     0.020 A 
ATOM     78  C   UNL A   1      41.526  21.333  27.973  1.00  0.00     0.020 A 
ATOM     79  C   UNL A   1      42.082  21.073  26.720  1.00  0.00     0.054 A 
BRANCH  79  80
ATOM     80  S   UNL A   1      42.023  19.400  26.019  1.00  0.00     0.124 S 
ATOM     81  O   UNL A   1      42.575  18.594  27.104  1.00  0.00    -0.237 OA
ATOM     82  O   UNL A   1      40.597  19.220  25.758  1.00  0.00    -0.237 OA
ATOM     83  O   UNL A   1      42.858  19.499  24.824  1.00  0.00    -0.744 OA
ENDBRANCH  79  80
ENDBRANCH  51  74
BRANCH  63  84
ATOM     84  C   UNL A   1      47.691  26.668  31.128  1.00  0.00    -0.014 A 
ATOM     85  C   UNL A   1      48.789  26.814  30.262  1.00  0.00     0.010 A 
ATOM     86  C   UNL A   1      47.894  26.107  32.402  1.00  0.00     0.010 A 
ATOM     87  C   UNL A   1      50.058  26.372  30.650  1.00  0.00     0.020 A 
ATOM     88  C   UNL A   1      49.166  25.694  32.806  1.00  0.00     0.020 A 
ATOM     89  C   UNL A   1      50.238  25.816  31.920  1.00  0.00     0.054 A 
BRANCH  89  90
ATOM     90  S   UNL A   1      51.902  25.287  32.414  1.00  0.00     0.124 S 
ATOM     91  O   UNL A   1      51.792  23.833  32.341  1.00  0.00    -0.237 OA
ATOM     92  O   UNL A   1      52.748  25.906  31.396  1.00  0.00    -0.237 OA
ATOM     93  O   UNL A   1      52.054  25.834  33.761  1.00  0.00    -0.744 OA
ENDBRANCH  89  90
ENDBRANCH  63  84
ENDBRANCH  37  38
ENDBRANCH  29  32
ENDBRANCH  27  28
ENDBRANCH   1  27
TORSDOF 17
ENDMDL
MODEL 3
REMARK VINA RESULT:     -11.6      2.878      9.357
REMARK SMILES Cc1cc(F)cc(N[C@@](C)(C(=O)NCCCNC(=O)c2ccc(-c3c4nc(c(-c5ccc(S(=O)(=O)[O-])cc5)c5ccc([nH]5)c(-c5ccc(S(=O)(=O)[O-])cc5)c5nc(c(-c6ccc(S(=O)(=O)[O-])cc6)c6ccc3[nH]6)C=C5)C=C4)cc2)c2ccc(O)cc2)c1
REMARK SMILES IDX 15 1 14 2 13 3 11 4 12 5 9 7 10 8 8 9 7 11 1 12 2 13 3 14
REMARK SMILES IDX 87 15 4 16 5 17 6 18 80 19 81 20 86 21 82 22 85 23 83 24
REMARK SMILES IDX 84 25 16 27 17 28 18 29 19 31 20 32 21 33 79 34 22 35 78 36
REMARK SMILES IDX 23 37 24 38 25 39 72 40 26 41 77 42 71 43 73 44 27 45 76 46
REMARK SMILES IDX 70 47 69 48 28 50 58 51 39 52 57 53 40 54 43 55 56 56 74 57
REMARK SMILES IDX 41 58 42 59 55 61 75 62 44 63 29 64 30 65 38 66 31 67 37 68
REMARK SMILES IDX 32 69 33 70 34 71 35 72 36 73 59 74 60 75 68 76 61 77 67 78
REMARK SMILES IDX 62 79 63 80 64 81 65 82 66 83 45 84 46 85 54 86 47 87 53 88
REMARK SMILES IDX 48 89 49 90 50 91 51 92 52 93
REMARK H PARENT 13 6 8 10 84 26 17 30 73 49 43 60
REMARK Flexibility Score: inf
ROOT
ATOM      1  C   UNL A   1      35.910  22.911  24.412  1.00  0.00     0.042 C 
ENDROOT
BRANCH   1   2
ATOM      2  C   UNL A   1      34.573  23.635  24.455  1.00  0.00     0.117 C 
BRANCH   2   3
ATOM      3  N   UNL A   1      34.378  24.504  23.310  1.00  0.00    -0.354 N 
ATOM      4  C   UNL A   1      33.375  25.358  22.941  1.00  0.00     0.250 C 
ATOM      5  O   UNL A   1      33.486  25.781  21.783  1.00  0.00    -0.272 OA
ATOM      6  H   UNL A   1      35.121  24.471  22.663  1.00  0.00     0.163 HD
BRANCH   4   7
ATOM      7  C   UNL A   1      32.172  25.743  23.905  1.00  0.00     0.139 C 
ATOM      8  C   UNL A   1      31.738  24.523  24.757  1.00  0.00     0.051 C 
BRANCH   7   9
ATOM      9  N   UNL A   1      31.030  26.143  23.030  1.00  0.00    -0.368 N 
ATOM     10  H   UNL A   1      30.954  25.613  22.203  1.00  0.00     0.161 HD
BRANCH   9  11
ATOM     11  C   UNL A   1      30.059  27.121  23.165  1.00  0.00     0.038 A 
ATOM     12  C   UNL A   1      29.503  30.620  21.677  1.00  0.00     0.044 C 
ATOM     13  C   UNL A   1      29.248  29.313  22.367  1.00  0.00    -0.046 A 
ATOM     14  C   UNL A   1      27.969  29.004  22.823  1.00  0.00     0.042 A 
ATOM     15  C   UNL A   1      30.268  28.354  22.513  1.00  0.00     0.029 A 
ATOM     16  C   UNL A   1      27.769  27.833  23.535  1.00  0.00     0.125 A 
ATOM     17  F   UNL A   1      26.539  27.538  23.977  1.00  0.00    -0.207 F 
ATOM     18  C   UNL A   1      28.812  26.936  23.762  1.00  0.00     0.065 A 
ENDBRANCH   9  11
ENDBRANCH   7   9
BRANCH   7  19
ATOM     19  C   UNL A   1      32.538  26.788  25.001  1.00  0.00    -0.013 A 
ATOM     20  C   UNL A   1      33.606  27.693  24.817  1.00  0.00     0.010 A 
ATOM     21  C   UNL A   1      31.793  26.919  26.189  1.00  0.00     0.010 A 
ATOM     22  C   UNL A   1      34.034  28.531  25.850  1.00  0.00     0.046 A 
ATOM     23  C   UNL A   1      32.204  27.772  27.217  1.00  0.00     0.046 A 
ATOM     24  C   UNL A   1      33.349  28.537  27.053  1.00  0.00     0.115 A 
BRANCH  24  25
ATOM     25  O   UNL A   1      33.831  29.308  28.068  1.00  0.00    -0.508 OA
ATOM     26  H   UNL A   1      34.746  29.299  28.269  1.00  0.00     0.293 HD
ENDBRANCH  24  25
ENDBRANCH   7  19
ENDBRANCH   4   7
ENDBRANCH   2   3
ENDBRANCH   1   2
BRANCH   1  27
ATOM     27  C   UNL A   1      37.009  23.571  25.231  1.00  0.00     0.118 C 
BRANCH  27  28
ATOM     28  N   UNL A   1      38.066  22.644  25.615  1.00  0.00    -0.352 N 
ATOM     29  C   UNL A   1      39.260  22.871  26.258  1.00  0.00     0.251 C 
ATOM     30  H   UNL A   1      37.897  21.705  25.374  1.00  0.00     0.163 HD
ATOM     31  O   UNL A   1      40.090  21.970  26.319  1.00  0.00    -0.269 OA
BRANCH  29  32
ATOM     32  C   UNL A   1      39.554  24.195  26.852  1.00  0.00     0.039 A 
ATOM     33  C   UNL A   1      39.125  24.463  28.154  1.00  0.00     0.014 A 
ATOM     34  C   UNL A   1      40.236  25.176  26.129  1.00  0.00     0.014 A 
ATOM     35  C   UNL A   1      39.441  25.687  28.751  1.00  0.00     0.010 A 
ATOM     36  C   UNL A   1      40.640  26.349  26.759  1.00  0.00     0.010 A 
ATOM     37  C   UNL A   1      40.236  26.626  28.072  1.00  0.00    -0.014 A 
BRANCH  37  38
ATOM     38  C   UNL A   1      40.643  27.904  28.710  1.00  0.00     0.031 A 
ATOM     39  C   UNL A   1      42.016  28.048  29.310  1.00  0.00     0.074 A 
ATOM     40  C   UNL A   1      39.754  28.910  28.816  1.00  0.00     0.049 A 
ATOM     41  N   UNL A   1      42.533  29.065  29.954  1.00  0.00    -0.248 NA
ATOM     42  C   UNL A   1      42.914  26.888  29.202  1.00  0.00     0.031 C 
ATOM     43  C   UNL A   1      38.374  28.877  28.327  1.00  0.00     0.029 A 
ATOM     44  N   UNL A   1      39.875  30.156  29.381  1.00  0.00    -0.354 N 
ATOM     45  C   UNL A   1      43.804  28.657  30.345  1.00  0.00     0.074 A 
ATOM     46  C   UNL A   1      43.953  27.283  29.922  1.00  0.00     0.031 C 
ATOM     47  C   UNL A   1      37.786  30.055  28.589  1.00  0.00     0.029 A 
ATOM     48  C   UNL A   1      38.729  30.911  29.303  1.00  0.00     0.049 A 
ATOM     49  H   UNL A   1      40.705  30.478  29.802  1.00  0.00     0.167 HD
ATOM     50  C   UNL A   1      44.769  29.367  30.979  1.00  0.00     0.031 A 
ATOM     51  C   UNL A   1      38.459  32.149  29.761  1.00  0.00     0.031 A 
ATOM     52  C   UNL A   1      44.613  30.734  31.400  1.00  0.00     0.049 A 
ATOM     53  C   UNL A   1      39.539  32.924  30.461  1.00  0.00     0.074 A 
ATOM     54  C   UNL A   1      45.547  31.564  31.995  1.00  0.00     0.029 A 
ATOM     55  N   UNL A   1      43.442  31.471  31.283  1.00  0.00    -0.354 N 
ATOM     56  N   UNL A   1      40.763  32.552  30.749  1.00  0.00    -0.248 NA
ATOM     57  C   UNL A   1      39.208  34.292  30.880  1.00  0.00     0.031 C 
ATOM     58  C   UNL A   1      44.923  32.779  32.295  1.00  0.00     0.029 A 
ATOM     59  C   UNL A   1      43.621  32.735  31.822  1.00  0.00     0.049 A 
ATOM     60  H   UNL A   1      42.607  31.142  30.877  1.00  0.00     0.167 HD
ATOM     61  C   UNL A   1      41.358  33.647  31.366  1.00  0.00     0.074 A 
ATOM     62  C   UNL A   1      40.362  34.700  31.393  1.00  0.00     0.031 C 
ATOM     63  C   UNL A   1      42.617  33.770  31.857  1.00  0.00     0.031 A 
BRANCH  50  64
ATOM     64  C   UNL A   1      46.066  28.655  31.273  1.00  0.00    -0.014 A 
ATOM     65  C   UNL A   1      47.117  28.630  30.337  1.00  0.00     0.010 A 
ATOM     66  C   UNL A   1      46.234  27.989  32.501  1.00  0.00     0.010 A 
ATOM     67  C   UNL A   1      48.276  27.891  30.591  1.00  0.00     0.020 A 
ATOM     68  C   UNL A   1      47.408  27.279  32.774  1.00  0.00     0.020 A 
ATOM     69  C   UNL A   1      48.408  27.211  31.804  1.00  0.00     0.054 A 
BRANCH  69  70
ATOM     70  S   UNL A   1      49.910  26.236  32.095  1.00  0.00     0.124 S 
ATOM     71  O   UNL A   1      49.356  24.957  32.534  1.00  0.00    -0.237 OA
ATOM     72  O   UNL A   1      50.545  26.225  30.780  1.00  0.00    -0.237 OA
ATOM     73  O   UNL A   1      50.622  26.993  33.121  1.00  0.00    -0.744 OA
ENDBRANCH  69  70
ENDBRANCH  50  64
BRANCH  51  74
ATOM     74  C   UNL A   1      37.104  32.724  29.543  1.00  0.00    -0.014 A 
ATOM     75  C   UNL A   1      36.200  32.855  30.612  1.00  0.00     0.010 A 
ATOM     76  C   UNL A   1      36.737  33.212  28.275  1.00  0.00     0.010 A 
ATOM     77  C   UNL A   1      34.960  33.472  30.419  1.00  0.00     0.020 A 
ATOM     78  C   UNL A   1      35.511  33.854  28.085  1.00  0.00     0.020 A 
ATOM     79  C   UNL A   1      34.629  33.979  29.159  1.00  0.00     0.054 A 
BRANCH  79  80
ATOM     80  S   UNL A   1      33.061  34.871  28.960  1.00  0.00     0.124 S 
ATOM     81  O   UNL A   1      32.528  34.859  30.319  1.00  0.00    -0.237 OA
ATOM     82  O   UNL A   1      33.501  36.172  28.464  1.00  0.00    -0.237 OA
ATOM     83  O   UNL A   1      32.327  34.060  27.991  1.00  0.00    -0.744 OA
ENDBRANCH  79  80
ENDBRANCH  51  74
BRANCH  63  84
ATOM     84  C   UNL A   1      43.005  35.103  32.446  1.00  0.00    -0.014 A 
ATOM     85  C   UNL A   1      43.632  36.093  31.669  1.00  0.00     0.010 A 
ATOM     86  C   UNL A   1      42.683  35.386  33.786  1.00  0.00     0.010 A 
ATOM     87  C   UNL A   1      43.963  37.329  32.234  1.00  0.00     0.020 A 
ATOM     88  C   UNL A   1      42.983  36.630  34.345  1.00  0.00     0.020 A 
ATOM     89  C   UNL A   1      43.635  37.589  33.569  1.00  0.00     0.054 A 
BRANCH  89  90
ATOM     90  S   UNL A   1      44.041  39.214  34.266  1.00  0.00     0.124 S 
ATOM     91  O   UNL A   1      42.927  40.033  33.796  1.00  0.00    -0.237 OA
ATOM     92  O   UNL A   1      44.064  38.949  35.703  1.00  0.00    -0.237 OA
ATOM     93  O   UNL A   1      45.339  39.530  33.675  1.00  0.00    -0.744 OA
ENDBRANCH  89  90
ENDBRANCH  63  84
ENDBRANCH  37  38
ENDBRANCH  29  32
ENDBRANCH  27  28
ENDBRANCH   1  27
TORSDOF 17
ENDMDL
