MODEL 1
REMARK VINA RESULT:     -10.8      0.000      0.000
REMARK SMILES C[NH+](C)CCNC(=O)NC1(CC(=O)NCCCNC(=O)c2ccc(-c3c4nc(c(-c5ccc(S(=O)(=O)[O-])cc5)c5ccc([nH]5)c(-c5ccc(S(=O)(=O)[O-])cc5)c5nc(c(-c6ccc(S(=O)(=O)[O-])cc6)c6ccc3[nH]6)C=C5)C=C4)cc2)CCC1
REMARK SMILES IDX 15 1 14 2 12 3 13 4 11 6 10 7 81 8 83 9 82 10 9 11 6 12 7 13
REMARK SMILES IDX 8 15 5 17 4 18 2 19 1 20 3 21 16 23 17 24 18 25 19 26 20 28
REMARK SMILES IDX 21 29 22 30 80 31 23 32 79 33 24 34 25 35 26 36 73 37 27 38
REMARK SMILES IDX 78 39 72 40 74 41 28 42 77 43 71 44 70 45 29 47 59 48 40 49
REMARK SMILES IDX 58 50 41 51 44 52 57 53 75 54 42 55 43 56 56 58 76 59 45 60
REMARK SMILES IDX 30 61 31 62 39 63 32 64 38 65 33 66 34 67 35 68 36 69 37 70
REMARK SMILES IDX 60 71 61 72 69 73 62 74 68 75 63 76 64 77 65 78 66 79 67 80
REMARK SMILES IDX 46 81 47 82 55 83 48 84 54 85 49 86 50 87 51 88 52 89 53 90
REMARK H PARENT 14 5 6 14 9 16 2 22 18 27 74 46 44 57
REMARK Flexibility Score: inf
ROOT
ATOM      1  C   UNL A   1      38.927  21.332  25.750  1.00  0.00     0.117 C 
ENDROOT
BRANCH   1   2
ATOM      2  N   UNL A   1      38.181  22.433  25.179  1.00  0.00    -0.356 N 
ATOM      3  C   UNL A   1      36.838  22.616  25.069  1.00  0.00     0.222 C 
ATOM      4  O   UNL A   1      36.435  23.622  24.481  1.00  0.00    -0.275 OA
ATOM      5  H   UNL A   1      38.731  23.164  24.814  1.00  0.00     0.163 HD
BRANCH   3   6
ATOM      6  C   UNL A   1      35.842  21.615  25.626  1.00  0.00     0.128 C 
BRANCH   6   7
ATOM      7  C   UNL A   1      34.387  22.125  25.796  1.00  0.00     0.051 C 
ATOM      8  C   UNL A   1      34.270  23.313  26.797  1.00  0.00     0.029 C 
ATOM      9  C   UNL A   1      33.634  21.244  26.814  1.00  0.00     0.029 C 
ATOM     10  C   UNL A   1      33.662  22.379  27.846  1.00  0.00     0.005 C 
BRANCH   7  11
ATOM     11  N   UNL A   1      33.845  22.475  24.460  1.00  0.00    -0.332 N 
ATOM     12  N   UNL A   1      32.592  20.773  23.346  1.00  0.00    -0.332 N 
ATOM     13  C   UNL A   1      33.107  21.992  23.454  1.00  0.00     0.315 C 
ATOM     14  H   UNL A   1      32.043  20.657  22.537  1.00  0.00     0.165 HD
ATOM     15  O   UNL A   1      32.876  22.774  22.524  1.00  0.00    -0.249 OA
ATOM     16  H   UNL A   1      34.130  23.389  24.232  1.00  0.00     0.165 HD
BRANCH  12  17
ATOM     17  C   UNL A   1      32.663  19.584  24.152  1.00  0.00     0.179 C 
BRANCH  17  18
ATOM     18  C   UNL A   1      32.165  18.293  23.478  1.00  0.00     0.283 C 
BRANCH  18  19
ATOM     19  N   UNL A   1      32.768  17.009  23.845  1.00  0.00    -0.338 N 
ATOM     20  C   UNL A   1      34.065  16.753  23.239  1.00  0.00     0.332 C 
ATOM     21  C   UNL A   1      32.788  16.748  25.281  1.00  0.00     0.332 C 
ATOM     22  H   UNL A   1      32.125  16.333  23.434  1.00  0.00     0.347 HD
ENDBRANCH  18  19
ENDBRANCH  17  18
ENDBRANCH  12  17
ENDBRANCH   7  11
ENDBRANCH   6   7
ENDBRANCH   3   6
ENDBRANCH   1   2
BRANCH   1  23
ATOM     23  C   UNL A   1      40.017  21.808  26.711  1.00  0.00     0.042 C 
BRANCH  23  24
ATOM     24  C   UNL A   1      39.994  23.308  26.990  1.00  0.00     0.118 C 
BRANCH  24  25
ATOM     25  N   UNL A   1      40.870  24.040  26.089  1.00  0.00    -0.352 N 
ATOM     26  C   UNL A   1      41.267  25.353  26.089  1.00  0.00     0.251 C 
ATOM     27  H   UNL A   1      41.239  23.502  25.352  1.00  0.00     0.163 HD
ATOM     28  O   UNL A   1      41.853  25.781  25.095  1.00  0.00    -0.269 OA
BRANCH  26  29
ATOM     29  C   UNL A   1      41.009  26.260  27.236  1.00  0.00     0.039 A 
ATOM     30  C   UNL A   1      41.835  27.381  27.388  1.00  0.00     0.014 A 
ATOM     31  C   UNL A   1      40.040  25.990  28.205  1.00  0.00     0.014 A 
ATOM     32  C   UNL A   1      41.675  28.232  28.484  1.00  0.00     0.010 A 
ATOM     33  C   UNL A   1      39.833  26.881  29.264  1.00  0.00     0.010 A 
ATOM     34  C   UNL A   1      40.661  28.001  29.426  1.00  0.00    -0.014 A 
BRANCH  34  35
ATOM     35  C   UNL A   1      40.486  28.906  30.593  1.00  0.00     0.031 A 
ATOM     36  C   UNL A   1      41.366  28.764  31.810  1.00  0.00     0.074 A 
ATOM     37  C   UNL A   1      39.528  29.855  30.565  1.00  0.00     0.049 A 
ATOM     38  N   UNL A   1      41.363  29.465  32.916  1.00  0.00    -0.248 NA
ATOM     39  C   UNL A   1      42.367  27.685  31.787  1.00  0.00     0.031 C 
ATOM     40  C   UNL A   1      38.591  30.080  29.460  1.00  0.00     0.029 A 
ATOM     41  N   UNL A   1      39.188  30.813  31.487  1.00  0.00    -0.354 N 
ATOM     42  C   UNL A   1      42.353  28.910  33.720  1.00  0.00     0.074 A 
ATOM     43  C   UNL A   1      42.898  27.781  32.998  1.00  0.00     0.031 C 
ATOM     44  C   UNL A   1      37.810  31.132  29.755  1.00  0.00     0.029 A 
ATOM     45  C   UNL A   1      38.165  31.635  31.078  1.00  0.00     0.049 A 
ATOM     46  H   UNL A   1      39.636  30.903  32.360  1.00  0.00     0.167 HD
ATOM     47  C   UNL A   1      42.790  29.316  34.938  1.00  0.00     0.031 A 
ATOM     48  C   UNL A   1      37.581  32.682  31.695  1.00  0.00     0.031 A 
ATOM     49  C   UNL A   1      42.255  30.442  35.655  1.00  0.00     0.049 A 
ATOM     50  C   UNL A   1      38.076  33.105  33.050  1.00  0.00     0.074 A 
ATOM     51  C   UNL A   1      42.646  30.947  36.884  1.00  0.00     0.029 A 
ATOM     52  N   UNL A   1      41.217  31.245  35.206  1.00  0.00    -0.354 N 
ATOM     53  N   UNL A   1      39.043  32.590  33.774  1.00  0.00    -0.248 NA
ATOM     54  C   UNL A   1      37.410  34.261  33.667  1.00  0.00     0.031 C 
ATOM     55  C   UNL A   1      41.820  32.033  37.194  1.00  0.00     0.029 A 
ATOM     56  C   UNL A   1      40.949  32.236  36.136  1.00  0.00     0.049 A 
ATOM     57  H   UNL A   1      40.742  31.129  34.352  1.00  0.00     0.167 HD
ATOM     58  C   UNL A   1      39.119  33.379  34.917  1.00  0.00     0.074 A 
ATOM     59  C   UNL A   1      38.114  34.414  34.780  1.00  0.00     0.031 C 
ATOM     60  C   UNL A   1      39.946  33.259  35.984  1.00  0.00     0.031 A 
BRANCH  47  61
ATOM     61  C   UNL A   1      43.914  28.534  35.568  1.00  0.00    -0.014 A 
ATOM     62  C   UNL A   1      43.647  27.442  36.414  1.00  0.00     0.010 A 
ATOM     63  C   UNL A   1      45.251  28.866  35.283  1.00  0.00     0.010 A 
ATOM     64  C   UNL A   1      44.693  26.724  36.997  1.00  0.00     0.020 A 
ATOM     65  C   UNL A   1      46.302  28.132  35.843  1.00  0.00     0.020 A 
ATOM     66  C   UNL A   1      46.015  27.076  36.711  1.00  0.00     0.054 A 
BRANCH  66  67
ATOM     67  S   UNL A   1      47.354  26.113  37.467  1.00  0.00     0.124 S 
ATOM     68  O   UNL A   1      46.770  24.775  37.517  1.00  0.00    -0.237 OA
ATOM     69  O   UNL A   1      48.450  26.284  36.516  1.00  0.00    -0.237 OA
ATOM     70  O   UNL A   1      47.553  26.755  38.765  1.00  0.00    -0.744 OA
ENDBRANCH  66  67
ENDBRANCH  47  61
BRANCH  48  71
ATOM     71  C   UNL A   1      36.478  33.424  31.026  1.00  0.00    -0.014 A 
ATOM     72  C   UNL A   1      35.210  33.511  31.628  1.00  0.00     0.010 A 
ATOM     73  C   UNL A   1      36.686  34.037  29.777  1.00  0.00     0.010 A 
ATOM     74  C   UNL A   1      34.162  34.171  30.981  1.00  0.00     0.020 A 
ATOM     75  C   UNL A   1      35.648  34.723  29.140  1.00  0.00     0.020 A 
ATOM     76  C   UNL A   1      34.387  34.771  29.738  1.00  0.00     0.054 A 
BRANCH  76  77
ATOM     77  S   UNL A   1      33.022  35.649  28.929  1.00  0.00     0.124 S 
ATOM     78  O   UNL A   1      33.732  36.642  28.129  1.00  0.00    -0.237 OA
ATOM     79  O   UNL A   1      32.361  34.585  28.177  1.00  0.00    -0.237 OA
ATOM     80  O   UNL A   1      32.249  36.182  30.049  1.00  0.00    -0.744 OA
ENDBRANCH  76  77
ENDBRANCH  48  71
BRANCH  60  81
ATOM     81  C   UNL A   1      39.824  34.295  37.069  1.00  0.00    -0.014 A 
ATOM     82  C   UNL A   1      39.080  34.045  38.236  1.00  0.00     0.010 A 
ATOM     83  C   UNL A   1      40.487  35.528  36.928  1.00  0.00     0.010 A 
ATOM     84  C   UNL A   1      38.967  35.027  39.224  1.00  0.00     0.020 A 
ATOM     85  C   UNL A   1      40.397  36.502  37.926  1.00  0.00     0.020 A 
ATOM     86  C   UNL A   1      39.622  36.252  39.060  1.00  0.00     0.054 A 
BRANCH  86  87
ATOM     87  S   UNL A   1      39.478  37.502  40.366  1.00  0.00     0.124 S 
ATOM     88  O   UNL A   1      38.695  38.543  39.704  1.00  0.00    -0.237 OA
ATOM     89  O   UNL A   1      38.790  36.779  41.432  1.00  0.00    -0.237 OA
ATOM     90  O   UNL A   1      40.866  37.858  40.657  1.00  0.00    -0.744 OA
ENDBRANCH  86  87
ENDBRANCH  60  81
ENDBRANCH  34  35
ENDBRANCH  26  29
ENDBRANCH  24  25
ENDBRANCH  23  24
ENDBRANCH   1  23
TORSDOF 18
ENDMDL
MODEL 2
REMARK VINA RESULT:     -10.7      4.410     10.138
REMARK SMILES C[NH+](C)CCNC(=O)NC1(CC(=O)NCCCNC(=O)c2ccc(-c3c4nc(c(-c5ccc(S(=O)(=O)[O-])cc5)c5ccc([nH]5)c(-c5ccc(S(=O)(=O)[O-])cc5)c5nc(c(-c6ccc(S(=O)(=O)[O-])cc6)c6ccc3[nH]6)C=C5)C=C4)cc2)CCC1
REMARK SMILES IDX 15 1 14 2 12 3 13 4 11 6 10 7 81 8 83 9 82 10 9 11 6 12 7 13
REMARK SMILES IDX 8 15 5 17 4 18 2 19 1 20 3 21 16 23 17 24 18 25 19 26 20 28
REMARK SMILES IDX 21 29 22 30 80 31 23 32 79 33 24 34 25 35 26 36 73 37 27 38
REMARK SMILES IDX 78 39 72 40 74 41 28 42 77 43 71 44 70 45 29 47 59 48 40 49
REMARK SMILES IDX 58 50 41 51 44 52 57 53 75 54 42 55 43 56 56 58 76 59 45 60
REMARK SMILES IDX 30 61 31 62 39 63 32 64 38 65 33 66 34 67 35 68 36 69 37 70
REMARK SMILES IDX 60 71 61 72 69 73 62 74 68 75 63 76 64 77 65 78 66 79 67 80
REMARK SMILES IDX 46 81 47 82 55 83 48 84 54 85 49 86 50 87 51 88 52 89 53 90
REMARK H PARENT 14 5 6 14 9 16 2 22 18 27 74 46 44 57
REMARK Flexibility Score: inf
ROOT
ATOM      1  C   UNL A   1      32.976  27.063  25.032  1.00  0.00     0.117 C 
ENDROOT
BRANCH   1   2
ATOM      2  N   UNL A   1      33.385  26.865  23.657  1.00  0.00    -0.356 N 
ATOM      3  C   UNL A   1      33.317  25.755  22.875  1.00  0.00     0.222 C 
ATOM      4  O   UNL A   1      33.791  25.814  21.739  1.00  0.00    -0.275 OA
ATOM      5  H   UNL A   1      33.773  27.658  23.220  1.00  0.00     0.163 HD
BRANCH   3   6
ATOM      6  C   UNL A   1      32.698  24.461  23.370  1.00  0.00     0.128 C 
BRANCH   6   7
ATOM      7  C   UNL A   1      33.590  23.588  24.291  1.00  0.00     0.051 C 
ATOM      8  C   UNL A   1      35.049  24.121  24.412  1.00  0.00     0.029 C 
ATOM      9  C   UNL A   1      34.139  22.379  23.505  1.00  0.00     0.029 C 
ATOM     10  C   UNL A   1      35.544  22.995  23.502  1.00  0.00     0.005 C 
BRANCH   7  11
ATOM     11  N   UNL A   1      32.935  23.470  25.617  1.00  0.00    -0.332 N 
ATOM     12  N   UNL A   1      32.989  21.310  26.637  1.00  0.00    -0.332 N 
ATOM     13  C   UNL A   1      32.686  22.603  26.605  1.00  0.00     0.315 C 
ATOM     14  H   UNL A   1      32.751  20.881  27.491  1.00  0.00     0.165 HD
ATOM     15  O   UNL A   1      32.113  23.061  27.600  1.00  0.00    -0.249 OA
ATOM     16  H   UNL A   1      32.542  24.341  25.855  1.00  0.00     0.165 HD
BRANCH  12  17
ATOM     17  C   UNL A   1      33.589  20.402  25.699  1.00  0.00     0.179 C 
BRANCH  17  18
ATOM     18  C   UNL A   1      32.622  19.426  25.007  1.00  0.00     0.283 C 
BRANCH  18  19
ATOM     19  N   UNL A   1      33.089  18.088  24.637  1.00  0.00    -0.338 N 
ATOM     20  C   UNL A   1      32.655  17.026  25.531  1.00  0.00     0.332 C 
ATOM     21  C   UNL A   1      32.853  17.738  23.240  1.00  0.00     0.332 C 
ATOM     22  H   UNL A   1      34.099  18.160  24.753  1.00  0.00     0.347 HD
ENDBRANCH  18  19
ENDBRANCH  17  18
ENDBRANCH  12  17
ENDBRANCH   7  11
ENDBRANCH   6   7
ENDBRANCH   3   6
ENDBRANCH   1   2
BRANCH   1  23
ATOM     23  C   UNL A   1      33.911  28.013  25.782  1.00  0.00     0.042 C 
BRANCH  23  24
ATOM     24  C   UNL A   1      33.481  28.314  27.214  1.00  0.00     0.118 C 
BRANCH  24  25
ATOM     25  N   UNL A   1      33.448  29.743  27.481  1.00  0.00    -0.352 N 
ATOM     26  C   UNL A   1      34.387  30.579  28.031  1.00  0.00     0.251 C 
ATOM     27  H   UNL A   1      32.608  30.186  27.225  1.00  0.00     0.163 HD
ATOM     28  O   UNL A   1      34.039  31.717  28.340  1.00  0.00    -0.269 OA
BRANCH  26  29
ATOM     29  C   UNL A   1      35.790  30.151  28.266  1.00  0.00     0.039 A 
ATOM     30  C   UNL A   1      36.137  29.707  29.547  1.00  0.00     0.014 A 
ATOM     31  C   UNL A   1      36.782  30.260  27.288  1.00  0.00     0.014 A 
ATOM     32  C   UNL A   1      37.457  29.352  29.837  1.00  0.00     0.010 A 
ATOM     33  C   UNL A   1      38.088  29.838  27.559  1.00  0.00     0.010 A 
ATOM     34  C   UNL A   1      38.444  29.398  28.841  1.00  0.00    -0.014 A 
BRANCH  34  35
ATOM     35  C   UNL A   1      39.850  29.019  29.147  1.00  0.00     0.031 A 
ATOM     36  C   UNL A   1      40.766  29.985  29.856  1.00  0.00     0.074 A 
ATOM     37  C   UNL A   1      40.310  27.805  28.778  1.00  0.00     0.049 A 
ATOM     38  N   UNL A   1      42.016  29.827  30.209  1.00  0.00    -0.248 NA
ATOM     39  C   UNL A   1      40.209  31.304  30.197  1.00  0.00     0.031 C 
ATOM     40  C   UNL A   1      39.536  26.788  28.061  1.00  0.00     0.029 A 
ATOM     41  N   UNL A   1      41.537  27.219  28.963  1.00  0.00    -0.354 N 
ATOM     42  C   UNL A   1      42.397  31.024  30.807  1.00  0.00     0.074 A 
ATOM     43  C   UNL A   1      41.262  31.917  30.719  1.00  0.00     0.031 C 
ATOM     44  C   UNL A   1      40.294  25.691  27.901  1.00  0.00     0.029 A 
ATOM     45  C   UNL A   1      41.615  25.937  28.472  1.00  0.00     0.049 A 
ATOM     46  H   UNL A   1      42.290  27.673  29.406  1.00  0.00     0.167 HD
ATOM     47  C   UNL A   1      43.573  31.346  31.399  1.00  0.00     0.031 A 
ATOM     48  C   UNL A   1      42.633  25.054  28.484  1.00  0.00     0.031 A 
ATOM     49  C   UNL A   1      44.701  30.458  31.495  1.00  0.00     0.049 A 
ATOM     50  C   UNL A   1      43.932  25.439  29.137  1.00  0.00     0.074 A 
ATOM     51  C   UNL A   1      45.928  30.683  32.096  1.00  0.00     0.029 A 
ATOM     52  N   UNL A   1      44.738  29.170  30.981  1.00  0.00    -0.354 N 
ATOM     53  N   UNL A   1      44.254  26.563  29.734  1.00  0.00    -0.248 NA
ATOM     54  C   UNL A   1      45.000  24.430  29.132  1.00  0.00     0.031 C 
ATOM     55  C   UNL A   1      46.720  29.544  31.914  1.00  0.00     0.029 A 
ATOM     56  C   UNL A   1      45.969  28.591  31.244  1.00  0.00     0.049 A 
ATOM     57  H   UNL A   1      43.999  28.732  30.501  1.00  0.00     0.167 HD
ATOM     58  C   UNL A   1      45.552  26.383  30.199  1.00  0.00     0.074 A 
ATOM     59  C   UNL A   1      45.947  25.039  29.831  1.00  0.00     0.031 C 
ATOM     60  C   UNL A   1      46.346  27.252  30.872  1.00  0.00     0.031 A 
BRANCH  47  61
ATOM     61  C   UNL A   1      43.693  32.723  32.000  1.00  0.00    -0.014 A 
ATOM     62  C   UNL A   1      43.329  32.959  33.338  1.00  0.00     0.010 A 
ATOM     63  C   UNL A   1      44.210  33.785  31.235  1.00  0.00     0.010 A 
ATOM     64  C   UNL A   1      43.440  34.238  33.889  1.00  0.00     0.020 A 
ATOM     65  C   UNL A   1      44.347  35.061  31.791  1.00  0.00     0.020 A 
ATOM     66  C   UNL A   1      43.945  35.283  33.109  1.00  0.00     0.054 A 
BRANCH  66  67
ATOM     67  S   UNL A   1      44.096  36.930  33.856  1.00  0.00     0.124 S 
ATOM     68  O   UNL A   1      45.230  36.747  34.759  1.00  0.00    -0.237 OA
ATOM     69  O   UNL A   1      44.347  37.786  32.699  1.00  0.00    -0.237 OA
ATOM     70  O   UNL A   1      42.805  37.134  34.510  1.00  0.00    -0.744 OA
ENDBRANCH  66  67
ENDBRANCH  47  61
BRANCH  48  71
ATOM     71  C   UNL A   1      42.460  23.704  27.881  1.00  0.00    -0.014 A 
ATOM     72  C   UNL A   1      41.818  22.679  28.600  1.00  0.00     0.010 A 
ATOM     73  C   UNL A   1      42.948  23.432  26.590  1.00  0.00     0.010 A 
ATOM     74  C   UNL A   1      41.694  21.400  28.052  1.00  0.00     0.020 A 
ATOM     75  C   UNL A   1      42.800  22.161  26.028  1.00  0.00     0.020 A 
ATOM     76  C   UNL A   1      42.189  21.147  26.769  1.00  0.00     0.054 A 
BRANCH  76  77
ATOM     77  S   UNL A   1      41.990  19.488  26.064  1.00  0.00     0.124 S 
ATOM     78  O   UNL A   1      42.788  19.580  24.845  1.00  0.00    -0.237 OA
ATOM     79  O   UNL A   1      42.534  18.630  27.113  1.00  0.00    -0.237 OA
ATOM     80  O   UNL A   1      40.547  19.375  25.862  1.00  0.00    -0.744 OA
ENDBRANCH  76  77
ENDBRANCH  48  71
BRANCH  60  81
ATOM     81  C   UNL A   1      47.707  26.761  31.286  1.00  0.00    -0.014 A 
ATOM     82  C   UNL A   1      47.927  26.209  32.561  1.00  0.00     0.010 A 
ATOM     83  C   UNL A   1      48.776  26.827  30.373  1.00  0.00     0.010 A 
ATOM     84  C   UNL A   1      49.202  25.772  32.930  1.00  0.00     0.020 A 
ATOM     85  C   UNL A   1      50.046  26.366  30.730  1.00  0.00     0.020 A 
ATOM     86  C   UNL A   1      50.255  25.859  32.014  1.00  0.00     0.054 A 
BRANCH  86  87
ATOM     87  S   UNL A   1      51.896  25.265  32.508  1.00  0.00     0.124 S 
ATOM     88  O   UNL A   1      52.772  26.012  31.608  1.00  0.00    -0.237 OA
ATOM     89  O   UNL A   1      51.967  25.647  33.916  1.00  0.00    -0.237 OA
ATOM     90  O   UNL A   1      51.831  23.826  32.262  1.00  0.00    -0.744 OA
ENDBRANCH  86  87
ENDBRANCH  60  81
ENDBRANCH  34  35
ENDBRANCH  26  29
ENDBRANCH  24  25
ENDBRANCH  23  24
ENDBRANCH   1  23
TORSDOF 18
ENDMDL
MODEL 3
REMARK VINA RESULT:     -10.7      3.102      9.482
REMARK SMILES C[NH+](C)CCNC(=O)NC1(CC(=O)NCCCNC(=O)c2ccc(-c3c4nc(c(-c5ccc(S(=O)(=O)[O-])cc5)c5ccc([nH]5)c(-c5ccc(S(=O)(=O)[O-])cc5)c5nc(c(-c6ccc(S(=O)(=O)[O-])cc6)c6ccc3[nH]6)C=C5)C=C4)cc2)CCC1
REMARK SMILES IDX 15 1 14 2 12 3 13 4 11 6 10 7 81 8 83 9 82 10 9 11 6 12 7 13
REMARK SMILES IDX 8 15 5 17 4 18 2 19 1 20 3 21 16 23 17 24 18 25 19 26 20 28
REMARK SMILES IDX 21 29 22 30 80 31 23 32 79 33 24 34 25 35 26 36 73 37 27 38
REMARK SMILES IDX 78 39 72 40 74 41 28 42 77 43 71 44 70 45 29 47 59 48 40 49
REMARK SMILES IDX 58 50 41 51 44 52 57 53 75 54 42 55 43 56 56 58 76 59 45 60
REMARK SMILES IDX 30 61 31 62 39 63 32 64 38 65 33 66 34 67 35 68 36 69 37 70
REMARK SMILES IDX 60 71 61 72 69 73 62 74 68 75 63 76 64 77 65 78 66 79 67 80
REMARK SMILES IDX 46 81 47 82 55 83 48 84 54 85 49 86 50 87 51 88 52 89 53 90
REMARK H PARENT 14 5 6 14 9 16 2 22 18 27 74 46 44 57
REMARK Flexibility Score: inf
ROOT
ATOM      1  C   UNL A   1      31.879  27.471  26.136  1.00  0.00     0.117 C 
ENDROOT
BRANCH   1   2
ATOM      2  N   UNL A   1      31.383  26.221  26.672  1.00  0.00    -0.356 N 
ATOM      3  C   UNL A   1      31.661  24.941  26.306  1.00  0.00     0.222 C 
ATOM      4  O   UNL A   1      31.060  24.029  26.879  1.00  0.00    -0.275 OA
ATOM      5  H   UNL A   1      30.746  26.310  27.417  1.00  0.00     0.163 HD
BRANCH   3   6
ATOM      6  C   UNL A   1      32.661  24.617  25.212  1.00  0.00     0.128 C 
BRANCH   6   7
ATOM      7  C   UNL A   1      32.758  23.125  24.798  1.00  0.00     0.051 C 
ATOM      8  C   UNL A   1      33.759  22.879  23.630  1.00  0.00     0.029 C 
ATOM      9  C   UNL A   1      31.607  22.767  23.835  1.00  0.00     0.029 C 
ATOM     10  C   UNL A   1      32.591  22.678  22.661  1.00  0.00     0.005 C 
BRANCH   7  11
ATOM     11  N   UNL A   1      33.101  22.319  25.996  1.00  0.00    -0.332 N 
ATOM     12  N   UNL A   1      35.342  22.514  26.800  1.00  0.00    -0.332 N 
ATOM     13  C   UNL A   1      34.097  22.054  26.848  1.00  0.00     0.315 C 
ATOM     14  H   UNL A   1      35.890  22.221  27.564  1.00  0.00     0.165 HD
ATOM     15  O   UNL A   1      33.823  21.299  27.788  1.00  0.00    -0.249 OA
ATOM     16  H   UNL A   1      32.313  21.789  26.256  1.00  0.00     0.165 HD
BRANCH  12  17
ATOM     17  C   UNL A   1      36.064  23.346  25.876  1.00  0.00     0.179 C 
BRANCH  17  18
ATOM     18  C   UNL A   1      37.356  22.739  25.304  1.00  0.00     0.283 C 
BRANCH  18  19
ATOM     19  N   UNL A   1      38.651  23.157  25.846  1.00  0.00    -0.338 N 
ATOM     20  C   UNL A   1      38.583  24.247  26.806  1.00  0.00     0.332 C 
ATOM     21  C   UNL A   1      39.473  22.058  26.344  1.00  0.00     0.332 C 
ATOM     22  H   UNL A   1      39.129  23.531  25.027  1.00  0.00     0.347 HD
ENDBRANCH  18  19
ENDBRANCH  17  18
ENDBRANCH  12  17
ENDBRANCH   7  11
ENDBRANCH   6   7
ENDBRANCH   3   6
ENDBRANCH   1   2
BRANCH   1  23
ATOM     23  C   UNL A   1      33.028  28.041  26.969  1.00  0.00     0.042 C 
BRANCH  23  24
ATOM     24  C   UNL A   1      33.903  29.045  26.225  1.00  0.00     0.118 C 
BRANCH  24  25
ATOM     25  N   UNL A   1      33.658  30.409  26.666  1.00  0.00    -0.352 N 
ATOM     26  C   UNL A   1      34.305  31.186  27.593  1.00  0.00     0.251 C 
ATOM     27  H   UNL A   1      32.896  30.849  26.225  1.00  0.00     0.163 HD
ATOM     28  O   UNL A   1      33.774  32.242  27.935  1.00  0.00    -0.269 OA
BRANCH  26  29
ATOM     29  C   UNL A   1      35.605  30.790  28.192  1.00  0.00     0.039 A 
ATOM     30  C   UNL A   1      35.614  29.726  29.101  1.00  0.00     0.014 A 
ATOM     31  C   UNL A   1      36.789  31.492  27.949  1.00  0.00     0.014 A 
ATOM     32  C   UNL A   1      36.799  29.353  29.740  1.00  0.00     0.010 A 
ATOM     33  C   UNL A   1      37.988  31.074  28.535  1.00  0.00     0.010 A 
ATOM     34  C   UNL A   1      38.004  30.013  29.451  1.00  0.00    -0.014 A 
BRANCH  34  35
ATOM     35  C   UNL A   1      39.268  29.618  30.128  1.00  0.00     0.031 A 
ATOM     36  C   UNL A   1      39.709  30.315  31.391  1.00  0.00     0.074 A 
ATOM     37  C   UNL A   1      40.028  28.635  29.603  1.00  0.00     0.049 A 
ATOM     38  N   UNL A   1      40.776  30.102  32.120  1.00  0.00    -0.248 NA
ATOM     39  C   UNL A   1      38.851  31.401  31.889  1.00  0.00     0.031 C 
ATOM     40  C   UNL A   1      39.729  27.900  28.371  1.00  0.00     0.029 A 
ATOM     41  N   UNL A   1      41.203  28.080  30.043  1.00  0.00    -0.354 N 
ATOM     42  C   UNL A   1      40.720  31.028  33.156  1.00  0.00     0.074 A 
ATOM     43  C   UNL A   1      39.544  31.841  32.930  1.00  0.00     0.031 C 
ATOM     44  C   UNL A   1      40.675  26.967  28.176  1.00  0.00     0.029 A 
ATOM     45  C   UNL A   1      41.664  27.058  29.246  1.00  0.00     0.049 A 
ATOM     46  H   UNL A   1      41.673  28.384  30.853  1.00  0.00     0.167 HD
ATOM     47  C   UNL A   1      41.553  31.177  34.214  1.00  0.00     0.031 A 
ATOM     48  C   UNL A   1      42.755  26.277  29.365  1.00  0.00     0.031 A 
ATOM     49  C   UNL A   1      42.719  30.366  34.446  1.00  0.00     0.049 A 
ATOM     50  C   UNL A   1      43.670  26.468  30.542  1.00  0.00     0.074 A 
ATOM     51  C   UNL A   1      43.614  30.423  35.501  1.00  0.00     0.029 A 
ATOM     52  N   UNL A   1      43.150  29.345  33.612  1.00  0.00    -0.354 N 
ATOM     53  N   UNL A   1      43.574  27.324  31.533  1.00  0.00    -0.248 NA
ATOM     54  C   UNL A   1      44.837  25.577  30.626  1.00  0.00     0.031 C 
ATOM     55  C   UNL A   1      44.606  29.460  35.287  1.00  0.00     0.029 A 
ATOM     56  C   UNL A   1      44.302  28.770  34.124  1.00  0.00     0.049 A 
ATOM     57  H   UNL A   1      42.703  29.069  32.779  1.00  0.00     0.167 HD
ATOM     58  C   UNL A   1      44.650  27.054  32.371  1.00  0.00     0.074 A 
ATOM     59  C   UNL A   1      45.372  25.945  31.781  1.00  0.00     0.031 C 
ATOM     60  C   UNL A   1      45.008  27.667  33.526  1.00  0.00     0.031 A 
BRANCH  47  61
ATOM     61  C   UNL A   1      41.223  32.258  35.211  1.00  0.00    -0.014 A 
ATOM     62  C   UNL A   1      40.359  32.003  36.291  1.00  0.00     0.010 A 
ATOM     63  C   UNL A   1      41.811  33.531  35.093  1.00  0.00     0.010 A 
ATOM     64  C   UNL A   1      40.055  33.010  37.210  1.00  0.00     0.020 A 
ATOM     65  C   UNL A   1      41.530  34.535  36.026  1.00  0.00     0.020 A 
ATOM     66  C   UNL A   1      40.640  34.272  37.069  1.00  0.00     0.054 A 
BRANCH  66  67
ATOM     67  S   UNL A   1      40.242  35.555  38.288  1.00  0.00     0.124 S 
ATOM     68  O   UNL A   1      39.838  36.668  37.431  1.00  0.00    -0.237 OA
ATOM     69  O   UNL A   1      39.168  34.940  39.064  1.00  0.00    -0.237 OA
ATOM     70  O   UNL A   1      41.497  35.750  39.010  1.00  0.00    -0.744 OA
ENDBRANCH  66  67
ENDBRANCH  47  61
BRANCH  48  71
ATOM     71  C   UNL A   1      43.031  25.219  28.355  1.00  0.00    -0.014 A 
ATOM     72  C   UNL A   1      42.617  23.893  28.580  1.00  0.00     0.010 A 
ATOM     73  C   UNL A   1      43.722  25.528  27.169  1.00  0.00     0.010 A 
ATOM     74  C   UNL A   1      42.915  22.891  27.652  1.00  0.00     0.020 A 
ATOM     75  C   UNL A   1      43.996  24.534  26.226  1.00  0.00     0.020 A 
ATOM     76  C   UNL A   1      43.606  23.217  26.481  1.00  0.00     0.054 A 
BRANCH  76  77
ATOM     77  S   UNL A   1      43.955  21.908  25.276  1.00  0.00     0.124 S 
ATOM     78  O   UNL A   1      45.315  21.519  25.637  1.00  0.00    -0.237 OA
ATOM     79  O   UNL A   1      42.916  20.923  25.566  1.00  0.00    -0.237 OA
ATOM     80  O   UNL A   1      43.818  22.585  23.988  1.00  0.00    -0.744 OA
ENDBRANCH  76  77
ENDBRANCH  48  71
BRANCH  60  81
ATOM     81  C   UNL A   1      46.214  27.126  34.246  1.00  0.00    -0.014 A 
ATOM     82  C   UNL A   1      46.096  26.095  35.195  1.00  0.00     0.010 A 
ATOM     83  C   UNL A   1      47.489  27.640  33.947  1.00  0.00     0.010 A 
ATOM     84  C   UNL A   1      47.226  25.617  35.863  1.00  0.00     0.020 A 
ATOM     85  C   UNL A   1      48.625  27.147  34.594  1.00  0.00     0.020 A 
ATOM     86  C   UNL A   1      48.484  26.151  35.562  1.00  0.00     0.054 A 
BRANCH  86  87
ATOM     87  S   UNL A   1      49.940  25.500  36.425  1.00  0.00     0.124 S 
ATOM     88  O   UNL A   1      50.745  26.704  36.611  1.00  0.00    -0.237 OA
ATOM     89  O   UNL A   1      49.366  24.932  37.643  1.00  0.00    -0.237 OA
ATOM     90  O   UNL A   1      50.489  24.522  35.488  1.00  0.00    -0.744 OA
ENDBRANCH  86  87
ENDBRANCH  60  81
ENDBRANCH  34  35
ENDBRANCH  26  29
ENDBRANCH  24  25
ENDBRANCH  23  24
ENDBRANCH   1  23
TORSDOF 18
ENDMDL
