MODEL 1
REMARK VINA RESULT:     -11.0      0.000      0.000
REMARK SMILES O=C(NCCCNC(=O)[C@H]1C=C[C@@H](NC(=O)[C@@H]2CSC[NH2+]2)C1)c1ccc(-c2c3nc(c(-c4ccc(S(=O)(=O)[O-])cc4)c4ccc([nH]4)c(-c4ccc(S(=O)(=O)[O-])cc4)c4nc(c(-c5ccc(S(=O)(=O)[O-])cc5)c5ccc2[nH]5)C=C4)C=C3)cc1
REMARK SMILES IDX 4 1 3 2 1 3 2 4 23 6 24 7 82 8 25 9 81 10 26 11 27 12 28 13
REMARK SMILES IDX 75 14 29 15 80 16 74 17 76 18 30 19 79 20 73 21 72 22 31 24
REMARK SMILES IDX 61 25 42 26 60 27 43 28 46 29 59 30 77 31 44 32 45 33 58 35
REMARK SMILES IDX 78 36 47 37 32 38 33 39 41 40 34 41 40 42 35 43 36 44 37 45
REMARK SMILES IDX 38 46 39 47 62 48 63 49 71 50 64 51 70 52 65 53 66 54 67 55
REMARK SMILES IDX 68 56 69 57 48 58 49 59 57 60 50 61 56 62 51 63 52 64 53 65
REMARK SMILES IDX 54 66 55 67 5 68 6 69 7 70 8 71 9 73 10 74 11 75 22 76 12 77
REMARK SMILES IDX 13 78 14 79 15 80 16 82 17 83 18 84 21 85 19 86 20 87
REMARK H PARENT 3 5 76 23 46 34 7 72 14 81 21 88 21 89
REMARK Flexibility Score: inf
ROOT
ATOM      1  C   UNL A   1      33.789  28.557  27.219  1.00  0.00     0.118 C 
ENDROOT
BRANCH   1   2
ATOM      2  N   UNL A   1      33.646  29.951  27.608  1.00  0.00    -0.352 N 
ATOM      3  O   UNL A   1      34.118  31.850  28.713  1.00  0.00    -0.269 OA
ATOM      4  C   UNL A   1      34.514  30.768  28.296  1.00  0.00     0.251 C 
ATOM      5  H   UNL A   1      32.799  30.375  27.337  1.00  0.00     0.163 HD
BRANCH   4   6
ATOM      6  C   UNL A   1      35.913  30.340  28.539  1.00  0.00     0.039 A 
ATOM      7  C   UNL A   1      36.895  30.522  27.565  1.00  0.00     0.014 A 
ATOM      8  C   UNL A   1      36.260  29.786  29.776  1.00  0.00     0.014 A 
ATOM      9  C   UNL A   1      38.172  30.015  27.763  1.00  0.00     0.010 A 
ATOM     10  C   UNL A   1      37.578  29.378  30.018  1.00  0.00     0.010 A 
ATOM     11  C   UNL A   1      38.542  29.469  29.004  1.00  0.00    -0.014 A 
BRANCH  11  12
ATOM     12  C   UNL A   1      39.969  29.110  29.218  1.00  0.00     0.031 A 
ATOM     13  C   UNL A   1      40.515  27.767  28.819  1.00  0.00     0.074 A 
ATOM     14  C   UNL A   1      40.789  30.056  29.719  1.00  0.00     0.049 A 
ATOM     15  N   UNL A   1      41.755  27.347  28.857  1.00  0.00    -0.248 NA
ATOM     16  C   UNL A   1      39.559  26.766  28.324  1.00  0.00     0.031 C 
ATOM     17  C   UNL A   1      40.363  31.388  30.165  1.00  0.00     0.029 A 
ATOM     18  N   UNL A   1      42.147  30.070  29.900  1.00  0.00    -0.354 N 
ATOM     19  C   UNL A   1      41.729  26.034  28.398  1.00  0.00     0.074 A 
ATOM     20  C   UNL A   1      40.345  25.717  28.118  1.00  0.00     0.031 C 
ATOM     21  C   UNL A   1      41.442  32.109  30.495  1.00  0.00     0.029 A 
ATOM     22  C   UNL A   1      42.628  31.275  30.356  1.00  0.00     0.049 A 
ATOM     23  H   UNL A   1      42.724  29.292  29.721  1.00  0.00     0.167 HD
ATOM     24  C   UNL A   1      42.767  25.180  28.219  1.00  0.00     0.031 A 
ATOM     25  C   UNL A   1      43.881  31.670  30.643  1.00  0.00     0.031 A 
ATOM     26  C   UNL A   1      44.141  25.504  28.508  1.00  0.00     0.049 A 
ATOM     27  C   UNL A   1      45.007  30.700  30.440  1.00  0.00     0.074 A 
ATOM     28  C   UNL A   1      45.264  24.708  28.357  1.00  0.00     0.029 A 
ATOM     29  N   UNL A   1      44.583  26.722  29.002  1.00  0.00    -0.354 N 
ATOM     30  N   UNL A   1      44.960  29.469  29.987  1.00  0.00    -0.248 NA
ATOM     31  C   UNL A   1      46.354  31.169  30.785  1.00  0.00     0.031 C 
ATOM     32  C   UNL A   1      46.378  25.428  28.803  1.00  0.00     0.029 A 
ATOM     33  C   UNL A   1      45.958  26.694  29.177  1.00  0.00     0.049 A 
ATOM     34  H   UNL A   1      44.006  27.495  29.199  1.00  0.00     0.167 HD
ATOM     35  C   UNL A   1      46.272  29.017  29.991  1.00  0.00     0.074 A 
ATOM     36  C   UNL A   1      47.093  30.120  30.451  1.00  0.00     0.031 C 
ATOM     37  C   UNL A   1      46.755  27.796  29.655  1.00  0.00     0.031 A 
BRANCH  24  38
ATOM     38  C   UNL A   1      42.457  23.801  27.694  1.00  0.00    -0.014 A 
ATOM     39  C   UNL A   1      42.545  23.509  26.322  1.00  0.00     0.010 A 
ATOM     40  C   UNL A   1      42.142  22.763  28.592  1.00  0.00     0.010 A 
ATOM     41  C   UNL A   1      42.299  22.214  25.853  1.00  0.00     0.020 A 
ATOM     42  C   UNL A   1      41.920  21.462  28.132  1.00  0.00     0.020 A 
ATOM     43  C   UNL A   1      41.989  21.198  26.763  1.00  0.00     0.054 A 
BRANCH  43  44
ATOM     44  S   UNL A   1      41.719  19.517  26.131  1.00  0.00     0.124 S 
ATOM     45  O   UNL A   1      42.598  19.487  24.966  1.00  0.00    -0.237 OA
ATOM     46  O   UNL A   1      42.135  18.682  27.255  1.00  0.00    -0.237 OA
ATOM     47  O   UNL A   1      40.290  19.485  25.833  1.00  0.00    -0.744 OA
ENDBRANCH  43  44
ENDBRANCH  24  38
BRANCH  25  48
ATOM     48  C   UNL A   1      44.123  33.036  31.183  1.00  0.00    -0.014 A 
ATOM     49  C   UNL A   1      44.133  33.280  32.567  1.00  0.00     0.010 A 
ATOM     50  C   UNL A   1      44.363  34.104  30.298  1.00  0.00     0.010 A 
ATOM     51  C   UNL A   1      44.353  34.572  33.054  1.00  0.00     0.020 A 
ATOM     52  C   UNL A   1      44.618  35.388  30.781  1.00  0.00     0.020 A 
ATOM     53  C   UNL A   1      44.595  35.618  32.158  1.00  0.00     0.054 A 
BRANCH  53  54
ATOM     54  S   UNL A   1      44.917  37.280  32.808  1.00  0.00     0.124 S 
ATOM     55  O   UNL A   1      45.680  37.886  31.722  1.00  0.00    -0.237 OA
ATOM     56  O   UNL A   1      43.570  37.810  33.008  1.00  0.00    -0.237 OA
ATOM     57  O   UNL A   1      45.666  37.026  34.037  1.00  0.00    -0.744 OA
ENDBRANCH  53  54
ENDBRANCH  25  48
BRANCH  37  58
ATOM     58  C   UNL A   1      48.243  27.603  29.767  1.00  0.00    -0.014 A 
ATOM     59  C   UNL A   1      48.822  27.091  30.943  1.00  0.00     0.010 A 
ATOM     60  C   UNL A   1      49.074  27.937  28.683  1.00  0.00     0.010 A 
ATOM     61  C   UNL A   1      50.208  26.965  31.051  1.00  0.00     0.020 A 
ATOM     62  C   UNL A   1      50.459  27.785  28.777  1.00  0.00     0.020 A 
ATOM     63  C   UNL A   1      51.018  27.321  29.969  1.00  0.00     0.054 A 
BRANCH  63  64
ATOM     64  S   UNL A   1      52.816  27.146  30.130  1.00  0.00     0.124 S 
ATOM     65  O   UNL A   1      53.268  28.530  30.008  1.00  0.00    -0.237 OA
ATOM     66  O   UNL A   1      52.964  26.552  31.457  1.00  0.00    -0.237 OA
ATOM     67  O   UNL A   1      53.180  26.271  29.018  1.00  0.00    -0.744 OA
ENDBRANCH  63  64
ENDBRANCH  37  58
ENDBRANCH  11  12
ENDBRANCH   4   6
ENDBRANCH   1   2
BRANCH   1  68
ATOM     68  C   UNL A   1      32.460  27.926  26.831  1.00  0.00     0.042 C 
BRANCH  68  69
ATOM     69  C   UNL A   1      32.606  26.575  26.134  1.00  0.00     0.117 C 
BRANCH  69  70
ATOM     70  N   UNL A   1      31.663  25.605  26.653  1.00  0.00    -0.356 N 
ATOM     71  C   UNL A   1      31.672  24.251  26.721  1.00  0.00     0.227 C 
ATOM     72  H   UNL A   1      30.851  26.012  27.033  1.00  0.00     0.163 HD
ATOM     73  O   UNL A   1      30.651  23.746  27.209  1.00  0.00    -0.274 OA
BRANCH  71  74
ATOM     74  C   UNL A   1      32.869  23.357  26.345  1.00  0.00     0.103 C 
ATOM     75  C   UNL A   1      33.578  22.942  27.611  1.00  0.00    -0.016 C 
ATOM     76  C   UNL A   1      32.676  22.007  25.651  1.00  0.00     0.047 C 
ATOM     77  C   UNL A   1      33.980  21.667  27.586  1.00  0.00    -0.006 C 
ATOM     78  C   UNL A   1      33.656  21.015  26.291  1.00  0.00     0.106 C 
BRANCH  78  79
ATOM     79  N   UNL A   1      33.019  19.744  26.544  1.00  0.00    -0.345 N 
ATOM     80  C   UNL A   1      32.964  18.651  25.719  1.00  0.00     0.279 C 
ATOM     81  H   UNL A   1      32.570  19.652  27.414  1.00  0.00     0.164 HD
ATOM     82  O   UNL A   1      32.227  17.720  26.039  1.00  0.00    -0.268 OA
BRANCH  80  83
ATOM     83  C   UNL A   1      33.806  18.653  24.425  1.00  0.00     0.283 C 
ATOM     84  C   UNL A   1      33.116  17.930  23.255  1.00  0.00     0.150 C 
ATOM     85  N   UNL A   1      35.145  18.044  24.693  1.00  0.00    -0.327 N 
ATOM     86  S   UNL A   1      34.137  16.473  22.908  1.00  0.00    -0.096 SA
ATOM     87  C   UNL A   1      34.991  16.607  24.479  1.00  0.00     0.333 C 
ATOM     88  H   UNL A   1      35.432  18.230  25.654  1.00  0.00     0.347 HD
ATOM     89  H   UNL A   1      35.860  18.435  24.080  1.00  0.00     0.347 HD
ENDBRANCH  80  83
ENDBRANCH  78  79
ENDBRANCH  71  74
ENDBRANCH  69  70
ENDBRANCH  68  69
ENDBRANCH   1  68
TORSDOF 15
ENDMDL
MODEL 2
REMARK VINA RESULT:     -11.0      3.948      6.814
REMARK SMILES O=C(NCCCNC(=O)[C@H]1C=C[C@@H](NC(=O)[C@@H]2CSC[NH2+]2)C1)c1ccc(-c2c3nc(c(-c4ccc(S(=O)(=O)[O-])cc4)c4ccc([nH]4)c(-c4ccc(S(=O)(=O)[O-])cc4)c4nc(c(-c5ccc(S(=O)(=O)[O-])cc5)c5ccc2[nH]5)C=C4)C=C3)cc1
REMARK SMILES IDX 4 1 3 2 1 3 2 4 23 6 24 7 82 8 25 9 81 10 26 11 27 12 28 13
REMARK SMILES IDX 75 14 29 15 80 16 74 17 76 18 30 19 79 20 73 21 72 22 31 24
REMARK SMILES IDX 61 25 42 26 60 27 43 28 46 29 59 30 77 31 44 32 45 33 58 35
REMARK SMILES IDX 78 36 47 37 32 38 33 39 41 40 34 41 40 42 35 43 36 44 37 45
REMARK SMILES IDX 38 46 39 47 62 48 63 49 71 50 64 51 70 52 65 53 66 54 67 55
REMARK SMILES IDX 68 56 69 57 48 58 49 59 57 60 50 61 56 62 51 63 52 64 53 65
REMARK SMILES IDX 54 66 55 67 5 68 6 69 7 70 8 71 9 73 10 74 11 75 22 76 12 77
REMARK SMILES IDX 13 78 14 79 15 80 16 82 17 83 18 84 21 85 19 86 20 87
REMARK H PARENT 3 5 76 23 46 34 7 72 14 81 21 88 21 89
REMARK Flexibility Score: inf
ROOT
ATOM      1  C   UNL A   1      34.768  32.817  28.074  1.00  0.00     0.118 C 
ENDROOT
BRANCH   1   2
ATOM      2  N   UNL A   1      33.971  31.609  27.927  1.00  0.00    -0.352 N 
ATOM      3  O   UNL A   1      33.563  29.437  27.520  1.00  0.00    -0.269 OA
ATOM      4  C   UNL A   1      34.371  30.293  27.861  1.00  0.00     0.251 C 
ATOM      5  H   UNL A   1      32.999  31.754  27.867  1.00  0.00     0.163 HD
BRANCH   4   6
ATOM      6  C   UNL A   1      35.766  29.915  28.190  1.00  0.00     0.039 A 
ATOM      7  C   UNL A   1      36.785  30.055  27.247  1.00  0.00     0.014 A 
ATOM      8  C   UNL A   1      36.071  29.453  29.475  1.00  0.00     0.014 A 
ATOM      9  C   UNL A   1      38.062  29.592  27.531  1.00  0.00     0.010 A 
ATOM     10  C   UNL A   1      37.386  29.093  29.798  1.00  0.00     0.010 A 
ATOM     11  C   UNL A   1      38.390  29.139  28.821  1.00  0.00    -0.014 A 
BRANCH  11  12
ATOM     12  C   UNL A   1      39.814  28.828  29.117  1.00  0.00     0.031 A 
ATOM     13  C   UNL A   1      40.432  27.512  28.735  1.00  0.00     0.074 A 
ATOM     14  C   UNL A   1      40.567  29.795  29.679  1.00  0.00     0.049 A 
ATOM     15  N   UNL A   1      41.682  27.136  28.844  1.00  0.00    -0.248 NA
ATOM     16  C   UNL A   1      39.545  26.484  28.171  1.00  0.00     0.031 C 
ATOM     17  C   UNL A   1      40.066  31.105  30.114  1.00  0.00     0.029 A 
ATOM     18  N   UNL A   1      41.910  29.855  29.942  1.00  0.00    -0.354 N 
ATOM     19  C   UNL A   1      41.732  25.830  28.368  1.00  0.00     0.074 A 
ATOM     20  C   UNL A   1      40.380  25.467  28.001  1.00  0.00     0.031 C 
ATOM     21  C   UNL A   1      41.096  31.859  30.519  1.00  0.00     0.029 A 
ATOM     22  C   UNL A   1      42.318  31.070  30.442  1.00  0.00     0.049 A 
ATOM     23  H   UNL A   1      42.525  29.101  29.789  1.00  0.00     0.167 HD
ATOM     24  C   UNL A   1      42.809  25.015  28.242  1.00  0.00     0.031 A 
ATOM     25  C   UNL A   1      43.536  31.505  30.809  1.00  0.00     0.031 A 
ATOM     26  C   UNL A   1      44.151  25.384  28.618  1.00  0.00     0.049 A 
ATOM     27  C   UNL A   1      44.707  30.579  30.664  1.00  0.00     0.074 A 
ATOM     28  C   UNL A   1      45.309  24.631  28.527  1.00  0.00     0.029 A 
ATOM     29  N   UNL A   1      44.517  26.610  29.153  1.00  0.00    -0.354 N 
ATOM     30  N   UNL A   1      44.732  29.355  30.194  1.00  0.00    -0.248 NA
ATOM     31  C   UNL A   1      46.013  31.092  31.095  1.00  0.00     0.031 C 
ATOM     32  C   UNL A   1      46.366  25.385  29.048  1.00  0.00     0.029 A 
ATOM     33  C   UNL A   1      45.879  26.629  29.412  1.00  0.00     0.049 A 
ATOM     34  H   UNL A   1      43.901  27.359  29.324  1.00  0.00     0.167 HD
ATOM     35  C   UNL A   1      46.057  28.949  30.272  1.00  0.00     0.074 A 
ATOM     36  C   UNL A   1      46.808  30.074  30.794  1.00  0.00     0.031 C 
ATOM     37  C   UNL A   1      46.605  27.752  29.951  1.00  0.00     0.031 A 
BRANCH  24  38
ATOM     38  C   UNL A   1      42.582  23.634  27.683  1.00  0.00    -0.014 A 
ATOM     39  C   UNL A   1      42.762  23.366  26.314  1.00  0.00     0.010 A 
ATOM     40  C   UNL A   1      42.254  22.572  28.547  1.00  0.00     0.010 A 
ATOM     41  C   UNL A   1      42.593  22.070  25.816  1.00  0.00     0.020 A 
ATOM     42  C   UNL A   1      42.107  21.271  28.058  1.00  0.00     0.020 A 
ATOM     43  C   UNL A   1      42.267  21.029  26.692  1.00  0.00     0.054 A 
BRANCH  43  44
ATOM     44  S   UNL A   1      42.098  19.350  26.025  1.00  0.00     0.124 S 
ATOM     45  O   UNL A   1      42.936  19.413  24.831  1.00  0.00    -0.237 OA
ATOM     46  O   UNL A   1      42.612  18.520  27.111  1.00  0.00    -0.237 OA
ATOM     47  O   UNL A   1      40.665  19.220  25.773  1.00  0.00    -0.744 OA
ENDBRANCH  43  44
ENDBRANCH  24  38
BRANCH  25  48
ATOM     48  C   UNL A   1      43.695  32.871  31.380  1.00  0.00    -0.014 A 
ATOM     49  C   UNL A   1      43.822  33.996  30.548  1.00  0.00     0.010 A 
ATOM     50  C   UNL A   1      43.702  33.048  32.777  1.00  0.00     0.010 A 
ATOM     51  C   UNL A   1      43.980  35.270  31.103  1.00  0.00     0.020 A 
ATOM     52  C   UNL A   1      43.823  34.321  33.334  1.00  0.00     0.020 A 
ATOM     53  C   UNL A   1      43.979  35.425  32.493  1.00  0.00     0.054 A 
BRANCH  53  54
ATOM     54  S   UNL A   1      44.144  37.088  33.196  1.00  0.00     0.124 S 
ATOM     55  O   UNL A   1      44.247  37.914  31.998  1.00  0.00    -0.237 OA
ATOM     56  O   UNL A   1      42.909  37.234  33.962  1.00  0.00    -0.237 OA
ATOM     57  O   UNL A   1      45.359  36.998  34.003  1.00  0.00    -0.744 OA
ENDBRANCH  53  54
ENDBRANCH  25  48
BRANCH  37  58
ATOM     58  C   UNL A   1      48.089  27.611  30.151  1.00  0.00    -0.014 A 
ATOM     59  C   UNL A   1      48.997  28.021  29.157  1.00  0.00     0.010 A 
ATOM     60  C   UNL A   1      48.583  27.065  31.349  1.00  0.00     0.010 A 
ATOM     61  C   UNL A   1      50.370  27.838  29.337  1.00  0.00     0.020 A 
ATOM     62  C   UNL A   1      49.957  26.907  31.544  1.00  0.00     0.020 A 
ATOM     63  C   UNL A   1      50.840  27.274  30.527  1.00  0.00     0.054 A 
BRANCH  63  64
ATOM     64  S   UNL A   1      52.627  27.049  30.739  1.00  0.00     0.124 S 
ATOM     65  O   UNL A   1      53.052  28.379  31.167  1.00  0.00    -0.237 OA
ATOM     66  O   UNL A   1      52.701  26.007  31.760  1.00  0.00    -0.237 OA
ATOM     67  O   UNL A   1      53.085  26.646  29.412  1.00  0.00    -0.744 OA
ENDBRANCH  63  64
ENDBRANCH  37  58
ENDBRANCH  11  12
ENDBRANCH   4   6
ENDBRANCH   1   2
BRANCH   1  68
ATOM     68  C   UNL A   1      33.931  34.013  28.504  1.00  0.00     0.042 C 
BRANCH  68  69
ATOM     69  C   UNL A   1      34.476  34.726  29.740  1.00  0.00     0.117 C 
BRANCH  69  70
ATOM     70  N   UNL A   1      33.953  34.148  30.961  1.00  0.00    -0.356 N 
ATOM     71  C   UNL A   1      34.413  33.190  31.802  1.00  0.00     0.227 C 
ATOM     72  H   UNL A   1      33.088  34.529  31.236  1.00  0.00     0.163 HD
ATOM     73  O   UNL A   1      33.662  32.921  32.749  1.00  0.00    -0.274 OA
BRANCH  71  74
ATOM     74  C   UNL A   1      35.802  32.528  31.709  1.00  0.00     0.103 C 
ATOM     75  C   UNL A   1      36.841  33.518  32.175  1.00  0.00    -0.016 C 
ATOM     76  C   UNL A   1      36.162  31.297  32.543  1.00  0.00     0.047 C 
ATOM     77  C   UNL A   1      37.797  32.954  32.920  1.00  0.00    -0.006 C 
ATOM     78  C   UNL A   1      37.598  31.487  33.050  1.00  0.00     0.106 C 
BRANCH  78  79
ATOM     79  N   UNL A   1      37.713  31.111  34.440  1.00  0.00    -0.345 N 
ATOM     80  C   UNL A   1      38.795  30.561  35.076  1.00  0.00     0.279 C 
ATOM     81  H   UNL A   1      36.917  31.269  34.996  1.00  0.00     0.164 HD
ATOM     82  O   UNL A   1      38.643  30.149  36.225  1.00  0.00    -0.268 OA
BRANCH  80  83
ATOM     83  C   UNL A   1      40.134  30.465  34.317  1.00  0.00     0.283 C 
ATOM     84  C   UNL A   1      41.006  29.283  34.779  1.00  0.00     0.150 C 
ATOM     85  N   UNL A   1      40.888  31.749  34.455  1.00  0.00    -0.327 N 
ATOM     86  S   UNL A   1      42.470  30.025  35.547  1.00  0.00    -0.096 SA
ATOM     87  C   UNL A   1      41.679  31.629  35.677  1.00  0.00     0.333 C 
ATOM     88  H   UNL A   1      40.239  32.532  34.529  1.00  0.00     0.347 HD
ATOM     89  H   UNL A   1      41.481  31.920  33.644  1.00  0.00     0.347 HD
ENDBRANCH  80  83
ENDBRANCH  78  79
ENDBRANCH  71  74
ENDBRANCH  69  70
ENDBRANCH  68  69
ENDBRANCH   1  68
TORSDOF 15
ENDMDL
MODEL 3
REMARK VINA RESULT:     -10.7      5.087      9.832
REMARK SMILES O=C(NCCCNC(=O)[C@H]1C=C[C@@H](NC(=O)[C@@H]2CSC[NH2+]2)C1)c1ccc(-c2c3nc(c(-c4ccc(S(=O)(=O)[O-])cc4)c4ccc([nH]4)c(-c4ccc(S(=O)(=O)[O-])cc4)c4nc(c(-c5ccc(S(=O)(=O)[O-])cc5)c5ccc2[nH]5)C=C4)C=C3)cc1
REMARK SMILES IDX 4 1 3 2 1 3 2 4 23 6 24 7 82 8 25 9 81 10 26 11 27 12 28 13
REMARK SMILES IDX 75 14 29 15 80 16 74 17 76 18 30 19 79 20 73 21 72 22 31 24
REMARK SMILES IDX 61 25 42 26 60 27 43 28 46 29 59 30 77 31 44 32 45 33 58 35
REMARK SMILES IDX 78 36 47 37 32 38 33 39 41 40 34 41 40 42 35 43 36 44 37 45
REMARK SMILES IDX 38 46 39 47 62 48 63 49 71 50 64 51 70 52 65 53 66 54 67 55
REMARK SMILES IDX 68 56 69 57 48 58 49 59 57 60 50 61 56 62 51 63 52 64 53 65
REMARK SMILES IDX 54 66 55 67 5 68 6 69 7 70 8 71 9 73 10 74 11 75 22 76 12 77
REMARK SMILES IDX 13 78 14 79 15 80 16 82 17 83 18 84 21 85 19 86 20 87
REMARK H PARENT 3 5 76 23 46 34 7 72 14 81 21 88 21 89
REMARK Flexibility Score: inf
ROOT
ATOM      1  C   UNL A   1      40.115  23.330  27.036  1.00  0.00     0.118 C 
ENDROOT
BRANCH   1   2
ATOM      2  N   UNL A   1      40.987  23.994  26.079  1.00  0.00    -0.352 N 
ATOM      3  O   UNL A   1      41.986  25.718  25.041  1.00  0.00    -0.269 OA
ATOM      4  C   UNL A   1      41.432  25.295  26.049  1.00  0.00     0.251 C 
ATOM      5  H   UNL A   1      41.307  23.425  25.342  1.00  0.00     0.163 HD
BRANCH   4   6
ATOM      6  C   UNL A   1      41.235  26.183  27.220  1.00  0.00     0.039 A 
ATOM      7  C   UNL A   1      40.252  25.905  28.170  1.00  0.00     0.014 A 
ATOM      8  C   UNL A   1      42.075  27.288  27.397  1.00  0.00     0.014 A 
ATOM      9  C   UNL A   1      40.005  26.805  29.198  1.00  0.00     0.010 A 
ATOM     10  C   UNL A   1      41.900  28.134  28.500  1.00  0.00     0.010 A 
ATOM     11  C   UNL A   1      40.848  27.912  29.399  1.00  0.00    -0.014 A 
BRANCH  11  12
ATOM     12  C   UNL A   1      40.647  28.737  30.620  1.00  0.00     0.031 A 
ATOM     13  C   UNL A   1      41.534  28.598  31.825  1.00  0.00     0.074 A 
ATOM     14  C   UNL A   1      39.680  29.678  30.592  1.00  0.00     0.049 A 
ATOM     15  N   UNL A   1      41.538  29.313  32.922  1.00  0.00    -0.248 NA
ATOM     16  C   UNL A   1      42.536  27.522  31.808  1.00  0.00     0.031 C 
ATOM     17  C   UNL A   1      38.741  29.887  29.483  1.00  0.00     0.029 A 
ATOM     18  N   UNL A   1      39.350  30.659  31.489  1.00  0.00    -0.354 N 
ATOM     19  C   UNL A   1      42.535  28.773  33.728  1.00  0.00     0.074 A 
ATOM     20  C   UNL A   1      43.092  27.649  33.006  1.00  0.00     0.031 C 
ATOM     21  C   UNL A   1      37.995  30.970  29.734  1.00  0.00     0.029 A 
ATOM     22  C   UNL A   1      38.348  31.492  31.048  1.00  0.00     0.049 A 
ATOM     23  H   UNL A   1      39.786  30.758  32.367  1.00  0.00     0.167 HD
ATOM     24  C   UNL A   1      42.951  29.185  34.951  1.00  0.00     0.031 A 
ATOM     25  C   UNL A   1      37.766  32.554  31.633  1.00  0.00     0.031 A 
ATOM     26  C   UNL A   1      42.383  30.302  35.664  1.00  0.00     0.049 A 
ATOM     27  C   UNL A   1      38.243  32.982  32.989  1.00  0.00     0.074 A 
ATOM     28  C   UNL A   1      42.737  30.799  36.908  1.00  0.00     0.029 A 
ATOM     29  N   UNL A   1      41.347  31.098  35.199  1.00  0.00    -0.354 N 
ATOM     30  N   UNL A   1      39.200  32.466  33.723  1.00  0.00    -0.248 NA
ATOM     31  C   UNL A   1      37.565  34.133  33.595  1.00  0.00     0.031 C 
ATOM     32  C   UNL A   1      41.885  31.866  37.213  1.00  0.00     0.029 A 
ATOM     33  C   UNL A   1      41.038  32.072  36.136  1.00  0.00     0.049 A 
ATOM     34  H   UNL A   1      40.897  30.989  34.331  1.00  0.00     0.167 HD
ATOM     35  C   UNL A   1      39.241  33.232  34.880  1.00  0.00     0.074 A 
ATOM     36  C   UNL A   1      38.241  34.271  34.728  1.00  0.00     0.031 C 
ATOM     37  C   UNL A   1      40.026  33.085  35.975  1.00  0.00     0.031 A 
BRANCH  24  38
ATOM     38  C   UNL A   1      44.069  28.417  35.608  1.00  0.00    -0.014 A 
ATOM     39  C   UNL A   1      43.804  27.303  36.424  1.00  0.00     0.010 A 
ATOM     40  C   UNL A   1      45.408  28.769  35.350  1.00  0.00     0.010 A 
ATOM     41  C   UNL A   1      44.853  26.571  36.990  1.00  0.00     0.020 A 
ATOM     42  C   UNL A   1      46.460  28.026  35.894  1.00  0.00     0.020 A 
ATOM     43  C   UNL A   1      46.175  26.937  36.721  1.00  0.00     0.054 A 
BRANCH  43  44
ATOM     44  S   UNL A   1      47.517  25.943  37.433  1.00  0.00     0.124 S 
ATOM     45  O   UNL A   1      47.038  24.582  37.205  1.00  0.00    -0.237 OA
ATOM     46  O   UNL A   1      48.672  26.345  36.635  1.00  0.00    -0.237 OA
ATOM     47  O   UNL A   1      47.554  26.363  38.831  1.00  0.00    -0.744 OA
ENDBRANCH  43  44
ENDBRANCH  24  38
BRANCH  25  48
ATOM     48  C   UNL A   1      36.648  33.258  30.947  1.00  0.00    -0.014 A 
ATOM     49  C   UNL A   1      36.867  34.009  29.781  1.00  0.00     0.010 A 
ATOM     50  C   UNL A   1      35.341  33.161  31.462  1.00  0.00     0.010 A 
ATOM     51  C   UNL A   1      35.805  34.671  29.157  1.00  0.00     0.020 A 
ATOM     52  C   UNL A   1      34.273  33.790  30.823  1.00  0.00     0.020 A 
ATOM     53  C   UNL A   1      34.514  34.556  29.681  1.00  0.00     0.054 A 
BRANCH  53  54
ATOM     54  S   UNL A   1      33.142  35.388  28.837  1.00  0.00     0.124 S 
ATOM     55  O   UNL A   1      33.844  36.347  27.992  1.00  0.00    -0.237 OA
ATOM     56  O   UNL A   1      32.486  34.287  28.136  1.00  0.00    -0.237 OA
ATOM     57  O   UNL A   1      32.367  35.966  29.934  1.00  0.00    -0.744 OA
ENDBRANCH  53  54
ENDBRANCH  25  48
BRANCH  37  58
ATOM     58  C   UNL A   1      39.832  34.083  37.085  1.00  0.00    -0.014 A 
ATOM     59  C   UNL A   1      40.463  35.341  37.047  1.00  0.00     0.010 A 
ATOM     60  C   UNL A   1      39.008  33.760  38.177  1.00  0.00     0.010 A 
ATOM     61  C   UNL A   1      40.314  36.236  38.108  1.00  0.00     0.020 A 
ATOM     62  C   UNL A   1      38.834  34.665  39.226  1.00  0.00     0.020 A 
ATOM     63  C   UNL A   1      39.506  35.889  39.195  1.00  0.00     0.054 A 
BRANCH  63  64
ATOM     64  S   UNL A   1      39.325  37.069  40.560  1.00  0.00     0.124 S 
ATOM     65  O   UNL A   1      40.716  37.346  40.909  1.00  0.00    -0.237 OA
ATOM     66  O   UNL A   1      38.602  38.175  39.936  1.00  0.00    -0.237 OA
ATOM     67  O   UNL A   1      38.568  36.324  41.563  1.00  0.00    -0.744 OA
ENDBRANCH  63  64
ENDBRANCH  37  58
ENDBRANCH  11  12
ENDBRANCH   4   6
ENDBRANCH   1   2
BRANCH   1  68
ATOM     68  C   UNL A   1      38.914  22.677  26.368  1.00  0.00     0.042 C 
BRANCH  68  69
ATOM     69  C   UNL A   1      37.854  23.676  25.908  1.00  0.00     0.117 C 
BRANCH  69  70
ATOM     70  N   UNL A   1      37.465  23.441  24.532  1.00  0.00    -0.356 N 
ATOM     71  C   UNL A   1      36.404  22.818  23.965  1.00  0.00     0.227 C 
ATOM     72  H   UNL A   1      38.101  23.809  23.877  1.00  0.00     0.163 HD
ATOM     73  O   UNL A   1      36.422  22.776  22.727  1.00  0.00    -0.274 OA
BRANCH  71  74
ATOM     74  C   UNL A   1      35.181  22.282  24.734  1.00  0.00     0.103 C 
ATOM     75  C   UNL A   1      33.941  22.958  24.201  1.00  0.00    -0.016 C 
ATOM     76  C   UNL A   1      34.773  20.810  24.670  1.00  0.00     0.047 C 
ATOM     77  C   UNL A   1      32.903  22.123  24.090  1.00  0.00    -0.006 C 
ATOM     78  C   UNL A   1      33.243  20.758  24.567  1.00  0.00     0.106 C 
BRANCH  78  79
ATOM     79  N   UNL A   1      32.820  19.789  23.584  1.00  0.00    -0.345 N 
ATOM     80  C   UNL A   1      33.099  18.448  23.548  1.00  0.00     0.279 C 
ATOM     81  H   UNL A   1      32.263  20.134  22.849  1.00  0.00     0.164 HD
ATOM     82  O   UNL A   1      32.794  17.819  22.536  1.00  0.00    -0.268 OA
BRANCH  80  83
ATOM     83  C   UNL A   1      33.799  17.802  24.763  1.00  0.00     0.283 C 
ATOM     84  C   UNL A   1      34.403  16.422  24.447  1.00  0.00     0.150 C 
ATOM     85  N   UNL A   1      32.838  17.699  25.904  1.00  0.00    -0.327 N 
ATOM     86  S   UNL A   1      33.457  15.235  25.437  1.00  0.00    -0.096 SA
ATOM     87  C   UNL A   1      32.147  16.422  25.742  1.00  0.00     0.333 C 
ATOM     88  H   UNL A   1      32.171  18.469  25.874  1.00  0.00     0.347 HD
ATOM     89  H   UNL A   1      33.321  17.748  26.801  1.00  0.00     0.347 HD
ENDBRANCH  80  83
ENDBRANCH  78  79
ENDBRANCH  71  74
ENDBRANCH  69  70
ENDBRANCH  68  69
ENDBRANCH   1  68
TORSDOF 15
ENDMDL
