MODEL 1
REMARK VINA RESULT:     -12.0      0.000      0.000
REMARK SMILES CO[C@@H]1C[C@H](C(=O)NCCCNC(=O)c2ccc(-c3c4nc(c(-c5ccc(S(=O)(=O)[O-])cc5)c5ccc([nH]5)c(-c5ccc(S(=O)(=O)[O-])cc5)c5nc(c(-c6ccc(S(=O)(=O)[O-])cc6)c6ccc3[nH]6)C=C5)C=C4)cc2)N(C(=O)c2ncc(Cl)c(Cl)c2Cl)C1
REMARK SMILES IDX 10 1 9 2 8 3 6 4 7 5 5 7 3 8 4 9 87 10 75 11 2 12 1 13 76 14
REMARK SMILES IDX 77 15 78 16 79 17 85 18 80 19 83 20 86 21 81 22 84 23 82 24
REMARK SMILES IDX 11 25 12 26 13 27 14 29 15 30 16 31 74 32 17 33 73 34 18 35
REMARK SMILES IDX 19 36 20 37 67 38 21 39 72 40 66 41 68 42 22 43 71 44 65 45
REMARK SMILES IDX 64 46 23 48 53 49 34 50 52 51 35 52 38 53 51 54 69 55 36 56
REMARK SMILES IDX 37 57 50 59 70 60 39 61 24 62 25 63 33 64 26 65 32 66 27 67
REMARK SMILES IDX 28 68 29 69 30 70 31 71 54 72 55 73 63 74 56 75 62 76 57 77
REMARK SMILES IDX 58 78 59 79 60 80 61 81 40 82 41 83 49 84 42 85 48 86 43 87
REMARK SMILES IDX 44 88 45 89 46 90 47 91
REMARK H PARENT 8 6 12 28 68 47 38 58
REMARK Flexibility Score: inf
ROOT
ATOM      1  C   UNL A   1      33.573  29.000  27.264  1.00  0.00     0.042 C 
ENDROOT
BRANCH   1   2
ATOM      2  C   UNL A   1      32.804  29.852  26.247  1.00  0.00     0.117 C 
BRANCH   2   3
ATOM      3  N   UNL A   1      33.324  29.740  24.891  1.00  0.00    -0.354 N 
ATOM      4  C   UNL A   1      33.129  28.877  23.867  1.00  0.00     0.242 C 
ATOM      5  O   UNL A   1      33.765  29.135  22.832  1.00  0.00    -0.273 OA
ATOM      6  H   UNL A   1      33.964  30.455  24.670  1.00  0.00     0.163 HD
BRANCH   4   7
ATOM      7  C   UNL A   1      32.303  27.567  23.890  1.00  0.00     0.177 C 
ATOM      8  C   UNL A   1      30.203  27.827  22.763  1.00  0.00     0.139 C 
ATOM      9  C   UNL A   1      30.821  27.819  24.159  1.00  0.00     0.069 C 
ATOM     10  C   UNL A   1      31.042  26.784  21.999  1.00  0.00     0.152 C 
ATOM     11  N   UNL A   1      32.277  26.637  22.768  1.00  0.00    -0.323 N 
BRANCH   8  12
ATOM     12  O   UNL A   1      30.326  29.092  22.126  1.00  0.00    -0.380 OA
ATOM     13  C   UNL A   1      29.107  29.815  22.004  1.00  0.00     0.195 C 
ENDBRANCH   8  12
BRANCH  11  14
ATOM     14  C   UNL A   1      33.036  25.479  22.641  1.00  0.00     0.274 C 
ATOM     15  O   UNL A   1      33.481  25.065  21.578  1.00  0.00    -0.267 OA
BRANCH  14  16
ATOM     16  C   UNL A   1      33.161  24.620  23.852  1.00  0.00     0.148 A 
ATOM     17  N   UNL A   1      34.295  24.790  24.582  1.00  0.00    -0.248 NA
ATOM     18  C   UNL A   1      32.080  23.826  24.244  1.00  0.00     0.092 A 
ATOM     19  C   UNL A   1      34.358  24.122  25.756  1.00  0.00     0.134 A 
ATOM     20  C   UNL A   1      32.175  23.179  25.484  1.00  0.00     0.082 A 
ATOM     21  Cl  UNL A   1      30.647  23.714  23.273  1.00  0.00    -0.080 Cl
ATOM     22  C   UNL A   1      33.335  23.325  26.253  1.00  0.00     0.079 A 
ATOM     23  Cl  UNL A   1      30.844  22.237  26.090  1.00  0.00    -0.081 Cl
ATOM     24  Cl  UNL A   1      33.550  22.581  27.795  1.00  0.00    -0.081 Cl
ENDBRANCH  14  16
ENDBRANCH  11  14
ENDBRANCH   4   7
ENDBRANCH   2   3
ENDBRANCH   1   2
BRANCH   1  25
ATOM     25  C   UNL A   1      35.020  29.418  27.524  1.00  0.00     0.118 C 
BRANCH  25  26
ATOM     26  N   UNL A   1      35.161  30.185  28.750  1.00  0.00    -0.352 N 
ATOM     27  C   UNL A   1      36.238  30.309  29.596  1.00  0.00     0.251 C 
ATOM     28  H   UNL A   1      34.362  30.695  29.015  1.00  0.00     0.163 HD
ATOM     29  O   UNL A   1      36.067  30.830  30.696  1.00  0.00    -0.269 OA
BRANCH  27  30
ATOM     30  C   UNL A   1      37.594  29.828  29.221  1.00  0.00     0.039 A 
ATOM     31  C   UNL A   1      38.497  29.514  30.245  1.00  0.00     0.014 A 
ATOM     32  C   UNL A   1      38.023  29.773  27.891  1.00  0.00     0.014 A 
ATOM     33  C   UNL A   1      39.807  29.121  29.939  1.00  0.00     0.010 A 
ATOM     34  C   UNL A   1      39.314  29.328  27.585  1.00  0.00     0.010 A 
ATOM     35  C   UNL A   1      40.227  29.015  28.604  1.00  0.00    -0.014 A 
BRANCH  35  36
ATOM     36  C   UNL A   1      41.623  28.618  28.267  1.00  0.00     0.031 A 
ATOM     37  C   UNL A   1      42.723  29.649  28.238  1.00  0.00     0.074 A 
ATOM     38  C   UNL A   1      41.908  27.338  27.951  1.00  0.00     0.049 A 
ATOM     39  N   UNL A   1      43.985  29.504  27.918  1.00  0.00    -0.248 NA
ATOM     40  C   UNL A   1      42.351  31.027  28.594  1.00  0.00     0.031 C 
ATOM     41  C   UNL A   1      40.943  26.239  27.913  1.00  0.00     0.029 A 
ATOM     42  N   UNL A   1      43.098  26.748  27.596  1.00  0.00    -0.354 N 
ATOM     43  C   UNL A   1      44.550  30.771  28.010  1.00  0.00     0.074 A 
ATOM     44  C   UNL A   1      43.486  31.679  28.383  1.00  0.00     0.031 C 
ATOM     45  C   UNL A   1      41.582  25.106  27.573  1.00  0.00     0.029 A 
ATOM     46  C   UNL A   1      42.993  25.401  27.342  1.00  0.00     0.049 A 
ATOM     47  H   UNL A   1      43.946  27.243  27.531  1.00  0.00     0.167 HD
ATOM     48  C   UNL A   1      45.838  31.149  27.815  1.00  0.00     0.031 A 
ATOM     49  C   UNL A   1      43.922  24.502  26.963  1.00  0.00     0.031 A 
ATOM     50  C   UNL A   1      46.908  30.251  27.471  1.00  0.00     0.049 A 
ATOM     51  C   UNL A   1      45.348  24.939  26.772  1.00  0.00     0.074 A 
ATOM     52  C   UNL A   1      48.253  30.537  27.308  1.00  0.00     0.029 A 
ATOM     53  N   UNL A   1      46.758  28.892  27.245  1.00  0.00    -0.354 N 
ATOM     54  N   UNL A   1      45.867  26.134  26.905  1.00  0.00    -0.248 NA
ATOM     55  C   UNL A   1      46.316  23.899  26.389  1.00  0.00     0.031 C 
ATOM     56  C   UNL A   1      48.913  29.356  26.951  1.00  0.00     0.029 A 
ATOM     57  C   UNL A   1      47.984  28.328  26.930  1.00  0.00     0.049 A 
ATOM     58  H   UNL A   1      45.908  28.401  27.298  1.00  0.00     0.167 HD
ATOM     59  C   UNL A   1      47.225  25.989  26.642  1.00  0.00     0.074 A 
ATOM     60  C   UNL A   1      47.449  24.588  26.353  1.00  0.00     0.031 C 
ATOM     61  C   UNL A   1      48.197  26.933  26.643  1.00  0.00     0.031 A 
BRANCH  48  62
ATOM     62  C   UNL A   1      46.157  32.612  27.965  1.00  0.00    -0.014 A 
ATOM     63  C   UNL A   1      46.077  33.490  26.869  1.00  0.00     0.010 A 
ATOM     64  C   UNL A   1      46.519  33.122  29.226  1.00  0.00     0.010 A 
ATOM     65  C   UNL A   1      46.400  34.840  27.018  1.00  0.00     0.020 A 
ATOM     66  C   UNL A   1      46.820  34.478  29.385  1.00  0.00     0.020 A 
ATOM     67  C   UNL A   1      46.780  35.324  28.274  1.00  0.00     0.054 A 
BRANCH  67  68
ATOM     68  S   UNL A   1      47.194  37.082  28.446  1.00  0.00     0.124 S 
ATOM     69  O   UNL A   1      47.143  37.538  27.059  1.00  0.00    -0.237 OA
ATOM     70  O   UNL A   1      46.128  37.584  29.310  1.00  0.00    -0.237 OA
ATOM     71  O   UNL A   1      48.525  37.066  29.049  1.00  0.00    -0.744 OA
ENDBRANCH  67  68
ENDBRANCH  48  62
BRANCH  49  72
ATOM     72  C   UNL A   1      43.531  23.082  26.755  1.00  0.00    -0.014 A 
ATOM     73  C   UNL A   1      43.715  22.472  25.503  1.00  0.00     0.010 A 
ATOM     74  C   UNL A   1      42.994  22.329  27.814  1.00  0.00     0.010 A 
ATOM     75  C   UNL A   1      43.363  21.133  25.310  1.00  0.00     0.020 A 
ATOM     76  C   UNL A   1      42.660  20.985  27.631  1.00  0.00     0.020 A 
ATOM     77  C   UNL A   1      42.839  20.397  26.376  1.00  0.00     0.054 A 
BRANCH  77  78
ATOM     78  S   UNL A   1      42.453  18.640  26.128  1.00  0.00     0.124 S 
ATOM     79  O   UNL A   1      42.745  18.077  27.442  1.00  0.00    -0.237 OA
ATOM     80  O   UNL A   1      41.043  18.673  25.751  1.00  0.00    -0.237 OA
ATOM     81  O   UNL A   1      43.365  18.243  25.057  1.00  0.00    -0.744 OA
ENDBRANCH  77  78
ENDBRANCH  49  72
BRANCH  61  82
ATOM     82  C   UNL A   1      49.601  26.482  26.346  1.00  0.00    -0.014 A 
ATOM     83  C   UNL A   1      50.148  26.617  25.057  1.00  0.00     0.010 A 
ATOM     84  C   UNL A   1      50.400  25.965  27.381  1.00  0.00     0.010 A 
ATOM     85  C   UNL A   1      51.463  26.218  24.805  1.00  0.00     0.020 A 
ATOM     86  C   UNL A   1      51.722  25.583  27.136  1.00  0.00     0.020 A 
ATOM     87  C   UNL A   1      52.241  25.699  25.845  1.00  0.00     0.054 A 
BRANCH  87  88
ATOM     88  S   UNL A   1      53.961  25.231  25.506  1.00  0.00     0.124 S 
ATOM     89  O   UNL A   1      53.792  24.078  24.626  1.00  0.00    -0.237 OA
ATOM     90  O   UNL A   1      54.505  26.430  24.873  1.00  0.00    -0.237 OA
ATOM     91  O   UNL A   1      54.504  24.933  26.829  1.00  0.00    -0.744 OA
ENDBRANCH  87  88
ENDBRANCH  61  82
ENDBRANCH  35  36
ENDBRANCH  27  30
ENDBRANCH  25  26
ENDBRANCH   1  25
TORSDOF 16
ENDMDL
MODEL 2
REMARK VINA RESULT:     -11.8      4.283     10.189
REMARK SMILES CO[C@@H]1C[C@H](C(=O)NCCCNC(=O)c2ccc(-c3c4nc(c(-c5ccc(S(=O)(=O)[O-])cc5)c5ccc([nH]5)c(-c5ccc(S(=O)(=O)[O-])cc5)c5nc(c(-c6ccc(S(=O)(=O)[O-])cc6)c6ccc3[nH]6)C=C5)C=C4)cc2)N(C(=O)c2ncc(Cl)c(Cl)c2Cl)C1
REMARK SMILES IDX 10 1 9 2 8 3 6 4 7 5 5 7 3 8 4 9 87 10 75 11 2 12 1 13 76 14
REMARK SMILES IDX 77 15 78 16 79 17 85 18 80 19 83 20 86 21 81 22 84 23 82 24
REMARK SMILES IDX 11 25 12 26 13 27 14 29 15 30 16 31 74 32 17 33 73 34 18 35
REMARK SMILES IDX 19 36 20 37 67 38 21 39 72 40 66 41 68 42 22 43 71 44 65 45
REMARK SMILES IDX 64 46 23 48 53 49 34 50 52 51 35 52 38 53 51 54 69 55 36 56
REMARK SMILES IDX 37 57 50 59 70 60 39 61 24 62 25 63 33 64 26 65 32 66 27 67
REMARK SMILES IDX 28 68 29 69 30 70 31 71 54 72 55 73 63 74 56 75 62 76 57 77
REMARK SMILES IDX 58 78 59 79 60 80 61 81 40 82 41 83 49 84 42 85 48 86 43 87
REMARK SMILES IDX 44 88 45 89 46 90 47 91
REMARK H PARENT 8 6 12 28 68 47 38 58
REMARK Flexibility Score: inf
ROOT
ATOM      1  C   UNL A   1      35.655  23.638  25.483  1.00  0.00     0.042 C 
ENDROOT
BRANCH   1   2
ATOM      2  C   UNL A   1      34.684  24.745  25.054  1.00  0.00     0.117 C 
BRANCH   2   3
ATOM      3  N   UNL A   1      34.373  24.718  23.631  1.00  0.00    -0.354 N 
ATOM      4  C   UNL A   1      33.265  24.436  22.906  1.00  0.00     0.242 C 
ATOM      5  O   UNL A   1      33.399  24.543  21.677  1.00  0.00    -0.273 OA
ATOM      6  H   UNL A   1      35.143  24.960  23.069  1.00  0.00     0.163 HD
BRANCH   4   7
ATOM      7  C   UNL A   1      31.913  23.894  23.434  1.00  0.00     0.177 C 
ATOM      8  C   UNL A   1      32.129  21.664  24.288  1.00  0.00     0.139 C 
ATOM      9  C   UNL A   1      31.682  22.434  23.049  1.00  0.00     0.069 C 
ATOM     10  C   UNL A   1      31.725  22.595  25.448  1.00  0.00     0.152 C 
ATOM     11  N   UNL A   1      31.559  23.918  24.848  1.00  0.00    -0.323 N 
BRANCH   8  12
ATOM     12  O   UNL A   1      33.535  21.457  24.316  1.00  0.00    -0.380 OA
ATOM     13  C   UNL A   1      33.953  20.329  25.075  1.00  0.00     0.195 C 
ENDBRANCH   8  12
BRANCH  11  14
ATOM     14  C   UNL A   1      30.769  24.870  25.482  1.00  0.00     0.274 C 
ATOM     15  O   UNL A   1      30.083  24.642  26.471  1.00  0.00    -0.267 OA
BRANCH  14  16
ATOM     16  C   UNL A   1      30.632  26.190  24.806  1.00  0.00     0.148 A 
ATOM     17  N   UNL A   1      29.624  26.287  23.899  1.00  0.00    -0.248 NA
ATOM     18  C   UNL A   1      31.417  27.265  25.232  1.00  0.00     0.092 A 
ATOM     19  C   UNL A   1      29.399  27.517  23.382  1.00  0.00     0.134 A 
ATOM     20  C   UNL A   1      31.126  28.526  24.695  1.00  0.00     0.082 A 
ATOM     21  Cl  UNL A   1      32.646  27.057  26.439  1.00  0.00    -0.080 Cl
ATOM     22  C   UNL A   1      30.103  28.656  23.750  1.00  0.00     0.079 A 
ATOM     23  Cl  UNL A   1      31.998  29.933  25.229  1.00  0.00    -0.081 Cl
ATOM     24  Cl  UNL A   1      29.658  30.162  23.034  1.00  0.00    -0.081 Cl
ENDBRANCH  14  16
ENDBRANCH  11  14
ENDBRANCH   4   7
ENDBRANCH   2   3
ENDBRANCH   1   2
BRANCH   1  25
ATOM     25  C   UNL A   1      37.044  23.686  24.846  1.00  0.00     0.118 C 
BRANCH  25  26
ATOM     26  N   UNL A   1      37.942  22.689  25.405  1.00  0.00    -0.352 N 
ATOM     27  C   UNL A   1      39.050  22.847  26.202  1.00  0.00     0.251 C 
ATOM     28  H   UNL A   1      37.722  21.757  25.176  1.00  0.00     0.163 HD
ATOM     29  O   UNL A   1      39.795  21.884  26.376  1.00  0.00    -0.269 OA
BRANCH  27  30
ATOM     30  C   UNL A   1      39.375  24.144  26.853  1.00  0.00     0.039 A 
ATOM     31  C   UNL A   1      40.164  25.064  26.152  1.00  0.00     0.014 A 
ATOM     32  C   UNL A   1      39.001  24.430  28.170  1.00  0.00     0.014 A 
ATOM     33  C   UNL A   1      40.550  26.270  26.752  1.00  0.00     0.010 A 
ATOM     34  C   UNL A   1      39.340  25.658  28.749  1.00  0.00     0.010 A 
ATOM     35  C   UNL A   1      40.134  26.584  28.055  1.00  0.00    -0.014 A 
BRANCH  35  36
ATOM     36  C   UNL A   1      40.555  27.854  28.710  1.00  0.00     0.031 A 
ATOM     37  C   UNL A   1      41.942  27.991  29.286  1.00  0.00     0.074 A 
ATOM     38  C   UNL A   1      39.688  28.880  28.825  1.00  0.00     0.049 A 
ATOM     39  N   UNL A   1      42.472  28.997  29.938  1.00  0.00    -0.248 NA
ATOM     40  C   UNL A   1      42.844  26.840  29.128  1.00  0.00     0.031 C 
ATOM     41  C   UNL A   1      38.308  28.882  28.339  1.00  0.00     0.029 A 
ATOM     42  N   UNL A   1      39.841  30.122  29.394  1.00  0.00    -0.354 N 
ATOM     43  C   UNL A   1      43.755  28.592  30.287  1.00  0.00     0.074 A 
ATOM     44  C   UNL A   1      43.913  27.236  29.805  1.00  0.00     0.031 C 
ATOM     45  C   UNL A   1      37.747  30.072  28.613  1.00  0.00     0.029 A 
ATOM     46  C   UNL A   1      38.715  30.908  29.319  1.00  0.00     0.049 A 
ATOM     47  H   UNL A   1      40.678  30.421  29.816  1.00  0.00     0.167 HD
ATOM     48  C   UNL A   1      44.723  29.284  30.939  1.00  0.00     0.031 A 
ATOM     49  C   UNL A   1      38.481  32.156  29.767  1.00  0.00     0.031 A 
ATOM     50  C   UNL A   1      44.587  30.640  31.398  1.00  0.00     0.049 A 
ATOM     51  C   UNL A   1      39.574  32.913  30.470  1.00  0.00     0.074 A 
ATOM     52  C   UNL A   1      45.532  31.438  32.018  1.00  0.00     0.029 A 
ATOM     53  N   UNL A   1      43.435  31.403  31.280  1.00  0.00    -0.354 N 
ATOM     54  N   UNL A   1      40.794  32.524  30.753  1.00  0.00    -0.248 NA
ATOM     55  C   UNL A   1      39.261  34.283  30.904  1.00  0.00     0.031 C 
ATOM     56  C   UNL A   1      44.943  32.675  32.306  1.00  0.00     0.029 A 
ATOM     57  C   UNL A   1      43.643  32.658  31.829  1.00  0.00     0.049 A 
ATOM     58  H   UNL A   1      42.595  31.098  30.870  1.00  0.00     0.167 HD
ATOM     59  C   UNL A   1      41.400  33.607  31.379  1.00  0.00     0.074 A 
ATOM     60  C   UNL A   1      40.418  34.670  31.425  1.00  0.00     0.031 C 
ATOM     61  C   UNL A   1      42.659  33.709  31.871  1.00  0.00     0.031 A 
BRANCH  48  62
ATOM     62  C   UNL A   1      46.023  28.571  31.200  1.00  0.00    -0.014 A 
ATOM     63  C   UNL A   1      47.089  28.646  30.287  1.00  0.00     0.010 A 
ATOM     64  C   UNL A   1      46.189  27.836  32.388  1.00  0.00     0.010 A 
ATOM     65  C   UNL A   1      48.281  27.960  30.532  1.00  0.00     0.020 A 
ATOM     66  C   UNL A   1      47.389  27.166  32.648  1.00  0.00     0.020 A 
ATOM     67  C   UNL A   1      48.419  27.215  31.707  1.00  0.00     0.054 A 
BRANCH  67  68
ATOM     68  S   UNL A   1      49.975  26.332  32.006  1.00  0.00     0.124 S 
ATOM     69  O   UNL A   1      49.502  25.088  32.607  1.00  0.00    -0.237 OA
ATOM     70  O   UNL A   1      50.540  26.205  30.664  1.00  0.00    -0.237 OA
ATOM     71  O   UNL A   1      50.709  27.220  32.905  1.00  0.00    -0.744 OA
ENDBRANCH  67  68
ENDBRANCH  48  62
BRANCH  49  72
ATOM     72  C   UNL A   1      37.149  32.781  29.547  1.00  0.00    -0.014 A 
ATOM     73  C   UNL A   1      36.169  32.736  30.553  1.00  0.00     0.010 A 
ATOM     74  C   UNL A   1      36.865  33.441  28.338  1.00  0.00     0.010 A 
ATOM     75  C   UNL A   1      34.923  33.337  30.354  1.00  0.00     0.020 A 
ATOM     76  C   UNL A   1      35.627  34.060  28.143  1.00  0.00     0.020 A 
ATOM     77  C   UNL A   1      34.661  33.997  29.149  1.00  0.00     0.054 A 
BRANCH  77  78
ATOM     78  S   UNL A   1      33.063  34.832  28.934  1.00  0.00     0.124 S 
ATOM     79  O   UNL A   1      33.468  36.133  28.414  1.00  0.00    -0.237 OA
ATOM     80  O   UNL A   1      32.371  33.959  27.990  1.00  0.00    -0.237 OA
ATOM     81  O   UNL A   1      32.503  34.841  30.285  1.00  0.00    -0.744 OA
ENDBRANCH  77  78
ENDBRANCH  49  72
BRANCH  61  82
ATOM     82  C   UNL A   1      43.060  35.024  32.481  1.00  0.00    -0.014 A 
ATOM     83  C   UNL A   1      43.645  36.037  31.700  1.00  0.00     0.010 A 
ATOM     84  C   UNL A   1      42.799  35.270  33.841  1.00  0.00     0.010 A 
ATOM     85  C   UNL A   1      43.988  37.262  32.277  1.00  0.00     0.020 A 
ATOM     86  C   UNL A   1      43.122  36.501  34.417  1.00  0.00     0.020 A 
ATOM     87  C   UNL A   1      43.727  37.487  33.633  1.00  0.00     0.054 A 
BRANCH  87  88
ATOM     88  S   UNL A   1      44.136  39.102  34.350  1.00  0.00     0.124 S 
ATOM     89  O   UNL A   1      44.089  38.818  35.782  1.00  0.00    -0.237 OA
ATOM     90  O   UNL A   1      45.464  39.372  33.806  1.00  0.00    -0.237 OA
ATOM     91  O   UNL A   1      43.077  39.978  33.853  1.00  0.00    -0.744 OA
ENDBRANCH  87  88
ENDBRANCH  61  82
ENDBRANCH  35  36
ENDBRANCH  27  30
ENDBRANCH  25  26
ENDBRANCH   1  25
TORSDOF 16
ENDMDL
MODEL 3
REMARK VINA RESULT:     -11.6      0.631      8.163
REMARK SMILES CO[C@@H]1C[C@H](C(=O)NCCCNC(=O)c2ccc(-c3c4nc(c(-c5ccc(S(=O)(=O)[O-])cc5)c5ccc([nH]5)c(-c5ccc(S(=O)(=O)[O-])cc5)c5nc(c(-c6ccc(S(=O)(=O)[O-])cc6)c6ccc3[nH]6)C=C5)C=C4)cc2)N(C(=O)c2ncc(Cl)c(Cl)c2Cl)C1
REMARK SMILES IDX 10 1 9 2 8 3 6 4 7 5 5 7 3 8 4 9 87 10 75 11 2 12 1 13 76 14
REMARK SMILES IDX 77 15 78 16 79 17 85 18 80 19 83 20 86 21 81 22 84 23 82 24
REMARK SMILES IDX 11 25 12 26 13 27 14 29 15 30 16 31 74 32 17 33 73 34 18 35
REMARK SMILES IDX 19 36 20 37 67 38 21 39 72 40 66 41 68 42 22 43 71 44 65 45
REMARK SMILES IDX 64 46 23 48 53 49 34 50 52 51 35 52 38 53 51 54 69 55 36 56
REMARK SMILES IDX 37 57 50 59 70 60 39 61 24 62 25 63 33 64 26 65 32 66 27 67
REMARK SMILES IDX 28 68 29 69 30 70 31 71 54 72 55 73 63 74 56 75 62 76 57 77
REMARK SMILES IDX 58 78 59 79 60 80 61 81 40 82 41 83 49 84 42 85 48 86 43 87
REMARK SMILES IDX 44 88 45 89 46 90 47 91
REMARK H PARENT 8 6 12 28 68 47 38 58
REMARK Flexibility Score: inf
ROOT
ATOM      1  C   UNL A   1      34.892  29.066  27.430  1.00  0.00     0.042 C 
ENDROOT
BRANCH   1   2
ATOM      2  C   UNL A   1      33.568  29.211  26.668  1.00  0.00     0.117 C 
BRANCH   2   3
ATOM      3  N   UNL A   1      33.747  29.422  25.238  1.00  0.00    -0.354 N 
ATOM      4  C   UNL A   1      33.266  28.826  24.122  1.00  0.00     0.242 C 
ATOM      5  O   UNL A   1      33.654  29.321  23.052  1.00  0.00    -0.273 OA
ATOM      6  H   UNL A   1      34.357  30.168  25.038  1.00  0.00     0.163 HD
BRANCH   4   7
ATOM      7  C   UNL A   1      32.393  27.549  24.045  1.00  0.00     0.177 C 
ATOM      8  C   UNL A   1      30.308  27.969  22.938  1.00  0.00     0.139 C 
ATOM      9  C   UNL A   1      30.920  27.834  24.330  1.00  0.00     0.069 C 
ATOM     10  C   UNL A   1      31.113  26.958  22.098  1.00  0.00     0.152 C 
ATOM     11  N   UNL A   1      32.339  26.709  22.855  1.00  0.00    -0.323 N 
BRANCH   8  12
ATOM     12  O   UNL A   1      30.479  29.274  22.399  1.00  0.00    -0.380 OA
ATOM     13  C   UNL A   1      29.517  30.226  22.835  1.00  0.00     0.195 C 
ENDBRANCH   8  12
BRANCH  11  14
ATOM     14  C   UNL A   1      33.056  25.537  22.642  1.00  0.00     0.274 C 
ATOM     15  O   UNL A   1      33.416  25.146  21.538  1.00  0.00    -0.267 OA
BRANCH  14  16
ATOM     16  C   UNL A   1      33.240  24.638  23.815  1.00  0.00     0.148 A 
ATOM     17  N   UNL A   1      34.418  24.770  24.481  1.00  0.00    -0.248 NA
ATOM     18  C   UNL A   1      32.174  23.843  24.245  1.00  0.00     0.092 A 
ATOM     19  C   UNL A   1      34.541  24.064  25.628  1.00  0.00     0.134 A 
ATOM     20  C   UNL A   1      32.333  23.155  25.456  1.00  0.00     0.082 A 
ATOM     21  Cl  UNL A   1      30.685  23.780  23.358  1.00  0.00    -0.080 Cl
ATOM     22  C   UNL A   1      33.538  23.262  26.159  1.00  0.00     0.079 A 
ATOM     23  Cl  UNL A   1      31.028  22.209  26.109  1.00  0.00    -0.081 Cl
ATOM     24  Cl  UNL A   1      33.834  22.466  27.661  1.00  0.00    -0.081 Cl
ENDBRANCH  14  16
ENDBRANCH  11  14
ENDBRANCH   4   7
ENDBRANCH   2   3
ENDBRANCH   1   2
BRANCH   1  25
ATOM     25  C   UNL A   1      35.455  30.350  28.037  1.00  0.00     0.118 C 
BRANCH  25  26
ATOM     26  N   UNL A   1      35.517  30.294  29.488  1.00  0.00    -0.352 N 
ATOM     27  C   UNL A   1      36.504  29.808  30.312  1.00  0.00     0.251 C 
ATOM     28  H   UNL A   1      34.729  30.660  29.951  1.00  0.00     0.163 HD
ATOM     29  O   UNL A   1      36.253  29.653  31.506  1.00  0.00    -0.269 OA
BRANCH  27  30
ATOM     30  C   UNL A   1      37.857  29.462  29.802  1.00  0.00     0.039 A 
ATOM     31  C   UNL A   1      38.810  28.984  30.710  1.00  0.00     0.014 A 
ATOM     32  C   UNL A   1      38.233  29.691  28.474  1.00  0.00     0.014 A 
ATOM     33  C   UNL A   1      40.118  28.710  30.286  1.00  0.00     0.010 A 
ATOM     34  C   UNL A   1      39.522  29.365  28.040  1.00  0.00     0.010 A 
ATOM     35  C   UNL A   1      40.486  28.888  28.944  1.00  0.00    -0.014 A 
BRANCH  35  36
ATOM     36  C   UNL A   1      41.878  28.619  28.486  1.00  0.00     0.031 A 
ATOM     37  C   UNL A   1      42.274  27.239  28.024  1.00  0.00     0.074 A 
ATOM     38  C   UNL A   1      42.804  29.598  28.514  1.00  0.00     0.049 A 
ATOM     39  N   UNL A   1      43.448  26.801  27.639  1.00  0.00    -0.248 NA
ATOM     40  C   UNL A   1      41.220  26.214  28.013  1.00  0.00     0.031 C 
ATOM     41  C   UNL A   1      42.572  30.973  28.960  1.00  0.00     0.029 A 
ATOM     42  N   UNL A   1      44.134  29.584  28.163  1.00  0.00    -0.354 N 
ATOM     43  C   UNL A   1      43.279  25.449  27.365  1.00  0.00     0.074 A 
ATOM     44  C   UNL A   1      41.898  25.130  27.660  1.00  0.00     0.031 C 
ATOM     45  C   UNL A   1      43.713  31.673  28.838  1.00  0.00     0.029 A 
ATOM     46  C   UNL A   1      44.764  30.793  28.334  1.00  0.00     0.049 A 
ATOM     47  H   UNL A   1      44.590  28.782  27.821  1.00  0.00     0.167 HD
ATOM     48  C   UNL A   1      44.183  24.551  26.899  1.00  0.00     0.031 A 
ATOM     49  C   UNL A   1      46.042  31.158  28.114  1.00  0.00     0.031 A 
ATOM     50  C   UNL A   1      45.550  24.863  26.577  1.00  0.00     0.049 A 
ATOM     51  C   UNL A   1      47.023  30.152  27.579  1.00  0.00     0.074 A 
ATOM     52  C   UNL A   1      46.521  24.030  26.048  1.00  0.00     0.029 A 
ATOM     53  N   UNL A   1      46.138  26.106  26.746  1.00  0.00    -0.354 N 
ATOM     54  N   UNL A   1      46.830  28.889  27.288  1.00  0.00    -0.248 NA
ATOM     55  C   UNL A   1      48.393  30.626  27.332  1.00  0.00     0.031 C 
ATOM     56  C   UNL A   1      47.708  24.762  25.927  1.00  0.00     0.029 A 
ATOM     57  C   UNL A   1      47.463  26.060  26.344  1.00  0.00     0.049 A 
ATOM     58  H   UNL A   1      45.683  26.904  27.100  1.00  0.00     0.167 HD
ATOM     59  C   UNL A   1      48.047  28.422  26.805  1.00  0.00     0.074 A 
ATOM     60  C   UNL A   1      48.967  29.540  26.832  1.00  0.00     0.031 C 
ATOM     61  C   UNL A   1      48.371  27.178  26.376  1.00  0.00     0.031 A 
BRANCH  48  62
ATOM     62  C   UNL A   1      43.714  23.132  26.717  1.00  0.00    -0.014 A 
ATOM     63  C   UNL A   1      43.016  22.461  27.736  1.00  0.00     0.010 A 
ATOM     64  C   UNL A   1      43.954  22.470  25.499  1.00  0.00     0.010 A 
ATOM     65  C   UNL A   1      42.609  21.136  27.561  1.00  0.00     0.020 A 
ATOM     66  C   UNL A   1      43.528  21.151  25.311  1.00  0.00     0.020 A 
ATOM     67  C   UNL A   1      42.877  20.486  26.352  1.00  0.00     0.054 A 
BRANCH  67  68
ATOM     68  S   UNL A   1      42.339  18.766  26.146  1.00  0.00     0.124 S 
ATOM     69  O   UNL A   1      42.567  18.219  27.481  1.00  0.00    -0.237 OA
ATOM     70  O   UNL A   1      40.938  18.908  25.757  1.00  0.00    -0.237 OA
ATOM     71  O   UNL A   1      43.222  18.251  25.101  1.00  0.00    -0.744 OA
ENDBRANCH  67  68
ENDBRANCH  48  62
BRANCH  49  72
ATOM     72  C   UNL A   1      46.466  32.558  28.387  1.00  0.00    -0.014 A 
ATOM     73  C   UNL A   1      46.989  32.909  29.643  1.00  0.00     0.010 A 
ATOM     74  C   UNL A   1      46.368  33.538  27.384  1.00  0.00     0.010 A 
ATOM     75  C   UNL A   1      47.403  34.220  29.895  1.00  0.00     0.020 A 
ATOM     76  C   UNL A   1      46.799  34.845  27.626  1.00  0.00     0.020 A 
ATOM     77  C   UNL A   1      47.306  35.180  28.884  1.00  0.00     0.054 A 
BRANCH  77  78
ATOM     78  S   UNL A   1      47.914  36.860  29.206  1.00  0.00     0.124 S 
ATOM     79  O   UNL A   1      49.325  36.624  29.489  1.00  0.00    -0.237 OA
ATOM     80  O   UNL A   1      47.626  37.550  27.950  1.00  0.00    -0.237 OA
ATOM     81  O   UNL A   1      47.108  37.298  30.344  1.00  0.00    -0.744 OA
ENDBRANCH  77  78
ENDBRANCH  49  72
BRANCH  61  82
ATOM     82  C   UNL A   1      49.773  26.960  25.876  1.00  0.00    -0.014 A 
ATOM     83  C   UNL A   1      50.780  26.477  26.730  1.00  0.00     0.010 A 
ATOM     84  C   UNL A   1      50.074  27.192  24.522  1.00  0.00     0.010 A 
ATOM     85  C   UNL A   1      52.071  26.255  26.244  1.00  0.00     0.020 A 
ATOM     86  C   UNL A   1      51.358  26.952  24.027  1.00  0.00     0.020 A 
ATOM     87  C   UNL A   1      52.353  26.497  24.895  1.00  0.00     0.054 A 
BRANCH  87  88
ATOM     88  S   UNL A   1      54.023  26.157  24.273  1.00  0.00     0.124 S 
ATOM     89  O   UNL A   1      53.827  26.225  22.827  1.00  0.00    -0.237 OA
ATOM     90  O   UNL A   1      54.812  27.242  24.851  1.00  0.00    -0.237 OA
ATOM     91  O   UNL A   1      54.324  24.828  24.801  1.00  0.00    -0.744 OA
ENDBRANCH  87  88
ENDBRANCH  61  82
ENDBRANCH  35  36
ENDBRANCH  27  30
ENDBRANCH  25  26
ENDBRANCH   1  25
TORSDOF 16
ENDMDL
