MODEL 1
REMARK VINA RESULT:     -13.8      0.000      0.000
REMARK SMILES Cc1ccc(Nc2c(Cl)cc(Cl)cc2Cl)c(CC(=O)NCCCNC(=O)c2ccc(-c3c4nc(c(-c5ccc(S(=O)(=O)[O-])cc5)c5ccc([nH]5)c(-c5ccc(S(=O)(=O)[O-])cc5)c5nc(c(-c6ccc(S(=O)(=O)[O-])cc6)c6ccc3[nH]6)C=C5)C=C4)cc2)c1
REMARK SMILES IDX 22 1 21 2 20 3 18 4 19 5 17 7 16 8 1 9 2 10 3 11 87 12 4 13
REMARK SMILES IDX 5 14 6 15 7 17 8 18 14 19 9 20 10 21 13 22 15 23 11 24 12 25
REMARK SMILES IDX 23 26 24 27 25 28 26 30 27 31 28 32 86 33 29 34 85 35 30 36
REMARK SMILES IDX 31 37 32 38 79 39 33 40 84 41 78 42 80 43 34 44 83 45 77 46
REMARK SMILES IDX 76 47 35 49 65 50 46 51 64 52 47 53 50 54 63 55 81 56 48 57
REMARK SMILES IDX 49 58 62 60 82 61 51 62 36 63 37 64 45 65 38 66 44 67 39 68
REMARK SMILES IDX 40 69 41 70 42 71 43 72 66 73 67 74 75 75 68 76 74 77 69 78
REMARK SMILES IDX 70 79 71 80 72 81 73 82 52 83 53 84 61 85 54 86 60 87 55 88
REMARK SMILES IDX 56 89 57 90 58 91 59 92
REMARK H PARENT 20 6 6 16 24 29 80 48 50 59
REMARK Flexibility Score: inf
ROOT
ATOM      1  C   UNL A   1      33.038  29.764  27.337  1.00  0.00     0.042 C 
ENDROOT
BRANCH   1   2
ATOM      2  C   UNL A   1      32.158  29.200  26.227  1.00  0.00     0.117 C 
BRANCH   2   3
ATOM      3  N   UNL A   1      31.540  27.931  26.588  1.00  0.00    -0.356 N 
ATOM      4  C   UNL A   1      32.019  26.663  26.433  1.00  0.00     0.224 C 
ATOM      5  O   UNL A   1      31.304  25.705  26.741  1.00  0.00    -0.275 OA
ATOM      6  H   UNL A   1      30.651  27.998  27.004  1.00  0.00     0.163 HD
BRANCH   4   7
ATOM      7  C   UNL A   1      33.404  26.412  25.858  1.00  0.00     0.137 C 
BRANCH   7   8
ATOM      8  C   UNL A   1      33.599  24.995  25.365  1.00  0.00    -0.015 A 
ATOM      9  C   UNL A   1      34.468  21.653  27.011  1.00  0.00     0.044 C 
ATOM     10  C   UNL A   1      34.133  22.682  25.975  1.00  0.00    -0.051 A 
ATOM     11  C   UNL A   1      34.208  22.362  24.622  1.00  0.00     0.005 A 
ATOM     12  C   UNL A   1      33.798  23.989  26.337  1.00  0.00     0.009 A 
ATOM     13  C   UNL A   1      33.959  23.335  23.650  1.00  0.00     0.026 A 
ATOM     14  C   UNL A   1      33.661  24.665  23.991  1.00  0.00     0.042 A 
BRANCH  14  15
ATOM     15  N   UNL A   1      33.394  25.630  22.991  1.00  0.00    -0.353 N 
ATOM     16  H   UNL A   1      34.044  25.667  22.252  1.00  0.00     0.167 HD
BRANCH  15  17
ATOM     17  C   UNL A   1      32.320  26.553  22.906  1.00  0.00     0.076 A 
ATOM     18  C   UNL A   1      32.513  27.943  22.766  1.00  0.00     0.067 A 
ATOM     19  C   UNL A   1      30.993  26.094  23.059  1.00  0.00     0.067 A 
ATOM     20  Cl  UNL A   1      34.075  28.634  22.465  1.00  0.00    -0.082 Cl
ATOM     21  C   UNL A   1      31.431  28.831  22.803  1.00  0.00     0.043 A 
ATOM     22  C   UNL A   1      29.910  26.977  23.087  1.00  0.00     0.043 A 
ATOM     23  Cl  UNL A   1      30.653  24.408  23.254  1.00  0.00    -0.082 Cl
ATOM     24  C   UNL A   1      30.139  28.342  22.970  1.00  0.00     0.044 A 
ATOM     25  Cl  UNL A   1      28.819  29.442  23.027  1.00  0.00    -0.084 Cl
ENDBRANCH  15  17
ENDBRANCH  14  15
ENDBRANCH   7   8
ENDBRANCH   4   7
ENDBRANCH   2   3
ENDBRANCH   1   2
BRANCH   1  26
ATOM     26  C   UNL A   1      34.523  29.773  27.001  1.00  0.00     0.118 C 
BRANCH  26  27
ATOM     27  N   UNL A   1      35.192  30.967  27.510  1.00  0.00    -0.352 N 
ATOM     28  C   UNL A   1      36.396  31.044  28.191  1.00  0.00     0.251 C 
ATOM     29  H   UNL A   1      34.733  31.822  27.349  1.00  0.00     0.163 HD
ATOM     30  O   UNL A   1      36.788  32.054  28.733  1.00  0.00    -0.269 OA
BRANCH  28  31
ATOM     31  C   UNL A   1      37.249  29.842  28.119  1.00  0.00     0.039 A 
ATOM     32  C   UNL A   1      37.314  29.050  29.271  1.00  0.00     0.014 A 
ATOM     33  C   UNL A   1      38.184  29.725  27.095  1.00  0.00     0.014 A 
ATOM     34  C   UNL A   1      38.435  28.257  29.484  1.00  0.00     0.010 A 
ATOM     35  C   UNL A   1      39.331  28.999  27.346  1.00  0.00     0.010 A 
ATOM     36  C   UNL A   1      39.479  28.313  28.563  1.00  0.00    -0.014 A 
BRANCH  36  37
ATOM     37  C   UNL A   1      40.794  27.737  28.806  1.00  0.00     0.031 A 
ATOM     38  C   UNL A   1      41.029  26.308  28.491  1.00  0.00     0.074 A 
ATOM     39  C   UNL A   1      41.820  28.500  29.248  1.00  0.00     0.049 A 
ATOM     40  N   UNL A   1      42.016  25.613  28.946  1.00  0.00    -0.248 NA
ATOM     41  C   UNL A   1      40.112  25.526  27.667  1.00  0.00     0.031 C 
ATOM     42  C   UNL A   1      43.239  28.147  29.227  1.00  0.00     0.029 A 
ATOM     43  N   UNL A   1      41.827  29.711  29.927  1.00  0.00    -0.354 N 
ATOM     44  C   UNL A   1      42.061  24.442  28.227  1.00  0.00     0.074 A 
ATOM     45  C   UNL A   1      40.793  24.383  27.538  1.00  0.00     0.031 C 
ATOM     46  C   UNL A   1      43.887  28.920  30.112  1.00  0.00     0.029 A 
ATOM     47  C   UNL A   1      42.879  29.655  30.850  1.00  0.00     0.049 A 
ATOM     48  H   UNL A   1      41.211  30.466  29.787  1.00  0.00     0.167 HD
ATOM     49  C   UNL A   1      43.227  23.735  28.177  1.00  0.00     0.031 A 
ATOM     50  C   UNL A   1      42.716  29.593  32.209  1.00  0.00     0.031 A 
ATOM     51  C   UNL A   1      44.237  24.270  29.095  1.00  0.00     0.049 A 
ATOM     52  C   UNL A   1      43.315  28.343  32.857  1.00  0.00     0.074 A 
ATOM     53  C   UNL A   1      45.430  24.962  28.950  1.00  0.00     0.029 A 
ATOM     54  N   UNL A   1      43.930  24.336  30.447  1.00  0.00    -0.354 N 
ATOM     55  N   UNL A   1      43.917  27.387  32.201  1.00  0.00    -0.248 NA
ATOM     56  C   UNL A   1      43.203  28.027  34.284  1.00  0.00     0.031 C 
ATOM     57  C   UNL A   1      45.833  25.438  30.235  1.00  0.00     0.029 A 
ATOM     58  C   UNL A   1      44.892  25.024  31.158  1.00  0.00     0.049 A 
ATOM     59  H   UNL A   1      43.123  23.940  30.849  1.00  0.00     0.167 HD
ATOM     60  C   UNL A   1      44.197  26.342  33.041  1.00  0.00     0.074 A 
ATOM     61  C   UNL A   1      43.751  26.798  34.344  1.00  0.00     0.031 C 
ATOM     62  C   UNL A   1      44.721  25.160  32.598  1.00  0.00     0.031 A 
BRANCH  49  63
ATOM     63  C   UNL A   1      43.526  22.706  27.102  1.00  0.00    -0.014 A 
ATOM     64  C   UNL A   1      42.666  21.603  26.928  1.00  0.00     0.010 A 
ATOM     65  C   UNL A   1      44.671  22.725  26.281  1.00  0.00     0.010 A 
ATOM     66  C   UNL A   1      42.988  20.533  26.075  1.00  0.00     0.020 A 
ATOM     67  C   UNL A   1      45.024  21.650  25.453  1.00  0.00     0.020 A 
ATOM     68  C   UNL A   1      44.186  20.549  25.366  1.00  0.00     0.054 A 
BRANCH  68  69
ATOM     69  S   UNL A   1      44.639  19.126  24.343  1.00  0.00     0.124 S 
ATOM     70  O   UNL A   1      43.678  18.112  24.770  1.00  0.00    -0.237 OA
ATOM     71  O   UNL A   1      44.456  19.642  22.990  1.00  0.00    -0.237 OA
ATOM     72  O   UNL A   1      46.025  18.855  24.721  1.00  0.00    -0.744 OA
ENDBRANCH  68  69
ENDBRANCH  49  63
BRANCH  50  73
ATOM     73  C   UNL A   1      41.517  30.325  32.704  1.00  0.00    -0.014 A 
ATOM     74  C   UNL A   1      40.339  29.574  32.906  1.00  0.00     0.010 A 
ATOM     75  C   UNL A   1      41.649  31.568  33.349  1.00  0.00     0.010 A 
ATOM     76  C   UNL A   1      39.410  29.957  33.875  1.00  0.00     0.020 A 
ATOM     77  C   UNL A   1      40.707  31.962  34.312  1.00  0.00     0.020 A 
ATOM     78  C   UNL A   1      39.635  31.116  34.616  1.00  0.00     0.054 A 
BRANCH  78  79
ATOM     79  S   UNL A   1      38.629  31.376  36.110  1.00  0.00     0.124 S 
ATOM     80  O   UNL A   1      39.485  32.237  36.916  1.00  0.00    -0.237 OA
ATOM     81  O   UNL A   1      37.432  32.016  35.562  1.00  0.00    -0.237 OA
ATOM     82  O   UNL A   1      38.431  30.024  36.623  1.00  0.00    -0.744 OA
ENDBRANCH  78  79
ENDBRANCH  50  73
BRANCH  62  83
ATOM     83  C   UNL A   1      45.064  23.983  33.479  1.00  0.00    -0.014 A 
ATOM     84  C   UNL A   1      44.142  22.979  33.816  1.00  0.00     0.010 A 
ATOM     85  C   UNL A   1      46.331  23.927  34.108  1.00  0.00     0.010 A 
ATOM     86  C   UNL A   1      44.495  21.934  34.686  1.00  0.00     0.020 A 
ATOM     87  C   UNL A   1      46.685  22.903  34.989  1.00  0.00     0.020 A 
ATOM     88  C   UNL A   1      45.768  21.898  35.259  1.00  0.00     0.054 A 
BRANCH  88  89
ATOM     89  S   UNL A   1      46.194  20.557  36.400  1.00  0.00     0.124 S 
ATOM     90  O   UNL A   1      45.773  21.092  37.693  1.00  0.00    -0.237 OA
ATOM     91  O   UNL A   1      45.387  19.454  35.885  1.00  0.00    -0.237 OA
ATOM     92  O   UNL A   1      47.637  20.402  36.237  1.00  0.00    -0.744 OA
ENDBRANCH  88  89
ENDBRANCH  62  83
ENDBRANCH  36  37
ENDBRANCH  28  31
ENDBRANCH  26  27
ENDBRANCH   1  26
TORSDOF 16
ENDMDL
MODEL 2
REMARK VINA RESULT:     -13.6      1.700      3.236
REMARK SMILES Cc1ccc(Nc2c(Cl)cc(Cl)cc2Cl)c(CC(=O)NCCCNC(=O)c2ccc(-c3c4nc(c(-c5ccc(S(=O)(=O)[O-])cc5)c5ccc([nH]5)c(-c5ccc(S(=O)(=O)[O-])cc5)c5nc(c(-c6ccc(S(=O)(=O)[O-])cc6)c6ccc3[nH]6)C=C5)C=C4)cc2)c1
REMARK SMILES IDX 22 1 21 2 20 3 18 4 19 5 17 7 16 8 1 9 2 10 3 11 87 12 4 13
REMARK SMILES IDX 5 14 6 15 7 17 8 18 14 19 9 20 10 21 13 22 15 23 11 24 12 25
REMARK SMILES IDX 23 26 24 27 25 28 26 30 27 31 28 32 86 33 29 34 85 35 30 36
REMARK SMILES IDX 31 37 32 38 79 39 33 40 84 41 78 42 80 43 34 44 83 45 77 46
REMARK SMILES IDX 76 47 35 49 65 50 46 51 64 52 47 53 50 54 63 55 81 56 48 57
REMARK SMILES IDX 49 58 62 60 82 61 51 62 36 63 37 64 45 65 38 66 44 67 39 68
REMARK SMILES IDX 40 69 41 70 42 71 43 72 66 73 67 74 75 75 68 76 74 77 69 78
REMARK SMILES IDX 70 79 71 80 72 81 73 82 52 83 53 84 61 85 54 86 60 87 55 88
REMARK SMILES IDX 56 89 57 90 58 91 59 92
REMARK H PARENT 20 6 6 16 24 29 80 48 50 59
REMARK Flexibility Score: inf
ROOT
ATOM      1  C   UNL A   1      33.074  29.311  27.220  1.00  0.00     0.042 C 
ENDROOT
BRANCH   1   2
ATOM      2  C   UNL A   1      32.186  28.672  26.156  1.00  0.00     0.117 C 
BRANCH   2   3
ATOM      3  N   UNL A   1      31.612  27.405  26.589  1.00  0.00    -0.356 N 
ATOM      4  C   UNL A   1      32.111  26.142  26.458  1.00  0.00     0.224 C 
ATOM      5  O   UNL A   1      31.429  25.182  26.830  1.00  0.00    -0.275 OA
ATOM      6  H   UNL A   1      30.739  27.470  27.040  1.00  0.00     0.163 HD
BRANCH   4   7
ATOM      7  C   UNL A   1      33.475  25.898  25.833  1.00  0.00     0.137 C 
BRANCH   7   8
ATOM      8  C   UNL A   1      33.402  25.203  24.491  1.00  0.00    -0.015 A 
ATOM      9  C   UNL A   1      32.125  26.161  21.014  1.00  0.00     0.044 C 
ATOM     10  C   UNL A   1      32.717  25.375  22.144  1.00  0.00    -0.051 A 
ATOM     11  C   UNL A   1      32.985  24.017  21.985  1.00  0.00     0.005 A 
ATOM     12  C   UNL A   1      32.958  25.965  23.387  1.00  0.00     0.009 A 
ATOM     13  C   UNL A   1      33.477  23.264  23.054  1.00  0.00     0.026 A 
ATOM     14  C   UNL A   1      33.688  23.828  24.325  1.00  0.00     0.042 A 
BRANCH  14  15
ATOM     15  N   UNL A   1      34.205  23.052  25.389  1.00  0.00    -0.353 N 
ATOM     16  H   UNL A   1      33.699  23.098  26.233  1.00  0.00     0.167 HD
BRANCH  15  17
ATOM     17  C   UNL A   1      35.350  22.215  25.409  1.00  0.00     0.076 A 
ATOM     18  C   UNL A   1      36.652  22.704  25.640  1.00  0.00     0.067 A 
ATOM     19  C   UNL A   1      35.217  20.844  25.094  1.00  0.00     0.067 A 
ATOM     20  Cl  UNL A   1      36.951  24.338  26.138  1.00  0.00    -0.082 Cl
ATOM     21  C   UNL A   1      37.769  21.865  25.535  1.00  0.00     0.043 A 
ATOM     22  C   UNL A   1      36.329  20.003  24.998  1.00  0.00     0.043 A 
ATOM     23  Cl  UNL A   1      33.663  20.151  24.778  1.00  0.00    -0.082 Cl
ATOM     24  C   UNL A   1      37.600  20.524  25.209  1.00  0.00     0.044 A 
ATOM     25  Cl  UNL A   1      38.979  19.506  25.071  1.00  0.00    -0.084 Cl
ENDBRANCH  15  17
ENDBRANCH  14  15
ENDBRANCH   7   8
ENDBRANCH   4   7
ENDBRANCH   2   3
ENDBRANCH   1   2
BRANCH   1  26
ATOM     26  C   UNL A   1      34.537  29.417  26.818  1.00  0.00     0.118 C 
BRANCH  26  27
ATOM     27  N   UNL A   1      35.147  30.656  27.291  1.00  0.00    -0.352 N 
ATOM     28  C   UNL A   1      36.349  30.813  27.962  1.00  0.00     0.251 C 
ATOM     29  H   UNL A   1      34.642  31.482  27.112  1.00  0.00     0.163 HD
ATOM     30  O   UNL A   1      36.691  31.856  28.475  1.00  0.00    -0.269 OA
BRANCH  28  31
ATOM     31  C   UNL A   1      37.263  29.656  27.915  1.00  0.00     0.039 A 
ATOM     32  C   UNL A   1      37.334  28.867  29.068  1.00  0.00     0.014 A 
ATOM     33  C   UNL A   1      38.232  29.588  26.919  1.00  0.00     0.014 A 
ATOM     34  C   UNL A   1      38.487  28.131  29.313  1.00  0.00     0.010 A 
ATOM     35  C   UNL A   1      39.406  28.920  27.202  1.00  0.00     0.010 A 
ATOM     36  C   UNL A   1      39.553  28.241  28.423  1.00  0.00    -0.014 A 
BRANCH  36  37
ATOM     37  C   UNL A   1      40.888  27.730  28.704  1.00  0.00     0.031 A 
ATOM     38  C   UNL A   1      41.206  26.319  28.384  1.00  0.00     0.074 A 
ATOM     39  C   UNL A   1      41.857  28.541  29.186  1.00  0.00     0.049 A 
ATOM     40  N   UNL A   1      42.213  25.671  28.866  1.00  0.00    -0.248 NA
ATOM     41  C   UNL A   1      40.359  25.499  27.524  1.00  0.00     0.031 C 
ATOM     42  C   UNL A   1      43.293  28.262  29.210  1.00  0.00     0.029 A 
ATOM     43  N   UNL A   1      41.779  29.743  29.876  1.00  0.00    -0.354 N 
ATOM     44  C   UNL A   1      42.343  24.512  28.138  1.00  0.00     0.074 A 
ATOM     45  C   UNL A   1      41.102  24.395  27.408  1.00  0.00     0.031 C 
ATOM     46  C   UNL A   1      43.871  29.058  30.122  1.00  0.00     0.029 A 
ATOM     47  C   UNL A   1      42.802  29.732  30.834  1.00  0.00     0.049 A 
ATOM     48  H   UNL A   1      41.130  30.467  29.723  1.00  0.00     0.167 HD
ATOM     49  C   UNL A   1      43.545  23.866  28.121  1.00  0.00     0.031 A 
ATOM     50  C   UNL A   1      42.598  29.647  32.186  1.00  0.00     0.031 A 
ATOM     51  C   UNL A   1      44.495  24.443  29.077  1.00  0.00     0.049 A 
ATOM     52  C   UNL A   1      43.240  28.423  32.842  1.00  0.00     0.074 A 
ATOM     53  C   UNL A   1      45.654  25.198  28.978  1.00  0.00     0.029 A 
ATOM     54  N   UNL A   1      44.141  24.479  30.418  1.00  0.00    -0.354 N 
ATOM     55  N   UNL A   1      43.912  27.507  32.198  1.00  0.00    -0.248 NA
ATOM     56  C   UNL A   1      43.098  28.087  34.262  1.00  0.00     0.031 C 
ATOM     57  C   UNL A   1      45.990  25.681  30.279  1.00  0.00     0.029 A 
ATOM     58  C   UNL A   1      45.043  25.209  31.167  1.00  0.00     0.049 A 
ATOM     59  H   UNL A   1      43.343  24.038  30.790  1.00  0.00     0.167 HD
ATOM     60  C   UNL A   1      44.218  26.469  33.038  1.00  0.00     0.074 A 
ATOM     61  C   UNL A   1      43.707  26.888  34.329  1.00  0.00     0.031 C 
ATOM     62  C   UNL A   1      44.817  25.321  32.602  1.00  0.00     0.031 A 
BRANCH  49  63
ATOM     63  C   UNL A   1      43.932  22.866  27.047  1.00  0.00    -0.014 A 
ATOM     64  C   UNL A   1      42.987  21.924  26.592  1.00  0.00     0.010 A 
ATOM     65  C   UNL A   1      45.224  22.750  26.498  1.00  0.00     0.010 A 
ATOM     66  C   UNL A   1      43.339  20.868  25.735  1.00  0.00     0.020 A 
ATOM     67  C   UNL A   1      45.601  21.682  25.673  1.00  0.00     0.020 A 
ATOM     68  C   UNL A   1      44.657  20.734  25.307  1.00  0.00     0.054 A 
BRANCH  68  69
ATOM     69  S   UNL A   1      45.125  19.317  24.281  1.00  0.00     0.124 S 
ATOM     70  O   UNL A   1      44.472  19.620  23.010  1.00  0.00    -0.237 OA
ATOM     71  O   UNL A   1      46.583  19.399  24.279  1.00  0.00    -0.237 OA
ATOM     72  O   UNL A   1      44.569  18.171  24.998  1.00  0.00    -0.744 OA
ENDBRANCH  68  69
ENDBRANCH  49  63
BRANCH  50  73
ATOM     73  C   UNL A   1      41.347  30.312  32.647  1.00  0.00    -0.014 A 
ATOM     74  C   UNL A   1      40.255  29.477  32.973  1.00  0.00     0.010 A 
ATOM     75  C   UNL A   1      41.373  31.623  33.152  1.00  0.00     0.010 A 
ATOM     76  C   UNL A   1      39.321  29.873  33.932  1.00  0.00     0.020 A 
ATOM     77  C   UNL A   1      40.425  32.028  34.104  1.00  0.00     0.020 A 
ATOM     78  C   UNL A   1      39.452  31.122  34.537  1.00  0.00     0.054 A 
BRANCH  78  79
ATOM     79  S   UNL A   1      38.468  31.445  36.033  1.00  0.00     0.124 S 
ATOM     80  O   UNL A   1      37.250  32.030  35.486  1.00  0.00    -0.237 OA
ATOM     81  O   UNL A   1      38.321  30.101  36.596  1.00  0.00    -0.237 OA
ATOM     82  O   UNL A   1      39.313  32.352  36.804  1.00  0.00    -0.744 OA
ENDBRANCH  78  79
ENDBRANCH  50  73
BRANCH  62  83
ATOM     83  C   UNL A   1      45.193  24.153  33.482  1.00  0.00    -0.014 A 
ATOM     84  C   UNL A   1      44.284  23.153  33.864  1.00  0.00     0.010 A 
ATOM     85  C   UNL A   1      46.481  24.105  34.067  1.00  0.00     0.010 A 
ATOM     86  C   UNL A   1      44.668  22.118  34.732  1.00  0.00     0.020 A 
ATOM     87  C   UNL A   1      46.867  23.091  34.947  1.00  0.00     0.020 A 
ATOM     88  C   UNL A   1      45.961  22.089  35.261  1.00  0.00     0.054 A 
BRANCH  88  89
ATOM     89  S   UNL A   1      46.428  20.761  36.400  1.00  0.00     0.124 S 
ATOM     90  O   UNL A   1      46.014  19.561  35.677  1.00  0.00    -0.237 OA
ATOM     91  O   UNL A   1      47.871  20.955  36.516  1.00  0.00    -0.237 OA
ATOM     92  O   UNL A   1      45.662  21.049  37.610  1.00  0.00    -0.744 OA
ENDBRANCH  88  89
ENDBRANCH  62  83
ENDBRANCH  36  37
ENDBRANCH  28  31
ENDBRANCH  26  27
ENDBRANCH   1  26
TORSDOF 16
ENDMDL
MODEL 3
REMARK VINA RESULT:     -13.6      1.421      2.991
REMARK SMILES Cc1ccc(Nc2c(Cl)cc(Cl)cc2Cl)c(CC(=O)NCCCNC(=O)c2ccc(-c3c4nc(c(-c5ccc(S(=O)(=O)[O-])cc5)c5ccc([nH]5)c(-c5ccc(S(=O)(=O)[O-])cc5)c5nc(c(-c6ccc(S(=O)(=O)[O-])cc6)c6ccc3[nH]6)C=C5)C=C4)cc2)c1
REMARK SMILES IDX 22 1 21 2 20 3 18 4 19 5 17 7 16 8 1 9 2 10 3 11 87 12 4 13
REMARK SMILES IDX 5 14 6 15 7 17 8 18 14 19 9 20 10 21 13 22 15 23 11 24 12 25
REMARK SMILES IDX 23 26 24 27 25 28 26 30 27 31 28 32 86 33 29 34 85 35 30 36
REMARK SMILES IDX 31 37 32 38 79 39 33 40 84 41 78 42 80 43 34 44 83 45 77 46
REMARK SMILES IDX 76 47 35 49 65 50 46 51 64 52 47 53 50 54 63 55 81 56 48 57
REMARK SMILES IDX 49 58 62 60 82 61 51 62 36 63 37 64 45 65 38 66 44 67 39 68
REMARK SMILES IDX 40 69 41 70 42 71 43 72 66 73 67 74 75 75 68 76 74 77 69 78
REMARK SMILES IDX 70 79 71 80 72 81 73 82 52 83 53 84 61 85 54 86 60 87 55 88
REMARK SMILES IDX 56 89 57 90 58 91 59 92
REMARK H PARENT 20 6 6 16 24 29 80 48 50 59
REMARK Flexibility Score: inf
ROOT
ATOM      1  C   UNL A   1      33.441  29.732  26.018  1.00  0.00     0.042 C 
ENDROOT
BRANCH   1   2
ATOM      2  C   UNL A   1      33.451  28.514  25.101  1.00  0.00     0.117 C 
BRANCH   2   3
ATOM      3  N   UNL A   1      33.904  28.828  23.753  1.00  0.00    -0.356 N 
ATOM      4  C   UNL A   1      33.791  28.090  22.611  1.00  0.00     0.224 C 
ATOM      5  O   UNL A   1      34.311  28.505  21.570  1.00  0.00    -0.275 OA
ATOM      6  H   UNL A   1      34.355  29.697  23.651  1.00  0.00     0.163 HD
BRANCH   4   7
ATOM      7  C   UNL A   1      33.066  26.754  22.608  1.00  0.00     0.137 C 
BRANCH   7   8
ATOM      8  C   UNL A   1      31.578  26.881  22.854  1.00  0.00    -0.015 A 
ATOM      9  C   UNL A   1      29.026  29.720  22.608  1.00  0.00     0.044 C 
ATOM     10  C   UNL A   1      29.633  28.371  22.849  1.00  0.00    -0.051 A 
ATOM     11  C   UNL A   1      28.885  27.368  23.460  1.00  0.00     0.005 A 
ATOM     12  C   UNL A   1      30.965  28.110  22.521  1.00  0.00     0.009 A 
ATOM     13  C   UNL A   1      29.464  26.129  23.745  1.00  0.00     0.026 A 
ATOM     14  C   UNL A   1      30.814  25.858  23.462  1.00  0.00     0.042 A 
BRANCH  14  15
ATOM     15  N   UNL A   1      31.376  24.589  23.742  1.00  0.00    -0.353 N 
ATOM     16  H   UNL A   1      30.818  23.815  23.499  1.00  0.00     0.167 HD
BRANCH  15  17
ATOM     17  C   UNL A   1      32.632  24.278  24.324  1.00  0.00     0.076 A 
ATOM     18  C   UNL A   1      33.034  24.766  25.585  1.00  0.00     0.067 A 
ATOM     19  C   UNL A   1      33.574  23.526  23.588  1.00  0.00     0.067 A 
ATOM     20  Cl  UNL A   1      31.947  25.612  26.638  1.00  0.00    -0.082 Cl
ATOM     21  C   UNL A   1      34.326  24.533  26.071  1.00  0.00     0.043 A 
ATOM     22  C   UNL A   1      34.861  23.284  24.076  1.00  0.00     0.043 A 
ATOM     23  Cl  UNL A   1      33.182  22.897  22.024  1.00  0.00    -0.082 Cl
ATOM     24  C   UNL A   1      35.231  23.800  25.311  1.00  0.00     0.044 A 
ATOM     25  Cl  UNL A   1      36.819  23.530  25.914  1.00  0.00    -0.084 Cl
ENDBRANCH  15  17
ENDBRANCH  14  15
ENDBRANCH   7   8
ENDBRANCH   4   7
ENDBRANCH   2   3
ENDBRANCH   1   2
BRANCH   1  26
ATOM     26  C   UNL A   1      34.360  29.603  27.224  1.00  0.00     0.118 C 
BRANCH  26  27
ATOM     27  N   UNL A   1      35.071  30.846  27.507  1.00  0.00    -0.352 N 
ATOM     28  C   UNL A   1      36.337  30.999  28.050  1.00  0.00     0.251 C 
ATOM     29  H   UNL A   1      34.594  31.677  27.283  1.00  0.00     0.163 HD
ATOM     30  O   UNL A   1      36.776  32.067  28.415  1.00  0.00    -0.269 OA
BRANCH  28  31
ATOM     31  C   UNL A   1      37.184  29.791  28.048  1.00  0.00     0.039 A 
ATOM     32  C   UNL A   1      37.286  29.096  29.258  1.00  0.00     0.014 A 
ATOM     33  C   UNL A   1      38.083  29.585  27.006  1.00  0.00     0.014 A 
ATOM     34  C   UNL A   1      38.411  28.318  29.498  1.00  0.00     0.010 A 
ATOM     35  C   UNL A   1      39.236  28.876  27.277  1.00  0.00     0.010 A 
ATOM     36  C   UNL A   1      39.423  28.292  28.541  1.00  0.00    -0.014 A 
BRANCH  36  37
ATOM     37  C   UNL A   1      40.745  27.730  28.786  1.00  0.00     0.031 A 
ATOM     38  C   UNL A   1      40.999  26.308  28.458  1.00  0.00     0.074 A 
ATOM     39  C   UNL A   1      41.758  28.502  29.241  1.00  0.00     0.049 A 
ATOM     40  N   UNL A   1      41.992  25.620  28.913  1.00  0.00    -0.248 NA
ATOM     41  C   UNL A   1      40.098  25.521  27.622  1.00  0.00     0.031 C 
ATOM     42  C   UNL A   1      43.181  28.168  29.226  1.00  0.00     0.029 A 
ATOM     43  N   UNL A   1      41.745  29.706  29.932  1.00  0.00    -0.354 N 
ATOM     44  C   UNL A   1      42.057  24.458  28.182  1.00  0.00     0.074 A 
ATOM     45  C   UNL A   1      40.794  24.389  27.486  1.00  0.00     0.031 C 
ATOM     46  C   UNL A   1      43.814  28.940  30.122  1.00  0.00     0.029 A 
ATOM     47  C   UNL A   1      42.792  29.655  30.862  1.00  0.00     0.049 A 
ATOM     48  H   UNL A   1      41.120  30.454  29.796  1.00  0.00     0.167 HD
ATOM     49  C   UNL A   1      43.233  23.766  28.132  1.00  0.00     0.031 A 
ATOM     50  C   UNL A   1      42.622  29.577  32.219  1.00  0.00     0.031 A 
ATOM     51  C   UNL A   1      44.230  24.305  29.062  1.00  0.00     0.049 A 
ATOM     52  C   UNL A   1      43.234  28.329  32.858  1.00  0.00     0.074 A 
ATOM     53  C   UNL A   1      45.415  25.014  28.931  1.00  0.00     0.029 A 
ATOM     54  N   UNL A   1      43.914  24.354  30.412  1.00  0.00    -0.354 N 
ATOM     55  N   UNL A   1      43.851  27.387  32.196  1.00  0.00    -0.248 NA
ATOM     56  C   UNL A   1      43.117  27.998  34.281  1.00  0.00     0.031 C 
ATOM     57  C   UNL A   1      45.804  25.483  30.222  1.00  0.00     0.029 A 
ATOM     58  C   UNL A   1      44.863  25.047  31.136  1.00  0.00     0.049 A 
ATOM     59  H   UNL A   1      43.110  23.943  30.806  1.00  0.00     0.167 HD
ATOM     60  C   UNL A   1      44.140  26.337  33.028  1.00  0.00     0.074 A 
ATOM     61  C   UNL A   1      43.680  26.776  34.332  1.00  0.00     0.031 C 
ATOM     62  C   UNL A   1      44.682  25.167  32.577  1.00  0.00     0.031 A 
BRANCH  49  63
ATOM     63  C   UNL A   1      43.551  22.752  27.049  1.00  0.00    -0.014 A 
ATOM     64  C   UNL A   1      42.722  21.625  26.877  1.00  0.00     0.010 A 
ATOM     65  C   UNL A   1      44.687  22.807  26.219  1.00  0.00     0.010 A 
ATOM     66  C   UNL A   1      43.066  20.570  26.015  1.00  0.00     0.020 A 
ATOM     67  C   UNL A   1      45.064  21.748  25.382  1.00  0.00     0.020 A 
ATOM     68  C   UNL A   1      44.257  20.624  25.297  1.00  0.00     0.054 A 
BRANCH  68  69
ATOM     69  S   UNL A   1      44.741  19.220  24.261  1.00  0.00     0.124 S 
ATOM     70  O   UNL A   1      46.156  19.061  24.589  1.00  0.00    -0.237 OA
ATOM     71  O   UNL A   1      43.859  18.159  24.736  1.00  0.00    -0.237 OA
ATOM     72  O   UNL A   1      44.476  19.685  22.901  1.00  0.00    -0.744 OA
ENDBRANCH  68  69
ENDBRANCH  49  63
BRANCH  50  73
ATOM     73  C   UNL A   1      41.411  30.289  32.714  1.00  0.00    -0.014 A 
ATOM     74  C   UNL A   1      40.263  29.508  32.972  1.00  0.00     0.010 A 
ATOM     75  C   UNL A   1      41.515  31.559  33.307  1.00  0.00     0.010 A 
ATOM     76  C   UNL A   1      39.344  29.899  33.948  1.00  0.00     0.020 A 
ATOM     77  C   UNL A   1      40.583  31.960  34.276  1.00  0.00     0.020 A 
ATOM     78  C   UNL A   1      39.547  31.093  34.638  1.00  0.00     0.054 A 
BRANCH  78  79
ATOM     79  S   UNL A   1      38.567  31.378  36.144  1.00  0.00     0.124 S 
ATOM     80  O   UNL A   1      38.206  30.022  36.543  1.00  0.00    -0.237 OA
ATOM     81  O   UNL A   1      39.535  32.051  37.013  1.00  0.00    -0.237 OA
ATOM     82  O   UNL A   1      37.465  32.213  35.678  1.00  0.00    -0.744 OA
ENDBRANCH  78  79
ENDBRANCH  50  73
BRANCH  62  83
ATOM     83  C   UNL A   1      45.035  23.985  33.447  1.00  0.00    -0.014 A 
ATOM     84  C   UNL A   1      44.105  23.008  33.833  1.00  0.00     0.010 A 
ATOM     85  C   UNL A   1      46.328  23.901  34.018  1.00  0.00     0.010 A 
ATOM     86  C   UNL A   1      44.470  21.958  34.693  1.00  0.00     0.020 A 
ATOM     87  C   UNL A   1      46.696  22.872  34.888  1.00  0.00     0.020 A 
ATOM     88  C   UNL A   1      45.767  21.892  35.207  1.00  0.00     0.054 A 
BRANCH  88  89
ATOM     89  S   UNL A   1      46.211  20.546  36.335  1.00  0.00     0.124 S 
ATOM     90  O   UNL A   1      45.734  21.042  37.624  1.00  0.00    -0.237 OA
ATOM     91  O   UNL A   1      45.460  19.425  35.778  1.00  0.00    -0.237 OA
ATOM     92  O   UNL A   1      47.663  20.447  36.210  1.00  0.00    -0.744 OA
ENDBRANCH  88  89
ENDBRANCH  62  83
ENDBRANCH  36  37
ENDBRANCH  28  31
ENDBRANCH  26  27
ENDBRANCH   1  26
TORSDOF 16
ENDMDL
