MODEL 1
REMARK VINA RESULT:     -11.1      0.000      0.000
REMARK SMILES O=C(NCCCNC(=O)[C@@H]1[C@H](C(=O)Nc2ccccc2OC(F)F)[C@@H]2C=C[C@H]1C2)c1ccc(-c2c3nc(c(-c4ccc(S(=O)(=O)[O-])cc4)c4ccc([nH]4)c(-c4ccc(S(=O)(=O)[O-])cc4)c4nc(c(-c5ccc(S(=O)(=O)[O-])cc5)c5ccc2[nH]5)C=C4)C=C3)cc1
REMARK SMILES IDX 5 1 4 2 3 3 1 4 2 5 30 7 31 8 89 9 32 10 88 11 33 12 34 13
REMARK SMILES IDX 35 14 82 15 36 16 87 17 81 18 83 19 37 20 86 21 80 22 79 23
REMARK SMILES IDX 38 25 68 26 49 27 67 28 50 29 53 30 66 31 84 32 51 33 52 34
REMARK SMILES IDX 65 36 85 37 54 38 39 39 40 40 48 41 41 42 47 43 42 44 43 45
REMARK SMILES IDX 44 46 45 47 46 48 69 49 70 50 78 51 71 52 77 53 72 54 73 55
REMARK SMILES IDX 74 56 75 57 76 58 55 59 56 60 64 61 57 62 63 63 58 64 59 65
REMARK SMILES IDX 60 66 61 67 62 68 6 69 7 70 8 71 9 73 10 74 11 75 28 76
REMARK SMILES IDX 25 77 27 78 29 79 26 80 12 81 13 82 14 83 15 85 16 86 20 87
REMARK SMILES IDX 17 88 19 89 18 90 21 91 22 92 23 93 24 94
REMARK H PARENT 3 6 83 24 53 35 7 72 14 84
REMARK Flexibility Score: inf
ROOT
ATOM      1  C   UNL A   1      34.285  27.444  25.919  1.00  0.00     0.042 C 
ENDROOT
BRANCH   1   2
ATOM      2  C   UNL A   1      33.672  28.040  27.189  1.00  0.00     0.118 C 
BRANCH   2   3
ATOM      3  N   UNL A   1      33.456  29.493  27.122  1.00  0.00    -0.352 N 
ATOM      4  O   UNL A   1      33.712  31.669  27.693  1.00  0.00    -0.269 OA
ATOM      5  C   UNL A   1      34.183  30.536  27.651  1.00  0.00     0.251 C 
ATOM      6  H   UNL A   1      32.658  29.766  26.614  1.00  0.00     0.163 HD
BRANCH   5   7
ATOM      7  C   UNL A   1      35.547  30.264  28.130  1.00  0.00     0.039 A 
ATOM      8  C   UNL A   1      36.606  30.555  27.274  1.00  0.00     0.014 A 
ATOM      9  C   UNL A   1      35.782  29.698  29.385  1.00  0.00     0.014 A 
ATOM     10  C   UNL A   1      37.858  30.052  27.551  1.00  0.00     0.010 A 
ATOM     11  C   UNL A   1      37.087  29.334  29.734  1.00  0.00     0.010 A 
ATOM     12  C   UNL A   1      38.125  29.470  28.799  1.00  0.00    -0.014 A 
BRANCH  12  13
ATOM     13  C   UNL A   1      39.531  29.111  29.091  1.00  0.00     0.031 A 
ATOM     14  C   UNL A   1      40.115  27.802  28.645  1.00  0.00     0.074 A 
ATOM     15  C   UNL A   1      40.297  30.046  29.692  1.00  0.00     0.049 A 
ATOM     16  N   UNL A   1      41.343  27.373  28.786  1.00  0.00    -0.248 NA
ATOM     17  C   UNL A   1      39.223  26.849  27.966  1.00  0.00     0.031 C 
ATOM     18  C   UNL A   1      39.815  31.354  30.160  1.00  0.00     0.029 A 
ATOM     19  N   UNL A   1      41.635  30.073  29.971  1.00  0.00    -0.354 N 
ATOM     20  C   UNL A   1      41.362  26.089  28.255  1.00  0.00     0.074 A 
ATOM     21  C   UNL A   1      40.024  25.806  27.782  1.00  0.00     0.031 C 
ATOM     22  C   UNL A   1      40.853  32.080  30.590  1.00  0.00     0.029 A 
ATOM     23  C   UNL A   1      42.051  31.256  30.535  1.00  0.00     0.049 A 
ATOM     24  H   UNL A   1      42.242  29.320  29.787  1.00  0.00     0.167 HD
ATOM     25  C   UNL A   1      42.405  25.229  28.182  1.00  0.00     0.031 A 
ATOM     26  C   UNL A   1      43.254  31.628  31.005  1.00  0.00     0.031 A 
ATOM     27  C   UNL A   1      43.736  25.545  28.634  1.00  0.00     0.049 A 
ATOM     28  C   UNL A   1      44.379  30.642  30.929  1.00  0.00     0.074 A 
ATOM     29  C   UNL A   1      44.876  24.765  28.553  1.00  0.00     0.029 A 
ATOM     30  N   UNL A   1      44.103  26.728  29.257  1.00  0.00    -0.354 N 
ATOM     31  N   UNL A   1      44.383  29.447  30.390  1.00  0.00    -0.248 NA
ATOM     32  C   UNL A   1      45.649  31.040  31.544  1.00  0.00     0.031 C 
ATOM     33  C   UNL A   1      45.919  25.451  29.181  1.00  0.00     0.029 A 
ATOM     34  C   UNL A   1      45.442  26.681  29.606  1.00  0.00     0.049 A 
ATOM     35  H   UNL A   1      43.502  27.488  29.426  1.00  0.00     0.167 HD
ATOM     36  C   UNL A   1      45.655  28.942  30.613  1.00  0.00     0.074 A 
ATOM     37  C   UNL A   1      46.404  29.979  31.296  1.00  0.00     0.031 C 
ATOM     38  C   UNL A   1      46.155  27.723  30.299  1.00  0.00     0.031 A 
BRANCH  25  39
ATOM     39  C   UNL A   1      42.162  23.849  27.636  1.00  0.00    -0.014 A 
ATOM     40  C   UNL A   1      42.368  23.547  26.278  1.00  0.00     0.010 A 
ATOM     41  C   UNL A   1      41.832  22.808  28.526  1.00  0.00     0.010 A 
ATOM     42  C   UNL A   1      42.245  22.230  25.822  1.00  0.00     0.020 A 
ATOM     43  C   UNL A   1      41.727  21.489  28.077  1.00  0.00     0.020 A 
ATOM     44  C   UNL A   1      41.930  21.209  26.726  1.00  0.00     0.054 A 
BRANCH  44  45
ATOM     45  S   UNL A   1      41.852  19.500  26.118  1.00  0.00     0.124 S 
ATOM     46  O   UNL A   1      42.717  19.559  24.943  1.00  0.00    -0.237 OA
ATOM     47  O   UNL A   1      42.379  18.736  27.246  1.00  0.00    -0.237 OA
ATOM     48  O   UNL A   1      40.433  19.295  25.838  1.00  0.00    -0.744 OA
ENDBRANCH  44  45
ENDBRANCH  25  39
BRANCH  26  49
ATOM     49  C   UNL A   1      43.415  32.948  31.670  1.00  0.00    -0.014 A 
ATOM     50  C   UNL A   1      43.196  33.101  33.048  1.00  0.00     0.010 A 
ATOM     51  C   UNL A   1      43.810  34.067  30.910  1.00  0.00     0.010 A 
ATOM     52  C   UNL A   1      43.350  34.353  33.650  1.00  0.00     0.020 A 
ATOM     53  C   UNL A   1      44.000  35.310  31.513  1.00  0.00     0.020 A 
ATOM     54  C   UNL A   1      43.749  35.449  32.878  1.00  0.00     0.054 A 
BRANCH  54  55
ATOM     55  S   UNL A   1      43.976  37.060  33.680  1.00  0.00     0.124 S 
ATOM     56  O   UNL A   1      42.749  37.183  34.459  1.00  0.00    -0.237 OA
ATOM     57  O   UNL A   1      45.201  36.862  34.451  1.00  0.00    -0.237 OA
ATOM     58  O   UNL A   1      44.102  37.984  32.554  1.00  0.00    -0.744 OA
ENDBRANCH  54  55
ENDBRANCH  26  49
BRANCH  38  59
ATOM     59  C   UNL A   1      47.575  27.453  30.701  1.00  0.00    -0.014 A 
ATOM     60  C   UNL A   1      47.866  26.844  31.935  1.00  0.00     0.010 A 
ATOM     61  C   UNL A   1      48.626  27.775  29.824  1.00  0.00     0.010 A 
ATOM     62  C   UNL A   1      49.188  26.587  32.297  1.00  0.00     0.020 A 
ATOM     63  C   UNL A   1      49.948  27.495  30.172  1.00  0.00     0.020 A 
ATOM     64  C   UNL A   1      50.220  26.914  31.412  1.00  0.00     0.054 A 
BRANCH  64  65
ATOM     65  S   UNL A   1      51.928  26.529  31.887  1.00  0.00     0.124 S 
ATOM     66  O   UNL A   1      52.694  27.272  30.890  1.00  0.00    -0.237 OA
ATOM     67  O   UNL A   1      52.005  27.043  33.252  1.00  0.00    -0.237 OA
ATOM     68  O   UNL A   1      51.998  25.075  31.770  1.00  0.00    -0.744 OA
ENDBRANCH  64  65
ENDBRANCH  38  59
ENDBRANCH  12  13
ENDBRANCH   5   7
ENDBRANCH   2   3
ENDBRANCH   1   2
BRANCH   1  69
ATOM     69  C   UNL A   1      33.921  25.982  25.765  1.00  0.00     0.117 C 
BRANCH  69  70
ATOM     70  N   UNL A   1      32.610  25.598  26.233  1.00  0.00    -0.356 N 
ATOM     71  C   UNL A   1      31.691  25.020  25.389  1.00  0.00     0.224 C 
ATOM     72  H   UNL A   1      32.369  25.752  27.175  1.00  0.00     0.163 HD
ATOM     73  O   UNL A   1      31.233  23.923  25.720  1.00  0.00    -0.275 OA
BRANCH  71  74
ATOM     74  C   UNL A   1      31.082  25.810  24.242  1.00  0.00     0.098 C 
ATOM     75  C   UNL A   1      31.579  25.789  22.758  1.00  0.00     0.099 C 
ATOM     76  C   UNL A   1      30.459  27.221  24.394  1.00  0.00     0.025 C 
ATOM     77  C   UNL A   1      31.031  27.148  22.217  1.00  0.00     0.025 C 
ATOM     78  C   UNL A   1      31.448  28.332  24.134  1.00  0.00    -0.027 C 
ATOM     79  C   UNL A   1      29.733  27.306  23.032  1.00  0.00     0.017 C 
ATOM     80  C   UNL A   1      31.774  28.298  22.836  1.00  0.00    -0.027 C 
BRANCH  75  81
ATOM     81  C   UNL A   1      32.907  25.373  22.085  1.00  0.00     0.229 C 
ATOM     82  O   UNL A   1      33.410  26.175  21.277  1.00  0.00    -0.274 OA
ATOM     83  N   UNL A   1      33.743  24.364  22.462  1.00  0.00    -0.323 N 
ATOM     84  H   UNL A   1      34.688  24.540  22.243  1.00  0.00     0.170 HD
BRANCH  83  85
ATOM     85  C   UNL A   1      33.545  23.134  23.093  1.00  0.00     0.084 A 
ATOM     86  C   UNL A   1      32.344  22.448  22.864  1.00  0.00     0.030 A 
ATOM     87  C   UNL A   1      34.457  22.587  23.978  1.00  0.00     0.149 A 
ATOM     88  C   UNL A   1      32.167  21.143  23.340  1.00  0.00     0.002 A 
ATOM     89  C   UNL A   1      34.313  21.259  24.388  1.00  0.00     0.049 A 
ATOM     90  C   UNL A   1      33.180  20.527  24.060  1.00  0.00     0.004 A 
BRANCH  87  91
ATOM     91  O   UNL A   1      35.493  23.295  24.493  1.00  0.00    -0.433 OA
BRANCH  91  92
ATOM     92  C   UNL A   1      36.765  23.100  23.861  1.00  0.00     0.542 C 
ATOM     93  F   UNL A   1      37.469  22.161  24.529  1.00  0.00    -0.167 F 
ATOM     94  F   UNL A   1      36.620  22.681  22.582  1.00  0.00    -0.167 F 
ENDBRANCH  91  92
ENDBRANCH  87  91
ENDBRANCH  83  85
ENDBRANCH  75  81
ENDBRANCH  71  74
ENDBRANCH  69  70
ENDBRANCH   1  69
TORSDOF 17
ENDMDL
MODEL 2
REMARK VINA RESULT:     -11.1      3.095      4.270
REMARK SMILES O=C(NCCCNC(=O)[C@@H]1[C@H](C(=O)Nc2ccccc2OC(F)F)[C@@H]2C=C[C@H]1C2)c1ccc(-c2c3nc(c(-c4ccc(S(=O)(=O)[O-])cc4)c4ccc([nH]4)c(-c4ccc(S(=O)(=O)[O-])cc4)c4nc(c(-c5ccc(S(=O)(=O)[O-])cc5)c5ccc2[nH]5)C=C4)C=C3)cc1
REMARK SMILES IDX 5 1 4 2 3 3 1 4 2 5 30 7 31 8 89 9 32 10 88 11 33 12 34 13
REMARK SMILES IDX 35 14 82 15 36 16 87 17 81 18 83 19 37 20 86 21 80 22 79 23
REMARK SMILES IDX 38 25 68 26 49 27 67 28 50 29 53 30 66 31 84 32 51 33 52 34
REMARK SMILES IDX 65 36 85 37 54 38 39 39 40 40 48 41 41 42 47 43 42 44 43 45
REMARK SMILES IDX 44 46 45 47 46 48 69 49 70 50 78 51 71 52 77 53 72 54 73 55
REMARK SMILES IDX 74 56 75 57 76 58 55 59 56 60 64 61 57 62 63 63 58 64 59 65
REMARK SMILES IDX 60 66 61 67 62 68 6 69 7 70 8 71 9 73 10 74 11 75 28 76
REMARK SMILES IDX 25 77 27 78 29 79 26 80 12 81 13 82 14 83 15 85 16 86 20 87
REMARK SMILES IDX 17 88 19 89 18 90 21 91 22 92 23 93 24 94
REMARK H PARENT 3 6 83 24 53 35 7 72 14 84
REMARK Flexibility Score: inf
ROOT
ATOM      1  C   UNL A   1      33.600  29.199  24.351  1.00  0.00     0.042 C 
ENDROOT
BRANCH   1   2
ATOM      2  C   UNL A   1      33.819  29.325  25.861  1.00  0.00     0.118 C 
BRANCH   2   3
ATOM      3  N   UNL A   1      33.414  30.625  26.417  1.00  0.00    -0.352 N 
ATOM      4  O   UNL A   1      33.292  32.296  27.939  1.00  0.00    -0.269 OA
ATOM      5  C   UNL A   1      33.917  31.346  27.477  1.00  0.00     0.251 C 
ATOM      6  H   UNL A   1      32.657  31.051  25.954  1.00  0.00     0.163 HD
BRANCH   5   7
ATOM      7  C   UNL A   1      35.233  30.969  28.016  1.00  0.00     0.039 A 
ATOM      8  C   UNL A   1      35.362  29.708  28.590  1.00  0.00     0.014 A 
ATOM      9  C   UNL A   1      36.314  31.853  27.991  1.00  0.00     0.014 A 
ATOM     10  C   UNL A   1      36.467  29.425  29.361  1.00  0.00     0.010 A 
ATOM     11  C   UNL A   1      37.501  31.495  28.639  1.00  0.00     0.010 A 
ATOM     12  C   UNL A   1      37.566  30.296  29.365  1.00  0.00    -0.014 A 
BRANCH  12  13
ATOM     13  C   UNL A   1      38.785  29.845  30.076  1.00  0.00     0.031 A 
ATOM     14  C   UNL A   1      39.682  28.787  29.502  1.00  0.00     0.074 A 
ATOM     15  C   UNL A   1      39.110  30.489  31.216  1.00  0.00     0.049 A 
ATOM     16  N   UNL A   1      40.806  28.328  29.986  1.00  0.00    -0.248 NA
ATOM     17  C   UNL A   1      39.274  28.156  28.236  1.00  0.00     0.031 C 
ATOM     18  C   UNL A   1      38.298  31.538  31.852  1.00  0.00     0.029 A 
ATOM     19  N   UNL A   1      40.215  30.403  32.018  1.00  0.00    -0.354 N 
ATOM     20  C   UNL A   1      41.219  27.329  29.113  1.00  0.00     0.074 A 
ATOM     21  C   UNL A   1      40.227  27.248  28.063  1.00  0.00     0.031 C 
ATOM     22  C   UNL A   1      38.969  32.048  32.891  1.00  0.00     0.029 A 
ATOM     23  C   UNL A   1      40.200  31.293  33.066  1.00  0.00     0.049 A 
ATOM     24  H   UNL A   1      40.949  29.766  31.860  1.00  0.00     0.167 HD
ATOM     25  C   UNL A   1      42.322  26.549  29.196  1.00  0.00     0.031 A 
ATOM     26  C   UNL A   1      41.058  31.459  34.087  1.00  0.00     0.031 A 
ATOM     27  C   UNL A   1      43.310  26.668  30.237  1.00  0.00     0.049 A 
ATOM     28  C   UNL A   1      42.254  30.562  34.159  1.00  0.00     0.074 A 
ATOM     29  C   UNL A   1      44.494  25.964  30.380  1.00  0.00     0.029 A 
ATOM     30  N   UNL A   1      43.228  27.537  31.314  1.00  0.00    -0.354 N 
ATOM     31  N   UNL A   1      42.643  29.648  33.303  1.00  0.00    -0.248 NA
ATOM     32  C   UNL A   1      43.113  30.698  35.340  1.00  0.00     0.031 C 
ATOM     33  C   UNL A   1      45.097  26.364  31.575  1.00  0.00     0.029 A 
ATOM     34  C   UNL A   1      44.317  27.356  32.150  1.00  0.00     0.049 A 
ATOM     35  H   UNL A   1      42.504  28.186  31.463  1.00  0.00     0.167 HD
ATOM     36  C   UNL A   1      43.787  29.087  33.851  1.00  0.00     0.074 A 
ATOM     37  C   UNL A   1      44.050  29.796  35.088  1.00  0.00     0.031 C 
ATOM     38  C   UNL A   1      44.543  28.065  33.382  1.00  0.00     0.031 A 
BRANCH  25  39
ATOM     39  C   UNL A   1      42.516  25.467  28.168  1.00  0.00    -0.014 A 
ATOM     40  C   UNL A   1      43.272  25.684  27.004  1.00  0.00     0.010 A 
ATOM     41  C   UNL A   1      42.026  24.174  28.436  1.00  0.00     0.010 A 
ATOM     42  C   UNL A   1      43.532  24.627  26.124  1.00  0.00     0.020 A 
ATOM     43  C   UNL A   1      42.299  23.112  27.569  1.00  0.00     0.020 A 
ATOM     44  C   UNL A   1      43.047  23.347  26.415  1.00  0.00     0.054 A 
BRANCH  44  45
ATOM     45  S   UNL A   1      43.464  21.981  25.294  1.00  0.00     0.124 S 
ATOM     46  O   UNL A   1      44.801  21.614  25.752  1.00  0.00    -0.237 OA
ATOM     47  O   UNL A   1      42.415  21.005  25.576  1.00  0.00    -0.237 OA
ATOM     48  O   UNL A   1      43.405  22.590  23.967  1.00  0.00    -0.744 OA
ENDBRANCH  44  45
ENDBRANCH  25  39
BRANCH  26  49
ATOM     49  C   UNL A   1      40.751  32.441  35.160  1.00  0.00    -0.014 A 
ATOM     50  C   UNL A   1      40.000  32.078  36.289  1.00  0.00     0.010 A 
ATOM     51  C   UNL A   1      41.236  33.760  35.056  1.00  0.00     0.010 A 
ATOM     52  C   UNL A   1      39.722  33.020  37.283  1.00  0.00     0.020 A 
ATOM     53  C   UNL A   1      40.991  34.694  36.062  1.00  0.00     0.020 A 
ATOM     54  C   UNL A   1      40.218  34.322  37.162  1.00  0.00     0.054 A 
BRANCH  54  55
ATOM     55  S   UNL A   1      39.877  35.525  38.475  1.00  0.00     0.124 S 
ATOM     56  O   UNL A   1      41.107  35.471  39.257  1.00  0.00    -0.237 OA
ATOM     57  O   UNL A   1      39.652  36.759  37.728  1.00  0.00    -0.237 OA
ATOM     58  O   UNL A   1      38.690  34.981  39.133  1.00  0.00    -0.744 OA
ENDBRANCH  54  55
ENDBRANCH  26  49
BRANCH  38  59
ATOM     59  C   UNL A   1      45.718  27.657  34.222  1.00  0.00    -0.014 A 
ATOM     60  C   UNL A   1      46.954  28.316  34.092  1.00  0.00     0.010 A 
ATOM     61  C   UNL A   1      45.577  26.632  35.174  1.00  0.00     0.010 A 
ATOM     62  C   UNL A   1      48.038  27.937  34.883  1.00  0.00     0.020 A 
ATOM     63  C   UNL A   1      46.653  26.269  35.986  1.00  0.00     0.020 A 
ATOM     64  C   UNL A   1      47.880  26.917  35.825  1.00  0.00     0.054 A 
BRANCH  64  65
ATOM     65  S   UNL A   1      49.292  26.474  36.873  1.00  0.00     0.124 S 
ATOM     66  O   UNL A   1      49.896  25.378  36.121  1.00  0.00    -0.237 OA
ATOM     67  O   UNL A   1      50.065  27.713  36.911  1.00  0.00    -0.237 OA
ATOM     68  O   UNL A   1      48.675  26.094  38.141  1.00  0.00    -0.744 OA
ENDBRANCH  64  65
ENDBRANCH  38  59
ENDBRANCH  12  13
ENDBRANCH   5   7
ENDBRANCH   2   3
ENDBRANCH   1   2
BRANCH   1  69
ATOM     69  C   UNL A   1      33.896  27.796  23.866  1.00  0.00     0.117 C 
BRANCH  69  70
ATOM     70  N   UNL A   1      33.196  26.726  24.539  1.00  0.00    -0.356 N 
ATOM     71  C   UNL A   1      33.875  25.764  25.249  1.00  0.00     0.224 C 
ATOM     72  H   UNL A   1      32.214  26.685  24.489  1.00  0.00     0.163 HD
ATOM     73  O   UNL A   1      33.564  25.611  26.433  1.00  0.00    -0.275 OA
BRANCH  71  74
ATOM     74  C   UNL A   1      34.780  24.767  24.542  1.00  0.00     0.098 C 
ATOM     75  C   UNL A   1      34.473  24.069  23.175  1.00  0.00     0.099 C 
ATOM     76  C   UNL A   1      35.683  23.742  25.275  1.00  0.00     0.025 C 
ATOM     77  C   UNL A   1      35.375  22.796  23.255  1.00  0.00     0.025 C 
ATOM     78  C   UNL A   1      35.009  22.407  25.483  1.00  0.00    -0.027 C 
ATOM     79  C   UNL A   1      36.567  23.312  24.083  1.00  0.00     0.017 C 
ATOM     80  C   UNL A   1      34.841  21.838  24.282  1.00  0.00    -0.027 C 
BRANCH  75  81
ATOM     81  C   UNL A   1      33.176  23.831  22.369  1.00  0.00     0.229 C 
ATOM     82  O   UNL A   1      33.279  23.775  21.129  1.00  0.00    -0.274 OA
ATOM     83  N   UNL A   1      31.973  23.400  22.847  1.00  0.00    -0.323 N 
ATOM     84  H   UNL A   1      31.454  22.885  22.186  1.00  0.00     0.170 HD
BRANCH  83  85
ATOM     85  C   UNL A   1      31.321  23.535  24.075  1.00  0.00     0.084 A 
ATOM     86  C   UNL A   1      31.325  22.448  24.960  1.00  0.00     0.030 A 
ATOM     87  C   UNL A   1      30.625  24.675  24.436  1.00  0.00     0.149 A 
ATOM     88  C   UNL A   1      30.830  22.587  26.262  1.00  0.00     0.002 A 
ATOM     89  C   UNL A   1      30.201  24.839  25.757  1.00  0.00     0.049 A 
ATOM     90  C   UNL A   1      30.315  23.806  26.679  1.00  0.00     0.004 A 
BRANCH  87  91
ATOM     91  O   UNL A   1      30.309  25.652  23.548  1.00  0.00    -0.433 OA
BRANCH  91  92
ATOM     92  C   UNL A   1      29.521  26.734  24.057  1.00  0.00     0.542 C 
ATOM     93  F   UNL A   1      30.012  27.910  23.611  1.00  0.00    -0.167 F 
ATOM     94  F   UNL A   1      28.233  26.639  23.647  1.00  0.00    -0.167 F 
ENDBRANCH  91  92
ENDBRANCH  87  91
ENDBRANCH  83  85
ENDBRANCH  75  81
ENDBRANCH  71  74
ENDBRANCH  69  70
ENDBRANCH   1  69
TORSDOF 17
ENDMDL
MODEL 3
REMARK VINA RESULT:     -11.1      3.024      8.734
REMARK SMILES O=C(NCCCNC(=O)[C@@H]1[C@H](C(=O)Nc2ccccc2OC(F)F)[C@@H]2C=C[C@H]1C2)c1ccc(-c2c3nc(c(-c4ccc(S(=O)(=O)[O-])cc4)c4ccc([nH]4)c(-c4ccc(S(=O)(=O)[O-])cc4)c4nc(c(-c5ccc(S(=O)(=O)[O-])cc5)c5ccc2[nH]5)C=C4)C=C3)cc1
REMARK SMILES IDX 5 1 4 2 3 3 1 4 2 5 30 7 31 8 89 9 32 10 88 11 33 12 34 13
REMARK SMILES IDX 35 14 82 15 36 16 87 17 81 18 83 19 37 20 86 21 80 22 79 23
REMARK SMILES IDX 38 25 68 26 49 27 67 28 50 29 53 30 66 31 84 32 51 33 52 34
REMARK SMILES IDX 65 36 85 37 54 38 39 39 40 40 48 41 41 42 47 43 42 44 43 45
REMARK SMILES IDX 44 46 45 47 46 48 69 49 70 50 78 51 71 52 77 53 72 54 73 55
REMARK SMILES IDX 74 56 75 57 76 58 55 59 56 60 64 61 57 62 63 63 58 64 59 65
REMARK SMILES IDX 60 66 61 67 62 68 6 69 7 70 8 71 9 73 10 74 11 75 28 76
REMARK SMILES IDX 25 77 27 78 29 79 26 80 12 81 13 82 14 83 15 85 16 86 20 87
REMARK SMILES IDX 17 88 19 89 18 90 21 91 22 92 23 93 24 94
REMARK H PARENT 3 6 83 24 53 35 7 72 14 84
REMARK Flexibility Score: inf
ROOT
ATOM      1  C   UNL A   1      34.126  30.802  27.326  1.00  0.00     0.042 C 
ENDROOT
BRANCH   1   2
ATOM      2  C   UNL A   1      35.422  30.221  27.895  1.00  0.00     0.118 C 
BRANCH   2   3
ATOM      3  N   UNL A   1      35.501  30.263  29.363  1.00  0.00    -0.352 N 
ATOM      4  O   UNL A   1      36.230  29.697  31.430  1.00  0.00    -0.269 OA
ATOM      5  C   UNL A   1      36.458  29.779  30.227  1.00  0.00     0.251 C 
ATOM      6  H   UNL A   1      34.743  30.713  29.802  1.00  0.00     0.163 HD
BRANCH   5   7
ATOM      7  C   UNL A   1      37.767  29.396  29.675  1.00  0.00     0.039 A 
ATOM      8  C   UNL A   1      38.696  28.829  30.543  1.00  0.00     0.014 A 
ATOM      9  C   UNL A   1      38.091  29.623  28.336  1.00  0.00     0.014 A 
ATOM     10  C   UNL A   1      40.013  28.729  30.154  1.00  0.00     0.010 A 
ATOM     11  C   UNL A   1      39.395  29.366  27.898  1.00  0.00     0.010 A 
ATOM     12  C   UNL A   1      40.374  28.959  28.818  1.00  0.00    -0.014 A 
BRANCH  12  13
ATOM     13  C   UNL A   1      41.774  28.665  28.435  1.00  0.00     0.031 A 
ATOM     14  C   UNL A   1      42.846  29.712  28.517  1.00  0.00     0.074 A 
ATOM     15  C   UNL A   1      42.069  27.392  28.099  1.00  0.00     0.049 A 
ATOM     16  N   UNL A   1      44.122  29.586  28.262  1.00  0.00    -0.248 NA
ATOM     17  C   UNL A   1      42.449  31.069  28.924  1.00  0.00     0.031 C 
ATOM     18  C   UNL A   1      41.089  26.300  27.995  1.00  0.00     0.029 A 
ATOM     19  N   UNL A   1      43.264  26.783  27.830  1.00  0.00    -0.354 N 
ATOM     20  C   UNL A   1      44.673  30.850  28.436  1.00  0.00     0.074 A 
ATOM     21  C   UNL A   1      43.595  31.733  28.823  1.00  0.00     0.031 C 
ATOM     22  C   UNL A   1      41.731  25.149  27.767  1.00  0.00     0.029 A 
ATOM     23  C   UNL A   1      43.148  25.433  27.596  1.00  0.00     0.049 A 
ATOM     24  H   UNL A   1      44.122  27.264  27.807  1.00  0.00     0.167 HD
ATOM     25  C   UNL A   1      45.963  31.230  28.274  1.00  0.00     0.031 A 
ATOM     26  C   UNL A   1      44.070  24.524  27.236  1.00  0.00     0.031 A 
ATOM     27  C   UNL A   1      47.025  30.325  27.916  1.00  0.00     0.049 A 
ATOM     28  C   UNL A   1      45.481  24.985  27.043  1.00  0.00     0.074 A 
ATOM     29  C   UNL A   1      48.375  30.598  27.783  1.00  0.00     0.029 A 
ATOM     30  N   UNL A   1      46.858  28.980  27.625  1.00  0.00    -0.354 N 
ATOM     31  N   UNL A   1      45.986  26.178  27.248  1.00  0.00    -0.248 NA
ATOM     32  C   UNL A   1      46.440  23.991  26.550  1.00  0.00     0.031 C 
ATOM     33  C   UNL A   1      49.016  29.433  27.353  1.00  0.00     0.029 A 
ATOM     34  C   UNL A   1      48.073  28.420  27.270  1.00  0.00     0.049 A 
ATOM     35  H   UNL A   1      46.003  28.494  27.665  1.00  0.00     0.167 HD
ATOM     36  C   UNL A   1      47.323  26.082  26.894  1.00  0.00     0.074 A 
ATOM     37  C   UNL A   1      47.556  24.705  26.505  1.00  0.00     0.031 C 
ATOM     38  C   UNL A   1      48.270  27.050  26.873  1.00  0.00     0.031 A 
BRANCH  25  39
ATOM     39  C   UNL A   1      46.309  32.685  28.438  1.00  0.00    -0.014 A 
ATOM     40  C   UNL A   1      46.847  33.183  29.637  1.00  0.00     0.010 A 
ATOM     41  C   UNL A   1      46.201  33.543  27.327  1.00  0.00     0.010 A 
ATOM     42  C   UNL A   1      47.266  34.516  29.722  1.00  0.00     0.020 A 
ATOM     43  C   UNL A   1      46.636  34.869  27.402  1.00  0.00     0.020 A 
ATOM     44  C   UNL A   1      47.163  35.348  28.602  1.00  0.00     0.054 A 
BRANCH  44  45
ATOM     45  S   UNL A   1      47.785  37.050  28.720  1.00  0.00     0.124 S 
ATOM     46  O   UNL A   1      47.202  37.666  27.531  1.00  0.00    -0.237 OA
ATOM     47  O   UNL A   1      47.235  37.504  29.994  1.00  0.00    -0.237 OA
ATOM     48  O   UNL A   1      49.237  36.892  28.691  1.00  0.00    -0.744 OA
ENDBRANCH  44  45
ENDBRANCH  25  39
BRANCH  26  49
ATOM     49  C   UNL A   1      43.656  23.126  26.942  1.00  0.00    -0.014 A 
ATOM     50  C   UNL A   1      42.873  22.392  27.845  1.00  0.00     0.010 A 
ATOM     51  C   UNL A   1      44.042  22.528  25.725  1.00  0.00     0.010 A 
ATOM     52  C   UNL A   1      42.500  21.078  27.547  1.00  0.00     0.020 A 
ATOM     53  C   UNL A   1      43.642  21.231  25.408  1.00  0.00     0.020 A 
ATOM     54  C   UNL A   1      42.888  20.506  26.331  1.00  0.00     0.054 A 
BRANCH  54  55
ATOM     55  S   UNL A   1      42.369  18.812  25.945  1.00  0.00     0.124 S 
ATOM     56  O   UNL A   1      40.933  18.978  25.743  1.00  0.00    -0.237 OA
ATOM     57  O   UNL A   1      43.147  18.505  24.747  1.00  0.00    -0.237 OA
ATOM     58  O   UNL A   1      42.753  18.058  27.137  1.00  0.00    -0.744 OA
ENDBRANCH  54  55
ENDBRANCH  26  49
BRANCH  38  59
ATOM     59  C   UNL A   1      49.638  26.644  26.407  1.00  0.00    -0.014 A 
ATOM     60  C   UNL A   1      50.543  26.033  27.293  1.00  0.00     0.010 A 
ATOM     61  C   UNL A   1      50.009  26.840  25.065  1.00  0.00     0.010 A 
ATOM     62  C   UNL A   1      51.809  25.650  26.849  1.00  0.00     0.020 A 
ATOM     63  C   UNL A   1      51.264  26.434  24.612  1.00  0.00     0.020 A 
ATOM     64  C   UNL A   1      52.161  25.852  25.511  1.00  0.00     0.054 A 
BRANCH  64  65
ATOM     65  S   UNL A   1      53.795  25.303  24.949  1.00  0.00     0.124 S 
ATOM     66  O   UNL A   1      54.658  25.761  26.034  1.00  0.00    -0.237 OA
ATOM     67  O   UNL A   1      53.629  23.856  24.844  1.00  0.00    -0.237 OA
ATOM     68  O   UNL A   1      53.973  25.998  23.676  1.00  0.00    -0.744 OA
ENDBRANCH  64  65
ENDBRANCH  38  59
ENDBRANCH  12  13
ENDBRANCH   5   7
ENDBRANCH   2   3
ENDBRANCH   1   2
BRANCH   1  69
ATOM     69  C   UNL A   1      33.408  29.795  26.452  1.00  0.00     0.117 C 
BRANCH  69  70
ATOM     70  N   UNL A   1      34.240  28.990  25.588  1.00  0.00    -0.356 N 
ATOM     71  C   UNL A   1      33.714  28.324  24.507  1.00  0.00     0.224 C 
ATOM     72  H   UNL A   1      35.204  28.917  25.778  1.00  0.00     0.163 HD
ATOM     73  O   UNL A   1      34.211  28.560  23.402  1.00  0.00    -0.275 OA
BRANCH  71  74
ATOM     74  C   UNL A   1      32.745  27.168  24.699  1.00  0.00     0.098 C 
ATOM     75  C   UNL A   1      32.901  25.738  24.084  1.00  0.00     0.099 C 
ATOM     76  C   UNL A   1      31.210  27.336  24.838  1.00  0.00     0.025 C 
ATOM     77  C   UNL A   1      31.427  25.221  24.096  1.00  0.00     0.025 C 
ATOM     78  C   UNL A   1      30.485  27.228  23.518  1.00  0.00    -0.027 C 
ATOM     79  C   UNL A   1      30.863  25.920  25.349  1.00  0.00     0.017 C 
ATOM     80  C   UNL A   1      30.600  25.966  23.086  1.00  0.00    -0.027 C 
BRANCH  75  81
ATOM     81  C   UNL A   1      33.721  25.170  22.903  1.00  0.00     0.229 C 
ATOM     82  O   UNL A   1      33.818  25.881  21.885  1.00  0.00    -0.274 OA
ATOM     83  N   UNL A   1      34.580  24.111  22.927  1.00  0.00    -0.323 N 
ATOM     84  H   UNL A   1      35.312  24.190  22.273  1.00  0.00     0.170 HD
BRANCH  83  85
ATOM     85  C   UNL A   1      34.642  22.938  23.683  1.00  0.00     0.084 A 
ATOM     86  C   UNL A   1      33.465  22.202  23.878  1.00  0.00     0.030 A 
ATOM     87  C   UNL A   1      35.802  22.498  24.296  1.00  0.00     0.149 A 
ATOM     88  C   UNL A   1      33.505  20.941  24.486  1.00  0.00     0.002 A 
ATOM     89  C   UNL A   1      35.856  21.209  24.833  1.00  0.00     0.049 A 
ATOM     90  C   UNL A   1      34.716  20.420  24.916  1.00  0.00     0.004 A 
BRANCH  87  91
ATOM     91  O   UNL A   1      36.905  23.278  24.420  1.00  0.00    -0.433 OA
BRANCH  91  92
ATOM     92  C   UNL A   1      37.392  23.472  25.753  1.00  0.00     0.542 C 
ATOM     93  F   UNL A   1      38.393  24.379  25.749  1.00  0.00    -0.167 F 
ATOM     94  F   UNL A   1      36.416  23.933  26.572  1.00  0.00    -0.167 F 
ENDBRANCH  91  92
ENDBRANCH  87  91
ENDBRANCH  83  85
ENDBRANCH  75  81
ENDBRANCH  71  74
ENDBRANCH  69  70
ENDBRANCH   1  69
TORSDOF 17
ENDMDL
