MODEL 1
REMARK VINA RESULT:     -11.9      0.000      0.000
REMARK SMILES O=C(CCn1c(N2CC[NH2+]CC2)nc2ccccc2c1=O)NCCCNC(=O)c1ccc(-c2c3nc(c(-c4ccc(S(=O)(=O)[O-])cc4)c4ccc([nH]4)c(-c4ccc(S(=O)(=O)[O-])cc4)c4nc(c(-c5ccc(S(=O)(=O)[O-])cc5)c5ccc2[nH]5)C=C4)C=C3)cc1
REMARK SMILES IDX 24 1 23 2 22 3 1 4 2 5 3 7 4 8 5 9 6 10 20 11 13 12 19 13
REMARK SMILES IDX 21 14 14 15 18 16 15 17 17 18 16 19 7 20 8 21 12 22 9 23
REMARK SMILES IDX 11 24 10 25 25 28 26 29 27 30 28 32 29 33 30 34 88 35 31 36
REMARK SMILES IDX 87 37 32 38 33 39 34 40 81 41 35 42 86 43 80 44 82 45 36 46
REMARK SMILES IDX 85 47 79 48 78 49 37 51 67 52 48 53 66 54 49 55 52 56 65 57
REMARK SMILES IDX 83 58 50 59 51 60 64 62 84 63 53 64 38 65 39 66 47 67 40 68
REMARK SMILES IDX 46 69 41 70 42 71 43 72 44 73 45 74 68 75 69 76 77 77 70 78
REMARK SMILES IDX 76 79 71 80 72 81 73 82 74 83 75 84 54 85 55 86 63 87 56 88
REMARK SMILES IDX 62 89 57 90 58 91 59 92 60 93 61 94
REMARK H PARENT 22 6 10 26 10 27 26 31 82 50 52 61
REMARK Flexibility Score: inf
ROOT
ATOM      1  C   UNL A   1      33.592  28.965  25.694  1.00  0.00     0.042 C 
ENDROOT
BRANCH   1   2
ATOM      2  C   UNL A   1      32.865  27.837  24.982  1.00  0.00     0.117 C 
BRANCH   2   3
ATOM      3  N   UNL A   1      33.467  26.538  25.212  1.00  0.00    -0.356 N 
ATOM      4  O   UNL A   1      33.725  25.933  23.007  1.00  0.00    -0.275 OA
ATOM      5  C   UNL A   1      33.927  25.726  24.199  1.00  0.00     0.221 C 
ATOM      6  H   UNL A   1      33.552  26.221  26.141  1.00  0.00     0.163 HD
BRANCH   5   7
ATOM      7  C   UNL A   1      34.812  24.597  24.675  1.00  0.00     0.122 C 
BRANCH   7   8
ATOM      8  C   UNL A   1      34.121  23.763  25.767  1.00  0.00     0.139 C 
BRANCH   8   9
ATOM      9  N   UNL A   1      33.614  22.474  25.274  1.00  0.00    -0.278 N 
ATOM     10  C   UNL A   1      32.353  22.324  24.692  1.00  0.00     0.209 A 
ATOM     11  C   UNL A   1      34.447  21.376  25.499  1.00  0.00     0.262 A 
ATOM     12  N   UNL A   1      31.984  21.195  24.156  1.00  0.00    -0.214 NA
ATOM     13  C   UNL A   1      34.063  20.119  24.850  1.00  0.00     0.066 A 
ATOM     14  O   UNL A   1      35.482  21.423  26.157  1.00  0.00    -0.269 OA
ATOM     15  C   UNL A   1      32.856  20.100  24.163  1.00  0.00     0.080 A 
ATOM     16  C   UNL A   1      34.915  19.008  24.871  1.00  0.00     0.016 A 
ATOM     17  C   UNL A   1      32.509  18.940  23.468  1.00  0.00     0.029 A 
ATOM     18  C   UNL A   1      34.558  17.857  24.173  1.00  0.00     0.001 A 
ATOM     19  C   UNL A   1      33.356  17.826  23.467  1.00  0.00     0.002 A 
BRANCH  10  20
ATOM     20  N   UNL A   1      31.443  23.360  24.739  1.00  0.00    -0.331 N 
ATOM     21  C   UNL A   1      30.671  23.569  25.975  1.00  0.00     0.181 C 
ATOM     22  C   UNL A   1      30.703  23.822  23.558  1.00  0.00     0.181 C 
ATOM     23  C   UNL A   1      30.301  25.064  26.108  1.00  0.00     0.282 C 
ATOM     24  C   UNL A   1      30.346  25.317  23.711  1.00  0.00     0.282 C 
ATOM     25  N   UNL A   1      29.576  25.611  24.940  1.00  0.00    -0.343 N 
ATOM     26  H   UNL A   1      29.471  26.620  25.044  1.00  0.00     0.346 HD
ATOM     27  H   UNL A   1      28.652  25.183  24.877  1.00  0.00     0.346 HD
ENDBRANCH  10  20
ENDBRANCH   8   9
ENDBRANCH   7   8
ENDBRANCH   5   7
ENDBRANCH   2   3
ENDBRANCH   1   2
BRANCH   1  28
ATOM     28  C   UNL A   1      33.421  28.984  27.208  1.00  0.00     0.118 C 
BRANCH  28  29
ATOM     29  N   UNL A   1      33.505  30.308  27.810  1.00  0.00    -0.352 N 
ATOM     30  C   UNL A   1      34.593  30.908  28.413  1.00  0.00     0.251 C 
ATOM     31  H   UNL A   1      32.679  30.845  27.784  1.00  0.00     0.163 HD
ATOM     32  O   UNL A   1      34.494  32.016  28.928  1.00  0.00    -0.269 OA
BRANCH  30  33
ATOM     33  C   UNL A   1      35.875  30.172  28.474  1.00  0.00     0.039 A 
ATOM     34  C   UNL A   1      36.275  29.544  29.655  1.00  0.00     0.014 A 
ATOM     35  C   UNL A   1      36.727  30.198  27.366  1.00  0.00     0.014 A 
ATOM     36  C   UNL A   1      37.595  29.123  29.793  1.00  0.00     0.010 A 
ATOM     37  C   UNL A   1      38.027  29.698  27.483  1.00  0.00     0.010 A 
ATOM     38  C   UNL A   1      38.494  29.219  28.718  1.00  0.00    -0.014 A 
BRANCH  38  39
ATOM     39  C   UNL A   1      39.925  28.865  28.916  1.00  0.00     0.031 A 
ATOM     40  C   UNL A   1      40.862  29.823  29.610  1.00  0.00     0.074 A 
ATOM     41  C   UNL A   1      40.372  27.653  28.531  1.00  0.00     0.049 A 
ATOM     42  N   UNL A   1      42.138  29.681  29.868  1.00  0.00    -0.248 NA
ATOM     43  C   UNL A   1      40.299  31.101  30.078  1.00  0.00     0.031 C 
ATOM     44  C   UNL A   1      39.556  26.622  27.891  1.00  0.00     0.029 A 
ATOM     45  N   UNL A   1      41.610  27.074  28.651  1.00  0.00    -0.354 N 
ATOM     46  C   UNL A   1      42.531  30.851  30.509  1.00  0.00     0.074 A 
ATOM     47  C   UNL A   1      41.367  31.705  30.581  1.00  0.00     0.031 C 
ATOM     48  C   UNL A   1      40.298  25.517  27.725  1.00  0.00     0.029 A 
ATOM     49  C   UNL A   1      41.659  25.781  28.184  1.00  0.00     0.049 A 
ATOM     50  H   UNL A   1      42.389  27.538  29.035  1.00  0.00     0.167 HD
ATOM     51  C   UNL A   1      43.748  31.177  31.005  1.00  0.00     0.031 A 
ATOM     52  C   UNL A   1      42.681  24.905  28.117  1.00  0.00     0.031 A 
ATOM     53  C   UNL A   1      44.901  30.317  30.951  1.00  0.00     0.049 A 
ATOM     54  C   UNL A   1      44.037  25.311  28.614  1.00  0.00     0.074 A 
ATOM     55  C   UNL A   1      46.174  30.566  31.435  1.00  0.00     0.029 A 
ATOM     56  N   UNL A   1      44.923  29.048  30.396  1.00  0.00    -0.354 N 
ATOM     57  N   UNL A   1      44.393  26.433  29.192  1.00  0.00    -0.248 NA
ATOM     58  C   UNL A   1      45.131  24.346  28.444  1.00  0.00     0.031 C 
ATOM     59  C   UNL A   1      46.980  29.467  31.126  1.00  0.00     0.029 A 
ATOM     60  C   UNL A   1      46.194  28.510  30.503  1.00  0.00     0.049 A 
ATOM     61  H   UNL A   1      44.151  28.596  29.986  1.00  0.00     0.167 HD
ATOM     62  C   UNL A   1      45.752  26.308  29.457  1.00  0.00     0.074 A 
ATOM     63  C   UNL A   1      46.151  24.996  28.992  1.00  0.00     0.031 C 
ATOM     64  C   UNL A   1      46.587  27.206  30.031  1.00  0.00     0.031 A 
BRANCH  51  65
ATOM     65  C   UNL A   1      43.919  32.527  31.650  1.00  0.00    -0.014 A 
ATOM     66  C   UNL A   1      43.542  32.710  32.994  1.00  0.00     0.010 A 
ATOM     67  C   UNL A   1      44.339  33.639  30.899  1.00  0.00     0.010 A 
ATOM     68  C   UNL A   1      43.559  33.983  33.570  1.00  0.00     0.020 A 
ATOM     69  C   UNL A   1      44.379  34.911  31.478  1.00  0.00     0.020 A 
ATOM     70  C   UNL A   1      43.969  35.078  32.803  1.00  0.00     0.054 A 
BRANCH  70  71
ATOM     71  S   UNL A   1      43.978  36.726  33.561  1.00  0.00     0.124 S 
ATOM     72  O   UNL A   1      42.922  36.613  34.561  1.00  0.00    -0.237 OA
ATOM     73  O   UNL A   1      45.338  36.833  34.087  1.00  0.00    -0.237 OA
ATOM     74  O   UNL A   1      43.686  37.616  32.439  1.00  0.00    -0.744 OA
ENDBRANCH  70  71
ENDBRANCH  51  65
BRANCH  52  75
ATOM     75  C   UNL A   1      42.429  23.552  27.552  1.00  0.00    -0.014 A 
ATOM     76  C   UNL A   1      42.060  22.488  28.396  1.00  0.00     0.010 A 
ATOM     77  C   UNL A   1      42.663  23.298  26.190  1.00  0.00     0.010 A 
ATOM     78  C   UNL A   1      41.992  21.183  27.904  1.00  0.00     0.020 A 
ATOM     79  C   UNL A   1      42.569  21.996  25.688  1.00  0.00     0.020 A 
ATOM     80  C   UNL A   1      42.268  20.943  26.555  1.00  0.00     0.054 A 
BRANCH  80  81
ATOM     81  S   UNL A   1      42.246  19.234  25.949  1.00  0.00     0.124 S 
ATOM     82  O   UNL A   1      42.786  18.506  27.095  1.00  0.00    -0.237 OA
ATOM     83  O   UNL A   1      40.830  19.008  25.670  1.00  0.00    -0.237 OA
ATOM     84  O   UNL A   1      43.109  19.280  24.772  1.00  0.00    -0.744 OA
ENDBRANCH  80  81
ENDBRANCH  52  75
BRANCH  64  85
ATOM     85  C   UNL A   1      48.034  26.830  30.198  1.00  0.00    -0.014 A 
ATOM     86  C   UNL A   1      48.450  26.156  31.361  1.00  0.00     0.010 A 
ATOM     87  C   UNL A   1      48.998  27.281  29.281  1.00  0.00     0.010 A 
ATOM     88  C   UNL A   1      49.808  25.975  31.627  1.00  0.00     0.020 A 
ATOM     89  C   UNL A   1      50.360  27.083  29.534  1.00  0.00     0.020 A 
ATOM     90  C   UNL A   1      50.755  26.457  30.719  1.00  0.00     0.054 A 
BRANCH  90  91
ATOM     91  S   UNL A   1      52.517  26.266  31.107  1.00  0.00     0.124 S 
ATOM     92  O   UNL A   1      52.526  25.045  31.905  1.00  0.00    -0.237 OA
ATOM     93  O   UNL A   1      53.130  26.158  29.784  1.00  0.00    -0.237 OA
ATOM     94  O   UNL A   1      52.841  27.491  31.834  1.00  0.00    -0.744 OA
ENDBRANCH  90  91
ENDBRANCH  64  85
ENDBRANCH  38  39
ENDBRANCH  30  33
ENDBRANCH  28  29
ENDBRANCH   1  28
TORSDOF 16
ENDMDL
MODEL 2
REMARK VINA RESULT:     -11.8      1.538      2.351
REMARK SMILES O=C(CCn1c(N2CC[NH2+]CC2)nc2ccccc2c1=O)NCCCNC(=O)c1ccc(-c2c3nc(c(-c4ccc(S(=O)(=O)[O-])cc4)c4ccc([nH]4)c(-c4ccc(S(=O)(=O)[O-])cc4)c4nc(c(-c5ccc(S(=O)(=O)[O-])cc5)c5ccc2[nH]5)C=C4)C=C3)cc1
REMARK SMILES IDX 24 1 23 2 22 3 1 4 2 5 3 7 4 8 5 9 6 10 20 11 13 12 19 13
REMARK SMILES IDX 21 14 14 15 18 16 15 17 17 18 16 19 7 20 8 21 12 22 9 23
REMARK SMILES IDX 11 24 10 25 25 28 26 29 27 30 28 32 29 33 30 34 88 35 31 36
REMARK SMILES IDX 87 37 32 38 33 39 34 40 81 41 35 42 86 43 80 44 82 45 36 46
REMARK SMILES IDX 85 47 79 48 78 49 37 51 67 52 48 53 66 54 49 55 52 56 65 57
REMARK SMILES IDX 83 58 50 59 51 60 64 62 84 63 53 64 38 65 39 66 47 67 40 68
REMARK SMILES IDX 46 69 41 70 42 71 43 72 44 73 45 74 68 75 69 76 77 77 70 78
REMARK SMILES IDX 76 79 71 80 72 81 73 82 74 83 75 84 54 85 55 86 63 87 56 88
REMARK SMILES IDX 62 89 57 90 58 91 59 92 60 93 61 94
REMARK H PARENT 22 6 10 26 10 27 26 31 82 50 52 61
REMARK Flexibility Score: inf
ROOT
ATOM      1  C   UNL A   1      32.748  28.282  27.603  1.00  0.00     0.042 C 
ENDROOT
BRANCH   1   2
ATOM      2  C   UNL A   1      31.378  27.803  27.152  1.00  0.00     0.117 C 
BRANCH   2   3
ATOM      3  N   UNL A   1      31.278  26.359  27.076  1.00  0.00    -0.356 N 
ATOM      4  O   UNL A   1      30.487  26.228  24.919  1.00  0.00    -0.275 OA
ATOM      5  C   UNL A   1      30.919  25.684  25.930  1.00  0.00     0.221 C 
ATOM      6  H   UNL A   1      31.477  25.833  27.885  1.00  0.00     0.163 HD
BRANCH   5   7
ATOM      7  C   UNL A   1      31.209  24.201  25.978  1.00  0.00     0.122 C 
BRANCH   7   8
ATOM      8  C   UNL A   1      31.436  23.627  24.569  1.00  0.00     0.139 C 
BRANCH   8   9
ATOM      9  N   UNL A   1      32.844  23.303  24.298  1.00  0.00    -0.278 N 
ATOM     10  C   UNL A   1      33.731  24.200  23.700  1.00  0.00     0.209 A 
ATOM     11  C   UNL A   1      33.228  21.996  24.606  1.00  0.00     0.262 A 
ATOM     12  N   UNL A   1      35.000  23.925  23.586  1.00  0.00    -0.214 NA
ATOM     13  C   UNL A   1      34.661  21.700  24.533  1.00  0.00     0.066 A 
ATOM     14  O   UNL A   1      32.449  21.119  24.970  1.00  0.00    -0.269 OA
ATOM     15  C   UNL A   1      35.496  22.706  24.063  1.00  0.00     0.080 A 
ATOM     16  C   UNL A   1      35.169  20.474  24.984  1.00  0.00     0.016 A 
ATOM     17  C   UNL A   1      36.874  22.476  24.062  1.00  0.00     0.029 A 
ATOM     18  C   UNL A   1      36.544  20.258  24.979  1.00  0.00     0.001 A 
ATOM     19  C   UNL A   1      37.397  21.263  24.523  1.00  0.00     0.002 A 
BRANCH  10  20
ATOM     20  N   UNL A   1      33.260  25.374  23.150  1.00  0.00    -0.331 N 
ATOM     21  C   UNL A   1      32.757  25.357  21.766  1.00  0.00     0.181 C 
ATOM     22  C   UNL A   1      33.796  26.693  23.511  1.00  0.00     0.181 C 
ATOM     23  C   UNL A   1      31.683  26.455  21.592  1.00  0.00     0.282 C 
ATOM     24  C   UNL A   1      32.707  27.772  23.332  1.00  0.00     0.282 C 
ATOM     25  N   UNL A   1      32.142  27.812  21.965  1.00  0.00    -0.343 N 
ATOM     26  H   UNL A   1      31.354  28.458  21.939  1.00  0.00     0.346 HD
ATOM     27  H   UNL A   1      32.856  28.126  21.307  1.00  0.00     0.346 HD
ENDBRANCH  10  20
ENDBRANCH   8   9
ENDBRANCH   7   8
ENDBRANCH   5   7
ENDBRANCH   2   3
ENDBRANCH   1   2
BRANCH   1  28
ATOM     28  C   UNL A   1      33.416  29.285  26.670  1.00  0.00     0.118 C 
BRANCH  28  29
ATOM     29  N   UNL A   1      33.521  30.635  27.207  1.00  0.00    -0.352 N 
ATOM     30  C   UNL A   1      34.569  31.199  27.909  1.00  0.00     0.251 C 
ATOM     31  H   UNL A   1      32.745  31.221  27.049  1.00  0.00     0.163 HD
ATOM     32  O   UNL A   1      34.488  32.340  28.349  1.00  0.00    -0.269 OA
BRANCH  30  33
ATOM     33  C   UNL A   1      35.778  30.386  28.168  1.00  0.00     0.039 A 
ATOM     34  C   UNL A   1      35.949  29.744  29.397  1.00  0.00     0.014 A 
ATOM     35  C   UNL A   1      36.792  30.351  27.207  1.00  0.00     0.014 A 
ATOM     36  C   UNL A   1      37.202  29.244  29.739  1.00  0.00     0.010 A 
ATOM     37  C   UNL A   1      38.024  29.774  27.525  1.00  0.00     0.010 A 
ATOM     38  C   UNL A   1      38.262  29.277  28.818  1.00  0.00    -0.014 A 
BRANCH  38  39
ATOM     39  C   UNL A   1      39.620  28.839  29.237  1.00  0.00     0.031 A 
ATOM     40  C   UNL A   1      40.450  29.693  30.163  1.00  0.00     0.074 A 
ATOM     41  C   UNL A   1      40.087  27.638  28.838  1.00  0.00     0.049 A 
ATOM     42  N   UNL A   1      41.652  29.468  30.631  1.00  0.00    -0.248 NA
ATOM     43  C   UNL A   1      39.857  30.958  30.629  1.00  0.00     0.031 C 
ATOM     44  C   UNL A   1      39.364  26.700  27.979  1.00  0.00     0.029 A 
ATOM     45  N   UNL A   1      41.261  26.990  29.127  1.00  0.00    -0.354 N 
ATOM     46  C   UNL A   1      41.965  30.565  31.427  1.00  0.00     0.074 A 
ATOM     47  C   UNL A   1      40.837  31.469  31.362  1.00  0.00     0.031 C 
ATOM     48  C   UNL A   1      40.083  25.575  27.856  1.00  0.00     0.029 A 
ATOM     49  C   UNL A   1      41.348  25.736  28.570  1.00  0.00     0.049 A 
ATOM     50  H   UNL A   1      41.974  27.385  29.680  1.00  0.00     0.167 HD
ATOM     51  C   UNL A   1      43.082  30.792  32.156  1.00  0.00     0.031 A 
ATOM     52  C   UNL A   1      42.333  24.817  28.612  1.00  0.00     0.031 A 
ATOM     53  C   UNL A   1      44.195  29.882  32.237  1.00  0.00     0.049 A 
ATOM     54  C   UNL A   1      43.591  25.116  29.374  1.00  0.00     0.074 A 
ATOM     55  C   UNL A   1      45.367  30.029  32.958  1.00  0.00     0.029 A 
ATOM     56  N   UNL A   1      44.272  28.659  31.590  1.00  0.00    -0.354 N 
ATOM     57  N   UNL A   1      43.875  26.172  30.098  1.00  0.00    -0.248 NA
ATOM     58  C   UNL A   1      44.662  24.113  29.321  1.00  0.00     0.031 C 
ATOM     59  C   UNL A   1      46.175  28.918  32.706  1.00  0.00     0.029 A 
ATOM     60  C   UNL A   1      45.483  28.052  31.876  1.00  0.00     0.049 A 
ATOM     61  H   UNL A   1      43.570  28.279  31.014  1.00  0.00     0.167 HD
ATOM     62  C   UNL A   1      45.158  25.960  30.589  1.00  0.00     0.074 A 
ATOM     63  C   UNL A   1      45.588  24.668  30.095  1.00  0.00     0.031 C 
ATOM     64  C   UNL A   1      45.907  26.769  31.375  1.00  0.00     0.031 A 
BRANCH  51  65
ATOM     65  C   UNL A   1      43.182  32.079  32.932  1.00  0.00    -0.014 A 
ATOM     66  C   UNL A   1      42.655  32.150  34.235  1.00  0.00     0.010 A 
ATOM     67  C   UNL A   1      43.685  33.246  32.332  1.00  0.00     0.010 A 
ATOM     68  C   UNL A   1      42.609  33.368  34.918  1.00  0.00     0.020 A 
ATOM     69  C   UNL A   1      43.662  34.463  33.020  1.00  0.00     0.020 A 
ATOM     70  C   UNL A   1      43.105  34.520  34.301  1.00  0.00     0.054 A 
BRANCH  70  71
ATOM     71  S   UNL A   1      43.032  36.097  35.196  1.00  0.00     0.124 S 
ATOM     72  O   UNL A   1      41.969  36.804  34.489  1.00  0.00    -0.237 OA
ATOM     73  O   UNL A   1      42.714  35.679  36.560  1.00  0.00    -0.237 OA
ATOM     74  O   UNL A   1      44.374  36.648  35.023  1.00  0.00    -0.744 OA
ENDBRANCH  70  71
ENDBRANCH  51  65
BRANCH  52  75
ATOM     75  C   UNL A   1      42.140  23.525  27.901  1.00  0.00    -0.014 A 
ATOM     76  C   UNL A   1      41.577  22.423  28.572  1.00  0.00     0.010 A 
ATOM     77  C   UNL A   1      42.616  23.359  26.590  1.00  0.00     0.010 A 
ATOM     78  C   UNL A   1      41.552  21.163  27.969  1.00  0.00     0.020 A 
ATOM     79  C   UNL A   1      42.568  22.105  25.973  1.00  0.00     0.020 A 
ATOM     80  C   UNL A   1      42.067  21.009  26.680  1.00  0.00     0.054 A 
BRANCH  80  81
ATOM     81  S   UNL A   1      42.093  19.353  25.942  1.00  0.00     0.124 S 
ATOM     82  O   UNL A   1      40.684  19.149  25.618  1.00  0.00    -0.237 OA
ATOM     83  O   UNL A   1      42.983  19.524  24.796  1.00  0.00    -0.237 OA
ATOM     84  O   UNL A   1      42.619  18.511  27.014  1.00  0.00    -0.744 OA
ENDBRANCH  80  81
ENDBRANCH  52  75
BRANCH  64  85
ATOM     85  C   UNL A   1      47.286  26.309  31.764  1.00  0.00    -0.014 A 
ATOM     86  C   UNL A   1      48.361  26.503  30.878  1.00  0.00     0.010 A 
ATOM     87  C   UNL A   1      47.482  25.551  32.930  1.00  0.00     0.010 A 
ATOM     88  C   UNL A   1      49.600  25.910  31.128  1.00  0.00     0.020 A 
ATOM     89  C   UNL A   1      48.728  24.973  33.195  1.00  0.00     0.020 A 
ATOM     90  C   UNL A   1      49.770  25.134  32.278  1.00  0.00     0.054 A 
BRANCH  90  91
ATOM     91  S   UNL A   1      51.368  24.323  32.561  1.00  0.00     0.124 S 
ATOM     92  O   UNL A   1      51.062  22.928  32.262  1.00  0.00    -0.237 OA
ATOM     93  O   UNL A   1      52.245  24.994  31.603  1.00  0.00    -0.237 OA
ATOM     94  O   UNL A   1      51.655  24.614  33.964  1.00  0.00    -0.744 OA
ENDBRANCH  90  91
ENDBRANCH  64  85
ENDBRANCH  38  39
ENDBRANCH  30  33
ENDBRANCH  28  29
ENDBRANCH   1  28
TORSDOF 16
ENDMDL
MODEL 3
REMARK VINA RESULT:     -11.7      2.802      9.576
REMARK SMILES O=C(CCn1c(N2CC[NH2+]CC2)nc2ccccc2c1=O)NCCCNC(=O)c1ccc(-c2c3nc(c(-c4ccc(S(=O)(=O)[O-])cc4)c4ccc([nH]4)c(-c4ccc(S(=O)(=O)[O-])cc4)c4nc(c(-c5ccc(S(=O)(=O)[O-])cc5)c5ccc2[nH]5)C=C4)C=C3)cc1
REMARK SMILES IDX 24 1 23 2 22 3 1 4 2 5 3 7 4 8 5 9 6 10 20 11 13 12 19 13
REMARK SMILES IDX 21 14 14 15 18 16 15 17 17 18 16 19 7 20 8 21 12 22 9 23
REMARK SMILES IDX 11 24 10 25 25 28 26 29 27 30 28 32 29 33 30 34 88 35 31 36
REMARK SMILES IDX 87 37 32 38 33 39 34 40 81 41 35 42 86 43 80 44 82 45 36 46
REMARK SMILES IDX 85 47 79 48 78 49 37 51 67 52 48 53 66 54 49 55 52 56 65 57
REMARK SMILES IDX 83 58 50 59 51 60 64 62 84 63 53 64 38 65 39 66 47 67 40 68
REMARK SMILES IDX 46 69 41 70 42 71 43 72 44 73 45 74 68 75 69 76 77 77 70 78
REMARK SMILES IDX 76 79 71 80 72 81 73 82 74 83 75 84 54 85 55 86 63 87 56 88
REMARK SMILES IDX 62 89 57 90 58 91 59 92 60 93 61 94
REMARK H PARENT 22 6 10 26 10 27 26 31 82 50 52 61
REMARK Flexibility Score: inf
ROOT
ATOM      1  C   UNL A   1      35.791  22.577  24.834  1.00  0.00     0.042 C 
ENDROOT
BRANCH   1   2
ATOM      2  C   UNL A   1      34.769  23.058  25.850  1.00  0.00     0.117 C 
BRANCH   2   3
ATOM      3  N   UNL A   1      34.355  24.431  25.633  1.00  0.00    -0.356 N 
ATOM      4  O   UNL A   1      32.270  24.268  26.593  1.00  0.00    -0.275 OA
ATOM      5  C   UNL A   1      33.166  24.946  26.101  1.00  0.00     0.221 C 
ATOM      6  H   UNL A   1      34.955  25.025  25.126  1.00  0.00     0.163 HD
BRANCH   5   7
ATOM      7  C   UNL A   1      33.096  26.456  26.061  1.00  0.00     0.122 C 
BRANCH   7   8
ATOM      8  C   UNL A   1      33.261  26.988  24.628  1.00  0.00     0.139 C 
BRANCH   8   9
ATOM      9  N   UNL A   1      31.999  27.457  24.038  1.00  0.00    -0.278 N 
ATOM     10  C   UNL A   1      31.124  26.619  23.344  1.00  0.00     0.209 A 
ATOM     11  C   UNL A   1      31.760  28.829  24.145  1.00  0.00     0.262 A 
ATOM     12  N   UNL A   1      29.958  27.040  22.940  1.00  0.00    -0.214 NA
ATOM     13  C   UNL A   1      30.430  29.296  23.744  1.00  0.00     0.066 A 
ATOM     14  O   UNL A   1      32.574  29.635  24.589  1.00  0.00    -0.269 OA
ATOM     15  C   UNL A   1      29.565  28.359  23.196  1.00  0.00     0.080 A 
ATOM     16  C   UNL A   1      30.032  30.620  23.971  1.00  0.00     0.016 A 
ATOM     17  C   UNL A   1      28.265  28.761  22.883  1.00  0.00     0.029 A 
ATOM     18  C   UNL A   1      28.733  31.009  23.657  1.00  0.00     0.001 A 
ATOM     19  C   UNL A   1      27.847  30.077  23.118  1.00  0.00     0.002 A 
BRANCH  10  20
ATOM     20  N   UNL A   1      31.514  25.339  23.008  1.00  0.00    -0.331 N 
ATOM     21  C   UNL A   1      32.389  25.148  21.839  1.00  0.00     0.181 C 
ATOM     22  C   UNL A   1      30.668  24.162  23.246  1.00  0.00     0.181 C 
ATOM     23  C   UNL A   1      33.251  23.881  22.039  1.00  0.00     0.282 C 
ATOM     24  C   UNL A   1      31.550  22.910  23.444  1.00  0.00     0.282 C 
ATOM     25  N   UNL A   1      32.468  22.655  22.312  1.00  0.00    -0.343 N 
ATOM     26  H   UNL A   1      33.100  21.892  22.550  1.00  0.00     0.346 HD
ATOM     27  H   UNL A   1      31.930  22.400  21.484  1.00  0.00     0.346 HD
ENDBRANCH  10  20
ENDBRANCH   8   9
ENDBRANCH   7   8
ENDBRANCH   5   7
ENDBRANCH   2   3
ENDBRANCH   1   2
BRANCH   1  28
ATOM     28  C   UNL A   1      37.160  23.238  24.937  1.00  0.00     0.118 C 
BRANCH  28  29
ATOM     29  N   UNL A   1      38.209  22.378  25.471  1.00  0.00    -0.352 N 
ATOM     30  C   UNL A   1      39.248  22.718  26.315  1.00  0.00     0.251 C 
ATOM     31  H   UNL A   1      38.172  21.434  25.194  1.00  0.00     0.163 HD
ATOM     32  O   UNL A   1      40.092  21.889  26.637  1.00  0.00    -0.269 OA
BRANCH  30  33
ATOM     33  C   UNL A   1      39.359  24.115  26.790  1.00  0.00     0.039 A 
ATOM     34  C   UNL A   1      40.035  25.070  26.028  1.00  0.00     0.014 A 
ATOM     35  C   UNL A   1      38.867  24.443  28.056  1.00  0.00     0.014 A 
ATOM     36  C   UNL A   1      40.393  26.282  26.610  1.00  0.00     0.010 A 
ATOM     37  C   UNL A   1      39.158  25.694  28.606  1.00  0.00     0.010 A 
ATOM     38  C   UNL A   1      39.982  26.598  27.916  1.00  0.00    -0.014 A 
BRANCH  38  39
ATOM     39  C   UNL A   1      40.464  27.849  28.560  1.00  0.00     0.031 A 
ATOM     40  C   UNL A   1      41.922  28.020  28.909  1.00  0.00     0.074 A 
ATOM     41  C   UNL A   1      39.602  28.864  28.775  1.00  0.00     0.049 A 
ATOM     42  N   UNL A   1      42.517  29.040  29.473  1.00  0.00    -0.248 NA
ATOM     43  C   UNL A   1      42.830  26.908  28.580  1.00  0.00     0.031 C 
ATOM     44  C   UNL A   1      38.178  28.840  28.442  1.00  0.00     0.029 A 
ATOM     45  N   UNL A   1      39.804  30.118  29.293  1.00  0.00    -0.354 N 
ATOM     46  C   UNL A   1      43.859  28.689  29.582  1.00  0.00     0.074 A 
ATOM     47  C   UNL A   1      43.990  27.351  29.048  1.00  0.00     0.031 C 
ATOM     48  C   UNL A   1      37.646  30.042  28.710  1.00  0.00     0.029 A 
ATOM     49  C   UNL A   1      38.672  30.900  29.297  1.00  0.00     0.049 A 
ATOM     50  H   UNL A   1      40.675  30.430  29.629  1.00  0.00     0.167 HD
ATOM     51  C   UNL A   1      44.889  29.419  30.070  1.00  0.00     0.031 A 
ATOM     52  C   UNL A   1      38.470  32.159  29.733  1.00  0.00     0.031 A 
ATOM     53  C   UNL A   1      44.761  30.758  30.582  1.00  0.00     0.049 A 
ATOM     54  C   UNL A   1      39.613  32.927  30.329  1.00  0.00     0.074 A 
ATOM     55  C   UNL A   1      45.755  31.576  31.091  1.00  0.00     0.029 A 
ATOM     56  N   UNL A   1      43.579  31.479  30.640  1.00  0.00    -0.354 N 
ATOM     57  N   UNL A   1      40.868  32.565  30.447  1.00  0.00    -0.248 NA
ATOM     58  C   UNL A   1      39.318  34.265  30.859  1.00  0.00     0.031 C 
ATOM     59  C   UNL A   1      45.165  32.773  31.505  1.00  0.00     0.029 A 
ATOM     60  C   UNL A   1      43.815  32.723  31.200  1.00  0.00     0.049 A 
ATOM     61  H   UNL A   1      42.703  31.155  30.331  1.00  0.00     0.167 HD
ATOM     62  C   UNL A   1      41.513  33.631  31.062  1.00  0.00     0.074 A 
ATOM     63  C   UNL A   1      40.516  34.659  31.277  1.00  0.00     0.031 C 
ATOM     64  C   UNL A   1      42.816  33.739  31.417  1.00  0.00     0.031 A 
BRANCH  51  65
ATOM     65  C   UNL A   1      46.260  28.798  30.088  1.00  0.00    -0.014 A 
ATOM     66  C   UNL A   1      47.065  28.848  28.934  1.00  0.00     0.010 A 
ATOM     67  C   UNL A   1      46.705  28.063  31.202  1.00  0.00     0.010 A 
ATOM     68  C   UNL A   1      48.279  28.158  28.883  1.00  0.00     0.020 A 
ATOM     69  C   UNL A   1      47.930  27.390  31.163  1.00  0.00     0.020 A 
ATOM     70  C   UNL A   1      48.699  27.425  29.996  1.00  0.00     0.054 A 
BRANCH  70  71
ATOM     71  S   UNL A   1      50.274  26.527  29.912  1.00  0.00     0.124 S 
ATOM     72  O   UNL A   1      51.014  27.293  28.915  1.00  0.00    -0.237 OA
ATOM     73  O   UNL A   1      50.773  26.623  31.283  1.00  0.00    -0.237 OA
ATOM     74  O   UNL A   1      49.875  25.183  29.500  1.00  0.00    -0.744 OA
ENDBRANCH  70  71
ENDBRANCH  51  65
BRANCH  52  75
ATOM     75  C   UNL A   1      37.112  32.753  29.604  1.00  0.00    -0.014 A 
ATOM     76  C   UNL A   1      36.709  33.344  28.392  1.00  0.00     0.010 A 
ATOM     77  C   UNL A   1      36.263  32.827  30.720  1.00  0.00     0.010 A 
ATOM     78  C   UNL A   1      35.509  34.055  28.316  1.00  0.00     0.020 A 
ATOM     79  C   UNL A   1      35.048  33.515  30.640  1.00  0.00     0.020 A 
ATOM     80  C   UNL A   1      34.695  34.153  29.448  1.00  0.00     0.054 A 
BRANCH  80  81
ATOM     81  S   UNL A   1      33.177  35.140  29.351  1.00  0.00     0.124 S 
ATOM     82  O   UNL A   1      32.669  35.038  30.716  1.00  0.00    -0.237 OA
ATOM     83  O   UNL A   1      33.673  36.457  28.960  1.00  0.00    -0.237 OA
ATOM     84  O   UNL A   1      32.388  34.449  28.335  1.00  0.00    -0.744 OA
ENDBRANCH  80  81
ENDBRANCH  52  75
BRANCH  64  85
ATOM     85  C   UNL A   1      43.269  35.007  32.089  1.00  0.00    -0.014 A 
ATOM     86  C   UNL A   1      43.090  35.164  33.475  1.00  0.00     0.010 A 
ATOM     87  C   UNL A   1      43.725  36.094  31.325  1.00  0.00     0.010 A 
ATOM     88  C   UNL A   1      43.317  36.401  34.082  1.00  0.00     0.020 A 
ATOM     89  C   UNL A   1      43.974  37.329  31.933  1.00  0.00     0.020 A 
ATOM     90  C   UNL A   1      43.742  37.480  33.302  1.00  0.00     0.054 A 
BRANCH  90  91
ATOM     91  S   UNL A   1      43.977  39.095  34.095  1.00  0.00     0.124 S 
ATOM     92  O   UNL A   1      45.254  39.529  33.537  1.00  0.00    -0.237 OA
ATOM     93  O   UNL A   1      42.806  39.848  33.649  1.00  0.00    -0.237 OA
ATOM     94  O   UNL A   1      43.994  38.776  35.521  1.00  0.00    -0.744 OA
ENDBRANCH  90  91
ENDBRANCH  64  85
ENDBRANCH  38  39
ENDBRANCH  30  33
ENDBRANCH  28  29
ENDBRANCH   1  28
TORSDOF 16
ENDMDL
