MODEL 1
REMARK VINA RESULT:     -10.3      0.000      0.000
REMARK SMILES C=CC[N@@H+](CC(=O)NCCCNC(=O)c1ccc(-c2c3nc(c(-c4ccc(S(=O)(=O)[O-])cc4)c4ccc([nH]4)c(-c4ccc(S(=O)(=O)[O-])cc4)c4nc(c(-c5ccc(S(=O)(=O)[O-])cc5)c5ccc2[nH]5)C=C4)C=C3)cc1)[C@@H]1CC[N@@H+](C(C)C)C1
REMARK SMILES IDX 10 1 9 2 8 3 6 4 7 5 5 7 4 8 3 10 2 11 1 12 75 13 76 14
REMARK SMILES IDX 82 15 77 16 78 17 79 19 80 20 81 21 11 22 12 23 13 24 14 26
REMARK SMILES IDX 15 27 16 28 74 29 17 30 73 31 18 32 19 33 20 34 67 35 21 36
REMARK SMILES IDX 72 37 66 38 68 39 22 40 71 41 65 42 64 43 23 45 53 46 34 47
REMARK SMILES IDX 52 48 35 49 38 50 51 51 69 52 36 53 37 54 50 56 70 57 39 58
REMARK SMILES IDX 24 59 25 60 33 61 26 62 32 63 27 64 28 65 29 66 30 67 31 68
REMARK SMILES IDX 54 69 55 70 63 71 56 72 62 73 57 74 58 75 59 76 60 77 61 78
REMARK SMILES IDX 40 79 41 80 49 81 42 82 48 83 43 84 44 85 45 86 46 87 47 88
REMARK H PARENT 8 6 4 9 78 18 12 25 68 44 38 55
REMARK Flexibility Score: inf
ROOT
ATOM      1  C   UNL A   1      35.556  32.339  27.954  1.00  0.00     0.042 C 
ENDROOT
BRANCH   1   2
ATOM      2  C   UNL A   1      34.095  31.882  28.027  1.00  0.00     0.118 C 
BRANCH   2   3
ATOM      3  N   UNL A   1      33.975  30.433  27.962  1.00  0.00    -0.351 N 
ATOM      4  C   UNL A   1      33.293  29.618  27.105  1.00  0.00     0.275 C 
ATOM      5  O   UNL A   1      33.334  28.405  27.345  1.00  0.00    -0.269 OA
ATOM      6  H   UNL A   1      34.477  29.955  28.660  1.00  0.00     0.163 HD
BRANCH   4   7
ATOM      7  C   UNL A   1      32.530  30.143  25.879  1.00  0.00     0.364 C 
BRANCH   7   8
ATOM      8  N   UNL A   1      32.198  29.149  24.815  1.00  0.00    -0.317 N 
ATOM      9  H   UNL A   1      32.187  28.201  25.192  1.00  0.00     0.349 HD
BRANCH   8  10
ATOM     10  C   UNL A   1      33.267  29.104  23.827  1.00  0.00     0.291 C 
BRANCH  10  11
ATOM     11  C   UNL A   1      33.927  27.805  23.500  1.00  0.00     0.025 C 
ATOM     12  C   UNL A   1      33.786  26.713  24.269  1.00  0.00     0.010 C 
ENDBRANCH  10  11
ENDBRANCH   8  10
BRANCH   8  13
ATOM     13  C   UNL A   1      30.794  29.245  24.351  1.00  0.00     0.246 C 
ATOM     14  C   UNL A   1      30.479  28.528  23.035  1.00  0.00     0.132 C 
ATOM     15  C   UNL A   1      30.128  30.629  24.178  1.00  0.00     0.328 C 
ATOM     16  C   UNL A   1      30.130  29.610  22.027  1.00  0.00     0.269 C 
ATOM     17  N   UNL A   1      29.719  30.787  22.784  1.00  0.00    -0.328 N 
ATOM     18  H   UNL A   1      30.220  31.600  22.429  1.00  0.00     0.348 HD
BRANCH  17  19
ATOM     19  C   UNL A   1      28.352  31.254  22.528  1.00  0.00     0.177 C 
ATOM     20  C   UNL A   1      27.478  31.383  23.781  1.00  0.00     0.075 C 
ATOM     21  C   UNL A   1      28.338  32.572  21.740  1.00  0.00     0.075 C 
ENDBRANCH  17  19
ENDBRANCH   8  13
ENDBRANCH   7   8
ENDBRANCH   4   7
ENDBRANCH   2   3
ENDBRANCH   1   2
BRANCH   1  22
ATOM     22  C   UNL A   1      36.117  32.911  29.248  1.00  0.00     0.118 C 
BRANCH  22  23
ATOM     23  N   UNL A   1      35.858  32.048  30.386  1.00  0.00    -0.352 N 
ATOM     24  C   UNL A   1      36.547  30.962  30.871  1.00  0.00     0.251 C 
ATOM     25  H   UNL A   1      35.049  32.280  30.897  1.00  0.00     0.163 HD
ATOM     26  O   UNL A   1      35.992  30.259  31.715  1.00  0.00    -0.269 OA
BRANCH  24  27
ATOM     27  C   UNL A   1      37.915  30.603  30.408  1.00  0.00     0.039 A 
ATOM     28  C   UNL A   1      38.061  30.085  29.115  1.00  0.00     0.014 A 
ATOM     29  C   UNL A   1      39.038  30.672  31.236  1.00  0.00     0.014 A 
ATOM     30  C   UNL A   1      39.318  29.676  28.649  1.00  0.00     0.010 A 
ATOM     31  C   UNL A   1      40.307  30.348  30.741  1.00  0.00     0.010 A 
ATOM     32  C   UNL A   1      40.460  29.822  29.450  1.00  0.00    -0.014 A 
BRANCH  32  33
ATOM     33  C   UNL A   1      41.804  29.394  28.971  1.00  0.00     0.031 A 
ATOM     34  C   UNL A   1      42.933  30.390  28.873  1.00  0.00     0.074 A 
ATOM     35  C   UNL A   1      42.009  28.119  28.581  1.00  0.00     0.049 A 
ATOM     36  N   UNL A   1      44.155  30.215  28.434  1.00  0.00    -0.248 NA
ATOM     37  C   UNL A   1      42.647  31.769  29.301  1.00  0.00     0.031 C 
ATOM     38  C   UNL A   1      40.999  27.058  28.587  1.00  0.00     0.029 A 
ATOM     39  N   UNL A   1      43.137  27.500  28.098  1.00  0.00    -0.354 N 
ATOM     40  C   UNL A   1      44.771  31.461  28.509  1.00  0.00     0.074 A 
ATOM     41  C   UNL A   1      43.776  32.391  28.994  1.00  0.00     0.031 C 
ATOM     42  C   UNL A   1      41.558  25.916  28.155  1.00  0.00     0.029 A 
ATOM     43  C   UNL A   1      42.952  26.169  27.803  1.00  0.00     0.049 A 
ATOM     44  H   UNL A   1      43.995  27.964  27.975  1.00  0.00     0.167 HD
ATOM     45  C   UNL A   1      46.050  31.801  28.218  1.00  0.00     0.031 A 
ATOM     46  C   UNL A   1      43.805  25.252  27.302  1.00  0.00     0.031 A 
ATOM     47  C   UNL A   1      47.051  30.874  27.759  1.00  0.00     0.049 A 
ATOM     48  C   UNL A   1      45.223  25.648  26.997  1.00  0.00     0.074 A 
ATOM     49  C   UNL A   1      48.390  31.113  27.500  1.00  0.00     0.029 A 
ATOM     50  N   UNL A   1      46.826  29.533  27.493  1.00  0.00    -0.354 N 
ATOM     51  N   UNL A   1      45.798  26.818  27.134  1.00  0.00    -0.248 NA
ATOM     52  C   UNL A   1      46.111  24.595  26.482  1.00  0.00     0.031 C 
ATOM     53  C   UNL A   1      48.964  29.925  27.035  1.00  0.00     0.029 A 
ATOM     54  C   UNL A   1      47.995  28.935  27.052  1.00  0.00     0.049 A 
ATOM     55  H   UNL A   1      45.962  29.073  27.600  1.00  0.00     0.167 HD
ATOM     56  C   UNL A   1      47.120  26.637  26.743  1.00  0.00     0.074 A 
ATOM     57  C   UNL A   1      47.263  25.243  26.379  1.00  0.00     0.031 C 
ATOM     58  C   UNL A   1      48.125  27.546  26.691  1.00  0.00     0.031 A 
BRANCH  45  59
ATOM     59  C   UNL A   1      46.442  33.247  28.385  1.00  0.00    -0.014 A 
ATOM     60  C   UNL A   1      46.301  34.164  27.329  1.00  0.00     0.010 A 
ATOM     61  C   UNL A   1      46.923  33.702  29.626  1.00  0.00     0.010 A 
ATOM     62  C   UNL A   1      46.679  35.499  27.496  1.00  0.00     0.020 A 
ATOM     63  C   UNL A   1      47.276  35.042  29.806  1.00  0.00     0.020 A 
ATOM     64  C   UNL A   1      47.170  35.928  28.733  1.00  0.00     0.054 A 
BRANCH  64  65
ATOM     65  S   UNL A   1      47.643  37.670  28.926  1.00  0.00     0.124 S 
ATOM     66  O   UNL A   1      47.389  38.199  27.588  1.00  0.00    -0.237 OA
ATOM     67  O   UNL A   1      46.733  38.137  29.968  1.00  0.00    -0.237 OA
ATOM     68  O   UNL A   1      49.050  37.605  29.313  1.00  0.00    -0.744 OA
ENDBRANCH  64  65
ENDBRANCH  45  59
BRANCH  46  69
ATOM     69  C   UNL A   1      43.337  23.858  27.069  1.00  0.00    -0.014 A 
ATOM     70  C   UNL A   1      43.266  22.942  28.134  1.00  0.00     0.010 A 
ATOM     71  C   UNL A   1      42.940  23.446  25.785  1.00  0.00     0.010 A 
ATOM     72  C   UNL A   1      42.818  21.636  27.916  1.00  0.00     0.020 A 
ATOM     73  C   UNL A   1      42.467  22.148  25.568  1.00  0.00     0.020 A 
ATOM     74  C   UNL A   1      42.419  21.248  26.634  1.00  0.00     0.054 A 
BRANCH  74  75
ATOM     75  S   UNL A   1      41.779  19.568  26.385  1.00  0.00     0.124 S 
ATOM     76  O   UNL A   1      42.445  19.170  25.149  1.00  0.00    -0.237 OA
ATOM     77  O   UNL A   1      42.223  18.877  27.593  1.00  0.00    -0.237 OA
ATOM     78  O   UNL A   1      40.335  19.765  26.286  1.00  0.00    -0.744 OA
ENDBRANCH  74  75
ENDBRANCH  46  69
BRANCH  58  79
ATOM     79  C   UNL A   1      49.480  27.059  26.251  1.00  0.00    -0.014 A 
ATOM     80  C   UNL A   1      50.394  26.520  27.174  1.00  0.00     0.010 A 
ATOM     81  C   UNL A   1      49.820  27.094  24.887  1.00  0.00     0.010 A 
ATOM     82  C   UNL A   1      51.637  26.050  26.742  1.00  0.00     0.020 A 
ATOM     83  C   UNL A   1      51.053  26.602  24.448  1.00  0.00     0.020 A 
ATOM     84  C   UNL A   1      51.960  26.096  25.380  1.00  0.00     0.054 A 
BRANCH  84  85
ATOM     85  S   UNL A   1      53.561  25.438  24.838  1.00  0.00     0.124 S 
ATOM     86  O   UNL A   1      53.591  25.834  23.432  1.00  0.00    -0.237 OA
ATOM     87  O   UNL A   1      54.507  26.134  25.707  1.00  0.00    -0.237 OA
ATOM     88  O   UNL A   1      53.443  24.002  25.079  1.00  0.00    -0.744 OA
ENDBRANCH  84  85
ENDBRANCH  58  79
ENDBRANCH  32  33
ENDBRANCH  24  27
ENDBRANCH  22  23
ENDBRANCH   1  22
TORSDOF 18
ENDMDL
MODEL 2
REMARK VINA RESULT:     -10.2      4.074      5.869
REMARK SMILES C=CC[N@@H+](CC(=O)NCCCNC(=O)c1ccc(-c2c3nc(c(-c4ccc(S(=O)(=O)[O-])cc4)c4ccc([nH]4)c(-c4ccc(S(=O)(=O)[O-])cc4)c4nc(c(-c5ccc(S(=O)(=O)[O-])cc5)c5ccc2[nH]5)C=C4)C=C3)cc1)[C@@H]1CC[N@@H+](C(C)C)C1
REMARK SMILES IDX 10 1 9 2 8 3 6 4 7 5 5 7 4 8 3 10 2 11 1 12 75 13 76 14
REMARK SMILES IDX 82 15 77 16 78 17 79 19 80 20 81 21 11 22 12 23 13 24 14 26
REMARK SMILES IDX 15 27 16 28 74 29 17 30 73 31 18 32 19 33 20 34 67 35 21 36
REMARK SMILES IDX 72 37 66 38 68 39 22 40 71 41 65 42 64 43 23 45 53 46 34 47
REMARK SMILES IDX 52 48 35 49 38 50 51 51 69 52 36 53 37 54 50 56 70 57 39 58
REMARK SMILES IDX 24 59 25 60 33 61 26 62 32 63 27 64 28 65 29 66 30 67 31 68
REMARK SMILES IDX 54 69 55 70 63 71 56 72 62 73 57 74 58 75 59 76 60 77 61 78
REMARK SMILES IDX 40 79 41 80 49 81 42 82 48 83 43 84 44 85 45 86 46 87 47 88
REMARK H PARENT 8 6 4 9 78 18 12 25 68 44 38 55
REMARK Flexibility Score: inf
ROOT
ATOM      1  C   UNL A   1      33.704  28.039  25.343  1.00  0.00     0.042 C 
ENDROOT
BRANCH   1   2
ATOM      2  C   UNL A   1      32.714  27.058  24.707  1.00  0.00     0.118 C 
BRANCH   2   3
ATOM      3  N   UNL A   1      33.341  26.247  23.674  1.00  0.00    -0.351 N 
ATOM      4  C   UNL A   1      33.855  24.982  23.701  1.00  0.00     0.275 C 
ATOM      5  O   UNL A   1      34.388  24.579  22.661  1.00  0.00    -0.269 OA
ATOM      6  H   UNL A   1      33.406  26.689  22.797  1.00  0.00     0.163 HD
BRANCH   4   7
ATOM      7  C   UNL A   1      33.765  24.069  24.935  1.00  0.00     0.364 C 
BRANCH   7   8
ATOM      8  N   UNL A   1      34.801  23.000  25.058  1.00  0.00    -0.317 N 
ATOM      9  H   UNL A   1      34.840  22.638  26.011  1.00  0.00     0.349 HD
BRANCH   8  10
ATOM     10  C   UNL A   1      36.127  23.570  24.862  1.00  0.00     0.291 C 
BRANCH  10  11
ATOM     11  C   UNL A   1      37.093  23.620  26.000  1.00  0.00     0.025 C 
ATOM     12  C   UNL A   1      38.228  22.902  26.013  1.00  0.00     0.010 C 
ENDBRANCH  10  11
ENDBRANCH   8  10
BRANCH   8  13
ATOM     13  C   UNL A   1      34.439  21.758  24.337  1.00  0.00     0.246 C 
ATOM     14  C   UNL A   1      32.951  21.588  24.013  1.00  0.00     0.132 C 
ATOM     15  C   UNL A   1      34.845  20.382  24.911  1.00  0.00     0.328 C 
ATOM     16  C   UNL A   1      32.466  20.402  24.829  1.00  0.00     0.269 C 
ATOM     17  N   UNL A   1      33.637  19.596  25.156  1.00  0.00    -0.328 N 
ATOM     18  H   UNL A   1      33.628  19.390  26.154  1.00  0.00     0.348 HD
BRANCH  17  19
ATOM     19  C   UNL A   1      33.612  18.217  24.656  1.00  0.00     0.177 C 
ATOM     20  C   UNL A   1      32.817  18.026  23.359  1.00  0.00     0.075 C 
ATOM     21  C   UNL A   1      35.027  17.645  24.493  1.00  0.00     0.075 C 
ENDBRANCH  17  19
ENDBRANCH   8  13
ENDBRANCH   7   8
ENDBRANCH   4   7
ENDBRANCH   2   3
ENDBRANCH   1   2
BRANCH   1  22
ATOM     22  C   UNL A   1      33.507  28.277  26.834  1.00  0.00     0.118 C 
BRANCH  22  23
ATOM     23  N   UNL A   1      33.470  29.689  27.164  1.00  0.00    -0.352 N 
ATOM     24  C   UNL A   1      34.380  30.488  27.817  1.00  0.00     0.251 C 
ATOM     25  H   UNL A   1      32.655  30.155  26.871  1.00  0.00     0.163 HD
ATOM     26  O   UNL A   1      34.011  31.605  28.177  1.00  0.00    -0.269 OA
BRANCH  24  27
ATOM     27  C   UNL A   1      35.771  30.049  28.113  1.00  0.00     0.039 A 
ATOM     28  C   UNL A   1      36.070  29.628  29.415  1.00  0.00     0.014 A 
ATOM     29  C   UNL A   1      36.806  30.129  27.178  1.00  0.00     0.014 A 
ATOM     30  C   UNL A   1      37.377  29.261  29.763  1.00  0.00     0.010 A 
ATOM     31  C   UNL A   1      38.091  29.678  27.500  1.00  0.00     0.010 A 
ATOM     32  C   UNL A   1      38.400  29.261  28.802  1.00  0.00    -0.014 A 
BRANCH  32  33
ATOM     33  C   UNL A   1      39.794  28.873  29.154  1.00  0.00     0.031 A 
ATOM     34  C   UNL A   1      40.707  29.853  29.850  1.00  0.00     0.074 A 
ATOM     35  C   UNL A   1      40.264  27.655  28.815  1.00  0.00     0.049 A 
ATOM     36  N   UNL A   1      41.964  29.713  30.191  1.00  0.00    -0.248 NA
ATOM     37  C   UNL A   1      40.143  31.171  30.184  1.00  0.00     0.031 C 
ATOM     38  C   UNL A   1      39.505  26.621  28.109  1.00  0.00     0.029 A 
ATOM     39  N   UNL A   1      41.497  27.082  29.016  1.00  0.00    -0.354 N 
ATOM     40  C   UNL A   1      42.345  30.928  30.754  1.00  0.00     0.074 A 
ATOM     41  C   UNL A   1      41.199  31.806  30.669  1.00  0.00     0.031 C 
ATOM     42  C   UNL A   1      40.279  25.533  27.958  1.00  0.00     0.029 A 
ATOM     43  C   UNL A   1      41.599  25.803  28.519  1.00  0.00     0.049 A 
ATOM     44  H   UNL A   1      42.237  27.543  29.472  1.00  0.00     0.167 HD
ATOM     45  C   UNL A   1      43.531  31.279  31.308  1.00  0.00     0.031 A 
ATOM     46  C   UNL A   1      42.637  24.943  28.510  1.00  0.00     0.031 A 
ATOM     47  C   UNL A   1      44.666  30.400  31.418  1.00  0.00     0.049 A 
ATOM     48  C   UNL A   1      43.941  25.349  29.140  1.00  0.00     0.074 A 
ATOM     49  C   UNL A   1      45.888  30.646  32.020  1.00  0.00     0.029 A 
ATOM     50  N   UNL A   1      44.719  29.109  30.919  1.00  0.00    -0.354 N 
ATOM     51  N   UNL A   1      44.257  26.481  29.720  1.00  0.00    -0.248 NA
ATOM     52  C   UNL A   1      45.023  24.354  29.125  1.00  0.00     0.031 C 
ATOM     53  C   UNL A   1      46.696  29.517  31.846  1.00  0.00     0.029 A 
ATOM     54  C   UNL A   1      45.959  28.550  31.180  1.00  0.00     0.049 A 
ATOM     55  H   UNL A   1      43.983  28.654  30.447  1.00  0.00     0.167 HD
ATOM     56  C   UNL A   1      45.568  26.328  30.158  1.00  0.00     0.074 A 
ATOM     57  C   UNL A   1      45.980  24.989  29.790  1.00  0.00     0.031 C 
ATOM     58  C   UNL A   1      46.358  27.217  30.808  1.00  0.00     0.031 A 
BRANCH  45  59
ATOM     59  C   UNL A   1      43.664  32.684  31.836  1.00  0.00    -0.014 A 
ATOM     60  C   UNL A   1      43.493  32.966  33.203  1.00  0.00     0.010 A 
ATOM     61  C   UNL A   1      44.001  33.731  30.959  1.00  0.00     0.010 A 
ATOM     62  C   UNL A   1      43.609  34.276  33.676  1.00  0.00     0.020 A 
ATOM     63  C   UNL A   1      44.145  35.039  31.432  1.00  0.00     0.020 A 
ATOM     64  C   UNL A   1      43.928  35.305  32.786  1.00  0.00     0.054 A 
BRANCH  64  65
ATOM     65  S   UNL A   1      44.083  36.995  33.429  1.00  0.00     0.124 S 
ATOM     66  O   UNL A   1      42.736  37.250  33.932  1.00  0.00    -0.237 OA
ATOM     67  O   UNL A   1      45.118  36.858  34.449  1.00  0.00    -0.237 OA
ATOM     68  O   UNL A   1      44.469  37.777  32.256  1.00  0.00    -0.744 OA
ENDBRANCH  64  65
ENDBRANCH  45  59
BRANCH  46  69
ATOM     69  C   UNL A   1      42.477  23.599  27.891  1.00  0.00    -0.014 A 
ATOM     70  C   UNL A   1      42.794  23.395  26.536  1.00  0.00     0.010 A 
ATOM     71  C   UNL A   1      42.026  22.510  28.659  1.00  0.00     0.010 A 
ATOM     72  C   UNL A   1      42.652  22.131  25.958  1.00  0.00     0.020 A 
ATOM     73  C   UNL A   1      41.907  21.238  28.090  1.00  0.00     0.020 A 
ATOM     74  C   UNL A   1      42.211  21.059  26.740  1.00  0.00     0.054 A 
BRANCH  74  75
ATOM     75  S   UNL A   1      42.096  19.412  25.987  1.00  0.00     0.124 S 
ATOM     76  O   UNL A   1      42.608  18.555  27.051  1.00  0.00    -0.237 OA
ATOM     77  O   UNL A   1      40.667  19.289  25.708  1.00  0.00    -0.237 OA
ATOM     78  O   UNL A   1      42.946  19.519  24.803  1.00  0.00    -0.744 OA
ENDBRANCH  74  75
ENDBRANCH  46  69
BRANCH  58  79
ATOM     79  C   UNL A   1      47.743  26.766  31.191  1.00  0.00    -0.014 A 
ATOM     80  C   UNL A   1      48.829  26.926  30.313  1.00  0.00     0.010 A 
ATOM     81  C   UNL A   1      47.966  26.223  32.469  1.00  0.00     0.010 A 
ATOM     82  C   UNL A   1      50.111  26.525  30.698  1.00  0.00     0.020 A 
ATOM     83  C   UNL A   1      49.251  25.843  32.867  1.00  0.00     0.020 A 
ATOM     84  C   UNL A   1      50.314  25.984  31.973  1.00  0.00     0.054 A 
BRANCH  84  85
ATOM     85  S   UNL A   1      51.995  25.512  32.465  1.00  0.00     0.124 S 
ATOM     86  O   UNL A   1      52.052  24.114  32.045  1.00  0.00    -0.237 OA
ATOM     87  O   UNL A   1      52.828  26.433  31.696  1.00  0.00    -0.237 OA
ATOM     88  O   UNL A   1      52.005  25.729  33.910  1.00  0.00    -0.744 OA
ENDBRANCH  84  85
ENDBRANCH  58  79
ENDBRANCH  32  33
ENDBRANCH  24  27
ENDBRANCH  22  23
ENDBRANCH   1  22
TORSDOF 18
ENDMDL
MODEL 3
REMARK VINA RESULT:     -10.1      5.743      7.886
REMARK SMILES C=CC[N@@H+](CC(=O)NCCCNC(=O)c1ccc(-c2c3nc(c(-c4ccc(S(=O)(=O)[O-])cc4)c4ccc([nH]4)c(-c4ccc(S(=O)(=O)[O-])cc4)c4nc(c(-c5ccc(S(=O)(=O)[O-])cc5)c5ccc2[nH]5)C=C4)C=C3)cc1)[C@@H]1CC[N@@H+](C(C)C)C1
REMARK SMILES IDX 10 1 9 2 8 3 6 4 7 5 5 7 4 8 3 10 2 11 1 12 75 13 76 14
REMARK SMILES IDX 82 15 77 16 78 17 79 19 80 20 81 21 11 22 12 23 13 24 14 26
REMARK SMILES IDX 15 27 16 28 74 29 17 30 73 31 18 32 19 33 20 34 67 35 21 36
REMARK SMILES IDX 72 37 66 38 68 39 22 40 71 41 65 42 64 43 23 45 53 46 34 47
REMARK SMILES IDX 52 48 35 49 38 50 51 51 69 52 36 53 37 54 50 56 70 57 39 58
REMARK SMILES IDX 24 59 25 60 33 61 26 62 32 63 27 64 28 65 29 66 30 67 31 68
REMARK SMILES IDX 54 69 55 70 63 71 56 72 62 73 57 74 58 75 59 76 60 77 61 78
REMARK SMILES IDX 40 79 41 80 49 81 42 82 48 83 43 84 44 85 45 86 46 87 47 88
REMARK H PARENT 8 6 4 9 78 18 12 25 68 44 38 55
REMARK Flexibility Score: inf
ROOT
ATOM      1  C   UNL A   1      33.319  27.514  26.264  1.00  0.00     0.042 C 
ENDROOT
BRANCH   1   2
ATOM      2  C   UNL A   1      33.750  26.119  25.796  1.00  0.00     0.118 C 
BRANCH   2   3
ATOM      3  N   UNL A   1      32.663  25.156  25.886  1.00  0.00    -0.351 N 
ATOM      4  C   UNL A   1      32.552  23.870  25.443  1.00  0.00     0.275 C 
ATOM      5  O   UNL A   1      31.460  23.316  25.617  1.00  0.00    -0.269 OA
ATOM      6  H   UNL A   1      31.864  25.492  26.353  1.00  0.00     0.163 HD
BRANCH   4   7
ATOM      7  C   UNL A   1      33.713  23.109  24.783  1.00  0.00     0.364 C 
BRANCH   7   8
ATOM      8  N   UNL A   1      34.180  21.867  25.469  1.00  0.00    -0.317 N 
ATOM      9  H   UNL A   1      33.594  21.654  26.277  1.00  0.00     0.349 HD
BRANCH   8  10
ATOM     10  C   UNL A   1      35.494  22.089  26.058  1.00  0.00     0.291 C 
BRANCH  10  11
ATOM     11  C   UNL A   1      36.139  23.432  25.956  1.00  0.00     0.025 C 
ATOM     12  C   UNL A   1      37.450  23.584  25.712  1.00  0.00     0.010 C 
ENDBRANCH  10  11
ENDBRANCH   8  10
BRANCH   8  13
ATOM     13  C   UNL A   1      33.949  20.642  24.667  1.00  0.00     0.246 C 
ATOM     14  C   UNL A   1      32.548  20.034  24.774  1.00  0.00     0.132 C 
ATOM     15  C   UNL A   1      34.887  19.425  24.824  1.00  0.00     0.328 C 
ATOM     16  C   UNL A   1      32.714  18.687  25.457  1.00  0.00     0.269 C 
ATOM     17  N   UNL A   1      34.100  18.274  25.264  1.00  0.00    -0.328 N 
ATOM     18  H   UNL A   1      34.488  17.989  26.163  1.00  0.00     0.348 HD
BRANCH  17  19
ATOM     19  C   UNL A   1      34.285  17.010  24.543  1.00  0.00     0.177 C 
ATOM     20  C   UNL A   1      33.613  15.799  25.200  1.00  0.00     0.075 C 
ATOM     21  C   UNL A   1      33.847  17.123  23.076  1.00  0.00     0.075 C 
ENDBRANCH  17  19
ENDBRANCH   8  13
ENDBRANCH   7   8
ENDBRANCH   4   7
ENDBRANCH   2   3
ENDBRANCH   1   2
BRANCH   1  22
ATOM     22  C   UNL A   1      34.039  28.671  25.586  1.00  0.00     0.118 C 
BRANCH  22  23
ATOM     23  N   UNL A   1      33.706  29.950  26.185  1.00  0.00    -0.352 N 
ATOM     24  C   UNL A   1      34.251  30.614  27.259  1.00  0.00     0.251 C 
ATOM     25  H   UNL A   1      32.961  30.423  25.748  1.00  0.00     0.163 HD
ATOM     26  O   UNL A   1      33.637  31.579  27.711  1.00  0.00    -0.269 OA
BRANCH  24  27
ATOM     27  C   UNL A   1      35.533  30.203  27.894  1.00  0.00     0.039 A 
ATOM     28  C   UNL A   1      35.490  29.681  29.193  1.00  0.00     0.014 A 
ATOM     29  C   UNL A   1      36.777  30.402  27.290  1.00  0.00     0.014 A 
ATOM     30  C   UNL A   1      36.672  29.333  29.861  1.00  0.00     0.010 A 
ATOM     31  C   UNL A   1      37.950  29.972  27.920  1.00  0.00     0.010 A 
ATOM     32  C   UNL A   1      37.916  29.455  29.223  1.00  0.00    -0.014 A 
BRANCH  32  33
ATOM     33  C   UNL A   1      39.183  29.089  29.916  1.00  0.00     0.031 A 
ATOM     34  C   UNL A   1      39.616  29.832  31.157  1.00  0.00     0.074 A 
ATOM     35  C   UNL A   1      39.973  28.118  29.416  1.00  0.00     0.049 A 
ATOM     36  N   UNL A   1      40.707  29.689  31.868  1.00  0.00    -0.248 NA
ATOM     37  C   UNL A   1      38.719  30.890  31.650  1.00  0.00     0.031 C 
ATOM     38  C   UNL A   1      39.697  27.341  28.205  1.00  0.00     0.029 A 
ATOM     39  N   UNL A   1      41.173  27.620  29.862  1.00  0.00    -0.354 N 
ATOM     40  C   UNL A   1      40.639  30.651  32.871  1.00  0.00     0.074 A 
ATOM     41  C   UNL A   1      39.421  31.400  32.651  1.00  0.00     0.031 C 
ATOM     42  C   UNL A   1      40.685  26.451  28.019  1.00  0.00     0.029 A 
ATOM     43  C   UNL A   1      41.683  26.616  29.071  1.00  0.00     0.049 A 
ATOM     44  H   UNL A   1      41.626  27.950  30.671  1.00  0.00     0.167 HD
ATOM     45  C   UNL A   1      41.498  30.883  33.892  1.00  0.00     0.031 A 
ATOM     46  C   UNL A   1      42.826  25.909  29.175  1.00  0.00     0.031 A 
ATOM     47  C   UNL A   1      42.698  30.125  34.130  1.00  0.00     0.049 A 
ATOM     48  C   UNL A   1      43.761  26.175  30.323  1.00  0.00     0.074 A 
ATOM     49  C   UNL A   1      43.598  30.245  35.176  1.00  0.00     0.029 A 
ATOM     50  N   UNL A   1      43.165  29.106  33.316  1.00  0.00    -0.354 N 
ATOM     51  N   UNL A   1      43.644  27.049  31.293  1.00  0.00    -0.248 NA
ATOM     52  C   UNL A   1      44.974  25.348  30.396  1.00  0.00     0.031 C 
ATOM     53  C   UNL A   1      44.633  29.326  34.969  1.00  0.00     0.029 A 
ATOM     54  C   UNL A   1      44.351  28.601  33.823  1.00  0.00     0.049 A 
ATOM     55  H   UNL A   1      42.720  28.787  32.497  1.00  0.00     0.167 HD
ATOM     56  C   UNL A   1      44.758  26.864  32.104  1.00  0.00     0.074 A 
ATOM     57  C   UNL A   1      45.528  25.785  31.520  1.00  0.00     0.031 C 
ATOM     58  C   UNL A   1      45.110  27.528  33.232  1.00  0.00     0.031 A 
BRANCH  45  59
ATOM     59  C   UNL A   1      41.172  32.014  34.834  1.00  0.00    -0.014 A 
ATOM     60  C   UNL A   1      40.462  31.785  36.026  1.00  0.00     0.010 A 
ATOM     61  C   UNL A   1      41.612  33.317  34.541  1.00  0.00     0.010 A 
ATOM     62  C   UNL A   1      40.157  32.845  36.884  1.00  0.00     0.020 A 
ATOM     63  C   UNL A   1      41.333  34.377  35.409  1.00  0.00     0.020 A 
ATOM     64  C   UNL A   1      40.589  34.136  36.566  1.00  0.00     0.054 A 
BRANCH  64  65
ATOM     65  S   UNL A   1      40.190  35.493  37.703  1.00  0.00     0.124 S 
ATOM     66  O   UNL A   1      41.393  35.557  38.528  1.00  0.00    -0.237 OA
ATOM     67  O   UNL A   1      39.988  36.622  36.800  1.00  0.00    -0.237 OA
ATOM     68  O   UNL A   1      38.987  35.026  38.390  1.00  0.00    -0.744 OA
ENDBRANCH  64  65
ENDBRANCH  45  59
BRANCH  46  69
ATOM     69  C   UNL A   1      43.143  24.865  28.161  1.00  0.00    -0.014 A 
ATOM     70  C   UNL A   1      43.904  25.184  27.023  1.00  0.00     0.010 A 
ATOM     71  C   UNL A   1      42.704  23.542  28.342  1.00  0.00     0.010 A 
ATOM     72  C   UNL A   1      44.209  24.202  26.076  1.00  0.00     0.020 A 
ATOM     73  C   UNL A   1      43.029  22.550  27.410  1.00  0.00     0.020 A 
ATOM     74  C   UNL A   1      43.771  22.889  26.278  1.00  0.00     0.054 A 
BRANCH  74  75
ATOM     75  S   UNL A   1      44.233  21.615  25.071  1.00  0.00     0.124 S 
ATOM     76  O   UNL A   1      45.596  21.292  25.479  1.00  0.00    -0.237 OA
ATOM     77  O   UNL A   1      43.237  20.574  25.311  1.00  0.00    -0.237 OA
ATOM     78  O   UNL A   1      44.107  22.301  23.787  1.00  0.00    -0.744 OA
ENDBRANCH  74  75
ENDBRANCH  46  69
BRANCH  58  79
ATOM     79  C   UNL A   1      46.370  27.091  33.931  1.00  0.00    -0.014 A 
ATOM     80  C   UNL A   1      47.619  27.640  33.589  1.00  0.00     0.010 A 
ATOM     81  C   UNL A   1      46.294  26.159  34.981  1.00  0.00     0.010 A 
ATOM     82  C   UNL A   1      48.773  27.241  34.267  1.00  0.00     0.020 A 
ATOM     83  C   UNL A   1      47.443  25.775  35.678  1.00  0.00     0.020 A 
ATOM     84  C   UNL A   1      48.679  26.309  35.307  1.00  0.00     0.054 A 
BRANCH  84  85
ATOM     85  S   UNL A   1      50.186  25.840  36.202  1.00  0.00     0.124 S 
ATOM     86  O   UNL A   1      49.838  26.179  37.579  1.00  0.00    -0.237 OA
ATOM     87  O   UNL A   1      50.300  24.412  35.915  1.00  0.00    -0.237 OA
ATOM     88  O   UNL A   1      51.220  26.676  35.597  1.00  0.00    -0.744 OA
ENDBRANCH  84  85
ENDBRANCH  58  79
ENDBRANCH  32  33
ENDBRANCH  24  27
ENDBRANCH  22  23
ENDBRANCH   1  22
TORSDOF 18
ENDMDL
