MODEL 1
REMARK VINA RESULT:     -11.6      0.000      0.000
REMARK SMILES C[NH2+][C@@]1(C(=O)NCCCNC(=O)c2ccc(-c3c4nc(c(-c5ccc(S(=O)(=O)[O-])cc5)c5ccc([nH]5)c(-c5ccc(S(=O)(=O)[O-])cc5)c5nc(c(-c6ccc(S(=O)(=O)[O-])cc6)c6ccc3[nH]6)C=C5)C=C4)cc2)CCC[C@H](Oc2cccc(OC)c2)C1
REMARK SMILES IDX 8 1 7 2 6 3 4 4 5 5 3 7 73 8 86 9 74 10 76 11 75 12 2 13
REMARK SMILES IDX 1 14 77 17 78 18 79 19 85 20 80 21 82 22 81 23 83 24 84 25
REMARK SMILES IDX 9 26 10 27 11 28 12 30 13 31 14 32 72 33 15 34 71 35 16 36
REMARK SMILES IDX 17 37 18 38 65 39 19 40 70 41 64 42 66 43 20 44 69 45 63 46
REMARK SMILES IDX 62 47 21 49 51 50 32 51 50 52 33 53 36 54 49 55 67 56 34 57
REMARK SMILES IDX 35 58 48 60 68 61 37 62 22 63 23 64 31 65 24 66 30 67 25 68
REMARK SMILES IDX 26 69 27 70 28 71 29 72 52 73 53 74 61 75 54 76 60 77 55 78
REMARK SMILES IDX 56 79 57 80 58 81 59 82 38 83 39 84 47 85 40 86 46 87 41 88
REMARK SMILES IDX 42 89 43 90 44 91 45 92
REMARK H PARENT 6 6 2 15 2 16 10 29 66 48 36 59
REMARK Flexibility Score: inf
ROOT
ATOM      1  C   UNL A   1      34.274  29.018  26.952  1.00  0.00     0.042 C 
ENDROOT
BRANCH   1   2
ATOM      2  C   UNL A   1      33.265  29.519  25.879  1.00  0.00     0.118 C 
BRANCH   2   3
ATOM      3  N   UNL A   1      33.679  29.234  24.492  1.00  0.00    -0.351 N 
ATOM      4  C   UNL A   1      33.711  28.189  23.616  1.00  0.00     0.281 C 
ATOM      5  O   UNL A   1      34.153  28.532  22.500  1.00  0.00    -0.268 OA
ATOM      6  H   UNL A   1      34.042  30.045  24.070  1.00  0.00     0.163 HD
BRANCH   4   7
ATOM      7  C   UNL A   1      33.198  26.667  23.785  1.00  0.00     0.178 C 
ATOM      8  C   UNL A   1      33.812  25.678  22.788  1.00  0.00     0.079 C 
ATOM      9  C   UNL A   1      31.671  26.455  23.838  1.00  0.00     0.124 C 
ATOM     10  C   UNL A   1      33.005  25.367  21.533  1.00  0.00     0.011 C 
ATOM     11  C   UNL A   1      30.955  26.698  22.527  1.00  0.00     0.180 C 
ATOM     12  C   UNL A   1      31.658  26.054  21.327  1.00  0.00     0.046 C 
BRANCH   7  13
ATOM     13  N   UNL A   1      33.797  26.193  25.115  1.00  0.00    -0.336 N 
ATOM     14  C   UNL A   1      34.535  24.929  25.075  1.00  0.00     0.331 C 
ATOM     15  H   UNL A   1      34.436  26.917  25.445  1.00  0.00     0.346 HD
ATOM     16  H   UNL A   1      33.000  26.027  25.730  1.00  0.00     0.346 HD
ENDBRANCH   7  13
BRANCH  11  17
ATOM     17  O   UNL A   1      30.862  28.113  22.503  1.00  0.00    -0.490 OA
BRANCH  17  18
ATOM     18  C   UNL A   1      29.731  28.772  22.845  1.00  0.00     0.123 A 
ATOM     19  C   UNL A   1      28.498  28.205  23.144  1.00  0.00     0.047 A 
ATOM     20  C   UNL A   1      29.866  30.147  22.659  1.00  0.00     0.092 A 
ATOM     21  C   UNL A   1      27.361  28.995  23.056  1.00  0.00     0.008 A 
ATOM     22  C   UNL A   1      28.740  30.930  22.525  1.00  0.00     0.122 A 
ATOM     23  C   UNL A   1      27.489  30.344  22.722  1.00  0.00     0.046 A 
BRANCH  22  24
ATOM     24  O   UNL A   1      28.767  32.232  22.130  1.00  0.00    -0.497 OA
ATOM     25  C   UNL A   1      29.096  33.227  23.094  1.00  0.00     0.278 C 
ENDBRANCH  22  24
ENDBRANCH  17  18
ENDBRANCH  11  17
ENDBRANCH   4   7
ENDBRANCH   2   3
ENDBRANCH   1   2
BRANCH   1  26
ATOM     26  C   UNL A   1      35.298  29.971  27.617  1.00  0.00     0.118 C 
BRANCH  26  27
ATOM     27  N   UNL A   1      35.568  29.708  29.042  1.00  0.00    -0.352 N 
ATOM     28  C   UNL A   1      36.639  29.403  29.863  1.00  0.00     0.251 C 
ATOM     29  H   UNL A   1      34.736  29.765  29.567  1.00  0.00     0.163 HD
ATOM     30  O   UNL A   1      36.369  29.340  31.070  1.00  0.00    -0.269 OA
BRANCH  28  31
ATOM     31  C   UNL A   1      38.055  29.083  29.480  1.00  0.00     0.039 A 
ATOM     32  C   UNL A   1      38.458  29.378  28.158  1.00  0.00     0.014 A 
ATOM     33  C   UNL A   1      38.992  28.447  30.280  1.00  0.00     0.014 A 
ATOM     34  C   UNL A   1      39.785  29.169  27.695  1.00  0.00     0.010 A 
ATOM     35  C   UNL A   1      40.338  28.286  29.828  1.00  0.00     0.010 A 
ATOM     36  C   UNL A   1      40.782  28.667  28.541  1.00  0.00    -0.014 A 
BRANCH  36  37
ATOM     37  C   UNL A   1      42.230  28.505  28.088  1.00  0.00     0.031 A 
ATOM     38  C   UNL A   1      43.213  29.660  28.231  1.00  0.00     0.074 A 
ATOM     39  C   UNL A   1      42.712  27.371  27.510  1.00  0.00     0.049 A 
ATOM     40  N   UNL A   1      44.474  29.740  27.869  1.00  0.00    -0.248 NA
ATOM     41  C   UNL A   1      42.696  30.900  28.827  1.00  0.00     0.031 C 
ATOM     42  C   UNL A   1      41.940  26.163  27.211  1.00  0.00     0.029 A 
ATOM     43  N   UNL A   1      43.983  27.046  27.058  1.00  0.00    -0.354 N 
ATOM     44  C   UNL A   1      44.877  31.044  28.157  1.00  0.00     0.074 A 
ATOM     45  C   UNL A   1      43.705  31.736  28.645  1.00  0.00     0.031 C 
ATOM     46  C   UNL A   1      42.746  25.234  26.662  1.00  0.00     0.029 A 
ATOM     47  C   UNL A   1      44.101  25.770  26.537  1.00  0.00     0.049 A 
ATOM     48  H   UNL A   1      44.740  27.674  27.103  1.00  0.00     0.167 HD
ATOM     49  C   UNL A   1      46.104  31.620  28.082  1.00  0.00     0.031 A 
ATOM     50  C   UNL A   1      45.158  25.094  26.024  1.00  0.00     0.031 A 
ATOM     51  C   UNL A   1      47.306  30.952  27.660  1.00  0.00     0.049 A 
ATOM     52  C   UNL A   1      46.527  25.742  25.967  1.00  0.00     0.074 A 
ATOM     53  C   UNL A   1      48.601  31.444  27.644  1.00  0.00     0.029 A 
ATOM     54  N   UNL A   1      47.370  29.652  27.187  1.00  0.00    -0.354 N 
ATOM     55  N   UNL A   1      46.889  26.944  26.341  1.00  0.00    -0.248 NA
ATOM     56  C   UNL A   1      47.637  24.928  25.435  1.00  0.00     0.031 C 
ATOM     57  C   UNL A   1      49.442  30.460  27.116  1.00  0.00     0.029 A 
ATOM     58  C   UNL A   1      48.679  29.332  26.863  1.00  0.00     0.049 A 
ATOM     59  H   UNL A   1      46.600  29.046  27.096  1.00  0.00     0.167 HD
ATOM     60  C   UNL A   1      48.265  27.014  26.130  1.00  0.00     0.074 A 
ATOM     61  C   UNL A   1      48.678  25.734  25.604  1.00  0.00     0.031 C 
ATOM     62  C   UNL A   1      49.107  28.052  26.359  1.00  0.00     0.031 A 
BRANCH  49  63
ATOM     63  C   UNL A   1      46.217  33.067  28.503  1.00  0.00    -0.014 A 
ATOM     64  C   UNL A   1      46.056  34.108  27.568  1.00  0.00     0.010 A 
ATOM     65  C   UNL A   1      46.454  33.394  29.851  1.00  0.00     0.010 A 
ATOM     66  C   UNL A   1      46.199  35.440  27.958  1.00  0.00     0.020 A 
ATOM     67  C   UNL A   1      46.558  34.729  30.253  1.00  0.00     0.020 A 
ATOM     68  C   UNL A   1      46.453  35.743  29.298  1.00  0.00     0.054 A 
BRANCH  68  69
ATOM     69  S   UNL A   1      46.625  37.483  29.777  1.00  0.00     0.124 S 
ATOM     70  O   UNL A   1      46.481  38.164  28.490  1.00  0.00    -0.237 OA
ATOM     71  O   UNL A   1      45.509  37.668  30.708  1.00  0.00    -0.237 OA
ATOM     72  O   UNL A   1      47.950  37.554  30.375  1.00  0.00    -0.744 OA
ENDBRANCH  68  69
ENDBRANCH  49  63
BRANCH  50  73
ATOM     73  C   UNL A   1      45.004  23.682  25.538  1.00  0.00    -0.014 A 
ATOM     74  C   UNL A   1      45.338  22.595  26.372  1.00  0.00     0.010 A 
ATOM     75  C   UNL A   1      44.571  23.412  24.226  1.00  0.00     0.010 A 
ATOM     76  C   UNL A   1      45.256  21.277  25.904  1.00  0.00     0.020 A 
ATOM     77  C   UNL A   1      44.458  22.094  23.763  1.00  0.00     0.020 A 
ATOM     78  C   UNL A   1      44.809  21.033  24.602  1.00  0.00     0.054 A 
BRANCH  78  79
ATOM     79  S   UNL A   1      44.646  19.313  24.039  1.00  0.00     0.124 S 
ATOM     80  O   UNL A   1      43.426  18.882  24.713  1.00  0.00    -0.237 OA
ATOM     81  O   UNL A   1      44.546  19.465  22.589  1.00  0.00    -0.237 OA
ATOM     82  O   UNL A   1      45.876  18.681  24.506  1.00  0.00    -0.744 OA
ENDBRANCH  78  79
ENDBRANCH  50  73
BRANCH  62  83
ATOM     83  C   UNL A   1      50.582  27.855  26.107  1.00  0.00    -0.014 A 
ATOM     84  C   UNL A   1      51.439  27.337  27.094  1.00  0.00     0.010 A 
ATOM     85  C   UNL A   1      51.104  28.115  24.824  1.00  0.00     0.010 A 
ATOM     86  C   UNL A   1      52.791  27.106  26.810  1.00  0.00     0.020 A 
ATOM     87  C   UNL A   1      52.447  27.859  24.528  1.00  0.00     0.020 A 
ATOM     88  C   UNL A   1      53.286  27.366  25.529  1.00  0.00     0.054 A 
BRANCH  88  89
ATOM     89  S   UNL A   1      55.029  27.006  25.171  1.00  0.00     0.124 S 
ATOM     90  O   UNL A   1      54.987  25.579  24.862  1.00  0.00    -0.237 OA
ATOM     91  O   UNL A   1      55.312  27.886  24.040  1.00  0.00    -0.237 OA
ATOM     92  O   UNL A   1      55.718  27.354  26.411  1.00  0.00    -0.744 OA
ENDBRANCH  88  89
ENDBRANCH  62  83
ENDBRANCH  36  37
ENDBRANCH  28  31
ENDBRANCH  26  27
ENDBRANCH   1  26
TORSDOF 17
ENDMDL
MODEL 2
REMARK VINA RESULT:     -11.5      7.471     13.171
REMARK SMILES C[NH2+][C@@]1(C(=O)NCCCNC(=O)c2ccc(-c3c4nc(c(-c5ccc(S(=O)(=O)[O-])cc5)c5ccc([nH]5)c(-c5ccc(S(=O)(=O)[O-])cc5)c5nc(c(-c6ccc(S(=O)(=O)[O-])cc6)c6ccc3[nH]6)C=C5)C=C4)cc2)CCC[C@H](Oc2cccc(OC)c2)C1
REMARK SMILES IDX 8 1 7 2 6 3 4 4 5 5 3 7 73 8 86 9 74 10 76 11 75 12 2 13
REMARK SMILES IDX 1 14 77 17 78 18 79 19 85 20 80 21 82 22 81 23 83 24 84 25
REMARK SMILES IDX 9 26 10 27 11 28 12 30 13 31 14 32 72 33 15 34 71 35 16 36
REMARK SMILES IDX 17 37 18 38 65 39 19 40 70 41 64 42 66 43 20 44 69 45 63 46
REMARK SMILES IDX 62 47 21 49 51 50 32 51 50 52 33 53 36 54 49 55 67 56 34 57
REMARK SMILES IDX 35 58 48 60 68 61 37 62 22 63 23 64 31 65 24 66 30 67 25 68
REMARK SMILES IDX 26 69 27 70 28 71 29 72 52 73 53 74 61 75 54 76 60 77 55 78
REMARK SMILES IDX 56 79 57 80 58 81 59 82 38 83 39 84 47 85 40 86 46 87 41 88
REMARK SMILES IDX 42 89 43 90 44 91 45 92
REMARK H PARENT 6 6 2 15 2 16 10 29 66 48 36 59
REMARK Flexibility Score: inf
ROOT
ATOM      1  C   UNL A   1      37.281  23.850  25.864  1.00  0.00     0.042 C 
ENDROOT
BRANCH   1   2
ATOM      2  C   UNL A   1      36.530  22.491  25.766  1.00  0.00     0.118 C 
BRANCH   2   3
ATOM      3  N   UNL A   1      35.441  22.340  26.751  1.00  0.00    -0.351 N 
ATOM      4  C   UNL A   1      34.163  22.770  26.955  1.00  0.00     0.281 C 
ATOM      5  O   UNL A   1      33.667  22.278  27.990  1.00  0.00    -0.268 OA
ATOM      6  H   UNL A   1      35.724  21.748  27.484  1.00  0.00     0.163 HD
BRANCH   4   7
ATOM      7  C   UNL A   1      33.217  23.707  26.042  1.00  0.00     0.178 C 
ATOM      8  C   UNL A   1      32.035  24.333  26.790  1.00  0.00     0.079 C 
ATOM      9  C   UNL A   1      32.716  23.100  24.715  1.00  0.00     0.124 C 
ATOM     10  C   UNL A   1      30.695  23.612  26.698  1.00  0.00     0.011 C 
ATOM     11  C   UNL A   1      31.700  21.990  24.875  1.00  0.00     0.180 C 
ATOM     12  C   UNL A   1      30.602  22.319  25.892  1.00  0.00     0.046 C 
BRANCH   7  13
ATOM     13  N   UNL A   1      34.075  24.936  25.715  1.00  0.00    -0.336 N 
ATOM     14  C   UNL A   1      34.109  25.342  24.308  1.00  0.00     0.331 C 
ATOM     15  H   UNL A   1      33.715  25.720  26.258  1.00  0.00     0.346 HD
ATOM     16  H   UNL A   1      35.033  24.671  25.947  1.00  0.00     0.346 HD
ENDBRANCH   7  13
BRANCH  11  17
ATOM     17  O   UNL A   1      32.524  20.880  25.192  1.00  0.00    -0.490 OA
BRANCH  17  18
ATOM     18  C   UNL A   1      32.792  19.897  24.301  1.00  0.00     0.123 A 
ATOM     19  C   UNL A   1      32.357  19.829  22.984  1.00  0.00     0.047 A 
ATOM     20  C   UNL A   1      33.400  18.804  24.917  1.00  0.00     0.092 A 
ATOM     21  C   UNL A   1      32.348  18.597  22.347  1.00  0.00     0.008 A 
ATOM     22  C   UNL A   1      33.353  17.568  24.310  1.00  0.00     0.122 A 
ATOM     23  C   UNL A   1      32.821  17.473  23.023  1.00  0.00     0.046 A 
BRANCH  22  24
ATOM     24  O   UNL A   1      33.723  16.410  24.923  1.00  0.00    -0.497 OA
ATOM     25  C   UNL A   1      32.744  15.697  25.673  1.00  0.00     0.278 C 
ENDBRANCH  22  24
ENDBRANCH  17  18
ENDBRANCH  11  17
ENDBRANCH   4   7
ENDBRANCH   2   3
ENDBRANCH   1   2
BRANCH   1  26
ATOM     26  C   UNL A   1      38.593  23.999  26.675  1.00  0.00     0.118 C 
BRANCH  26  27
ATOM     27  N   UNL A   1      39.640  24.811  26.031  1.00  0.00    -0.352 N 
ATOM     28  C   UNL A   1      40.419  25.922  26.308  1.00  0.00     0.251 C 
ATOM     29  H   UNL A   1      39.848  24.459  25.135  1.00  0.00     0.163 HD
ATOM     30  O   UNL A   1      41.254  26.202  25.438  1.00  0.00    -0.269 OA
BRANCH  28  31
ATOM     31  C   UNL A   1      40.344  26.853  27.482  1.00  0.00     0.039 A 
ATOM     32  C   UNL A   1      39.669  26.396  28.637  1.00  0.00     0.014 A 
ATOM     33  C   UNL A   1      40.805  28.160  27.518  1.00  0.00     0.014 A 
ATOM     34  C   UNL A   1      39.577  27.167  29.828  1.00  0.00     0.010 A 
ATOM     35  C   UNL A   1      40.757  28.912  28.732  1.00  0.00     0.010 A 
ATOM     36  C   UNL A   1      40.173  28.431  29.926  1.00  0.00    -0.014 A 
BRANCH  36  37
ATOM     37  C   UNL A   1      40.152  29.244  31.218  1.00  0.00     0.031 A 
ATOM     38  C   UNL A   1      41.221  29.025  32.280  1.00  0.00     0.074 A 
ATOM     39  C   UNL A   1      39.188  30.157  31.512  1.00  0.00     0.049 A 
ATOM     40  N   UNL A   1      41.358  29.581  33.463  1.00  0.00    -0.248 NA
ATOM     41  C   UNL A   1      42.252  28.019  31.985  1.00  0.00     0.031 C 
ATOM     42  C   UNL A   1      38.030  30.485  30.678  1.00  0.00     0.029 A 
ATOM     43  N   UNL A   1      39.021  30.985  32.614  1.00  0.00    -0.354 N 
ATOM     44  C   UNL A   1      42.458  28.963  34.056  1.00  0.00     0.074 A 
ATOM     45  C   UNL A   1      42.896  27.936  33.137  1.00  0.00     0.031 C 
ATOM     46  C   UNL A   1      37.300  31.448  31.274  1.00  0.00     0.029 A 
ATOM     47  C   UNL A   1      37.911  31.809  32.553  1.00  0.00     0.049 A 
ATOM     48  H   UNL A   1      39.642  30.986  33.378  1.00  0.00     0.167 HD
ATOM     49  C   UNL A   1      43.093  29.236  35.225  1.00  0.00     0.031 A 
ATOM     50  C   UNL A   1      37.430  32.747  33.405  1.00  0.00     0.031 A 
ATOM     51  C   UNL A   1      42.728  30.285  36.139  1.00  0.00     0.049 A 
ATOM     52  C   UNL A   1      38.162  33.057  34.695  1.00  0.00     0.074 A 
ATOM     53  C   UNL A   1      43.378  30.680  37.297  1.00  0.00     0.029 A 
ATOM     54  N   UNL A   1      41.625  31.111  36.002  1.00  0.00    -0.354 N 
ATOM     55  N   UNL A   1      39.256  32.519  35.175  1.00  0.00    -0.248 NA
ATOM     56  C   UNL A   1      37.601  34.121  35.550  1.00  0.00     0.031 C 
ATOM     57  C   UNL A   1      42.642  31.712  37.887  1.00  0.00     0.029 A 
ATOM     58  C   UNL A   1      41.569  32.002  37.062  1.00  0.00     0.049 A 
ATOM     59  H   UNL A   1      40.978  31.071  35.261  1.00  0.00     0.167 HD
ATOM     60  C   UNL A   1      39.533  33.203  36.358  1.00  0.00     0.074 A 
ATOM     61  C   UNL A   1      38.502  34.201  36.521  1.00  0.00     0.031 C 
ATOM     62  C   UNL A   1      40.559  33.016  37.225  1.00  0.00     0.031 A 
BRANCH  49  63
ATOM     63  C   UNL A   1      44.295  28.388  35.575  1.00  0.00    -0.014 A 
ATOM     64  C   UNL A   1      45.596  28.798  35.226  1.00  0.00     0.010 A 
ATOM     65  C   UNL A   1      44.128  27.186  36.286  1.00  0.00     0.010 A 
ATOM     66  C   UNL A   1      46.696  27.991  35.520  1.00  0.00     0.020 A 
ATOM     67  C   UNL A   1      45.232  26.394  36.618  1.00  0.00     0.020 A 
ATOM     68  C   UNL A   1      46.508  26.792  36.211  1.00  0.00     0.054 A 
BRANCH  68  69
ATOM     69  S   UNL A   1      47.957  25.769  36.586  1.00  0.00     0.124 S 
ATOM     70  O   UNL A   1      48.843  26.083  35.466  1.00  0.00    -0.237 OA
ATOM     71  O   UNL A   1      48.386  26.292  37.885  1.00  0.00    -0.237 OA
ATOM     72  O   UNL A   1      47.433  24.412  36.606  1.00  0.00    -0.744 OA
ENDBRANCH  68  69
ENDBRANCH  49  63
BRANCH  50  73
ATOM     73  C   UNL A   1      36.189  33.523  33.072  1.00  0.00    -0.014 A 
ATOM     74  C   UNL A   1      36.276  34.830  32.552  1.00  0.00     0.010 A 
ATOM     75  C   UNL A   1      34.912  32.984  33.315  1.00  0.00     0.010 A 
ATOM     76  C   UNL A   1      35.122  35.583  32.298  1.00  0.00     0.020 A 
ATOM     77  C   UNL A   1      33.753  33.721  33.034  1.00  0.00     0.020 A 
ATOM     78  C   UNL A   1      33.865  35.020  32.534  1.00  0.00     0.054 A 
BRANCH  78  79
ATOM     79  S   UNL A   1      32.381  35.990  32.133  1.00  0.00     0.124 S 
ATOM     80  O   UNL A   1      31.307  35.105  32.571  1.00  0.00    -0.237 OA
ATOM     81  O   UNL A   1      32.570  37.199  32.932  1.00  0.00    -0.237 OA
ATOM     82  O   UNL A   1      32.479  36.186  30.689  1.00  0.00    -0.744 OA
ENDBRANCH  78  79
ENDBRANCH  50  73
BRANCH  62  83
ATOM     83  C   UNL A   1      40.677  33.940  38.413  1.00  0.00    -0.014 A 
ATOM     84  C   UNL A   1      41.222  35.231  38.296  1.00  0.00     0.010 A 
ATOM     85  C   UNL A   1      40.151  33.536  39.657  1.00  0.00     0.010 A 
ATOM     86  C   UNL A   1      41.261  36.089  39.403  1.00  0.00     0.020 A 
ATOM     87  C   UNL A   1      40.162  34.399  40.757  1.00  0.00     0.020 A 
ATOM     88  C   UNL A   1      40.729  35.668  40.626  1.00  0.00     0.054 A 
BRANCH  88  89
ATOM     89  S   UNL A   1      40.741  36.818  42.030  1.00  0.00     0.124 S 
ATOM     90  O   UNL A   1      40.689  35.907  43.170  1.00  0.00    -0.237 OA
ATOM     91  O   UNL A   1      42.005  37.528  41.851  1.00  0.00    -0.237 OA
ATOM     92  O   UNL A   1      39.544  37.629  41.826  1.00  0.00    -0.744 OA
ENDBRANCH  88  89
ENDBRANCH  62  83
ENDBRANCH  36  37
ENDBRANCH  28  31
ENDBRANCH  26  27
ENDBRANCH   1  26
TORSDOF 17
ENDMDL
MODEL 3
REMARK VINA RESULT:     -11.5      7.205     12.910
REMARK SMILES C[NH2+][C@@]1(C(=O)NCCCNC(=O)c2ccc(-c3c4nc(c(-c5ccc(S(=O)(=O)[O-])cc5)c5ccc([nH]5)c(-c5ccc(S(=O)(=O)[O-])cc5)c5nc(c(-c6ccc(S(=O)(=O)[O-])cc6)c6ccc3[nH]6)C=C5)C=C4)cc2)CCC[C@H](Oc2cccc(OC)c2)C1
REMARK SMILES IDX 8 1 7 2 6 3 4 4 5 5 3 7 73 8 86 9 74 10 76 11 75 12 2 13
REMARK SMILES IDX 1 14 77 17 78 18 79 19 85 20 80 21 82 22 81 23 83 24 84 25
REMARK SMILES IDX 9 26 10 27 11 28 12 30 13 31 14 32 72 33 15 34 71 35 16 36
REMARK SMILES IDX 17 37 18 38 65 39 19 40 70 41 64 42 66 43 20 44 69 45 63 46
REMARK SMILES IDX 62 47 21 49 51 50 32 51 50 52 33 53 36 54 49 55 67 56 34 57
REMARK SMILES IDX 35 58 48 60 68 61 37 62 22 63 23 64 31 65 24 66 30 67 25 68
REMARK SMILES IDX 26 69 27 70 28 71 29 72 52 73 53 74 61 75 54 76 60 77 55 78
REMARK SMILES IDX 56 79 57 80 58 81 59 82 38 83 39 84 47 85 40 86 46 87 41 88
REMARK SMILES IDX 42 89 43 90 44 91 45 92
REMARK H PARENT 6 6 2 15 2 16 10 29 66 48 36 59
REMARK Flexibility Score: inf
ROOT
ATOM      1  C   UNL A   1      38.322  21.849  25.791  1.00  0.00     0.042 C 
ENDROOT
BRANCH   1   2
ATOM      2  C   UNL A   1      36.862  21.615  25.306  1.00  0.00     0.118 C 
BRANCH   2   3
ATOM      3  N   UNL A   1      35.854  21.728  26.377  1.00  0.00    -0.351 N 
ATOM      4  C   UNL A   1      34.680  22.374  26.629  1.00  0.00     0.281 C 
ATOM      5  O   UNL A   1      34.206  22.061  27.740  1.00  0.00    -0.268 OA
ATOM      6  H   UNL A   1      36.105  21.164  27.144  1.00  0.00     0.163 HD
BRANCH   4   7
ATOM      7  C   UNL A   1      33.813  23.369  25.697  1.00  0.00     0.178 C 
ATOM      8  C   UNL A   1      32.793  24.221  26.459  1.00  0.00     0.079 C 
ATOM      9  C   UNL A   1      33.133  22.742  24.463  1.00  0.00     0.124 C 
ATOM     10  C   UNL A   1      31.360  23.704  26.514  1.00  0.00     0.011 C 
ATOM     11  C   UNL A   1      31.981  21.813  24.782  1.00  0.00     0.180 C 
ATOM     12  C   UNL A   1      31.021  22.381  25.833  1.00  0.00     0.046 C 
BRANCH   7  13
ATOM     13  N   UNL A   1      34.813  24.426  25.211  1.00  0.00    -0.336 N 
ATOM     14  C   UNL A   1      34.244  25.716  24.815  1.00  0.00     0.331 C 
ATOM     15  H   UNL A   1      35.478  24.596  25.965  1.00  0.00     0.346 HD
ATOM     16  H   UNL A   1      35.231  24.038  24.364  1.00  0.00     0.346 HD
ENDBRANCH   7  13
BRANCH  11  17
ATOM     17  O   UNL A   1      32.659  20.620  25.144  1.00  0.00    -0.490 OA
BRANCH  17  18
ATOM     18  C   UNL A   1      33.002  19.677  24.237  1.00  0.00     0.123 A 
ATOM     19  C   UNL A   1      32.269  19.292  23.121  1.00  0.00     0.047 A 
ATOM     20  C   UNL A   1      34.112  18.946  24.657  1.00  0.00     0.092 A 
ATOM     21  C   UNL A   1      32.528  18.057  22.546  1.00  0.00     0.008 A 
ATOM     22  C   UNL A   1      34.349  17.698  24.123  1.00  0.00     0.122 A 
ATOM     23  C   UNL A   1      33.548  17.259  23.066  1.00  0.00     0.046 A 
BRANCH  22  24
ATOM     24  O   UNL A   1      35.270  16.826  24.615  1.00  0.00    -0.497 OA
ATOM     25  C   UNL A   1      34.816  15.747  25.427  1.00  0.00     0.278 C 
ENDBRANCH  22  24
ENDBRANCH  17  18
ENDBRANCH  11  17
ENDBRANCH   4   7
ENDBRANCH   2   3
ENDBRANCH   1   2
BRANCH   1  26
ATOM     26  C   UNL A   1      38.777  23.205  26.385  1.00  0.00     0.118 C 
BRANCH  26  27
ATOM     27  N   UNL A   1      40.166  23.591  26.079  1.00  0.00    -0.352 N 
ATOM     28  C   UNL A   1      41.118  24.496  26.514  1.00  0.00     0.251 C 
ATOM     29  H   UNL A   1      40.523  23.040  25.346  1.00  0.00     0.163 HD
ATOM     30  O   UNL A   1      42.225  24.390  25.969  1.00  0.00    -0.269 OA
BRANCH  28  31
ATOM     31  C   UNL A   1      40.969  25.614  27.504  1.00  0.00     0.039 A 
ATOM     32  C   UNL A   1      39.845  25.584  28.360  1.00  0.00     0.014 A 
ATOM     33  C   UNL A   1      41.790  26.726  27.609  1.00  0.00     0.014 A 
ATOM     34  C   UNL A   1      39.624  26.558  29.371  1.00  0.00     0.010 A 
ATOM     35  C   UNL A   1      41.594  27.675  28.660  1.00  0.00     0.010 A 
ATOM     36  C   UNL A   1      40.530  27.604  29.587  1.00  0.00    -0.014 A 
BRANCH  36  37
ATOM     37  C   UNL A   1      40.352  28.617  30.715  1.00  0.00     0.031 A 
ATOM     38  C   UNL A   1      41.200  28.517  31.976  1.00  0.00     0.074 A 
ATOM     39  C   UNL A   1      39.430  29.616  30.686  1.00  0.00     0.049 A 
ATOM     40  N   UNL A   1      41.175  29.252  33.067  1.00  0.00    -0.248 NA
ATOM     41  C   UNL A   1      42.180  27.424  32.031  1.00  0.00     0.031 C 
ATOM     42  C   UNL A   1      38.464  29.865  29.613  1.00  0.00     0.029 A 
ATOM     43  N   UNL A   1      39.143  30.621  31.600  1.00  0.00    -0.354 N 
ATOM     44  C   UNL A   1      42.101  28.681  33.938  1.00  0.00     0.074 A 
ATOM     45  C   UNL A   1      42.606  27.496  33.282  1.00  0.00     0.031 C 
ATOM     46  C   UNL A   1      37.724  30.950  29.912  1.00  0.00     0.029 A 
ATOM     47  C   UNL A   1      38.131  31.482  31.212  1.00  0.00     0.049 A 
ATOM     48  H   UNL A   1      39.621  30.713  32.456  1.00  0.00     0.167 HD
ATOM     49  C   UNL A   1      42.545  29.107  35.149  1.00  0.00     0.031 A 
ATOM     50  C   UNL A   1      37.589  32.571  31.809  1.00  0.00     0.031 A 
ATOM     51  C   UNL A   1      42.114  30.309  35.811  1.00  0.00     0.049 A 
ATOM     52  C   UNL A   1      38.110  33.048  33.150  1.00  0.00     0.074 A 
ATOM     53  C   UNL A   1      42.584  30.853  36.996  1.00  0.00     0.029 A 
ATOM     54  N   UNL A   1      41.123  31.160  35.351  1.00  0.00    -0.354 N 
ATOM     55  N   UNL A   1      39.056  32.538  33.899  1.00  0.00    -0.248 NA
ATOM     56  C   UNL A   1      37.498  34.266  33.716  1.00  0.00     0.031 C 
ATOM     57  C   UNL A   1      41.844  32.005  37.278  1.00  0.00     0.029 A 
ATOM     58  C   UNL A   1      40.958  32.214  36.235  1.00  0.00     0.049 A 
ATOM     59  H   UNL A   1      40.613  31.034  34.518  1.00  0.00     0.167 HD
ATOM     60  C   UNL A   1      39.180  33.390  34.995  1.00  0.00     0.074 A 
ATOM     61  C   UNL A   1      38.221  34.456  34.813  1.00  0.00     0.031 C 
ATOM     62  C   UNL A   1      40.021  33.293  36.054  1.00  0.00     0.031 A 
BRANCH  49  63
ATOM     63  C   UNL A   1      43.594  28.265  35.838  1.00  0.00    -0.014 A 
ATOM     64  C   UNL A   1      44.963  28.447  35.563  1.00  0.00     0.010 A 
ATOM     65  C   UNL A   1      43.213  27.304  36.792  1.00  0.00     0.010 A 
ATOM     66  C   UNL A   1      45.923  27.639  36.176  1.00  0.00     0.020 A 
ATOM     67  C   UNL A   1      44.175  26.520  37.438  1.00  0.00     0.020 A 
ATOM     68  C   UNL A   1      45.523  26.678  37.107  1.00  0.00     0.054 A 
BRANCH  68  69
ATOM     69  S   UNL A   1      46.793  25.650  37.893  1.00  0.00     0.124 S 
ATOM     70  O   UNL A   1      47.391  26.588  38.843  1.00  0.00    -0.237 OA
ATOM     71  O   UNL A   1      46.002  24.574  38.496  1.00  0.00    -0.237 OA
ATOM     72  O   UNL A   1      47.651  25.246  36.790  1.00  0.00    -0.744 OA
ENDBRANCH  68  69
ENDBRANCH  49  63
BRANCH  50  73
ATOM     73  C   UNL A   1      36.492  33.347  31.140  1.00  0.00    -0.014 A 
ATOM     74  C   UNL A   1      35.231  33.484  31.755  1.00  0.00     0.010 A 
ATOM     75  C   UNL A   1      36.680  33.914  29.866  1.00  0.00     0.010 A 
ATOM     76  C   UNL A   1      34.183  34.153  31.109  1.00  0.00     0.020 A 
ATOM     77  C   UNL A   1      35.645  34.611  29.228  1.00  0.00     0.020 A 
ATOM     78  C   UNL A   1      34.399  34.720  29.850  1.00  0.00     0.054 A 
BRANCH  78  79
ATOM     79  S   UNL A   1      33.046  35.643  29.060  1.00  0.00     0.124 S 
ATOM     80  O   UNL A   1      32.429  34.624  28.218  1.00  0.00    -0.237 OA
ATOM     81  O   UNL A   1      32.253  36.080  30.207  1.00  0.00    -0.237 OA
ATOM     82  O   UNL A   1      33.734  36.714  28.344  1.00  0.00    -0.744 OA
ENDBRANCH  78  79
ENDBRANCH  50  73
BRANCH  62  83
ATOM     83  C   UNL A   1      40.007  34.391  37.091  1.00  0.00    -0.014 A 
ATOM     84  C   UNL A   1      39.144  34.351  38.200  1.00  0.00     0.010 A 
ATOM     85  C   UNL A   1      40.939  35.443  36.994  1.00  0.00     0.010 A 
ATOM     86  C   UNL A   1      39.198  35.352  39.179  1.00  0.00     0.020 A 
ATOM     87  C   UNL A   1      41.016  36.430  37.983  1.00  0.00     0.020 A 
ATOM     88  C   UNL A   1      40.135  36.384  39.064  1.00  0.00     0.054 A 
BRANCH  88  89
ATOM     89  S   UNL A   1      40.222  37.638  40.373  1.00  0.00     0.124 S 
ATOM     90  O   UNL A   1      38.810  37.863  40.673  1.00  0.00    -0.237 OA
ATOM     91  O   UNL A   1      40.985  36.960  41.418  1.00  0.00    -0.237 OA
ATOM     92  O   UNL A   1      40.909  38.759  39.737  1.00  0.00    -0.744 OA
ENDBRANCH  88  89
ENDBRANCH  62  83
ENDBRANCH  36  37
ENDBRANCH  28  31
ENDBRANCH  26  27
ENDBRANCH   1  26
TORSDOF 17
ENDMDL
