MODEL 1
REMARK VINA RESULT:     -12.7      0.000      0.000
REMARK SMILES O=C(NCCCNC(=O)c1ccc(-c2c3nc(c(-c4ccc(S(=O)(=O)[O-])cc4)c4ccc([nH]4)c(-c4ccc(S(=O)(=O)[O-])cc4)c4nc(c(-c5ccc(S(=O)(=O)[O-])cc5)c5ccc2[nH]5)C=C4)C=C3)cc1)C1=Cc2cc(S(F)(F)(F)(F)F)cc(Br)c2O[C@@H]1C(F)(F)F
REMARK SMILES IDX 6 1 5 2 4 3 3 4 1 5 2 6 70 8 71 9 86 10 72 11 85 12 73 13
REMARK SMILES IDX 84 14 74 15 82 16 81 17 83 18 87 19 88 20 89 21 90 22 75 23
REMARK SMILES IDX 76 24 77 25 78 26 79 27 80 28 7 29 8 30 9 32 10 33 11 34
REMARK SMILES IDX 69 35 12 36 68 37 13 38 14 39 15 40 62 41 16 42 67 43 61 44
REMARK SMILES IDX 63 45 17 46 66 47 60 48 59 49 18 51 48 52 29 53 47 54 30 55
REMARK SMILES IDX 33 56 46 57 64 58 31 59 32 60 45 62 65 63 34 64 19 65 20 66
REMARK SMILES IDX 28 67 21 68 27 69 22 70 23 71 24 72 25 73 26 74 49 75 50 76
REMARK SMILES IDX 58 77 51 78 57 79 52 80 53 81 54 82 55 83 56 84 35 85 36 86
REMARK SMILES IDX 44 87 37 88 43 89 38 90 39 91 40 92 41 93 42 94
REMARK H PARENT 3 7 7 31 63 50 33 61
REMARK Flexibility Score: inf
ROOT
ATOM      1  C   UNL A   1      34.361  28.029  26.516  1.00  0.00     0.118 C 
ENDROOT
BRANCH   1   2
ATOM      2  C   UNL A   1      33.691  27.361  25.327  1.00  0.00     0.042 C 
BRANCH   2   3
ATOM      3  C   UNL A   1      33.667  25.856  25.538  1.00  0.00     0.118 C 
BRANCH   3   4
ATOM      4  N   UNL A   1      34.054  25.181  24.291  1.00  0.00    -0.352 N 
ATOM      5  O   UNL A   1      33.561  23.506  22.680  1.00  0.00    -0.270 OA
ATOM      6  C   UNL A   1      33.226  24.090  23.758  1.00  0.00     0.251 C 
ATOM      7  H   UNL A   1      34.867  25.460  23.811  1.00  0.00     0.163 HD
BRANCH   6   8
ATOM      8  C   UNL A   1      31.970  23.658  24.497  1.00  0.00     0.067 C 
ATOM      9  C   UNL A   1      31.842  22.373  24.926  1.00  0.00     0.025 C 
ATOM     10  C   UNL A   1      30.858  24.660  24.757  1.00  0.00     0.314 C 
ATOM     11  C   UNL A   1      32.955  21.370  24.666  1.00  0.00     0.020 A 
ATOM     12  O   UNL A   1      34.571  23.060  25.088  1.00  0.00    -0.474 OA
ATOM     13  C   UNL A   1      32.597  20.081  24.307  1.00  0.00     0.036 A 
ATOM     14  C   UNL A   1      34.223  21.699  24.881  1.00  0.00     0.142 A 
ATOM     15  C   UNL A   1      33.630  19.130  24.482  1.00  0.00     0.109 A 
ATOM     16  C   UNL A   1      35.201  20.734  24.902  1.00  0.00     0.062 A 
ATOM     17  C   UNL A   1      34.910  19.430  24.616  1.00  0.00     0.044 A 
ATOM     18  Br  UNL A   1      37.042  21.236  25.352  1.00  0.00    -0.047 Br
BRANCH  10  19
ATOM     19  C   UNL A   1      30.635  24.793  26.255  1.00  0.00     0.429 C 
ATOM     20  F   UNL A   1      31.742  24.436  26.901  1.00  0.00    -0.167 F 
ATOM     21  F   UNL A   1      30.338  26.056  26.548  1.00  0.00    -0.167 F 
ATOM     22  F   UNL A   1      29.632  24.004  26.625  1.00  0.00    -0.167 F 
ENDBRANCH  10  19
BRANCH  15  23
ATOM     23  S   UNL A   1      33.166  17.381  24.526  1.00  0.00     0.310 S 
ATOM     24  F   UNL A   1      34.636  16.938  24.927  1.00  0.00    -0.094 F 
ATOM     25  F   UNL A   1      33.615  17.257  23.020  1.00  0.00    -0.094 F 
ATOM     26  F   UNL A   1      32.771  15.878  24.561  1.00  0.00    -0.094 F 
ATOM     27  F   UNL A   1      32.855  17.490  26.070  1.00  0.00    -0.094 F 
ATOM     28  F   UNL A   1      33.671  18.880  24.535  1.00  0.00    -0.094 F 
ENDBRANCH  15  23
ENDBRANCH   6   8
ENDBRANCH   3   4
ENDBRANCH   2   3
ENDBRANCH   1   2
BRANCH   1  29
ATOM     29  N   UNL A   1      33.614  29.240  26.884  1.00  0.00    -0.352 N 
ATOM     30  C   UNL A   1      34.264  30.292  27.680  1.00  0.00     0.251 C 
ATOM     31  H   UNL A   1      32.677  29.346  26.599  1.00  0.00     0.163 HD
ATOM     32  O   UNL A   1      33.618  31.338  27.998  1.00  0.00    -0.269 OA
BRANCH  30  33
ATOM     33  C   UNL A   1      35.709  30.127  28.120  1.00  0.00     0.039 A 
ATOM     34  C   UNL A   1      36.726  30.302  27.196  1.00  0.00     0.014 A 
ATOM     35  C   UNL A   1      35.957  29.661  29.338  1.00  0.00     0.014 A 
ATOM     36  C   UNL A   1      37.943  29.676  27.559  1.00  0.00     0.010 A 
ATOM     37  C   UNL A   1      37.207  29.192  29.666  1.00  0.00     0.010 A 
ATOM     38  C   UNL A   1      38.245  29.277  28.780  1.00  0.00    -0.014 A 
BRANCH  38  39
ATOM     39  C   UNL A   1      39.670  28.931  29.181  1.00  0.00     0.031 A 
ATOM     40  C   UNL A   1      40.123  27.657  28.835  1.00  0.00     0.074 A 
ATOM     41  C   UNL A   1      40.475  29.920  29.720  1.00  0.00     0.049 A 
ATOM     42  N   UNL A   1      41.368  27.185  28.921  1.00  0.00    -0.248 NA
ATOM     43  C   UNL A   1      39.262  26.594  28.294  1.00  0.00     0.031 C 
ATOM     44  C   UNL A   1      40.027  31.210  30.065  1.00  0.00     0.029 A 
ATOM     45  N   UNL A   1      41.818  29.847  30.017  1.00  0.00    -0.354 N 
ATOM     46  C   UNL A   1      41.416  25.927  28.478  1.00  0.00     0.074 A 
ATOM     47  C   UNL A   1      40.062  25.528  28.074  1.00  0.00     0.031 C 
ATOM     48  C   UNL A   1      41.081  31.901  30.572  1.00  0.00     0.029 A 
ATOM     49  C   UNL A   1      42.206  31.055  30.553  1.00  0.00     0.049 A 
ATOM     50  H   UNL A   1      42.400  29.066  29.872  1.00  0.00     0.167 HD
ATOM     51  C   UNL A   1      42.537  25.100  28.391  1.00  0.00     0.031 A 
ATOM     52  C   UNL A   1      43.464  31.416  31.007  1.00  0.00     0.031 A 
ATOM     53  C   UNL A   1      43.804  25.477  28.806  1.00  0.00     0.049 A 
ATOM     54  C   UNL A   1      44.573  30.568  30.976  1.00  0.00     0.074 A 
ATOM     55  C   UNL A   1      44.946  24.657  28.719  1.00  0.00     0.029 A 
ATOM     56  N   UNL A   1      44.187  26.676  29.365  1.00  0.00    -0.354 N 
ATOM     57  N   UNL A   1      44.630  29.325  30.496  1.00  0.00    -0.248 NA
ATOM     58  C   UNL A   1      45.903  30.930  31.484  1.00  0.00     0.031 C 
ATOM     59  C   UNL A   1      46.001  25.349  29.228  1.00  0.00     0.029 A 
ATOM     60  C   UNL A   1      45.535  26.612  29.641  1.00  0.00     0.049 A 
ATOM     61  H   UNL A   1      43.599  27.447  29.538  1.00  0.00     0.167 HD
ATOM     62  C   UNL A   1      45.866  28.839  30.621  1.00  0.00     0.074 A 
ATOM     63  C   UNL A   1      46.702  29.862  31.266  1.00  0.00     0.031 C 
ATOM     64  C   UNL A   1      46.333  27.586  30.221  1.00  0.00     0.031 A 
BRANCH  51  65
ATOM     65  C   UNL A   1      42.356  23.707  27.812  1.00  0.00    -0.014 A 
ATOM     66  C   UNL A   1      41.988  22.649  28.627  1.00  0.00     0.010 A 
ATOM     67  C   UNL A   1      42.592  23.529  26.516  1.00  0.00     0.010 A 
ATOM     68  C   UNL A   1      42.179  21.377  28.036  1.00  0.00     0.020 A 
ATOM     69  C   UNL A   1      42.629  22.265  25.979  1.00  0.00     0.020 A 
ATOM     70  C   UNL A   1      42.335  21.168  26.742  1.00  0.00     0.054 A 
BRANCH  70  71
ATOM     71  S   UNL A   1      42.167  19.519  26.015  1.00  0.00     0.124 S 
ATOM     72  O   UNL A   1      42.997  19.441  24.731  1.00  0.00    -0.237 OA
ATOM     73  O   UNL A   1      42.667  18.470  27.010  1.00  0.00    -0.237 OA
ATOM     74  O   UNL A   1      40.524  19.222  25.649  1.00  0.00    -0.744 OA
ENDBRANCH  70  71
ENDBRANCH  51  65
BRANCH  52  75
ATOM     75  C   UNL A   1      43.648  32.816  31.573  1.00  0.00    -0.014 A 
ATOM     76  C   UNL A   1      43.574  33.036  32.938  1.00  0.00     0.010 A 
ATOM     77  C   UNL A   1      43.909  33.806  30.728  1.00  0.00     0.010 A 
ATOM     78  C   UNL A   1      43.507  34.405  33.296  1.00  0.00     0.020 A 
ATOM     79  C   UNL A   1      43.962  35.106  31.170  1.00  0.00     0.020 A 
ATOM     80  C   UNL A   1      43.840  35.403  32.499  1.00  0.00     0.054 A 
BRANCH  80  81
ATOM     81  S   UNL A   1      44.117  37.076  33.132  1.00  0.00     0.124 S 
ATOM     82  O   UNL A   1      45.399  37.099  33.969  1.00  0.00    -0.237 OA
ATOM     83  O   UNL A   1      44.255  38.049  31.959  1.00  0.00    -0.237 OA
ATOM     84  O   UNL A   1      42.792  37.543  34.108  1.00  0.00    -0.744 OA
ENDBRANCH  80  81
ENDBRANCH  52  75
BRANCH  64  85
ATOM     85  C   UNL A   1      47.804  27.270  30.433  1.00  0.00    -0.014 A 
ATOM     86  C   UNL A   1      48.216  26.689  31.621  1.00  0.00     0.010 A 
ATOM     87  C   UNL A   1      48.683  27.693  29.533  1.00  0.00     0.010 A 
ATOM     88  C   UNL A   1      49.593  26.861  31.897  1.00  0.00     0.020 A 
ATOM     89  C   UNL A   1      50.027  27.707  29.819  1.00  0.00     0.020 A 
ATOM     90  C   UNL A   1      50.499  27.203  30.999  1.00  0.00     0.054 A 
BRANCH  90  91
ATOM     91  S   UNL A   1      52.271  27.014  31.313  1.00  0.00     0.124 S 
ATOM     92  O   UNL A   1      52.902  28.392  31.526  1.00  0.00    -0.237 OA
ATOM     93  O   UNL A   1      52.479  26.159  32.565  1.00  0.00    -0.237 OA
ATOM     94  O   UNL A   1      53.010  26.250  29.973  1.00  0.00    -0.744 OA
ENDBRANCH  90  91
ENDBRANCH  64  85
ENDBRANCH  38  39
ENDBRANCH  30  33
ENDBRANCH   1  29
TORSDOF 15
ENDMDL
MODEL 2
REMARK VINA RESULT:     -12.6      3.469      9.014
REMARK SMILES O=C(NCCCNC(=O)c1ccc(-c2c3nc(c(-c4ccc(S(=O)(=O)[O-])cc4)c4ccc([nH]4)c(-c4ccc(S(=O)(=O)[O-])cc4)c4nc(c(-c5ccc(S(=O)(=O)[O-])cc5)c5ccc2[nH]5)C=C4)C=C3)cc1)C1=Cc2cc(S(F)(F)(F)(F)F)cc(Br)c2O[C@@H]1C(F)(F)F
REMARK SMILES IDX 6 1 5 2 4 3 3 4 1 5 2 6 70 8 71 9 86 10 72 11 85 12 73 13
REMARK SMILES IDX 84 14 74 15 82 16 81 17 83 18 87 19 88 20 89 21 90 22 75 23
REMARK SMILES IDX 76 24 77 25 78 26 79 27 80 28 7 29 8 30 9 32 10 33 11 34
REMARK SMILES IDX 69 35 12 36 68 37 13 38 14 39 15 40 62 41 16 42 67 43 61 44
REMARK SMILES IDX 63 45 17 46 66 47 60 48 59 49 18 51 48 52 29 53 47 54 30 55
REMARK SMILES IDX 33 56 46 57 64 58 31 59 32 60 45 62 65 63 34 64 19 65 20 66
REMARK SMILES IDX 28 67 21 68 27 69 22 70 23 71 24 72 25 73 26 74 49 75 50 76
REMARK SMILES IDX 58 77 51 78 57 79 52 80 53 81 54 82 55 83 56 84 35 85 36 86
REMARK SMILES IDX 44 87 37 88 43 89 38 90 39 91 40 92 41 93 42 94
REMARK H PARENT 3 7 7 31 63 50 33 61
REMARK Flexibility Score: inf
ROOT
ATOM      1  C   UNL A   1      35.665  30.775  28.179  1.00  0.00     0.118 C 
ENDROOT
BRANCH   1   2
ATOM      2  C   UNL A   1      34.411  30.451  27.386  1.00  0.00     0.042 C 
BRANCH   2   3
ATOM      3  C   UNL A   1      34.367  28.960  27.093  1.00  0.00     0.118 C 
BRANCH   3   4
ATOM      4  N   UNL A   1      33.154  28.380  27.688  1.00  0.00    -0.352 N 
ATOM      5  O   UNL A   1      30.939  27.587  27.355  1.00  0.00    -0.270 OA
ATOM      6  C   UNL A   1      31.988  28.089  26.841  1.00  0.00     0.251 C 
ATOM      7  H   UNL A   1      33.122  28.186  28.652  1.00  0.00     0.163 HD
BRANCH   6   8
ATOM      8  C   UNL A   1      32.035  28.387  25.352  1.00  0.00     0.067 C 
ATOM      9  C   UNL A   1      32.604  27.494  24.498  1.00  0.00     0.025 C 
ATOM     10  C   UNL A   1      31.447  29.682  24.816  1.00  0.00     0.314 C 
ATOM     11  C   UNL A   1      33.193  26.199  25.033  1.00  0.00     0.020 A 
ATOM     12  O   UNL A   1      31.403  26.032  26.587  1.00  0.00    -0.474 OA
ATOM     13  C   UNL A   1      34.382  25.749  24.483  1.00  0.00     0.036 A 
ATOM     14  C   UNL A   1      32.528  25.474  25.926  1.00  0.00     0.142 A 
ATOM     15  C   UNL A   1      34.644  24.380  24.727  1.00  0.00     0.109 A 
ATOM     16  C   UNL A   1      32.922  24.189  26.215  1.00  0.00     0.062 A 
ATOM     17  C   UNL A   1      34.053  23.658  25.663  1.00  0.00     0.044 A 
ATOM     18  Br  UNL A   1      31.842  23.102  27.438  1.00  0.00    -0.047 Br
BRANCH  10  19
ATOM     19  C   UNL A   1      30.339  29.364  23.825  1.00  0.00     0.429 C 
ATOM     20  F   UNL A   1      29.392  30.295  23.906  1.00  0.00    -0.167 F 
ATOM     21  F   UNL A   1      30.838  29.344  22.593  1.00  0.00    -0.167 F 
ATOM     22  F   UNL A   1      29.816  28.175  24.111  1.00  0.00    -0.167 F 
ENDBRANCH  10  19
BRANCH  15  23
ATOM     23  S   UNL A   1      35.872  23.559  23.682  1.00  0.00     0.310 S 
ATOM     24  F   UNL A   1      35.691  22.180  24.446  1.00  0.00    -0.094 F 
ATOM     25  F   UNL A   1      36.976  23.924  24.745  1.00  0.00    -0.094 F 
ATOM     26  F   UNL A   1      36.930  22.853  22.787  1.00  0.00    -0.094 F 
ATOM     27  F   UNL A   1      34.733  23.080  22.698  1.00  0.00    -0.094 F 
ATOM     28  F   UNL A   1      34.772  24.173  24.636  1.00  0.00    -0.094 F 
ENDBRANCH  15  23
ENDBRANCH   6   8
ENDBRANCH   3   4
ENDBRANCH   2   3
ENDBRANCH   1   2
BRANCH   1  29
ATOM     29  N   UNL A   1      35.423  30.518  29.606  1.00  0.00    -0.352 N 
ATOM     30  C   UNL A   1      36.539  30.132  30.483  1.00  0.00     0.251 C 
ATOM     31  H   UNL A   1      34.514  30.603  29.975  1.00  0.00     0.163 HD
ATOM     32  O   UNL A   1      36.330  29.909  31.716  1.00  0.00    -0.269 OA
BRANCH  30  33
ATOM     33  C   UNL A   1      37.942  29.999  29.914  1.00  0.00     0.039 A 
ATOM     34  C   UNL A   1      38.116  29.933  28.541  1.00  0.00     0.014 A 
ATOM     35  C   UNL A   1      38.952  29.786  30.748  1.00  0.00     0.014 A 
ATOM     36  C   UNL A   1      39.342  29.344  28.148  1.00  0.00     0.010 A 
ATOM     37  C   UNL A   1      40.165  29.341  30.278  1.00  0.00     0.010 A 
ATOM     38  C   UNL A   1      40.388  29.195  28.937  1.00  0.00    -0.014 A 
BRANCH  38  39
ATOM     39  C   UNL A   1      41.770  28.877  28.386  1.00  0.00     0.031 A 
ATOM     40  C   UNL A   1      42.701  29.916  28.398  1.00  0.00     0.074 A 
ATOM     41  C   UNL A   1      42.073  27.568  28.050  1.00  0.00     0.049 A 
ATOM     42  N   UNL A   1      44.006  29.842  28.133  1.00  0.00    -0.248 NA
ATOM     43  C   UNL A   1      42.372  31.313  28.721  1.00  0.00     0.031 C 
ATOM     44  C   UNL A   1      41.142  26.512  28.045  1.00  0.00     0.029 A 
ATOM     45  N   UNL A   1      43.294  27.055  27.670  1.00  0.00    -0.354 N 
ATOM     46  C   UNL A   1      44.572  31.043  28.265  1.00  0.00     0.074 A 
ATOM     47  C   UNL A   1      43.529  32.007  28.639  1.00  0.00     0.031 C 
ATOM     48  C   UNL A   1      41.787  25.382  27.655  1.00  0.00     0.029 A 
ATOM     49  C   UNL A   1      43.134  25.712  27.411  1.00  0.00     0.049 A 
ATOM     50  H   UNL A   1      44.135  27.561  27.595  1.00  0.00     0.167 HD
ATOM     51  C   UNL A   1      45.917  31.372  28.091  1.00  0.00     0.031 A 
ATOM     52  C   UNL A   1      44.096  24.810  26.985  1.00  0.00     0.031 A 
ATOM     53  C   UNL A   1      46.887  30.460  27.706  1.00  0.00     0.049 A 
ATOM     54  C   UNL A   1      45.430  25.151  26.753  1.00  0.00     0.074 A 
ATOM     55  C   UNL A   1      48.250  30.773  27.533  1.00  0.00     0.029 A 
ATOM     56  N   UNL A   1      46.723  29.122  27.424  1.00  0.00    -0.354 N 
ATOM     57  N   UNL A   1      46.003  26.343  26.924  1.00  0.00    -0.248 NA
ATOM     58  C   UNL A   1      46.450  24.210  26.270  1.00  0.00     0.031 C 
ATOM     59  C   UNL A   1      48.896  29.642  27.143  1.00  0.00     0.029 A 
ATOM     60  C   UNL A   1      47.948  28.603  27.065  1.00  0.00     0.049 A 
ATOM     61  H   UNL A   1      45.876  28.622  27.471  1.00  0.00     0.167 HD
ATOM     62  C   UNL A   1      47.301  26.277  26.619  1.00  0.00     0.074 A 
ATOM     63  C   UNL A   1      47.606  24.906  26.187  1.00  0.00     0.031 C 
ATOM     64  C   UNL A   1      48.244  27.304  26.686  1.00  0.00     0.031 A 
BRANCH  51  65
ATOM     65  C   UNL A   1      46.342  32.811  28.337  1.00  0.00    -0.014 A 
ATOM     66  C   UNL A   1      46.331  33.732  27.303  1.00  0.00     0.010 A 
ATOM     67  C   UNL A   1      46.752  33.146  29.555  1.00  0.00     0.010 A 
ATOM     68  C   UNL A   1      47.051  34.918  27.584  1.00  0.00     0.020 A 
ATOM     69  C   UNL A   1      47.323  34.374  29.787  1.00  0.00     0.020 A 
ATOM     70  C   UNL A   1      47.399  35.313  28.795  1.00  0.00     0.054 A 
BRANCH  70  71
ATOM     71  S   UNL A   1      47.948  37.005  29.124  1.00  0.00     0.124 S 
ATOM     72  O   UNL A   1      48.459  37.105  30.564  1.00  0.00    -0.237 OA
ATOM     73  O   UNL A   1      49.074  37.374  28.157  1.00  0.00    -0.237 OA
ATOM     74  O   UNL A   1      46.636  38.081  28.910  1.00  0.00    -0.744 OA
ENDBRANCH  70  71
ENDBRANCH  51  65
BRANCH  52  75
ATOM     75  C   UNL A   1      43.673  23.368  26.755  1.00  0.00    -0.014 A 
ATOM     76  C   UNL A   1      43.635  22.843  25.473  1.00  0.00     0.010 A 
ATOM     77  C   UNL A   1      43.375  22.623  27.813  1.00  0.00     0.010 A 
ATOM     78  C   UNL A   1      42.986  21.588  25.386  1.00  0.00     0.020 A 
ATOM     79  C   UNL A   1      42.872  21.354  27.655  1.00  0.00     0.020 A 
ATOM     80  C   UNL A   1      42.752  20.794  26.414  1.00  0.00     0.054 A 
BRANCH  80  81
ATOM     81  S   UNL A   1      42.295  19.057  26.192  1.00  0.00     0.124 S 
ATOM     82  O   UNL A   1      43.189  18.427  25.121  1.00  0.00    -0.237 OA
ATOM     83  O   UNL A   1      42.477  18.308  27.514  1.00  0.00    -0.237 OA
ATOM     84  O   UNL A   1      40.660  18.956  25.699  1.00  0.00    -0.744 OA
ENDBRANCH  80  81
ENDBRANCH  52  75
BRANCH  64  85
ATOM     85  C   UNL A   1      49.683  26.977  26.324  1.00  0.00    -0.014 A 
ATOM     86  C   UNL A   1      50.157  27.281  25.058  1.00  0.00     0.010 A 
ATOM     87  C   UNL A   1      50.413  26.273  27.181  1.00  0.00     0.010 A 
ATOM     88  C   UNL A   1      51.306  26.545  24.684  1.00  0.00     0.020 A 
ATOM     89  C   UNL A   1      51.594  25.694  26.784  1.00  0.00     0.020 A 
ATOM     90  C   UNL A   1      52.092  25.904  25.528  1.00  0.00     0.054 A 
BRANCH  90  91
ATOM     91  S   UNL A   1      53.742  25.333  25.050  1.00  0.00     0.124 S 
ATOM     92  O   UNL A   1      54.103  25.910  23.679  1.00  0.00    -0.237 OA
ATOM     93  O   UNL A   1      54.765  25.803  26.086  1.00  0.00    -0.237 OA
ATOM     94  O   UNL A   1      53.755  23.625  24.971  1.00  0.00    -0.744 OA
ENDBRANCH  90  91
ENDBRANCH  64  85
ENDBRANCH  38  39
ENDBRANCH  30  33
ENDBRANCH   1  29
TORSDOF 15
ENDMDL
MODEL 3
REMARK VINA RESULT:     -12.5      3.179      4.177
REMARK SMILES O=C(NCCCNC(=O)c1ccc(-c2c3nc(c(-c4ccc(S(=O)(=O)[O-])cc4)c4ccc([nH]4)c(-c4ccc(S(=O)(=O)[O-])cc4)c4nc(c(-c5ccc(S(=O)(=O)[O-])cc5)c5ccc2[nH]5)C=C4)C=C3)cc1)C1=Cc2cc(S(F)(F)(F)(F)F)cc(Br)c2O[C@@H]1C(F)(F)F
REMARK SMILES IDX 6 1 5 2 4 3 3 4 1 5 2 6 70 8 71 9 86 10 72 11 85 12 73 13
REMARK SMILES IDX 84 14 74 15 82 16 81 17 83 18 87 19 88 20 89 21 90 22 75 23
REMARK SMILES IDX 76 24 77 25 78 26 79 27 80 28 7 29 8 30 9 32 10 33 11 34
REMARK SMILES IDX 69 35 12 36 68 37 13 38 14 39 15 40 62 41 16 42 67 43 61 44
REMARK SMILES IDX 63 45 17 46 66 47 60 48 59 49 18 51 48 52 29 53 47 54 30 55
REMARK SMILES IDX 33 56 46 57 64 58 31 59 32 60 45 62 65 63 34 64 19 65 20 66
REMARK SMILES IDX 28 67 21 68 27 69 22 70 23 71 24 72 25 73 26 74 49 75 50 76
REMARK SMILES IDX 58 77 51 78 57 79 52 80 53 81 54 82 55 83 56 84 35 85 36 86
REMARK SMILES IDX 44 87 37 88 43 89 38 90 39 91 40 92 41 93 42 94
REMARK H PARENT 3 7 7 31 63 50 33 61
REMARK Flexibility Score: inf
ROOT
ATOM      1  C   UNL A   1      35.433  30.081  27.863  1.00  0.00     0.118 C 
ENDROOT
BRANCH   1   2
ATOM      2  C   UNL A   1      34.145  29.991  27.061  1.00  0.00     0.042 C 
BRANCH   2   3
ATOM      3  C   UNL A   1      33.942  28.562  26.587  1.00  0.00     0.118 C 
BRANCH   3   4
ATOM      4  N   UNL A   1      32.795  27.971  27.293  1.00  0.00    -0.352 N 
ATOM      5  O   UNL A   1      30.621  27.025  27.147  1.00  0.00    -0.270 OA
ATOM      6  C   UNL A   1      31.612  27.536  26.537  1.00  0.00     0.251 C 
ATOM      7  H   UNL A   1      32.820  27.866  28.271  1.00  0.00     0.163 HD
BRANCH   6   8
ATOM      8  C   UNL A   1      31.573  27.697  25.026  1.00  0.00     0.067 C 
ATOM      9  C   UNL A   1      32.246  26.821  24.232  1.00  0.00     0.025 C 
ATOM     10  C   UNL A   1      30.782  28.835  24.402  1.00  0.00     0.314 C 
ATOM     11  C   UNL A   1      33.037  25.682  24.855  1.00  0.00     0.020 A 
ATOM     12  O   UNL A   1      31.336  25.400  26.490  1.00  0.00    -0.474 OA
ATOM     13  C   UNL A   1      34.264  25.362  24.298  1.00  0.00     0.036 A 
ATOM     14  C   UNL A   1      32.513  24.955  25.835  1.00  0.00     0.142 A 
ATOM     15  C   UNL A   1      34.735  24.076  24.651  1.00  0.00     0.109 A 
ATOM     16  C   UNL A   1      33.103  23.774  26.221  1.00  0.00     0.062 A 
ATOM     17  C   UNL A   1      34.286  23.366  25.671  1.00  0.00     0.044 A 
ATOM     18  Br  UNL A   1      32.234  22.660  27.579  1.00  0.00    -0.047 Br
BRANCH  10  19
ATOM     19  C   UNL A   1      29.707  28.266  23.491  1.00  0.00     0.429 C 
ATOM     20  F   UNL A   1      28.717  29.146  23.371  1.00  0.00    -0.167 F 
ATOM     21  F   UNL A   1      30.227  28.018  22.292  1.00  0.00    -0.167 F 
ATOM     22  F   UNL A   1      29.236  27.137  24.012  1.00  0.00    -0.167 F 
ENDBRANCH  10  19
BRANCH  15  23
ATOM     23  S   UNL A   1      36.043  23.350  23.633  1.00  0.00     0.310 S 
ATOM     24  F   UNL A   1      35.952  21.961  24.396  1.00  0.00    -0.094 F 
ATOM     25  F   UNL A   1      37.094  23.798  24.718  1.00  0.00    -0.094 F 
ATOM     26  F   UNL A   1      37.169  22.725  22.761  1.00  0.00    -0.094 F 
ATOM     27  F   UNL A   1      34.964  22.785  22.627  1.00  0.00    -0.094 F 
ATOM     28  F   UNL A   1      34.880  23.879  24.563  1.00  0.00    -0.094 F 
ENDBRANCH  15  23
ENDBRANCH   6   8
ENDBRANCH   3   4
ENDBRANCH   2   3
ENDBRANCH   1   2
BRANCH   1  29
ATOM     29  N   UNL A   1      35.165  30.742  29.148  1.00  0.00    -0.352 N 
ATOM     30  C   UNL A   1      36.222  30.823  30.167  1.00  0.00     0.251 C 
ATOM     31  H   UNL A   1      34.277  31.129  29.328  1.00  0.00     0.163 HD
ATOM     32  O   UNL A   1      35.990  31.394  31.278  1.00  0.00    -0.269 OA
BRANCH  30  33
ATOM     33  C   UNL A   1      37.591  30.225  29.891  1.00  0.00     0.039 A 
ATOM     34  C   UNL A   1      38.379  29.809  30.952  1.00  0.00     0.014 A 
ATOM     35  C   UNL A   1      38.069  30.267  28.653  1.00  0.00     0.014 A 
ATOM     36  C   UNL A   1      39.758  29.731  30.644  1.00  0.00     0.010 A 
ATOM     37  C   UNL A   1      39.403  30.046  28.410  1.00  0.00     0.010 A 
ATOM     38  C   UNL A   1      40.252  29.688  29.421  1.00  0.00    -0.014 A 
BRANCH  38  39
ATOM     39  C   UNL A   1      41.687  29.267  29.150  1.00  0.00     0.031 A 
ATOM     40  C   UNL A   1      41.885  27.944  28.753  1.00  0.00     0.074 A 
ATOM     41  C   UNL A   1      42.683  30.229  29.162  1.00  0.00     0.049 A 
ATOM     42  N   UNL A   1      43.010  27.389  28.298  1.00  0.00    -0.248 NA
ATOM     43  C   UNL A   1      40.836  26.912  28.772  1.00  0.00     0.031 C 
ATOM     44  C   UNL A   1      42.490  31.568  29.553  1.00  0.00     0.029 A 
ATOM     45  N   UNL A   1      44.007  30.079  28.811  1.00  0.00    -0.354 N 
ATOM     46  C   UNL A   1      42.804  26.105  28.001  1.00  0.00     0.074 A 
ATOM     47  C   UNL A   1      41.405  25.778  28.307  1.00  0.00     0.031 C 
ATOM     48  C   UNL A   1      43.681  32.213  29.451  1.00  0.00     0.029 A 
ATOM     49  C   UNL A   1      44.640  31.289  28.993  1.00  0.00     0.049 A 
ATOM     50  H   UNL A   1      44.428  29.250  28.486  1.00  0.00     0.167 HD
ATOM     51  C   UNL A   1      43.727  25.194  27.485  1.00  0.00     0.031 A 
ATOM     52  C   UNL A   1      45.976  31.587  28.779  1.00  0.00     0.031 A 
ATOM     53  C   UNL A   1      45.053  25.505  27.231  1.00  0.00     0.049 A 
ATOM     54  C   UNL A   1      46.914  30.660  28.319  1.00  0.00     0.074 A 
ATOM     55  C   UNL A   1      45.996  24.601  26.704  1.00  0.00     0.029 A 
ATOM     56  N   UNL A   1      45.692  26.708  27.437  1.00  0.00    -0.354 N 
ATOM     57  N   UNL A   1      46.698  29.387  27.985  1.00  0.00    -0.248 NA
ATOM     58  C   UNL A   1      48.338  30.958  28.120  1.00  0.00     0.031 C 
ATOM     59  C   UNL A   1      47.188  25.247  26.601  1.00  0.00     0.029 A 
ATOM     60  C   UNL A   1      47.011  26.565  27.064  1.00  0.00     0.049 A 
ATOM     61  H   UNL A   1      45.278  27.529  27.789  1.00  0.00     0.167 HD
ATOM     62  C   UNL A   1      47.834  28.823  27.569  1.00  0.00     0.074 A 
ATOM     63  C   UNL A   1      48.907  29.822  27.658  1.00  0.00     0.031 C 
ATOM     64  C   UNL A   1      48.018  27.515  27.118  1.00  0.00     0.031 A 
BRANCH  51  65
ATOM     65  C   UNL A   1      43.251  23.782  27.186  1.00  0.00    -0.014 A 
ATOM     66  C   UNL A   1      43.142  22.848  28.203  1.00  0.00     0.010 A 
ATOM     67  C   UNL A   1      42.976  23.465  25.925  1.00  0.00     0.010 A 
ATOM     68  C   UNL A   1      43.014  21.515  27.744  1.00  0.00     0.020 A 
ATOM     69  C   UNL A   1      42.727  22.161  25.571  1.00  0.00     0.020 A 
ATOM     70  C   UNL A   1      42.664  21.175  26.517  1.00  0.00     0.054 A 
BRANCH  70  71
ATOM     71  S   UNL A   1      42.128  19.495  26.110  1.00  0.00     0.124 S 
ATOM     72  O   UNL A   1      40.623  19.493  25.831  1.00  0.00    -0.237 OA
ATOM     73  O   UNL A   1      42.877  19.008  24.868  1.00  0.00    -0.237 OA
ATOM     74  O   UNL A   1      42.465  18.455  27.424  1.00  0.00    -0.744 OA
ENDBRANCH  70  71
ENDBRANCH  51  65
BRANCH  52  75
ATOM     75  C   UNL A   1      46.447  33.004  29.064  1.00  0.00    -0.014 A 
ATOM     76  C   UNL A   1      46.915  33.349  30.321  1.00  0.00     0.010 A 
ATOM     77  C   UNL A   1      46.427  33.885  28.071  1.00  0.00     0.010 A 
ATOM     78  C   UNL A   1      47.074  34.743  30.512  1.00  0.00     0.020 A 
ATOM     79  C   UNL A   1      46.727  35.206  28.303  1.00  0.00     0.020 A 
ATOM     80  C   UNL A   1      47.139  35.629  29.535  1.00  0.00     0.054 A 
BRANCH  80  81
ATOM     81  S   UNL A   1      47.741  37.313  29.815  1.00  0.00     0.124 S 
ATOM     82  O   UNL A   1      46.782  38.048  30.755  1.00  0.00    -0.237 OA
ATOM     83  O   UNL A   1      49.134  37.259  30.446  1.00  0.00    -0.237 OA
ATOM     84  O   UNL A   1      47.822  38.143  28.322  1.00  0.00    -0.744 OA
ENDBRANCH  80  81
ENDBRANCH  52  75
BRANCH  64  85
ATOM     85  C   UNL A   1      49.408  27.108  26.655  1.00  0.00    -0.014 A 
ATOM     86  C   UNL A   1      49.763  27.275  25.326  1.00  0.00     0.010 A 
ATOM     87  C   UNL A   1      50.200  26.465  27.503  1.00  0.00     0.010 A 
ATOM     88  C   UNL A   1      50.853  26.470  24.919  1.00  0.00     0.020 A 
ATOM     89  C   UNL A   1      51.324  25.813  27.055  1.00  0.00     0.020 A 
ATOM     90  C   UNL A   1      51.702  25.886  25.744  1.00  0.00     0.054 A 
BRANCH  90  91
ATOM     91  S   UNL A   1      53.284  25.220  25.170  1.00  0.00     0.124 S 
ATOM     92  O   UNL A   1      54.418  25.793  26.022  1.00  0.00    -0.237 OA
ATOM     93  O   UNL A   1      53.272  23.695  25.296  1.00  0.00    -0.237 OA
ATOM     94  O   UNL A   1      53.526  25.654  23.533  1.00  0.00    -0.744 OA
ENDBRANCH  90  91
ENDBRANCH  64  85
ENDBRANCH  38  39
ENDBRANCH  30  33
ENDBRANCH   1  29
TORSDOF 15
ENDMDL
