MODEL 1
REMARK VINA RESULT:     -12.9      0.000      0.000
REMARK SMILES CC(=O)O[C@@H]1CC[C@@]23C(=O)O[C@]4(CC[C@]2(O)C1)[C@H]3CC[C@]1(C)[C@H](C(=O)NCCCNC(=O)c2ccc(-c3c5nc(c(-c6ccc(S(=O)(=O)[O-])cc6)c6ccc([nH]6)c(-c6ccc(S(=O)(=O)[O-])cc6)c6nc(c(-c7ccc(S(=O)(=O)[O-])cc7)c7ccc3[nH]7)C=C6)C=C5)cc2)CC[C@@H]14
REMARK SMILES IDX 28 1 27 2 26 3 24 4 25 5 23 7 5 8 6 9 17 10 7 11 15 12 8 13
REMARK SMILES IDX 14 14 9 15 18 16 13 17 10 18 11 19 12 20 19 21 95 22 20 23
REMARK SMILES IDX 21 24 94 25 22 26 93 27 4 28 2 29 1 30 3 31 16 32 29 34
REMARK SMILES IDX 30 35 31 36 32 38 33 39 34 40 92 41 35 42 91 43 36 44 37 45
REMARK SMILES IDX 38 46 85 47 39 48 90 49 84 50 86 51 40 52 89 53 83 54 82 55
REMARK SMILES IDX 41 57 71 58 52 59 70 60 53 61 56 62 69 63 87 64 54 65 55 66
REMARK SMILES IDX 68 68 88 69 57 70 42 71 43 72 51 73 44 74 50 75 45 76 46 77
REMARK SMILES IDX 47 78 48 79 49 80 72 81 73 82 81 83 74 84 80 85 75 86 76 87
REMARK SMILES IDX 77 88 78 89 79 90 58 91 59 92 67 93 60 94 66 95 61 96 62 97
REMARK SMILES IDX 63 98 64 99 65 100
REMARK H PARENT 26 6 16 33 30 37 86 56 56 67
REMARK Flexibility Score: inf
ROOT
ATOM      1  C   UNL A   1      38.211  19.827  25.039  1.00  0.00     0.042 C 
ENDROOT
BRANCH   1   2
ATOM      2  C   UNL A   1      36.895  20.618  25.047  1.00  0.00     0.117 C 
BRANCH   2   3
ATOM      3  N   UNL A   1      36.990  21.786  24.180  1.00  0.00    -0.356 N 
ATOM      4  C   UNL A   1      36.114  22.580  23.526  1.00  0.00     0.223 C 
ATOM      5  O   UNL A   1      36.645  23.374  22.732  1.00  0.00    -0.275 OA
ATOM      6  H   UNL A   1      37.923  22.066  24.036  1.00  0.00     0.163 HD
BRANCH   4   7
ATOM      7  C   UNL A   1      34.590  22.667  23.711  1.00  0.00     0.085 C 
ATOM      8  C   UNL A   1      30.131  29.431  22.809  1.00  0.00     0.179 C 
ATOM      9  C   UNL A   1      31.177  28.711  21.984  1.00  0.00     0.047 C 
ATOM     10  C   UNL A   1      30.578  29.447  24.271  1.00  0.00     0.081 C 
ATOM     11  C   UNL A   1      31.421  27.334  22.584  1.00  0.00     0.026 C 
ATOM     12  C   UNL A   1      31.067  28.110  24.884  1.00  0.00     0.085 C 
ATOM     13  C   UNL A   1      32.145  27.401  24.151  1.00  0.00     0.103 C 
ATOM     14  C   UNL A   1      29.971  26.925  24.947  1.00  0.00     0.041 C 
ATOM     15  C   UNL A   1      33.387  26.974  23.544  1.00  0.00     0.316 C 
ATOM     16  C   UNL A   1      32.427  26.114  25.293  1.00  0.00     0.054 C 
ATOM     17  C   UNL A   1      30.472  25.411  24.368  1.00  0.00     0.052 C 
ATOM     18  O   UNL A   1      34.350  27.580  23.112  1.00  0.00    -0.251 OA
ATOM     19  O   UNL A   1      33.026  25.636  23.280  1.00  0.00    -0.458 OA
ATOM     20  C   UNL A   1      32.067  25.125  24.292  1.00  0.00     0.120 C 
ATOM     21  C   UNL A   1      33.763  25.815  26.002  1.00  0.00     0.009 C 
ATOM     22  C   UNL A   1      32.415  23.649  24.410  1.00  0.00     0.040 C 
ATOM     23  C   UNL A   1      34.570  24.633  25.442  1.00  0.00     0.008 C 
ATOM     24  C   UNL A   1      33.865  23.366  24.925  1.00  0.00    -0.014 C 
ATOM     25  C   UNL A   1      32.367  23.029  22.985  1.00  0.00     0.009 C 
ATOM     26  C   UNL A   1      33.790  22.331  26.071  1.00  0.00     0.012 C 
ATOM     27  C   UNL A   1      33.807  23.056  22.467  1.00  0.00     0.014 C 
BRANCH   8  28
ATOM     28  O   UNL A   1      28.887  28.715  22.651  1.00  0.00    -0.462 OA
BRANCH  28  29
ATOM     29  C   UNL A   1      27.739  29.430  22.788  1.00  0.00     0.302 C 
ATOM     30  C   UNL A   1      27.894  30.779  22.151  1.00  0.00     0.139 C 
ATOM     31  O   UNL A   1      26.728  29.045  23.355  1.00  0.00    -0.253 OA
ENDBRANCH  28  29
ENDBRANCH   8  28
BRANCH  12  32
ATOM     32  O   UNL A   1      31.507  28.431  26.207  1.00  0.00    -0.389 OA
ATOM     33  H   UNL A   1      32.337  28.931  26.159  1.00  0.00     0.211 HD
ENDBRANCH  12  32
ENDBRANCH   4   7
ENDBRANCH   2   3
ENDBRANCH   1   2
BRANCH   1  34
ATOM     34  C   UNL A   1      39.319  20.429  25.890  1.00  0.00     0.118 C 
BRANCH  34  35
ATOM     35  N   UNL A   1      40.418  19.505  26.094  1.00  0.00    -0.352 N 
ATOM     36  C   UNL A   1      41.751  19.757  26.313  1.00  0.00     0.251 C 
ATOM     37  H   UNL A   1      40.172  18.552  26.074  1.00  0.00     0.163 HD
ATOM     38  O   UNL A   1      42.551  18.826  26.252  1.00  0.00    -0.269 OA
BRANCH  36  39
ATOM     39  C   UNL A   1      42.243  21.128  26.603  1.00  0.00     0.039 A 
ATOM     40  C   UNL A   1      42.448  22.007  25.533  1.00  0.00     0.014 A 
ATOM     41  C   UNL A   1      42.556  21.543  27.900  1.00  0.00     0.014 A 
ATOM     42  C   UNL A   1      42.924  23.302  25.768  1.00  0.00     0.010 A 
ATOM     43  C   UNL A   1      42.945  22.862  28.142  1.00  0.00     0.010 A 
ATOM     44  C   UNL A   1      43.155  23.750  27.078  1.00  0.00    -0.014 A 
BRANCH  44  45
ATOM     45  C   UNL A   1      43.659  25.125  27.349  1.00  0.00     0.031 A 
ATOM     46  C   UNL A   1      45.111  25.455  27.110  1.00  0.00     0.074 A 
ATOM     47  C   UNL A   1      42.829  26.065  27.847  1.00  0.00     0.049 A 
ATOM     48  N   UNL A   1      45.754  26.571  27.345  1.00  0.00    -0.248 NA
ATOM     49  C   UNL A   1      45.956  24.385  26.555  1.00  0.00     0.031 C 
ATOM     50  C   UNL A   1      41.412  25.868  28.156  1.00  0.00     0.029 A 
ATOM     51  N   UNL A   1      43.062  27.375  28.186  1.00  0.00    -0.354 N 
ATOM     52  C   UNL A   1      47.076  26.331  26.983  1.00  0.00     0.074 A 
ATOM     53  C   UNL A   1      47.154  24.947  26.567  1.00  0.00     0.031 C 
ATOM     54  C   UNL A   1      40.895  27.021  28.612  1.00  0.00     0.029 A 
ATOM     55  C   UNL A   1      41.951  28.028  28.669  1.00  0.00     0.049 A 
ATOM     56  H   UNL A   1      43.941  27.807  28.092  1.00  0.00     0.167 HD
ATOM     57  C   UNL A   1      48.127  27.186  26.972  1.00  0.00     0.031 A 
ATOM     58  C   UNL A   1      41.799  29.290  29.112  1.00  0.00     0.031 A 
ATOM     59  C   UNL A   1      48.046  28.566  27.368  1.00  0.00     0.049 A 
ATOM     60  C   UNL A   1      42.982  30.220  29.101  1.00  0.00     0.074 A 
ATOM     61  C   UNL A   1      49.046  29.525  27.360  1.00  0.00     0.029 A 
ATOM     62  N   UNL A   1      46.899  29.188  27.836  1.00  0.00    -0.354 N 
ATOM     63  N   UNL A   1      44.213  29.983  28.714  1.00  0.00    -0.248 NA
ATOM     64  C   UNL A   1      42.754  31.593  29.574  1.00  0.00     0.031 C 
ATOM     65  C   UNL A   1      48.511  30.716  27.860  1.00  0.00     0.029 A 
ATOM     66  C   UNL A   1      47.168  30.514  28.130  1.00  0.00     0.049 A 
ATOM     67  H   UNL A   1      46.024  28.751  27.944  1.00  0.00     0.167 HD
ATOM     68  C   UNL A   1      44.897  31.184  28.870  1.00  0.00     0.074 A 
ATOM     69  C   UNL A   1      43.941  32.148  29.372  1.00  0.00     0.031 C 
ATOM     70  C   UNL A   1      46.201  31.463  28.623  1.00  0.00     0.031 A 
BRANCH  57  71
ATOM     71  C   UNL A   1      49.455  26.650  26.502  1.00  0.00    -0.014 A 
ATOM     72  C   UNL A   1      49.852  26.781  25.160  1.00  0.00     0.010 A 
ATOM     73  C   UNL A   1      50.331  26.040  27.418  1.00  0.00     0.010 A 
ATOM     74  C   UNL A   1      51.081  26.274  24.730  1.00  0.00     0.020 A 
ATOM     75  C   UNL A   1      51.575  25.556  26.998  1.00  0.00     0.020 A 
ATOM     76  C   UNL A   1      51.935  25.660  25.653  1.00  0.00     0.054 A 
BRANCH  76  77
ATOM     77  S   UNL A   1      53.533  25.030  25.072  1.00  0.00     0.124 S 
ATOM     78  O   UNL A   1      53.359  23.586  25.223  1.00  0.00    -0.237 OA
ATOM     79  O   UNL A   1      53.587  25.513  23.695  1.00  0.00    -0.237 OA
ATOM     80  O   UNL A   1      54.499  25.639  25.982  1.00  0.00    -0.744 OA
ENDBRANCH  76  77
ENDBRANCH  57  71
BRANCH  58  81
ATOM     81  C   UNL A   1      40.471  29.758  29.601  1.00  0.00    -0.014 A 
ATOM     82  C   UNL A   1      39.458  30.114  28.693  1.00  0.00     0.010 A 
ATOM     83  C   UNL A   1      40.216  29.855  30.981  1.00  0.00     0.010 A 
ATOM     84  C   UNL A   1      38.225  30.586  29.154  1.00  0.00     0.020 A 
ATOM     85  C   UNL A   1      38.974  30.300  31.446  1.00  0.00     0.020 A 
ATOM     86  C   UNL A   1      37.993  30.678  30.529  1.00  0.00     0.054 A 
BRANCH  86  87
ATOM     87  S   UNL A   1      36.375  31.262  31.108  1.00  0.00     0.124 S 
ATOM     88  O   UNL A   1      35.606  31.303  29.869  1.00  0.00    -0.237 OA
ATOM     89  O   UNL A   1      35.985  30.225  32.061  1.00  0.00    -0.237 OA
ATOM     90  O   UNL A   1      36.674  32.562  31.704  1.00  0.00    -0.744 OA
ENDBRANCH  86  87
ENDBRANCH  58  81
BRANCH  70  91
ATOM     91  C   UNL A   1      46.662  32.876  28.851  1.00  0.00    -0.014 A 
ATOM     92  C   UNL A   1      47.204  33.275  30.086  1.00  0.00     0.010 A 
ATOM     93  C   UNL A   1      46.601  33.804  27.796  1.00  0.00     0.010 A 
ATOM     94  C   UNL A   1      47.648  34.587  30.270  1.00  0.00     0.020 A 
ATOM     95  C   UNL A   1      47.068  35.109  27.968  1.00  0.00     0.020 A 
ATOM     96  C   UNL A   1      47.577  35.496  29.210  1.00  0.00     0.054 A 
BRANCH  96  97
ATOM     97  S   UNL A   1      48.201  37.181  29.460  1.00  0.00     0.124 S 
ATOM     98  O   UNL A   1      48.721  37.113  30.822  1.00  0.00    -0.237 OA
ATOM     99  O   UNL A   1      49.206  37.311  28.408  1.00  0.00    -0.237 OA
ATOM    100  O   UNL A   1      47.016  38.018  29.287  1.00  0.00    -0.744 OA
ENDBRANCH  96  97
ENDBRANCH  70  91
ENDBRANCH  44  45
ENDBRANCH  36  39
ENDBRANCH  34  35
ENDBRANCH   1  34
TORSDOF 16
ENDMDL
MODEL 2
REMARK VINA RESULT:     -12.8      0.569      7.814
REMARK SMILES CC(=O)O[C@@H]1CC[C@@]23C(=O)O[C@]4(CC[C@]2(O)C1)[C@H]3CC[C@]1(C)[C@H](C(=O)NCCCNC(=O)c2ccc(-c3c5nc(c(-c6ccc(S(=O)(=O)[O-])cc6)c6ccc([nH]6)c(-c6ccc(S(=O)(=O)[O-])cc6)c6nc(c(-c7ccc(S(=O)(=O)[O-])cc7)c7ccc3[nH]7)C=C6)C=C5)cc2)CC[C@@H]14
REMARK SMILES IDX 28 1 27 2 26 3 24 4 25 5 23 7 5 8 6 9 17 10 7 11 15 12 8 13
REMARK SMILES IDX 14 14 9 15 18 16 13 17 10 18 11 19 12 20 19 21 95 22 20 23
REMARK SMILES IDX 21 24 94 25 22 26 93 27 4 28 2 29 1 30 3 31 16 32 29 34
REMARK SMILES IDX 30 35 31 36 32 38 33 39 34 40 92 41 35 42 91 43 36 44 37 45
REMARK SMILES IDX 38 46 85 47 39 48 90 49 84 50 86 51 40 52 89 53 83 54 82 55
REMARK SMILES IDX 41 57 71 58 52 59 70 60 53 61 56 62 69 63 87 64 54 65 55 66
REMARK SMILES IDX 68 68 88 69 57 70 42 71 43 72 51 73 44 74 50 75 45 76 46 77
REMARK SMILES IDX 47 78 48 79 49 80 72 81 73 82 81 83 74 84 80 85 75 86 76 87
REMARK SMILES IDX 77 88 78 89 79 90 58 91 59 92 67 93 60 94 66 95 61 96 62 97
REMARK SMILES IDX 63 98 64 99 65 100
REMARK H PARENT 26 6 16 33 30 37 86 56 56 67
REMARK Flexibility Score: inf
ROOT
ATOM      1  C   UNL A   1      38.204  19.807  25.004  1.00  0.00     0.042 C 
ENDROOT
BRANCH   1   2
ATOM      2  C   UNL A   1      36.899  20.616  25.043  1.00  0.00     0.117 C 
BRANCH   2   3
ATOM      3  N   UNL A   1      36.989  21.782  24.174  1.00  0.00    -0.356 N 
ATOM      4  C   UNL A   1      36.107  22.583  23.536  1.00  0.00     0.223 C 
ATOM      5  O   UNL A   1      36.630  23.372  22.732  1.00  0.00    -0.275 OA
ATOM      6  H   UNL A   1      37.920  22.053  24.012  1.00  0.00     0.163 HD
BRANCH   4   7
ATOM      7  C   UNL A   1      34.588  22.684  23.749  1.00  0.00     0.085 C 
ATOM      8  C   UNL A   1      30.159  29.467  22.838  1.00  0.00     0.179 C 
ATOM      9  C   UNL A   1      31.184  28.727  22.003  1.00  0.00     0.047 C 
ATOM     10  C   UNL A   1      30.634  29.500  24.290  1.00  0.00     0.081 C 
ATOM     11  C   UNL A   1      31.430  27.357  22.618  1.00  0.00     0.026 C 
ATOM     12  C   UNL A   1      31.126  28.168  24.913  1.00  0.00     0.085 C 
ATOM     13  C   UNL A   1      32.184  27.441  24.169  1.00  0.00     0.103 C 
ATOM     14  C   UNL A   1      30.024  26.992  25.015  1.00  0.00     0.041 C 
ATOM     15  C   UNL A   1      33.412  26.997  23.545  1.00  0.00     0.316 C 
ATOM     16  C   UNL A   1      32.480  26.168  25.324  1.00  0.00     0.054 C 
ATOM     17  C   UNL A   1      30.503  25.466  24.447  1.00  0.00     0.052 C 
ATOM     18  O   UNL A   1      34.370  27.589  23.085  1.00  0.00    -0.251 OA
ATOM     19  O   UNL A   1      33.037  25.657  23.307  1.00  0.00    -0.458 OA
ATOM     20  C   UNL A   1      32.094  25.168  24.344  1.00  0.00     0.120 C 
ATOM     21  C   UNL A   1      33.828  25.870  26.011  1.00  0.00     0.009 C 
ATOM     22  C   UNL A   1      32.434  23.691  24.477  1.00  0.00     0.040 C 
ATOM     23  C   UNL A   1      34.616  24.675  25.452  1.00  0.00     0.008 C 
ATOM     24  C   UNL A   1      33.892  23.405  24.968  1.00  0.00    -0.014 C 
ATOM     25  C   UNL A   1      32.353  23.052  23.062  1.00  0.00     0.009 C 
ATOM     26  C   UNL A   1      33.832  22.387  26.129  1.00  0.00     0.012 C 
ATOM     27  C   UNL A   1      33.783  23.061  22.516  1.00  0.00     0.014 C 
BRANCH   8  28
ATOM     28  O   UNL A   1      28.907  28.757  22.715  1.00  0.00    -0.462 OA
BRANCH  28  29
ATOM     29  C   UNL A   1      27.792  29.502  22.492  1.00  0.00     0.302 C 
ATOM     30  C   UNL A   1      28.030  30.458  21.360  1.00  0.00     0.139 C 
ATOM     31  O   UNL A   1      26.749  29.422  23.121  1.00  0.00    -0.253 OA
ENDBRANCH  28  29
ENDBRANCH   8  28
BRANCH  12  32
ATOM     32  O   UNL A   1      31.595  28.505  26.223  1.00  0.00    -0.389 OA
ATOM     33  H   UNL A   1      30.873  28.908  26.730  1.00  0.00     0.211 HD
ENDBRANCH  12  32
ENDBRANCH   4   7
ENDBRANCH   2   3
ENDBRANCH   1   2
BRANCH   1  34
ATOM     34  C   UNL A   1      39.332  20.381  25.849  1.00  0.00     0.118 C 
BRANCH  34  35
ATOM     35  N   UNL A   1      40.373  19.405  26.111  1.00  0.00    -0.352 N 
ATOM     36  C   UNL A   1      41.721  19.586  26.307  1.00  0.00     0.251 C 
ATOM     37  H   UNL A   1      40.067  18.470  26.156  1.00  0.00     0.163 HD
ATOM     38  O   UNL A   1      42.460  18.605  26.307  1.00  0.00    -0.269 OA
BRANCH  36  39
ATOM     39  C   UNL A   1      42.299  20.940  26.503  1.00  0.00     0.039 A 
ATOM     40  C   UNL A   1      42.496  21.403  27.808  1.00  0.00     0.014 A 
ATOM     41  C   UNL A   1      42.598  21.780  25.426  1.00  0.00     0.014 A 
ATOM     42  C   UNL A   1      43.026  22.680  28.030  1.00  0.00     0.010 A 
ATOM     43  C   UNL A   1      43.208  23.015  25.646  1.00  0.00     0.010 A 
ATOM     44  C   UNL A   1      43.410  23.490  26.949  1.00  0.00    -0.014 A 
BRANCH  44  45
ATOM     45  C   UNL A   1      43.977  24.850  27.164  1.00  0.00     0.031 A 
ATOM     46  C   UNL A   1      43.079  25.980  27.602  1.00  0.00     0.074 A 
ATOM     47  C   UNL A   1      45.284  25.083  26.929  1.00  0.00     0.049 A 
ATOM     48  N   UNL A   1      43.368  27.244  27.779  1.00  0.00    -0.248 NA
ATOM     49  C   UNL A   1      41.665  25.651  27.851  1.00  0.00     0.031 C 
ATOM     50  C   UNL A   1      46.255  24.088  26.471  1.00  0.00     0.029 A 
ATOM     51  N   UNL A   1      46.021  26.236  27.039  1.00  0.00    -0.354 N 
ATOM     52  C   UNL A   1      42.174  27.860  28.142  1.00  0.00     0.074 A 
ATOM     53  C   UNL A   1      41.147  26.842  28.105  1.00  0.00     0.031 C 
ATOM     54  C   UNL A   1      47.464  24.666  26.365  1.00  0.00     0.029 A 
ATOM     55  C   UNL A   1      47.347  26.080  26.707  1.00  0.00     0.049 A 
ATOM     56  H   UNL A   1      45.638  27.095  27.328  1.00  0.00     0.167 HD
ATOM     57  C   UNL A   1      41.953  29.148  28.500  1.00  0.00     0.031 A 
ATOM     58  C   UNL A   1      48.355  26.973  26.675  1.00  0.00     0.031 A 
ATOM     59  C   UNL A   1      42.977  30.156  28.555  1.00  0.00     0.049 A 
ATOM     60  C   UNL A   1      48.084  28.401  27.066  1.00  0.00     0.074 A 
ATOM     61  C   UNL A   1      42.860  31.482  28.939  1.00  0.00     0.029 A 
ATOM     62  N   UNL A   1      44.307  29.950  28.224  1.00  0.00    -0.354 N 
ATOM     63  N   UNL A   1      46.955  28.950  27.448  1.00  0.00    -0.248 NA
ATOM     64  C   UNL A   1      49.225  29.327  27.035  1.00  0.00     0.031 C 
ATOM     65  C   UNL A   1      44.115  32.086  28.802  1.00  0.00     0.029 A 
ATOM     66  C   UNL A   1      45.021  31.126  28.384  1.00  0.00     0.049 A 
ATOM     67  H   UNL A   1      44.687  29.095  27.920  1.00  0.00     0.167 HD
ATOM     68  C   UNL A   1      47.258  30.279  27.729  1.00  0.00     0.074 A 
ATOM     69  C   UNL A   1      48.675  30.445  27.488  1.00  0.00     0.031 C 
ATOM     70  C   UNL A   1      46.435  31.272  28.146  1.00  0.00     0.031 A 
BRANCH  57  71
ATOM     71  C   UNL A   1      40.544  29.533  28.872  1.00  0.00    -0.014 A 
ATOM     72  C   UNL A   1      39.557  29.702  27.884  1.00  0.00     0.010 A 
ATOM     73  C   UNL A   1      40.192  29.696  30.224  1.00  0.00     0.010 A 
ATOM     74  C   UNL A   1      38.256  30.068  28.236  1.00  0.00     0.020 A 
ATOM     75  C   UNL A   1      38.882  30.034  30.582  1.00  0.00     0.020 A 
ATOM     76  C   UNL A   1      37.927  30.236  29.585  1.00  0.00     0.054 A 
BRANCH  76  77
ATOM     77  S   UNL A   1      36.225  30.691  30.014  1.00  0.00     0.124 S 
ATOM     78  O   UNL A   1      35.905  29.712  31.052  1.00  0.00    -0.237 OA
ATOM     79  O   UNL A   1      36.367  32.069  30.474  1.00  0.00    -0.237 OA
ATOM     80  O   UNL A   1      35.494  30.529  28.759  1.00  0.00    -0.744 OA
ENDBRANCH  76  77
ENDBRANCH  57  71
BRANCH  58  81
ATOM     81  C   UNL A   1      49.722  26.546  26.263  1.00  0.00    -0.014 A 
ATOM     82  C   UNL A   1      50.591  25.938  27.185  1.00  0.00     0.010 A 
ATOM     83  C   UNL A   1      50.163  26.752  24.942  1.00  0.00     0.010 A 
ATOM     84  C   UNL A   1      51.886  25.570  26.805  1.00  0.00     0.020 A 
ATOM     85  C   UNL A   1      51.447  26.360  24.551  1.00  0.00     0.020 A 
ATOM     86  C   UNL A   1      52.306  25.786  25.490  1.00  0.00     0.054 A 
BRANCH  86  87
ATOM     87  S   UNL A   1      53.978  25.272  25.007  1.00  0.00     0.124 S 
ATOM     88  O   UNL A   1      53.857  23.818  24.996  1.00  0.00    -0.237 OA
ATOM     89  O   UNL A   1      54.140  25.903  23.699  1.00  0.00    -0.237 OA
ATOM     90  O   UNL A   1      54.823  25.823  26.063  1.00  0.00    -0.744 OA
ENDBRANCH  86  87
ENDBRANCH  58  81
BRANCH  70  91
ATOM     91  C   UNL A   1      47.052  32.618  28.411  1.00  0.00    -0.014 A 
ATOM     92  C   UNL A   1      47.543  32.957  29.685  1.00  0.00     0.010 A 
ATOM     93  C   UNL A   1      47.191  33.537  27.354  1.00  0.00     0.010 A 
ATOM     94  C   UNL A   1      48.134  34.204  29.903  1.00  0.00     0.020 A 
ATOM     95  C   UNL A   1      47.805  34.774  27.563  1.00  0.00     0.020 A 
ATOM     96  C   UNL A   1      48.261  35.105  28.841  1.00  0.00     0.054 A 
BRANCH  96  97
ATOM     97  S   UNL A   1      49.072  36.699  29.140  1.00  0.00     0.124 S 
ATOM     98  O   UNL A   1      48.088  37.390  29.969  1.00  0.00    -0.237 OA
ATOM     99  O   UNL A   1      50.305  36.311  29.820  1.00  0.00    -0.237 OA
ATOM    100  O   UNL A   1      49.255  37.251  27.800  1.00  0.00    -0.744 OA
ENDBRANCH  96  97
ENDBRANCH  70  91
ENDBRANCH  44  45
ENDBRANCH  36  39
ENDBRANCH  34  35
ENDBRANCH   1  34
TORSDOF 16
ENDMDL
MODEL 3
REMARK VINA RESULT:     -12.8      2.559      9.029
REMARK SMILES CC(=O)O[C@@H]1CC[C@@]23C(=O)O[C@]4(CC[C@]2(O)C1)[C@H]3CC[C@]1(C)[C@H](C(=O)NCCCNC(=O)c2ccc(-c3c5nc(c(-c6ccc(S(=O)(=O)[O-])cc6)c6ccc([nH]6)c(-c6ccc(S(=O)(=O)[O-])cc6)c6nc(c(-c7ccc(S(=O)(=O)[O-])cc7)c7ccc3[nH]7)C=C6)C=C5)cc2)CC[C@@H]14
REMARK SMILES IDX 28 1 27 2 26 3 24 4 25 5 23 7 5 8 6 9 17 10 7 11 15 12 8 13
REMARK SMILES IDX 14 14 9 15 18 16 13 17 10 18 11 19 12 20 19 21 95 22 20 23
REMARK SMILES IDX 21 24 94 25 22 26 93 27 4 28 2 29 1 30 3 31 16 32 29 34
REMARK SMILES IDX 30 35 31 36 32 38 33 39 34 40 92 41 35 42 91 43 36 44 37 45
REMARK SMILES IDX 38 46 85 47 39 48 90 49 84 50 86 51 40 52 89 53 83 54 82 55
REMARK SMILES IDX 41 57 71 58 52 59 70 60 53 61 56 62 69 63 87 64 54 65 55 66
REMARK SMILES IDX 68 68 88 69 57 70 42 71 43 72 51 73 44 74 50 75 45 76 46 77
REMARK SMILES IDX 47 78 48 79 49 80 72 81 73 82 81 83 74 84 80 85 75 86 76 87
REMARK SMILES IDX 77 88 78 89 79 90 58 91 59 92 67 93 60 94 66 95 61 96 62 97
REMARK SMILES IDX 63 98 64 99 65 100
REMARK H PARENT 26 6 16 33 30 37 86 56 56 67
REMARK Flexibility Score: inf
ROOT
ATOM      1  C   UNL A   1      34.835  29.647  27.415  1.00  0.00     0.042 C 
ENDROOT
BRANCH   1   2
ATOM      2  C   UNL A   1      33.419  29.987  26.929  1.00  0.00     0.117 C 
BRANCH   2   3
ATOM      3  N   UNL A   1      32.433  29.125  27.567  1.00  0.00    -0.356 N 
ATOM      4  C   UNL A   1      31.576  28.164  27.155  1.00  0.00     0.223 C 
ATOM      5  O   UNL A   1      30.766  27.802  28.023  1.00  0.00    -0.275 OA
ATOM      6  H   UNL A   1      32.377  29.280  28.537  1.00  0.00     0.163 HD
BRANCH   4   7
ATOM      7  C   UNL A   1      31.550  27.430  25.804  1.00  0.00     0.085 C 
ATOM      8  C   UNL A   1      33.174  19.514  24.729  1.00  0.00     0.179 C 
ATOM      9  C   UNL A   1      32.278  20.316  25.651  1.00  0.00     0.047 C 
ATOM     10  C   UNL A   1      34.530  20.211  24.627  1.00  0.00     0.081 C 
ATOM     11  C   UNL A   1      32.214  21.754  25.153  1.00  0.00     0.026 C 
ATOM     12  C   UNL A   1      34.532  21.737  24.352  1.00  0.00     0.085 C 
ATOM     13  C   UNL A   1      33.727  22.576  25.274  1.00  0.00     0.103 C 
ATOM     14  C   UNL A   1      33.883  22.198  22.947  1.00  0.00     0.041 C 
ATOM     15  C   UNL A   1      33.187  23.308  26.399  1.00  0.00     0.316 C 
ATOM     16  C   UNL A   1      34.185  24.142  24.660  1.00  0.00     0.054 C 
ATOM     17  C   UNL A   1      32.760  23.467  23.021  1.00  0.00     0.052 C 
ATOM     18  O   UNL A   1      33.228  23.128  27.602  1.00  0.00    -0.251 OA
ATOM     19  O   UNL A   1      32.291  24.132  25.685  1.00  0.00    -0.458 OA
ATOM     20  C   UNL A   1      32.802  24.432  24.324  1.00  0.00     0.120 C 
ATOM     21  C   UNL A   1      34.871  25.263  25.467  1.00  0.00     0.009 C 
ATOM     22  C   UNL A   1      32.285  25.836  24.044  1.00  0.00     0.040 C 
ATOM     23  C   UNL A   1      33.962  26.414  25.922  1.00  0.00     0.008 C 
ATOM     24  C   UNL A   1      32.825  26.931  25.021  1.00  0.00    -0.014 C 
ATOM     25  C   UNL A   1      30.746  25.831  24.257  1.00  0.00     0.009 C 
ATOM     26  C   UNL A   1      33.348  28.123  24.189  1.00  0.00     0.012 C 
ATOM     27  C   UNL A   1      30.519  26.319  25.690  1.00  0.00     0.014 C 
BRANCH   8  28
ATOM     28  O   UNL A   1      32.522  19.449  23.442  1.00  0.00    -0.462 OA
BRANCH  28  29
ATOM     29  C   UNL A   1      32.550  18.255  22.793  1.00  0.00     0.302 C 
ATOM     30  C   UNL A   1      33.158  17.204  23.675  1.00  0.00     0.139 C 
ATOM     31  O   UNL A   1      32.153  18.057  21.656  1.00  0.00    -0.253 OA
ENDBRANCH  28  29
ENDBRANCH   8  28
BRANCH  12  32
ATOM     32  O   UNL A   1      35.906  22.136  24.404  1.00  0.00    -0.389 OA
ATOM     33  H   UNL A   1      35.963  23.103  24.360  1.00  0.00     0.211 HD
ENDBRANCH  12  32
ENDBRANCH   4   7
ENDBRANCH   2   3
ENDBRANCH   1   2
BRANCH   1  34
ATOM     34  C   UNL A   1      35.564  30.793  28.100  1.00  0.00     0.118 C 
BRANCH  34  35
ATOM     35  N   UNL A   1      35.535  30.677  29.545  1.00  0.00    -0.352 N 
ATOM     36  C   UNL A   1      36.461  30.134  30.404  1.00  0.00     0.251 C 
ATOM     37  H   UNL A   1      34.730  31.043  29.978  1.00  0.00     0.163 HD
ATOM     38  O   UNL A   1      36.147  29.947  31.577  1.00  0.00    -0.269 OA
BRANCH  36  39
ATOM     39  C   UNL A   1      37.820  29.755  29.938  1.00  0.00     0.039 A 
ATOM     40  C   UNL A   1      38.754  29.319  30.884  1.00  0.00     0.014 A 
ATOM     41  C   UNL A   1      38.204  29.875  28.600  1.00  0.00     0.014 A 
ATOM     42  C   UNL A   1      40.049  28.968  30.483  1.00  0.00     0.010 A 
ATOM     43  C   UNL A   1      39.465  29.442  28.189  1.00  0.00     0.010 A 
ATOM     44  C   UNL A   1      40.410  29.003  29.127  1.00  0.00    -0.014 A 
BRANCH  44  45
ATOM     45  C   UNL A   1      41.781  28.632  28.680  1.00  0.00     0.031 A 
ATOM     46  C   UNL A   1      42.859  29.684  28.602  1.00  0.00     0.074 A 
ATOM     47  C   UNL A   1      42.051  27.364  28.306  1.00  0.00     0.049 A 
ATOM     48  N   UNL A   1      44.092  29.574  28.177  1.00  0.00    -0.248 NA
ATOM     49  C   UNL A   1      42.496  31.044  29.036  1.00  0.00     0.031 C 
ATOM     50  C   UNL A   1      41.092  26.258  28.302  1.00  0.00     0.029 A 
ATOM     51  N   UNL A   1      43.215  26.795  27.852  1.00  0.00    -0.354 N 
ATOM     52  C   UNL A   1      44.643  30.848  28.277  1.00  0.00     0.074 A 
ATOM     53  C   UNL A   1      43.595  31.725  28.750  1.00  0.00     0.031 C 
ATOM     54  C   UNL A   1      41.712  25.138  27.893  1.00  0.00     0.029 A 
ATOM     55  C   UNL A   1      43.099  25.453  27.566  1.00  0.00     0.049 A 
ATOM     56  H   UNL A   1      44.053  27.297  27.740  1.00  0.00     0.167 HD
ATOM     57  C   UNL A   1      45.912  31.250  28.027  1.00  0.00     0.031 A 
ATOM     58  C   UNL A   1      44.004  24.577  27.090  1.00  0.00     0.031 A 
ATOM     59  C   UNL A   1      46.961  30.375  27.576  1.00  0.00     0.049 A 
ATOM     60  C   UNL A   1      45.406  25.049  26.807  1.00  0.00     0.074 A 
ATOM     61  C   UNL A   1      48.289  30.679  27.326  1.00  0.00     0.029 A 
ATOM     62  N   UNL A   1      46.803  29.023  27.313  1.00  0.00    -0.354 N 
ATOM     63  N   UNL A   1      45.916  26.249  26.951  1.00  0.00    -0.248 NA
ATOM     64  C   UNL A   1      46.358  24.044  26.311  1.00  0.00     0.031 C 
ATOM     65  C   UNL A   1      48.924  29.517  26.875  1.00  0.00     0.029 A 
ATOM     66  C   UNL A   1      48.006  28.480  26.894  1.00  0.00     0.049 A 
ATOM     67  H   UNL A   1      45.960  28.524  27.410  1.00  0.00     0.167 HD
ATOM     68  C   UNL A   1      47.254  26.136  26.590  1.00  0.00     0.074 A 
ATOM     69  C   UNL A   1      47.478  24.750  26.236  1.00  0.00     0.031 C 
ATOM     70  C   UNL A   1      48.212  27.095  26.552  1.00  0.00     0.031 A 
BRANCH  57  71
ATOM     71  C   UNL A   1      46.237  32.706  28.249  1.00  0.00    -0.014 A 
ATOM     72  C   UNL A   1      46.089  33.644  27.211  1.00  0.00     0.010 A 
ATOM     73  C   UNL A   1      46.661  33.147  29.515  1.00  0.00     0.010 A 
ATOM     74  C   UNL A   1      46.400  34.989  27.422  1.00  0.00     0.020 A 
ATOM     75  C   UNL A   1      46.946  34.499  29.738  1.00  0.00     0.020 A 
ATOM     76  C   UNL A   1      46.831  35.408  28.685  1.00  0.00     0.054 A 
BRANCH  76  77
ATOM     77  S   UNL A   1      47.208  37.164  28.936  1.00  0.00     0.124 S 
ATOM     78  O   UNL A   1      48.529  37.102  29.558  1.00  0.00    -0.237 OA
ATOM     79  O   UNL A   1      47.181  37.696  27.576  1.00  0.00    -0.237 OA
ATOM     80  O   UNL A   1      46.131  37.631  29.805  1.00  0.00    -0.744 OA
ENDBRANCH  76  77
ENDBRANCH  57  71
BRANCH  58  81
ATOM     81  C   UNL A   1      43.619  23.157  26.853  1.00  0.00    -0.014 A 
ATOM     82  C   UNL A   1      43.831  22.558  25.599  1.00  0.00     0.010 A 
ATOM     83  C   UNL A   1      43.031  22.399  27.882  1.00  0.00     0.010 A 
ATOM     84  C   UNL A   1      43.436  21.236  25.368  1.00  0.00     0.020 A 
ATOM     85  C   UNL A   1      42.661  21.068  27.663  1.00  0.00     0.020 A 
ATOM     86  C   UNL A   1      42.851  20.500  26.402  1.00  0.00     0.054 A 
BRANCH  86  87
ATOM     87  S   UNL A   1      42.376  18.776  26.094  1.00  0.00     0.124 S 
ATOM     88  O   UNL A   1      40.964  18.907  25.751  1.00  0.00    -0.237 OA
ATOM     89  O   UNL A   1      43.261  18.393  24.997  1.00  0.00    -0.237 OA
ATOM     90  O   UNL A   1      42.653  18.113  27.367  1.00  0.00    -0.744 OA
ENDBRANCH  86  87
ENDBRANCH  58  81
BRANCH  70  91
ATOM     91  C   UNL A   1      49.600  26.673  26.154  1.00  0.00    -0.014 A 
ATOM     92  C   UNL A   1      50.057  26.828  24.832  1.00  0.00     0.010 A 
ATOM     93  C   UNL A   1      50.476  26.164  27.129  1.00  0.00     0.010 A 
ATOM     94  C   UNL A   1      51.357  26.450  24.488  1.00  0.00     0.020 A 
ATOM     95  C   UNL A   1      51.786  25.811  26.794  1.00  0.00     0.020 A 
ATOM     96  C   UNL A   1      52.214  25.943  25.471  1.00  0.00     0.054 A 
BRANCH  96  97
ATOM     97  S   UNL A   1      53.911  25.503  25.009  1.00  0.00     0.124 S 
ATOM     98  O   UNL A   1      53.958  24.082  25.339  1.00  0.00    -0.237 OA
ATOM     99  O   UNL A   1      53.948  25.819  23.583  1.00  0.00    -0.237 OA
ATOM    100  O   UNL A   1      54.735  26.366  25.852  1.00  0.00    -0.744 OA
ENDBRANCH  96  97
ENDBRANCH  70  91
ENDBRANCH  44  45
ENDBRANCH  36  39
ENDBRANCH  34  35
ENDBRANCH   1  34
TORSDOF 16
ENDMDL
