MODEL 1
REMARK VINA RESULT:     -11.0      0.000      0.000
REMARK SMILES Cn1ncc(C(=O)NCCCNC(=O)c2ccc(-c3c4nc(c(-c5ccc(S(=O)(=O)[O-])cc5)c5ccc([nH]5)c(-c5ccc(S(=O)(=O)[O-])cc5)c5nc(c(-c6ccc(S(=O)(=O)[O-])cc6)c6ccc3[nH]6)C=C5)C=C4)cc2)c1C(=O)Nc1ccccn1
REMARK SMILES IDX 10 1 9 2 8 3 6 4 7 5 5 7 1 8 2 9 3 10 75 11 4 12 76 13 77 14
REMARK SMILES IDX 78 15 79 17 80 18 84 19 81 20 83 21 82 22 11 23 12 24 13 25
REMARK SMILES IDX 14 27 15 28 16 29 74 30 17 31 73 32 18 33 19 34 20 35 67 36
REMARK SMILES IDX 21 37 72 38 66 39 68 40 22 41 71 42 65 43 64 44 23 46 53 47
REMARK SMILES IDX 34 48 52 49 35 50 38 51 51 52 69 53 36 54 37 55 50 57 70 58
REMARK SMILES IDX 39 59 24 60 25 61 33 62 26 63 32 64 27 65 28 66 29 67 30 68
REMARK SMILES IDX 31 69 54 70 55 71 63 72 56 73 62 74 57 75 58 76 59 77 60 78
REMARK SMILES IDX 61 79 40 80 41 81 49 82 42 83 48 84 43 85 44 86 45 87 46 88
REMARK SMILES IDX 47 89
REMARK H PARENT 8 6 78 16 12 26 68 45 38 56
REMARK Flexibility Score: inf
ROOT
ATOM      1  C   UNL A   1      35.860  23.586  26.009  1.00  0.00     0.042 C 
ENDROOT
BRANCH   1   2
ATOM      2  C   UNL A   1      34.549  23.182  25.363  1.00  0.00     0.118 C 
BRANCH   2   3
ATOM      3  N   UNL A   1      34.593  23.143  23.921  1.00  0.00    -0.352 N 
ATOM      4  C   UNL A   1      33.823  23.712  22.946  1.00  0.00     0.255 C 
ATOM      5  O   UNL A   1      34.129  23.391  21.792  1.00  0.00    -0.269 OA
ATOM      6  H   UNL A   1      35.329  22.592  23.568  1.00  0.00     0.163 HD
BRANCH   4   7
ATOM      7  C   UNL A   1      32.687  24.607  23.161  1.00  0.00     0.090 A 
ATOM      8  C   UNL A   1      30.335  27.330  22.875  1.00  0.00     0.174 C 
ATOM      9  N   UNL A   1      31.119  26.157  23.193  1.00  0.00    -0.262 N 
ATOM     10  N   UNL A   1      30.441  25.024  23.437  1.00  0.00    -0.180 NA
ATOM     11  C   UNL A   1      32.486  25.994  23.148  1.00  0.00     0.139 A 
ATOM     12  C   UNL A   1      31.379  24.086  23.355  1.00  0.00     0.149 A 
BRANCH  11  13
ATOM     13  C   UNL A   1      33.424  27.055  22.889  1.00  0.00     0.275 C 
ATOM     14  O   UNL A   1      33.770  27.345  21.743  1.00  0.00    -0.267 OA
ATOM     15  N   UNL A   1      34.095  27.666  23.933  1.00  0.00    -0.305 N 
ATOM     16  H   UNL A   1      35.079  27.672  23.906  1.00  0.00     0.171 HD
BRANCH  15  17
ATOM     17  C   UNL A   1      33.470  28.273  25.018  1.00  0.00     0.132 A 
ATOM     18  C   UNL A   1      33.683  27.889  26.332  1.00  0.00     0.047 A 
ATOM     19  N   UNL A   1      32.634  29.267  24.660  1.00  0.00    -0.239 NA
ATOM     20  C   UNL A   1      32.936  28.530  27.324  1.00  0.00     0.005 A 
ATOM     21  C   UNL A   1      31.918  29.860  25.635  1.00  0.00     0.113 A 
ATOM     22  C   UNL A   1      32.022  29.519  26.969  1.00  0.00     0.020 A 
ENDBRANCH  15  17
ENDBRANCH  11  13
ENDBRANCH   4   7
ENDBRANCH   2   3
ENDBRANCH   1   2
BRANCH   1  23
ATOM     23  C   UNL A   1      37.045  23.629  25.063  1.00  0.00     0.118 C 
BRANCH  23  24
ATOM     24  N   UNL A   1      38.129  22.736  25.459  1.00  0.00    -0.352 N 
ATOM     25  C   UNL A   1      39.279  22.984  26.172  1.00  0.00     0.251 C 
ATOM     26  H   UNL A   1      38.020  21.803  25.166  1.00  0.00     0.163 HD
ATOM     27  O   UNL A   1      40.148  22.118  26.245  1.00  0.00    -0.269 OA
BRANCH  25  28
ATOM     28  C   UNL A   1      39.490  24.296  26.822  1.00  0.00     0.039 A 
ATOM     29  C   UNL A   1      39.001  24.512  28.114  1.00  0.00     0.014 A 
ATOM     30  C   UNL A   1      40.183  25.312  26.164  1.00  0.00     0.014 A 
ATOM     31  C   UNL A   1      39.297  25.706  28.778  1.00  0.00     0.010 A 
ATOM     32  C   UNL A   1      40.577  26.443  26.864  1.00  0.00     0.010 A 
ATOM     33  C   UNL A   1      40.136  26.658  28.179  1.00  0.00    -0.014 A 
BRANCH  33  34
ATOM     34  C   UNL A   1      40.566  27.896  28.879  1.00  0.00     0.031 A 
ATOM     35  C   UNL A   1      41.905  27.934  29.567  1.00  0.00     0.074 A 
ATOM     36  C   UNL A   1      39.715  28.936  28.994  1.00  0.00     0.049 A 
ATOM     37  N   UNL A   1      42.397  28.841  30.371  1.00  0.00    -0.248 NA
ATOM     38  C   UNL A   1      42.793  26.776  29.357  1.00  0.00     0.031 C 
ATOM     39  C   UNL A   1      38.373  29.008  28.409  1.00  0.00     0.029 A 
ATOM     40  N   UNL A   1      39.846  30.129  29.662  1.00  0.00    -0.354 N 
ATOM     41  C   UNL A   1      43.627  28.346  30.790  1.00  0.00     0.074 A 
ATOM     42  C   UNL A   1      43.784  27.038  30.194  1.00  0.00     0.031 C 
ATOM     43  C   UNL A   1      37.817  30.190  28.724  1.00  0.00     0.029 A 
ATOM     44  C   UNL A   1      38.737  30.937  29.574  1.00  0.00     0.049 A 
ATOM     45  H   UNL A   1      40.659  30.383  30.156  1.00  0.00     0.167 HD
ATOM     46  C   UNL A   1      44.553  28.936  31.581  1.00  0.00     0.031 A 
ATOM     47  C   UNL A   1      38.480  32.138  30.131  1.00  0.00     0.031 A 
ATOM     48  C   UNL A   1      44.405  30.252  32.144  1.00  0.00     0.049 A 
ATOM     49  C   UNL A   1      39.526  32.778  31.002  1.00  0.00     0.074 A 
ATOM     50  C   UNL A   1      45.311  30.969  32.904  1.00  0.00     0.029 A 
ATOM     51  N   UNL A   1      43.280  31.050  31.999  1.00  0.00    -0.354 N 
ATOM     52  N   UNL A   1      40.706  32.318  31.342  1.00  0.00    -0.248 NA
ATOM     53  C   UNL A   1      39.211  34.101  31.557  1.00  0.00     0.031 C 
ATOM     54  C   UNL A   1      44.716  32.182  33.260  1.00  0.00     0.029 A 
ATOM     55  C   UNL A   1      43.462  32.246  32.671  1.00  0.00     0.049 A 
ATOM     56  H   UNL A   1      42.473  30.802  31.494  1.00  0.00     0.167 HD
ATOM     57  C   UNL A   1      41.287  33.309  32.125  1.00  0.00     0.074 A 
ATOM     58  C   UNL A   1      40.332  34.396  32.201  1.00  0.00     0.031 C 
ATOM     59  C   UNL A   1      42.503  33.320  32.725  1.00  0.00     0.031 A 
BRANCH  46  60
ATOM     60  C   UNL A   1      45.808  28.160  31.885  1.00  0.00    -0.014 A 
ATOM     61  C   UNL A   1      45.835  27.192  32.906  1.00  0.00     0.010 A 
ATOM     62  C   UNL A   1      46.968  28.379  31.120  1.00  0.00     0.010 A 
ATOM     63  C   UNL A   1      47.011  26.492  33.187  1.00  0.00     0.020 A 
ATOM     64  C   UNL A   1      48.137  27.657  31.377  1.00  0.00     0.020 A 
ATOM     65  C   UNL A   1      48.156  26.732  32.423  1.00  0.00     0.054 A 
BRANCH  65  66
ATOM     66  S   UNL A   1      49.662  25.792  32.796  1.00  0.00     0.124 S 
ATOM     67  O   UNL A   1      49.722  24.862  31.671  1.00  0.00    -0.237 OA
ATOM     68  O   UNL A   1      50.691  26.828  32.810  1.00  0.00    -0.237 OA
ATOM     69  O   UNL A   1      49.378  25.183  34.093  1.00  0.00    -0.744 OA
ENDBRANCH  65  66
ENDBRANCH  46  60
BRANCH  47  70
ATOM     70  C   UNL A   1      37.180  32.817  29.869  1.00  0.00    -0.014 A 
ATOM     71  C   UNL A   1      36.105  32.664  30.762  1.00  0.00     0.010 A 
ATOM     72  C   UNL A   1      37.016  33.636  28.736  1.00  0.00     0.010 A 
ATOM     73  C   UNL A   1      34.884  33.301  30.518  1.00  0.00     0.020 A 
ATOM     74  C   UNL A   1      35.806  34.296  28.504  1.00  0.00     0.020 A 
ATOM     75  C   UNL A   1      34.744  34.116  29.392  1.00  0.00     0.054 A 
BRANCH  75  76
ATOM     76  S   UNL A   1      33.168  34.978  29.125  1.00  0.00     0.124 S 
ATOM     77  O   UNL A   1      33.613  36.290  28.668  1.00  0.00    -0.237 OA
ATOM     78  O   UNL A   1      32.518  34.142  28.120  1.00  0.00    -0.237 OA
ATOM     79  O   UNL A   1      32.539  34.954  30.444  1.00  0.00    -0.744 OA
ENDBRANCH  75  76
ENDBRANCH  47  70
BRANCH  59  80
ATOM     80  C   UNL A   1      42.898  34.560  33.479  1.00  0.00    -0.014 A 
ATOM     81  C   UNL A   1      42.735  34.650  34.872  1.00  0.00     0.010 A 
ATOM     82  C   UNL A   1      43.522  35.616  32.789  1.00  0.00     0.010 A 
ATOM     83  C   UNL A   1      43.175  35.784  35.560  1.00  0.00     0.020 A 
ATOM     84  C   UNL A   1      43.987  36.738  33.477  1.00  0.00     0.020 A 
ATOM     85  C   UNL A   1      43.802  36.819  34.858  1.00  0.00     0.054 A 
BRANCH  85  86
ATOM     86  S   UNL A   1      44.426  38.249  35.785  1.00  0.00     0.124 S 
ATOM     87  O   UNL A   1      43.724  38.116  37.058  1.00  0.00    -0.237 OA
ATOM     88  O   UNL A   1      45.865  37.997  35.830  1.00  0.00    -0.237 OA
ATOM     89  O   UNL A   1      44.025  39.393  34.968  1.00  0.00    -0.744 OA
ENDBRANCH  85  86
ENDBRANCH  59  80
ENDBRANCH  33  34
ENDBRANCH  25  28
ENDBRANCH  23  24
ENDBRANCH   1  23
TORSDOF 15
ENDMDL
MODEL 2
REMARK VINA RESULT:     -10.9      2.672      9.184
REMARK SMILES Cn1ncc(C(=O)NCCCNC(=O)c2ccc(-c3c4nc(c(-c5ccc(S(=O)(=O)[O-])cc5)c5ccc([nH]5)c(-c5ccc(S(=O)(=O)[O-])cc5)c5nc(c(-c6ccc(S(=O)(=O)[O-])cc6)c6ccc3[nH]6)C=C5)C=C4)cc2)c1C(=O)Nc1ccccn1
REMARK SMILES IDX 10 1 9 2 8 3 6 4 7 5 5 7 1 8 2 9 3 10 75 11 4 12 76 13 77 14
REMARK SMILES IDX 78 15 79 17 80 18 84 19 81 20 83 21 82 22 11 23 12 24 13 25
REMARK SMILES IDX 14 27 15 28 16 29 74 30 17 31 73 32 18 33 19 34 20 35 67 36
REMARK SMILES IDX 21 37 72 38 66 39 68 40 22 41 71 42 65 43 64 44 23 46 53 47
REMARK SMILES IDX 34 48 52 49 35 50 38 51 51 52 69 53 36 54 37 55 50 57 70 58
REMARK SMILES IDX 39 59 24 60 25 61 33 62 26 63 32 64 27 65 28 66 29 67 30 68
REMARK SMILES IDX 31 69 54 70 55 71 63 72 56 73 62 74 57 75 58 76 59 77 60 78
REMARK SMILES IDX 61 79 40 80 41 81 49 82 42 83 48 84 43 85 44 86 45 87 46 88
REMARK SMILES IDX 47 89
REMARK H PARENT 8 6 78 16 12 26 68 45 38 56
REMARK Flexibility Score: inf
ROOT
ATOM      1  C   UNL A   1      33.700  28.212  25.778  1.00  0.00     0.042 C 
ENDROOT
BRANCH   1   2
ATOM      2  C   UNL A   1      33.336  29.257  24.742  1.00  0.00     0.118 C 
BRANCH   2   3
ATOM      3  N   UNL A   1      31.921  29.353  24.478  1.00  0.00    -0.352 N 
ATOM      4  C   UNL A   1      30.992  28.460  24.024  1.00  0.00     0.255 C 
ATOM      5  O   UNL A   1      29.862  28.930  23.854  1.00  0.00    -0.269 OA
ATOM      6  H   UNL A   1      31.549  30.246  24.662  1.00  0.00     0.163 HD
BRANCH   4   7
ATOM      7  C   UNL A   1      31.236  27.055  23.703  1.00  0.00     0.090 A 
ATOM      8  C   UNL A   1      30.952  23.462  23.490  1.00  0.00     0.174 C 
ATOM      9  N   UNL A   1      31.287  24.867  23.423  1.00  0.00    -0.262 N 
ATOM     10  N   UNL A   1      31.668  25.343  22.226  1.00  0.00    -0.180 NA
ATOM     11  C   UNL A   1      31.140  25.837  24.391  1.00  0.00     0.139 A 
ATOM     12  C   UNL A   1      31.576  26.660  22.381  1.00  0.00     0.149 A 
BRANCH  11  13
ATOM     13  C   UNL A   1      30.727  25.578  25.746  1.00  0.00     0.275 C 
ATOM     14  O   UNL A   1      29.559  25.732  26.104  1.00  0.00    -0.267 OA
ATOM     15  N   UNL A   1      31.667  25.313  26.725  1.00  0.00    -0.305 N 
ATOM     16  H   UNL A   1      31.670  25.884  27.526  1.00  0.00     0.171 HD
BRANCH  15  17
ATOM     17  C   UNL A   1      32.608  24.291  26.651  1.00  0.00     0.132 A 
ATOM     18  C   UNL A   1      32.387  23.015  27.145  1.00  0.00     0.047 A 
ATOM     19  N   UNL A   1      33.756  24.669  26.056  1.00  0.00    -0.239 NA
ATOM     20  C   UNL A   1      33.441  22.100  27.075  1.00  0.00     0.005 A 
ATOM     21  C   UNL A   1      34.760  23.771  26.012  1.00  0.00     0.113 A 
ATOM     22  C   UNL A   1      34.657  22.490  26.518  1.00  0.00     0.020 A 
ENDBRANCH  15  17
ENDBRANCH  11  13
ENDBRANCH   4   7
ENDBRANCH   2   3
ENDBRANCH   1   2
BRANCH   1  23
ATOM     23  C   UNL A   1      33.298  28.562  27.199  1.00  0.00     0.118 C 
BRANCH  23  24
ATOM     24  N   UNL A   1      33.362  29.993  27.478  1.00  0.00    -0.352 N 
ATOM     25  C   UNL A   1      34.363  30.753  28.038  1.00  0.00     0.251 C 
ATOM     26  H   UNL A   1      32.556  30.497  27.223  1.00  0.00     0.163 HD
ATOM     27  O   UNL A   1      34.141  31.923  28.343  1.00  0.00    -0.269 OA
BRANCH  25  28
ATOM     28  C   UNL A   1      35.692  30.162  28.306  1.00  0.00     0.039 A 
ATOM     29  C   UNL A   1      36.660  30.156  27.297  1.00  0.00     0.014 A 
ATOM     30  C   UNL A   1      35.992  29.625  29.557  1.00  0.00     0.014 A 
ATOM     31  C   UNL A   1      37.954  29.707  27.578  1.00  0.00     0.010 A 
ATOM     32  C   UNL A   1      37.303  29.292  29.869  1.00  0.00     0.010 A 
ATOM     33  C   UNL A   1      38.301  29.324  28.883  1.00  0.00    -0.014 A 
BRANCH  33  34
ATOM     34  C   UNL A   1      39.684  28.936  29.260  1.00  0.00     0.031 A 
ATOM     35  C   UNL A   1      40.591  29.951  29.906  1.00  0.00     0.074 A 
ATOM     36  C   UNL A   1      40.160  27.720  28.921  1.00  0.00     0.049 A 
ATOM     37  N   UNL A   1      41.873  29.874  30.155  1.00  0.00    -0.248 NA
ATOM     38  C   UNL A   1      39.983  31.239  30.284  1.00  0.00     0.031 C 
ATOM     39  C   UNL A   1      39.397  26.661  28.254  1.00  0.00     0.029 A 
ATOM     40  N   UNL A   1      41.412  27.175  29.074  1.00  0.00    -0.354 N 
ATOM     41  C   UNL A   1      42.228  31.112  30.680  1.00  0.00     0.074 A 
ATOM     42  C   UNL A   1      41.041  31.937  30.665  1.00  0.00     0.031 C 
ATOM     43  C   UNL A   1      40.188  25.591  28.078  1.00  0.00     0.029 A 
ATOM     44  C   UNL A   1      41.526  25.901  28.569  1.00  0.00     0.049 A 
ATOM     45  H   UNL A   1      42.157  27.652  29.506  1.00  0.00     0.167 HD
ATOM     46  C   UNL A   1      43.430  31.519  31.152  1.00  0.00     0.031 A 
ATOM     47  C   UNL A   1      42.592  25.080  28.492  1.00  0.00     0.031 A 
ATOM     48  C   UNL A   1      44.598  30.682  31.195  1.00  0.00     0.049 A 
ATOM     49  C   UNL A   1      43.916  25.551  29.030  1.00  0.00     0.074 A 
ATOM     50  C   UNL A   1      45.847  30.975  31.715  1.00  0.00     0.029 A 
ATOM     51  N   UNL A   1      44.659  29.386  30.707  1.00  0.00    -0.354 N 
ATOM     52  N   UNL A   1      44.220  26.706  29.572  1.00  0.00    -0.248 NA
ATOM     53  C   UNL A   1      45.039  24.606  28.953  1.00  0.00     0.031 C 
ATOM     54  C   UNL A   1      46.677  29.872  31.498  1.00  0.00     0.029 A 
ATOM     55  C   UNL A   1      45.930  28.870  30.897  1.00  0.00     0.049 A 
ATOM     56  H   UNL A   1      43.911  28.904  30.288  1.00  0.00     0.167 HD
ATOM     57  C   UNL A   1      45.560  26.615  29.930  1.00  0.00     0.074 A 
ATOM     58  C   UNL A   1      46.006  25.290  29.549  1.00  0.00     0.031 C 
ATOM     59  C   UNL A   1      46.350  27.544  30.522  1.00  0.00     0.031 A 
BRANCH  46  60
ATOM     60  C   UNL A   1      43.538  32.934  31.659  1.00  0.00    -0.014 A 
ATOM     61  C   UNL A   1      43.280  33.246  33.006  1.00  0.00     0.010 A 
ATOM     62  C   UNL A   1      43.933  33.962  30.783  1.00  0.00     0.010 A 
ATOM     63  C   UNL A   1      43.368  34.564  33.457  1.00  0.00     0.020 A 
ATOM     64  C   UNL A   1      44.054  35.278  31.239  1.00  0.00     0.020 A 
ATOM     65  C   UNL A   1      43.751  35.574  32.570  1.00  0.00     0.054 A 
BRANCH  65  66
ATOM     66  S   UNL A   1      43.878  37.274  33.189  1.00  0.00     0.124 S 
ATOM     67  O   UNL A   1      42.709  37.363  34.060  1.00  0.00    -0.237 OA
ATOM     68  O   UNL A   1      45.169  37.270  33.870  1.00  0.00    -0.237 OA
ATOM     69  O   UNL A   1      43.816  38.089  31.979  1.00  0.00    -0.744 OA
ENDBRANCH  65  66
ENDBRANCH  46  60
BRANCH  47  70
ATOM     70  C   UNL A   1      42.446  23.724  27.895  1.00  0.00    -0.014 A 
ATOM     71  C   UNL A   1      42.754  23.507  26.540  1.00  0.00     0.010 A 
ATOM     72  C   UNL A   1      42.016  22.638  28.680  1.00  0.00     0.010 A 
ATOM     73  C   UNL A   1      42.619  22.233  25.976  1.00  0.00     0.020 A 
ATOM     74  C   UNL A   1      41.906  21.358  28.126  1.00  0.00     0.020 A 
ATOM     75  C   UNL A   1      42.198  21.167  26.775  1.00  0.00     0.054 A 
BRANCH  75  76
ATOM     76  S   UNL A   1      42.083  19.512  26.036  1.00  0.00     0.124 S 
ATOM     77  O   UNL A   1      42.634  18.669  27.091  1.00  0.00    -0.237 OA
ATOM     78  O   UNL A   1      40.649  19.374  25.797  1.00  0.00    -0.237 OA
ATOM     79  O   UNL A   1      42.899  19.620  24.829  1.00  0.00    -0.744 OA
ENDBRANCH  75  76
ENDBRANCH  47  70
BRANCH  59  80
ATOM     80  C   UNL A   1      47.767  27.153  30.843  1.00  0.00    -0.014 A 
ATOM     81  C   UNL A   1      48.083  26.466  32.027  1.00  0.00     0.010 A 
ATOM     82  C   UNL A   1      48.781  27.406  29.902  1.00  0.00     0.010 A 
ATOM     83  C   UNL A   1      49.395  26.051  32.271  1.00  0.00     0.020 A 
ATOM     84  C   UNL A   1      50.088  26.969  30.130  1.00  0.00     0.020 A 
ATOM     85  C   UNL A   1      50.388  26.301  31.318  1.00  0.00     0.054 A 
BRANCH  85  86
ATOM     86  S   UNL A   1      52.068  25.691  31.627  1.00  0.00     0.124 S 
ATOM     87  O   UNL A   1      51.827  24.289  31.954  1.00  0.00    -0.237 OA
ATOM     88  O   UNL A   1      52.736  25.933  30.351  1.00  0.00    -0.237 OA
ATOM     89  O   UNL A   1      52.539  26.518  32.737  1.00  0.00    -0.744 OA
ENDBRANCH  85  86
ENDBRANCH  59  80
ENDBRANCH  33  34
ENDBRANCH  25  28
ENDBRANCH  23  24
ENDBRANCH   1  23
TORSDOF 15
ENDMDL
MODEL 3
REMARK VINA RESULT:     -10.8      2.733      9.275
REMARK SMILES Cn1ncc(C(=O)NCCCNC(=O)c2ccc(-c3c4nc(c(-c5ccc(S(=O)(=O)[O-])cc5)c5ccc([nH]5)c(-c5ccc(S(=O)(=O)[O-])cc5)c5nc(c(-c6ccc(S(=O)(=O)[O-])cc6)c6ccc3[nH]6)C=C5)C=C4)cc2)c1C(=O)Nc1ccccn1
REMARK SMILES IDX 10 1 9 2 8 3 6 4 7 5 5 7 1 8 2 9 3 10 75 11 4 12 76 13 77 14
REMARK SMILES IDX 78 15 79 17 80 18 84 19 81 20 83 21 82 22 11 23 12 24 13 25
REMARK SMILES IDX 14 27 15 28 16 29 74 30 17 31 73 32 18 33 19 34 20 35 67 36
REMARK SMILES IDX 21 37 72 38 66 39 68 40 22 41 71 42 65 43 64 44 23 46 53 47
REMARK SMILES IDX 34 48 52 49 35 50 38 51 51 52 69 53 36 54 37 55 50 57 70 58
REMARK SMILES IDX 39 59 24 60 25 61 33 62 26 63 32 64 27 65 28 66 29 67 30 68
REMARK SMILES IDX 31 69 54 70 55 71 63 72 56 73 62 74 57 75 58 76 59 77 60 78
REMARK SMILES IDX 61 79 40 80 41 81 49 82 42 83 48 84 43 85 44 86 45 87 46 88
REMARK SMILES IDX 47 89
REMARK H PARENT 8 6 78 16 12 26 68 45 38 56
REMARK Flexibility Score: inf
ROOT
ATOM      1  C   UNL A   1      33.593  27.890  25.812  1.00  0.00     0.042 C 
ENDROOT
BRANCH   1   2
ATOM      2  C   UNL A   1      33.600  26.389  25.598  1.00  0.00     0.118 C 
BRANCH   2   3
ATOM      3  N   UNL A   1      32.553  25.691  26.303  1.00  0.00    -0.352 N 
ATOM      4  C   UNL A   1      32.379  24.384  26.665  1.00  0.00     0.255 C 
ATOM      5  O   UNL A   1      31.299  24.139  27.214  1.00  0.00    -0.269 OA
ATOM      6  H   UNL A   1      31.811  26.276  26.580  1.00  0.00     0.163 HD
BRANCH   4   7
ATOM      7  C   UNL A   1      33.323  23.294  26.427  1.00  0.00     0.090 A 
ATOM      8  C   UNL A   1      35.278  20.703  24.847  1.00  0.00     0.174 C 
ATOM      9  N   UNL A   1      34.628  21.669  25.704  1.00  0.00    -0.262 N 
ATOM     10  N   UNL A   1      35.409  22.333  26.572  1.00  0.00    -0.180 NA
ATOM     11  C   UNL A   1      33.324  22.115  25.669  1.00  0.00     0.139 A 
ATOM     12  C   UNL A   1      34.641  23.347  26.957  1.00  0.00     0.149 A 
BRANCH  11  13
ATOM     13  C   UNL A   1      32.302  21.574  24.812  1.00  0.00     0.275 C 
ATOM     14  O   UNL A   1      31.642  20.587  25.139  1.00  0.00    -0.267 OA
ATOM     15  N   UNL A   1      32.150  22.046  23.521  1.00  0.00    -0.305 N 
ATOM     16  H   UNL A   1      32.196  21.395  22.784  1.00  0.00     0.171 HD
BRANCH  15  17
ATOM     17  C   UNL A   1      31.935  23.382  23.195  1.00  0.00     0.132 A 
ATOM     18  C   UNL A   1      30.768  24.062  23.502  1.00  0.00     0.047 A 
ATOM     19  N   UNL A   1      32.975  23.943  22.548  1.00  0.00    -0.239 NA
ATOM     20  C   UNL A   1      30.648  25.380  23.053  1.00  0.00     0.005 A 
ATOM     21  C   UNL A   1      32.829  25.211  22.117  1.00  0.00     0.113 A 
ATOM     22  C   UNL A   1      31.688  25.960  22.330  1.00  0.00     0.020 A 
ENDBRANCH  15  17
ENDBRANCH  11  13
ENDBRANCH   4   7
ENDBRANCH   2   3
ENDBRANCH   1   2
BRANCH   1  23
ATOM     23  C   UNL A   1      33.370  28.324  27.248  1.00  0.00     0.118 C 
BRANCH  23  24
ATOM     24  N   UNL A   1      33.434  29.771  27.428  1.00  0.00    -0.352 N 
ATOM     25  C   UNL A   1      34.444  30.569  27.914  1.00  0.00     0.251 C 
ATOM     26  H   UNL A   1      32.621  30.255  27.157  1.00  0.00     0.163 HD
ATOM     27  O   UNL A   1      34.223  31.756  28.144  1.00  0.00    -0.269 OA
BRANCH  25  28
ATOM     28  C   UNL A   1      35.781  30.001  28.193  1.00  0.00     0.039 A 
ATOM     29  C   UNL A   1      36.781  30.082  27.220  1.00  0.00     0.014 A 
ATOM     30  C   UNL A   1      36.055  29.399  29.421  1.00  0.00     0.014 A 
ATOM     31  C   UNL A   1      38.078  29.653  27.520  1.00  0.00     0.010 A 
ATOM     32  C   UNL A   1      37.364  29.085  29.758  1.00  0.00     0.010 A 
ATOM     33  C   UNL A   1      38.392  29.203  28.812  1.00  0.00    -0.014 A 
BRANCH  33  34
ATOM     34  C   UNL A   1      39.774  28.833  29.213  1.00  0.00     0.031 A 
ATOM     35  C   UNL A   1      40.647  29.851  29.899  1.00  0.00     0.074 A 
ATOM     36  C   UNL A   1      40.279  27.632  28.862  1.00  0.00     0.049 A 
ATOM     37  N   UNL A   1      41.924  29.792  30.176  1.00  0.00    -0.248 NA
ATOM     38  C   UNL A   1      40.008  31.121  30.287  1.00  0.00     0.031 C 
ATOM     39  C   UNL A   1      39.551  26.573  28.158  1.00  0.00     0.029 A 
ATOM     40  N   UNL A   1      41.537  27.107  29.034  1.00  0.00    -0.354 N 
ATOM     41  C   UNL A   1      42.245  31.026  30.732  1.00  0.00     0.074 A 
ATOM     42  C   UNL A   1      41.044  31.830  30.705  1.00  0.00     0.031 C 
ATOM     43  C   UNL A   1      40.365  25.520  27.981  1.00  0.00     0.029 A 
ATOM     44  C   UNL A   1      41.685  25.845  28.508  1.00  0.00     0.049 A 
ATOM     45  H   UNL A   1      42.263  27.588  29.492  1.00  0.00     0.167 HD
ATOM     46  C   UNL A   1      43.428  31.445  31.240  1.00  0.00     0.031 A 
ATOM     47  C   UNL A   1      42.768  25.044  28.441  1.00  0.00     0.031 A 
ATOM     48  C   UNL A   1      44.610  30.628  31.294  1.00  0.00     0.049 A 
ATOM     49  C   UNL A   1      44.070  25.528  29.018  1.00  0.00     0.074 A 
ATOM     50  C   UNL A   1      45.841  30.932  31.848  1.00  0.00     0.029 A 
ATOM     51  N   UNL A   1      44.705  29.342  30.783  1.00  0.00    -0.354 N 
ATOM     52  N   UNL A   1      44.340  26.677  29.588  1.00  0.00    -0.248 NA
ATOM     53  C   UNL A   1      45.211  24.605  28.949  1.00  0.00     0.031 C 
ATOM     54  C   UNL A   1      46.695  29.849  31.629  1.00  0.00     0.029 A 
ATOM     55  C   UNL A   1      45.980  28.846  30.993  1.00  0.00     0.049 A 
ATOM     56  H   UNL A   1      43.976  28.856  30.338  1.00  0.00     0.167 HD
ATOM     57  C   UNL A   1      45.674  26.604  29.975  1.00  0.00     0.074 A 
ATOM     58  C   UNL A   1      46.152  25.294  29.581  1.00  0.00     0.031 C 
ATOM     59  C   UNL A   1      46.433  27.535  30.603  1.00  0.00     0.031 A 
BRANCH  46  60
ATOM     60  C   UNL A   1      43.498  32.852  31.775  1.00  0.00    -0.014 A 
ATOM     61  C   UNL A   1      43.295  33.121  33.141  1.00  0.00     0.010 A 
ATOM     62  C   UNL A   1      43.803  33.915  30.907  1.00  0.00     0.010 A 
ATOM     63  C   UNL A   1      43.347  34.432  33.619  1.00  0.00     0.020 A 
ATOM     64  C   UNL A   1      43.888  35.225  31.388  1.00  0.00     0.020 A 
ATOM     65  C   UNL A   1      43.640  35.477  32.739  1.00  0.00     0.054 A 
BRANCH  65  66
ATOM     66  S   UNL A   1      43.723  37.167  33.393  1.00  0.00     0.124 S 
ATOM     67  O   UNL A   1      42.500  37.241  34.187  1.00  0.00    -0.237 OA
ATOM     68  O   UNL A   1      44.967  37.154  34.157  1.00  0.00    -0.237 OA
ATOM     69  O   UNL A   1      43.739  38.002  32.195  1.00  0.00    -0.744 OA
ENDBRANCH  65  66
ENDBRANCH  46  60
BRANCH  47  70
ATOM     70  C   UNL A   1      42.660  23.697  27.815  1.00  0.00    -0.014 A 
ATOM     71  C   UNL A   1      43.032  23.505  26.473  1.00  0.00     0.010 A 
ATOM     72  C   UNL A   1      42.202  22.595  28.561  1.00  0.00     0.010 A 
ATOM     73  C   UNL A   1      42.933  22.240  25.883  1.00  0.00     0.020 A 
ATOM     74  C   UNL A   1      42.127  21.325  27.982  1.00  0.00     0.020 A 
ATOM     75  C   UNL A   1      42.484  21.158  26.643  1.00  0.00     0.054 A 
BRANCH  75  76
ATOM     76  S   UNL A   1      42.415  19.515  25.872  1.00  0.00     0.124 S 
ATOM     77  O   UNL A   1      42.794  18.644  26.979  1.00  0.00    -0.237 OA
ATOM     78  O   UNL A   1      41.022  19.426  25.443  1.00  0.00    -0.237 OA
ATOM     79  O   UNL A   1      43.388  19.608  24.785  1.00  0.00    -0.744 OA
ENDBRANCH  75  76
ENDBRANCH  47  70
BRANCH  59  80
ATOM     80  C   UNL A   1      47.849  27.163  30.950  1.00  0.00    -0.014 A 
ATOM     81  C   UNL A   1      48.149  26.446  32.120  1.00  0.00     0.010 A 
ATOM     82  C   UNL A   1      48.881  27.465  30.043  1.00  0.00     0.010 A 
ATOM     83  C   UNL A   1      49.463  26.050  32.387  1.00  0.00     0.020 A 
ATOM     84  C   UNL A   1      50.191  27.047  30.293  1.00  0.00     0.020 A 
ATOM     85  C   UNL A   1      50.474  26.350  31.468  1.00  0.00     0.054 A 
BRANCH  85  86
ATOM     86  S   UNL A   1      52.158  25.764  31.803  1.00  0.00     0.124 S 
ATOM     87  O   UNL A   1      52.583  26.659  32.875  1.00  0.00    -0.237 OA
ATOM     88  O   UNL A   1      51.942  24.373  32.193  1.00  0.00    -0.237 OA
ATOM     89  O   UNL A   1      52.849  25.948  30.528  1.00  0.00    -0.744 OA
ENDBRANCH  85  86
ENDBRANCH  59  80
ENDBRANCH  33  34
ENDBRANCH  25  28
ENDBRANCH  23  24
ENDBRANCH   1  23
TORSDOF 15
ENDMDL
