MODEL 1
REMARK VINA RESULT:     -12.0      0.000      0.000
REMARK SMILES Cc1cccc(NC(=O)C[C@@H]2CCCCO2)c1C(=O)NCCCNC(=O)c1ccc(-c2c3nc(c(-c4ccc(S(=O)(=O)[O-])cc4)c4ccc([nH]4)c(-c4ccc(S(=O)(=O)[O-])cc4)c4nc(c(-c5ccc(S(=O)(=O)[O-])cc5)c5ccc2[nH]5)C=C4)C=C3)cc1
REMARK SMILES IDX 22 1 21 2 20 3 18 4 19 5 17 7 1 8 2 9 3 10 4 11 6 12 5 13
REMARK SMILES IDX 7 14 8 15 9 17 10 18 11 19 12 20 16 21 13 22 15 23 14 24
REMARK SMILES IDX 23 25 24 26 25 27 26 29 27 30 28 31 86 32 29 33 85 34 30 35
REMARK SMILES IDX 31 36 32 37 79 38 33 39 84 40 78 41 80 42 34 43 83 44 77 45
REMARK SMILES IDX 76 46 35 48 65 49 46 50 64 51 47 52 50 53 63 54 81 55 48 56
REMARK SMILES IDX 49 57 62 59 82 60 51 61 36 62 37 63 45 64 38 65 44 66 39 67
REMARK SMILES IDX 40 68 41 69 42 70 43 71 66 72 67 73 75 74 68 75 74 76 69 77
REMARK SMILES IDX 70 78 71 79 72 80 73 81 52 82 53 83 61 84 54 85 60 86 55 87
REMARK SMILES IDX 56 88 57 89 58 90 59 91
REMARK H PARENT 20 6 7 16 24 28 80 47 50 58
REMARK Flexibility Score: inf
ROOT
ATOM      1  C   UNL A   1      33.477  26.245  25.554  1.00  0.00     0.042 C 
ENDROOT
BRANCH   1   2
ATOM      2  C   UNL A   1      34.490  25.049  25.979  1.00  0.00     0.118 C 
BRANCH   2   3
ATOM      3  N   UNL A   1      35.334  24.415  24.927  1.00  0.00    -0.352 N 
ATOM      4  C   UNL A   1      35.137  23.514  23.895  1.00  0.00     0.253 C 
ATOM      5  O   UNL A   1      35.950  23.334  22.992  1.00  0.00    -0.269 OA
ATOM      6  H   UNL A   1      36.272  24.712  24.980  1.00  0.00     0.163 HD
BRANCH   4   7
ATOM      7  C   UNL A   1      33.869  22.769  23.840  1.00  0.00     0.066 A 
ATOM      8  C   UNL A   1      34.944  20.672  24.781  1.00  0.00     0.045 C 
ATOM      9  C   UNL A   1      33.752  21.566  24.550  1.00  0.00    -0.036 A 
ATOM     10  C   UNL A   1      32.476  21.133  24.909  1.00  0.00     0.004 A 
ATOM     11  C   UNL A   1      31.356  21.811  24.431  1.00  0.00     0.002 A 
ATOM     12  C   UNL A   1      32.782  23.198  23.054  1.00  0.00     0.054 A 
ATOM     13  C   UNL A   1      31.508  22.797  23.452  1.00  0.00     0.027 A 
BRANCH  12  14
ATOM     14  N   UNL A   1      33.015  23.848  21.811  1.00  0.00    -0.325 N 
ATOM     15  C   UNL A   1      32.784  25.160  21.441  1.00  0.00     0.227 C 
ATOM     16  H   UNL A   1      33.398  23.276  21.107  1.00  0.00     0.169 HD
ATOM     17  O   UNL A   1      33.032  25.516  20.283  1.00  0.00    -0.275 OA
BRANCH  15  18
ATOM     18  C   UNL A   1      32.231  26.193  22.415  1.00  0.00     0.132 C 
BRANCH  18  19
ATOM     19  C   UNL A   1      31.727  27.534  21.832  1.00  0.00     0.127 C 
ATOM     20  C   UNL A   1      32.526  28.723  22.399  1.00  0.00     0.033 C 
ATOM     21  O   UNL A   1      30.341  27.839  21.981  1.00  0.00    -0.378 OA
ATOM     22  C   UNL A   1      32.200  28.966  23.872  1.00  0.00     0.005 C 
ATOM     23  C   UNL A   1      29.902  28.062  23.309  1.00  0.00     0.160 C 
ATOM     24  C   UNL A   1      30.698  29.110  24.073  1.00  0.00     0.029 C 
ENDBRANCH  18  19
ENDBRANCH  15  18
ENDBRANCH  12  14
ENDBRANCH   4   7
ENDBRANCH   2   3
ENDBRANCH   1   2
BRANCH   1  25
ATOM     25  C   UNL A   1      32.413  26.659  26.671  1.00  0.00     0.118 C 
BRANCH  25  26
ATOM     26  N   UNL A   1      32.350  27.969  27.536  1.00  0.00    -0.352 N 
ATOM     27  C   UNL A   1      32.785  29.362  27.347  1.00  0.00     0.251 C 
ATOM     28  H   UNL A   1      31.920  27.823  28.409  1.00  0.00     0.163 HD
ATOM     29  O   UNL A   1      31.836  30.156  27.208  1.00  0.00    -0.269 OA
BRANCH  27  30
ATOM     30  C   UNL A   1      34.213  30.092  27.386  1.00  0.00     0.039 A 
ATOM     31  C   UNL A   1      35.381  29.470  26.827  1.00  0.00     0.014 A 
ATOM     32  C   UNL A   1      34.520  31.294  28.014  1.00  0.00     0.014 A 
ATOM     33  C   UNL A   1      36.715  29.712  27.375  1.00  0.00     0.010 A 
ATOM     34  C   UNL A   1      35.829  31.531  28.567  1.00  0.00     0.010 A 
ATOM     35  C   UNL A   1      36.868  30.591  28.467  1.00  0.00    -0.014 A 
BRANCH  35  36
ATOM     36  C   UNL A   1      37.819  30.353  29.663  1.00  0.00     0.031 A 
ATOM     37  C   UNL A   1      37.637  31.102  30.897  1.00  0.00     0.074 A 
ATOM     38  C   UNL A   1      38.796  29.404  29.859  1.00  0.00     0.049 A 
ATOM     39  N   UNL A   1      38.545  31.811  31.484  1.00  0.00    -0.248 NA
ATOM     40  C   UNL A   1      36.381  30.984  31.615  1.00  0.00     0.031 C 
ATOM     41  C   UNL A   1      39.663  29.031  30.998  1.00  0.00     0.029 A 
ATOM     42  N   UNL A   1      39.229  28.439  28.982  1.00  0.00    -0.354 N 
ATOM     43  C   UNL A   1      38.093  31.955  32.779  1.00  0.00     0.074 A 
ATOM     44  C   UNL A   1      36.672  31.655  32.728  1.00  0.00     0.031 C 
ATOM     45  C   UNL A   1      40.696  28.264  30.558  1.00  0.00     0.029 A 
ATOM     46  C   UNL A   1      40.576  28.142  29.118  1.00  0.00     0.049 A 
ATOM     47  H   UNL A   1      38.642  28.002  28.323  1.00  0.00     0.167 HD
ATOM     48  C   UNL A   1      38.942  31.959  33.850  1.00  0.00     0.031 A 
ATOM     49  C   UNL A   1      41.448  28.487  28.111  1.00  0.00     0.031 A 
ATOM     50  C   UNL A   1      40.313  31.548  33.492  1.00  0.00     0.049 A 
ATOM     51  C   UNL A   1      42.318  29.619  28.569  1.00  0.00     0.074 A 
ATOM     52  C   UNL A   1      41.073  30.430  33.819  1.00  0.00     0.029 A 
ATOM     53  N   UNL A   1      40.991  32.159  32.440  1.00  0.00    -0.354 N 
ATOM     54  N   UNL A   1      42.213  30.155  29.746  1.00  0.00    -0.248 NA
ATOM     55  C   UNL A   1      43.325  30.281  27.755  1.00  0.00     0.031 C 
ATOM     56  C   UNL A   1      42.187  30.363  32.934  1.00  0.00     0.029 A 
ATOM     57  C   UNL A   1      42.136  31.457  32.091  1.00  0.00     0.049 A 
ATOM     58  H   UNL A   1      40.694  32.987  31.999  1.00  0.00     0.167 HD
ATOM     59  C   UNL A   1      43.042  31.220  29.872  1.00  0.00     0.074 A 
ATOM     60  C   UNL A   1      43.749  31.240  28.600  1.00  0.00     0.031 C 
ATOM     61  C   UNL A   1      43.016  31.960  31.022  1.00  0.00     0.031 A 
BRANCH  48  62
ATOM     62  C   UNL A   1      38.423  32.012  35.282  1.00  0.00    -0.014 A 
ATOM     63  C   UNL A   1      38.350  30.856  36.083  1.00  0.00     0.010 A 
ATOM     64  C   UNL A   1      38.041  33.215  35.916  1.00  0.00     0.010 A 
ATOM     65  C   UNL A   1      37.847  30.890  37.398  1.00  0.00     0.020 A 
ATOM     66  C   UNL A   1      37.471  33.258  37.194  1.00  0.00     0.020 A 
ATOM     67  C   UNL A   1      37.391  32.092  37.939  1.00  0.00     0.054 A 
BRANCH  67  68
ATOM     68  S   UNL A   1      36.777  32.140  39.644  1.00  0.00     0.124 S 
ATOM     69  O   UNL A   1      37.435  33.323  40.191  1.00  0.00    -0.237 OA
ATOM     70  O   UNL A   1      35.334  32.251  39.451  1.00  0.00    -0.237 OA
ATOM     71  O   UNL A   1      37.226  30.868  40.211  1.00  0.00    -0.744 OA
ENDBRANCH  67  68
ENDBRANCH  48  62
BRANCH  49  72
ATOM     72  C   UNL A   1      40.941  28.343  26.651  1.00  0.00    -0.014 A 
ATOM     73  C   UNL A   1      41.867  28.759  25.672  1.00  0.00     0.010 A 
ATOM     74  C   UNL A   1      40.378  27.102  26.413  1.00  0.00     0.010 A 
ATOM     75  C   UNL A   1      42.757  27.819  25.126  1.00  0.00     0.020 A 
ATOM     76  C   UNL A   1      41.289  26.173  25.883  1.00  0.00     0.020 A 
ATOM     77  C   UNL A   1      42.543  26.486  25.411  1.00  0.00     0.054 A 
BRANCH  77  78
ATOM     78  S   UNL A   1      44.063  25.164  25.628  1.00  0.00     0.124 S 
ATOM     79  O   UNL A   1      44.164  25.167  27.081  1.00  0.00    -0.237 OA
ATOM     80  O   UNL A   1      43.597  23.900  25.119  1.00  0.00    -0.237 OA
ATOM     81  O   UNL A   1      45.227  25.709  24.949  1.00  0.00    -0.744 OA
ENDBRANCH  77  78
ENDBRANCH  49  72
BRANCH  61  82
ATOM     82  C   UNL A   1      43.814  33.205  31.308  1.00  0.00    -0.014 A 
ATOM     83  C   UNL A   1      45.046  33.242  31.971  1.00  0.00     0.010 A 
ATOM     84  C   UNL A   1      43.299  34.450  30.868  1.00  0.00     0.010 A 
ATOM     85  C   UNL A   1      45.733  34.443  32.171  1.00  0.00     0.020 A 
ATOM     86  C   UNL A   1      43.985  35.652  31.033  1.00  0.00     0.020 A 
ATOM     87  C   UNL A   1      45.202  35.638  31.693  1.00  0.00     0.054 A 
BRANCH  87  88
ATOM     88  S   UNL A   1      46.136  37.159  31.941  1.00  0.00     0.124 S 
ATOM     89  O   UNL A   1      45.831  37.905  30.722  1.00  0.00    -0.237 OA
ATOM     90  O   UNL A   1      45.542  37.691  33.166  1.00  0.00    -0.237 OA
ATOM     91  O   UNL A   1      47.519  36.707  32.067  1.00  0.00    -0.744 OA
ENDBRANCH  87  88
ENDBRANCH  61  82
ENDBRANCH  35  36
ENDBRANCH  27  30
ENDBRANCH  25  26
ENDBRANCH   1  25
TORSDOF 16
ENDMDL
MODEL 2
REMARK VINA RESULT:     -11.9      7.027     15.113
REMARK SMILES Cc1cccc(NC(=O)C[C@@H]2CCCCO2)c1C(=O)NCCCNC(=O)c1ccc(-c2c3nc(c(-c4ccc(S(=O)(=O)[O-])cc4)c4ccc([nH]4)c(-c4ccc(S(=O)(=O)[O-])cc4)c4nc(c(-c5ccc(S(=O)(=O)[O-])cc5)c5ccc2[nH]5)C=C4)C=C3)cc1
REMARK SMILES IDX 22 1 21 2 20 3 18 4 19 5 17 7 1 8 2 9 3 10 4 11 6 12 5 13
REMARK SMILES IDX 7 14 8 15 9 17 10 18 11 19 12 20 16 21 13 22 15 23 14 24
REMARK SMILES IDX 23 25 24 26 25 27 26 29 27 30 28 31 86 32 29 33 85 34 30 35
REMARK SMILES IDX 31 36 32 37 79 38 33 39 84 40 78 41 80 42 34 43 83 44 77 45
REMARK SMILES IDX 76 46 35 48 65 49 46 50 64 51 47 52 50 53 63 54 81 55 48 56
REMARK SMILES IDX 49 57 62 59 82 60 51 61 36 62 37 63 45 64 38 65 44 66 39 67
REMARK SMILES IDX 40 68 41 69 42 70 43 71 66 72 67 73 75 74 68 75 74 76 69 77
REMARK SMILES IDX 70 78 71 79 72 80 73 81 52 82 53 83 61 84 54 85 60 86 55 87
REMARK SMILES IDX 56 88 57 89 58 90 59 91
REMARK H PARENT 20 6 7 16 24 28 80 47 50 58
REMARK Flexibility Score: inf
ROOT
ATOM      1  C   UNL A   1      42.481  40.214  26.252  1.00  0.00     0.042 C 
ENDROOT
BRANCH   1   2
ATOM      2  C   UNL A   1      43.270  41.290  25.327  1.00  0.00     0.118 C 
BRANCH   2   3
ATOM      3  N   UNL A   1      42.478  42.243  24.500  1.00  0.00    -0.352 N 
ATOM      4  C   UNL A   1      42.700  43.010  23.368  1.00  0.00     0.253 C 
ATOM      5  O   UNL A   1      41.797  43.533  22.720  1.00  0.00    -0.269 OA
ATOM      6  H   UNL A   1      41.563  42.358  24.846  1.00  0.00     0.163 HD
BRANCH   4   7
ATOM      7  C   UNL A   1      44.080  43.168  22.881  1.00  0.00     0.066 A 
ATOM      8  C   UNL A   1      44.487  45.174  24.379  1.00  0.00     0.045 C 
ATOM      9  C   UNL A   1      44.970  43.977  23.600  1.00  0.00    -0.036 A 
ATOM     10  C   UNL A   1      46.337  43.746  23.454  1.00  0.00     0.004 A 
ATOM     11  C   UNL A   1      46.787  42.835  22.500  1.00  0.00     0.002 A 
ATOM     12  C   UNL A   1      44.524  42.572  21.685  1.00  0.00     0.054 A 
ATOM     13  C   UNL A   1      45.887  42.302  21.573  1.00  0.00     0.027 A 
BRANCH  12  14
ATOM     14  N   UNL A   1      43.635  42.437  20.584  1.00  0.00    -0.325 N 
ATOM     15  C   UNL A   1      43.196  43.385  19.678  1.00  0.00     0.227 C 
ATOM     16  H   UNL A   1      43.278  41.529  20.445  1.00  0.00     0.169 HD
ATOM     17  O   UNL A   1      42.385  43.057  18.803  1.00  0.00    -0.275 OA
BRANCH  15  18
ATOM     18  C   UNL A   1      43.676  44.830  19.720  1.00  0.00     0.132 C 
BRANCH  18  19
ATOM     19  C   UNL A   1      45.071  45.142  19.128  1.00  0.00     0.127 C 
ATOM     20  C   UNL A   1      46.019  45.703  20.205  1.00  0.00     0.033 C 
ATOM     21  O   UNL A   1      45.129  46.020  18.006  1.00  0.00    -0.378 OA
ATOM     22  C   UNL A   1      45.617  47.116  20.625  1.00  0.00     0.005 C 
ATOM     23  C   UNL A   1      44.754  47.363  18.256  1.00  0.00     0.160 C 
ATOM     24  C   UNL A   1      45.495  48.024  19.409  1.00  0.00     0.029 C 
ENDBRANCH  18  19
ENDBRANCH  15  18
ENDBRANCH  12  14
ENDBRANCH   4   7
ENDBRANCH   2   3
ENDBRANCH   1   2
BRANCH   1  25
ATOM     25  C   UNL A   1      43.405  39.112  26.946  1.00  0.00     0.118 C 
BRANCH  25  26
ATOM     26  N   UNL A   1      43.643  37.617  26.524  1.00  0.00    -0.352 N 
ATOM     27  C   UNL A   1      43.123  36.315  26.970  1.00  0.00     0.251 C 
ATOM     28  H   UNL A   1      44.293  37.532  25.789  1.00  0.00     0.163 HD
ATOM     29  O   UNL A   1      42.373  35.775  26.136  1.00  0.00    -0.269 OA
BRANCH  27  30
ATOM     30  C   UNL A   1      43.397  35.394  28.255  1.00  0.00     0.039 A 
ATOM     31  C   UNL A   1      44.400  34.366  28.233  1.00  0.00     0.014 A 
ATOM     32  C   UNL A   1      42.683  35.390  29.448  1.00  0.00     0.014 A 
ATOM     33  C   UNL A   1      44.262  33.142  29.023  1.00  0.00     0.010 A 
ATOM     34  C   UNL A   1      42.533  34.185  30.221  1.00  0.00     0.010 A 
ATOM     35  C   UNL A   1      43.129  32.970  29.842  1.00  0.00    -0.014 A 
BRANCH  35  36
ATOM     36  C   UNL A   1      42.358  31.640  30.011  1.00  0.00     0.031 A 
ATOM     37  C   UNL A   1      42.367  30.653  28.942  1.00  0.00     0.074 A 
ATOM     38  C   UNL A   1      41.725  31.101  31.107  1.00  0.00     0.049 A 
ATOM     39  N   UNL A   1      41.318  30.141  28.385  1.00  0.00    -0.248 NA
ATOM     40  C   UNL A   1      43.635  30.094  28.510  1.00  0.00     0.031 C 
ATOM     41  C   UNL A   1      41.070  29.805  31.393  1.00  0.00     0.029 A 
ATOM     42  N   UNL A   1      41.560  31.661  32.352  1.00  0.00    -0.354 N 
ATOM     43  C   UNL A   1      41.771  28.986  27.783  1.00  0.00     0.074 A 
ATOM     44  C   UNL A   1      43.211  29.145  27.677  1.00  0.00     0.031 C 
ATOM     45  C   UNL A   1      40.297  29.915  32.505  1.00  0.00     0.029 A 
ATOM     46  C   UNL A   1      40.375  31.288  32.965  1.00  0.00     0.049 A 
ATOM     47  H   UNL A   1      42.217  32.267  32.765  1.00  0.00     0.167 HD
ATOM     48  C   UNL A   1      41.016  27.847  27.733  1.00  0.00     0.031 A 
ATOM     49  C   UNL A   1      39.389  32.229  33.158  1.00  0.00     0.031 A 
ATOM     50  C   UNL A   1      39.817  27.919  28.590  1.00  0.00     0.049 A 
ATOM     51  C   UNL A   1      38.241  31.946  32.235  1.00  0.00     0.074 A 
ATOM     52  C   UNL A   1      39.449  27.242  29.748  1.00  0.00     0.029 A 
ATOM     53  N   UNL A   1      38.934  28.991  28.494  1.00  0.00    -0.354 N 
ATOM     54  N   UNL A   1      38.240  30.953  31.399  1.00  0.00    -0.248 NA
ATOM     55  C   UNL A   1      37.041  32.759  32.121  1.00  0.00     0.031 C 
ATOM     56  C   UNL A   1      38.364  27.936  30.356  1.00  0.00     0.029 A 
ATOM     57  C   UNL A   1      38.038  29.015  29.554  1.00  0.00     0.049 A 
ATOM     58  H   UNL A   1      38.943  29.651  27.764  1.00  0.00     0.167 HD
ATOM     59  C   UNL A   1      37.134  30.979  30.614  1.00  0.00     0.074 A 
ATOM     60  C   UNL A   1      36.391  32.119  31.130  1.00  0.00     0.031 C 
ATOM     61  C   UNL A   1      36.995  30.051  29.620  1.00  0.00     0.031 A 
BRANCH  48  62
ATOM     62  C   UNL A   1      41.567  26.547  27.160  1.00  0.00    -0.014 A 
ATOM     63  C   UNL A   1      41.975  25.487  27.993  1.00  0.00     0.010 A 
ATOM     64  C   UNL A   1      41.652  26.294  25.772  1.00  0.00     0.010 A 
ATOM     65  C   UNL A   1      42.509  24.293  27.474  1.00  0.00     0.020 A 
ATOM     66  C   UNL A   1      42.248  25.145  25.239  1.00  0.00     0.020 A 
ATOM     67  C   UNL A   1      42.662  24.138  26.097  1.00  0.00     0.054 A 
BRANCH  67  68
ATOM     68  S   UNL A   1      43.317  22.585  25.430  1.00  0.00     0.124 S 
ATOM     69  O   UNL A   1      43.463  22.881  24.007  1.00  0.00    -0.237 OA
ATOM     70  O   UNL A   1      44.564  22.431  26.174  1.00  0.00    -0.237 OA
ATOM     71  O   UNL A   1      42.282  21.603  25.752  1.00  0.00    -0.744 OA
ENDBRANCH  67  68
ENDBRANCH  48  62
BRANCH  49  72
ATOM     72  C   UNL A   1      39.840  33.665  33.536  1.00  0.00    -0.014 A 
ATOM     73  C   UNL A   1      38.788  34.521  33.920  1.00  0.00     0.010 A 
ATOM     74  C   UNL A   1      40.920  33.663  34.402  1.00  0.00     0.010 A 
ATOM     75  C   UNL A   1      38.435  34.609  35.277  1.00  0.00     0.020 A 
ATOM     76  C   UNL A   1      40.544  33.736  35.753  1.00  0.00     0.020 A 
ATOM     77  C   UNL A   1      39.275  34.022  36.201  1.00  0.00     0.054 A 
BRANCH  77  78
ATOM     78  S   UNL A   1      38.587  33.166  37.903  1.00  0.00     0.124 S 
ATOM     79  O   UNL A   1      38.474  34.359  38.731  1.00  0.00    -0.237 OA
ATOM     80  O   UNL A   1      37.301  32.595  37.596  1.00  0.00    -0.237 OA
ATOM     81  O   UNL A   1      39.587  32.215  38.361  1.00  0.00    -0.744 OA
ENDBRANCH  77  78
ENDBRANCH  49  72
BRANCH  61  82
ATOM     82  C   UNL A   1      35.872  29.970  28.618  1.00  0.00    -0.014 A 
ATOM     83  C   UNL A   1      35.754  29.005  27.612  1.00  0.00     0.010 A 
ATOM     84  C   UNL A   1      34.835  30.935  28.690  1.00  0.00     0.010 A 
ATOM     85  C   UNL A   1      34.662  28.989  26.739  1.00  0.00     0.020 A 
ATOM     86  C   UNL A   1      33.725  30.914  27.847  1.00  0.00     0.020 A 
ATOM     87  C   UNL A   1      33.651  29.938  26.868  1.00  0.00     0.054 A 
BRANCH  87  88
ATOM     88  S   UNL A   1      32.244  29.861  25.746  1.00  0.00     0.124 S 
ATOM     89  O   UNL A   1      31.672  31.199  25.883  1.00  0.00    -0.237 OA
ATOM     90  O   UNL A   1      32.886  29.583  24.462  1.00  0.00    -0.237 OA
ATOM     91  O   UNL A   1      31.426  28.774  26.279  1.00  0.00    -0.744 OA
ENDBRANCH  87  88
ENDBRANCH  61  82
ENDBRANCH  35  36
ENDBRANCH  27  30
ENDBRANCH  25  26
ENDBRANCH   1  25
TORSDOF 16
ENDMDL
MODEL 3
REMARK VINA RESULT:     -11.6      4.996      7.087
REMARK SMILES Cc1cccc(NC(=O)C[C@@H]2CCCCO2)c1C(=O)NCCCNC(=O)c1ccc(-c2c3nc(c(-c4ccc(S(=O)(=O)[O-])cc4)c4ccc([nH]4)c(-c4ccc(S(=O)(=O)[O-])cc4)c4nc(c(-c5ccc(S(=O)(=O)[O-])cc5)c5ccc2[nH]5)C=C4)C=C3)cc1
REMARK SMILES IDX 22 1 21 2 20 3 18 4 19 5 17 7 1 8 2 9 3 10 4 11 6 12 5 13
REMARK SMILES IDX 7 14 8 15 9 17 10 18 11 19 12 20 16 21 13 22 15 23 14 24
REMARK SMILES IDX 23 25 24 26 25 27 26 29 27 30 28 31 86 32 29 33 85 34 30 35
REMARK SMILES IDX 31 36 32 37 79 38 33 39 84 40 78 41 80 42 34 43 83 44 77 45
REMARK SMILES IDX 76 46 35 48 65 49 46 50 64 51 47 52 50 53 63 54 81 55 48 56
REMARK SMILES IDX 49 57 62 59 82 60 51 61 36 62 37 63 45 64 38 65 44 66 39 67
REMARK SMILES IDX 40 68 41 69 42 70 43 71 66 72 67 73 75 74 68 75 74 76 69 77
REMARK SMILES IDX 70 78 71 79 72 80 73 81 52 82 53 83 61 84 54 85 60 86 55 87
REMARK SMILES IDX 56 88 57 89 58 90 59 91
REMARK H PARENT 20 6 7 16 24 28 80 47 50 58
REMARK Flexibility Score: inf
ROOT
ATOM      1  C   UNL A   1      34.790  24.754  24.751  1.00  0.00     0.042 C 
ENDROOT
BRANCH   1   2
ATOM      2  C   UNL A   1      34.419  24.132  23.298  1.00  0.00     0.118 C 
BRANCH   2   3
ATOM      3  N   UNL A   1      33.000  23.775  23.011  1.00  0.00    -0.352 N 
ATOM      4  C   UNL A   1      31.963  23.166  23.698  1.00  0.00     0.253 C 
ATOM      5  O   UNL A   1      30.792  23.212  23.331  1.00  0.00    -0.269 OA
ATOM      6  H   UNL A   1      32.732  24.039  22.101  1.00  0.00     0.163 HD
BRANCH   4   7
ATOM      7  C   UNL A   1      32.263  22.473  24.961  1.00  0.00     0.066 A 
ATOM      8  C   UNL A   1      32.598  20.253  23.781  1.00  0.00     0.045 C 
ATOM      9  C   UNL A   1      32.859  21.206  24.921  1.00  0.00    -0.036 A 
ATOM     10  C   UNL A   1      33.578  20.778  26.036  1.00  0.00     0.004 A 
ATOM     11  C   UNL A   1      33.562  21.540  27.203  1.00  0.00     0.002 A 
ATOM     12  C   UNL A   1      31.924  23.020  26.214  1.00  0.00     0.054 A 
ATOM     13  C   UNL A   1      32.683  22.621  27.312  1.00  0.00     0.027 A 
BRANCH  12  14
ATOM     14  N   UNL A   1      30.740  23.794  26.356  1.00  0.00    -0.325 N 
ATOM     15  C   UNL A   1      30.564  25.164  26.298  1.00  0.00     0.227 C 
ATOM     16  H   UNL A   1      29.920  23.274  26.522  1.00  0.00     0.169 HD
ATOM     17  O   UNL A   1      29.437  25.640  26.484  1.00  0.00    -0.275 OA
BRANCH  15  18
ATOM     18  C   UNL A   1      31.716  26.118  26.011  1.00  0.00     0.132 C 
BRANCH  18  19
ATOM     19  C   UNL A   1      31.367  27.527  25.475  1.00  0.00     0.127 C 
ATOM     20  C   UNL A   1      30.913  27.467  24.005  1.00  0.00     0.033 C 
ATOM     21  O   UNL A   1      32.371  28.537  25.573  1.00  0.00    -0.378 OA
ATOM     22  C   UNL A   1      32.078  27.138  23.071  1.00  0.00     0.005 C 
ATOM     23  C   UNL A   1      33.522  28.337  24.771  1.00  0.00     0.160 C 
ATOM     24  C   UNL A   1      33.235  28.101  23.296  1.00  0.00     0.029 C 
ENDBRANCH  18  19
ENDBRANCH  15  18
ENDBRANCH  12  14
ENDBRANCH   4   7
ENDBRANCH   2   3
ENDBRANCH   1   2
BRANCH   1  25
ATOM     25  C   UNL A   1      35.848  23.907  25.598  1.00  0.00     0.118 C 
BRANCH  25  26
ATOM     26  N   UNL A   1      37.405  23.809  25.415  1.00  0.00    -0.352 N 
ATOM     27  C   UNL A   1      38.568  23.946  26.306  1.00  0.00     0.251 C 
ATOM     28  H   UNL A   1      37.663  23.607  24.486  1.00  0.00     0.163 HD
ATOM     29  O   UNL A   1      39.153  22.868  26.517  1.00  0.00    -0.269 OA
BRANCH  27  30
ATOM     30  C   UNL A   1      39.305  25.202  26.980  1.00  0.00     0.039 A 
ATOM     31  C   UNL A   1      40.242  25.999  26.239  1.00  0.00     0.014 A 
ATOM     32  C   UNL A   1      39.226  25.602  28.310  1.00  0.00     0.014 A 
ATOM     33  C   UNL A   1      41.371  26.662  26.894  1.00  0.00     0.010 A 
ATOM     34  C   UNL A   1      40.339  26.242  28.961  1.00  0.00     0.010 A 
ATOM     35  C   UNL A   1      41.537  26.534  28.287  1.00  0.00    -0.014 A 
BRANCH  35  36
ATOM     36  C   UNL A   1      42.897  26.335  28.997  1.00  0.00     0.031 A 
ATOM     37  C   UNL A   1      43.373  27.328  29.949  1.00  0.00     0.074 A 
ATOM     38  C   UNL A   1      43.752  25.257  29.014  1.00  0.00     0.049 A 
ATOM     39  N   UNL A   1      44.517  27.930  29.894  1.00  0.00    -0.248 NA
ATOM     40  C   UNL A   1      42.574  27.617  31.125  1.00  0.00     0.031 C 
ATOM     41  C   UNL A   1      44.998  24.936  29.744  1.00  0.00     0.029 A 
ATOM     42  N   UNL A   1      43.638  24.073  28.327  1.00  0.00    -0.354 N 
ATOM     43  C   UNL A   1      44.718  28.411  31.171  1.00  0.00     0.074 A 
ATOM     44  C   UNL A   1      43.406  28.413  31.795  1.00  0.00     0.031 C 
ATOM     45  C   UNL A   1      45.634  23.900  29.136  1.00  0.00     0.029 A 
ATOM     46  C   UNL A   1      44.862  23.531  27.965  1.00  0.00     0.049 A 
ATOM     47  H   UNL A   1      42.774  23.652  28.113  1.00  0.00     0.167 HD
ATOM     48  C   UNL A   1      45.957  28.442  31.750  1.00  0.00     0.031 A 
ATOM     49  C   UNL A   1      45.212  23.485  26.635  1.00  0.00     0.031 A 
ATOM     50  C   UNL A   1      46.966  27.691  30.978  1.00  0.00     0.049 A 
ATOM     51  C   UNL A   1      46.308  24.475  26.373  1.00  0.00     0.074 A 
ATOM     52  C   UNL A   1      47.671  26.522  31.244  1.00  0.00     0.029 A 
ATOM     53  N   UNL A   1      47.151  27.932  29.619  1.00  0.00    -0.354 N 
ATOM     54  N   UNL A   1      46.804  25.237  27.299  1.00  0.00    -0.248 NA
ATOM     55  C   UNL A   1      46.898  24.742  25.071  1.00  0.00     0.031 C 
ATOM     56  C   UNL A   1      48.249  26.053  30.029  1.00  0.00     0.029 A 
ATOM     57  C   UNL A   1      47.934  26.951  29.026  1.00  0.00     0.049 A 
ATOM     58  H   UNL A   1      46.774  28.704  29.138  1.00  0.00     0.167 HD
ATOM     59  C   UNL A   1      47.705  26.108  26.782  1.00  0.00     0.074 A 
ATOM     60  C   UNL A   1      47.756  25.734  25.377  1.00  0.00     0.031 C 
ATOM     61  C   UNL A   1      48.280  27.043  27.597  1.00  0.00     0.031 A 
BRANCH  48  62
ATOM     62  C   UNL A   1      46.152  28.877  33.197  1.00  0.00    -0.014 A 
ATOM     63  C   UNL A   1      46.135  27.947  34.255  1.00  0.00     0.010 A 
ATOM     64  C   UNL A   1      46.419  30.214  33.568  1.00  0.00     0.010 A 
ATOM     65  C   UNL A   1      46.288  28.342  35.597  1.00  0.00     0.020 A 
ATOM     66  C   UNL A   1      46.501  30.635  34.900  1.00  0.00     0.020 A 
ATOM     67  C   UNL A   1      46.450  29.691  35.913  1.00  0.00     0.054 A 
BRANCH  67  68
ATOM     68  S   UNL A   1      46.683  30.193  37.639  1.00  0.00     0.124 S 
ATOM     69  O   UNL A   1      47.684  29.245  38.119  1.00  0.00    -0.237 OA
ATOM     70  O   UNL A   1      47.135  31.574  37.503  1.00  0.00    -0.237 OA
ATOM     71  O   UNL A   1      45.354  30.035  38.230  1.00  0.00    -0.744 OA
ENDBRANCH  67  68
ENDBRANCH  48  62
BRANCH  49  72
ATOM     72  C   UNL A   1      44.087  23.174  25.613  1.00  0.00    -0.014 A 
ATOM     73  C   UNL A   1      44.533  23.038  24.282  1.00  0.00     0.010 A 
ATOM     74  C   UNL A   1      43.257  22.153  26.044  1.00  0.00     0.010 A 
ATOM     75  C   UNL A   1      44.891  21.767  23.805  1.00  0.00     0.020 A 
ATOM     76  C   UNL A   1      43.643  20.889  25.568  1.00  0.00     0.020 A 
ATOM     77  C   UNL A   1      44.584  20.673  24.589  1.00  0.00     0.054 A 
BRANCH  77  78
ATOM     78  S   UNL A   1      45.765  19.028  24.667  1.00  0.00     0.124 S 
ATOM     79  O   UNL A   1      46.960  19.631  25.241  1.00  0.00    -0.237 OA
ATOM     80  O   UNL A   1      45.136  18.102  25.573  1.00  0.00    -0.237 OA
ATOM     81  O   UNL A   1      45.938  18.538  23.310  1.00  0.00    -0.744 OA
ENDBRANCH  77  78
ENDBRANCH  49  72
BRANCH  61  82
ATOM     82  C   UNL A   1      49.246  28.123  27.185  1.00  0.00    -0.014 A 
ATOM     83  C   UNL A   1      50.465  27.912  26.532  1.00  0.00     0.010 A 
ATOM     84  C   UNL A   1      48.905  29.471  27.462  1.00  0.00     0.010 A 
ATOM     85  C   UNL A   1      51.290  28.978  26.162  1.00  0.00     0.020 A 
ATOM     86  C   UNL A   1      49.702  30.547  27.072  1.00  0.00     0.020 A 
ATOM     87  C   UNL A   1      50.898  30.288  26.425  1.00  0.00     0.054 A 
BRANCH  87  88
ATOM     88  S   UNL A   1      51.973  31.635  25.900  1.00  0.00     0.124 S 
ATOM     89  O   UNL A   1      51.209  32.225  24.804  1.00  0.00    -0.237 OA
ATOM     90  O   UNL A   1      52.063  32.450  27.111  1.00  0.00    -0.237 OA
ATOM     91  O   UNL A   1      53.212  30.966  25.510  1.00  0.00    -0.744 OA
ENDBRANCH  87  88
ENDBRANCH  61  82
ENDBRANCH  35  36
ENDBRANCH  27  30
ENDBRANCH  25  26
ENDBRANCH   1  25
TORSDOF 16
ENDMDL
