MODEL 1
REMARK VINA RESULT:      -9.6      0.000      0.000
REMARK SMILES COc1cc(/C=C2/C(=O)N(c3ccccc3)C(=O)[NH+]=C2NCCCNC(=O)c2ccc(-c3c4nc(c(-c5ccc(S(=O)(=O)[O-])cc5)c5ccc([nH]5)c(-c5ccc(S(=O)(=O)[O-])cc5)c5nc(c(-c6ccc(S(=O)(=O)[O-])cc6)c6ccc3[nH]6)C=C5)C=C4)cc2)ccc1OCC(=O)[O-]
REMARK SMILES IDX 23 1 22 2 21 3 6 4 7 5 8 6 20 7 9 8 10 9 19 10 17 11 18 14
REMARK SMILES IDX 5 15 3 16 4 17 90 18 89 19 88 20 2 21 1 22 91 23 92 24 93 25
REMARK SMILES IDX 94 26 95 27 11 28 12 29 16 30 13 31 15 32 14 33 24 34 25 35
REMARK SMILES IDX 26 36 27 38 28 39 29 40 87 41 30 42 86 43 31 44 32 45 33 46
REMARK SMILES IDX 80 47 34 48 85 49 79 50 81 51 35 52 84 53 78 54 77 55 36 57
REMARK SMILES IDX 66 58 47 59 65 60 48 61 51 62 64 63 82 64 49 65 50 66 63 68
REMARK SMILES IDX 83 69 52 70 37 71 38 72 46 73 39 74 45 75 40 76 41 77 42 78
REMARK SMILES IDX 43 79 44 80 67 81 68 82 76 83 69 84 75 85 70 86 71 87 72 88
REMARK SMILES IDX 73 89 74 90 53 91 54 92 62 93 55 94 61 95 56 96 57 97 58 98
REMARK SMILES IDX 59 99 60 100
REMARK H PARENT 19 12 21 13 25 37 81 56 51 67
REMARK Flexibility Score: inf
ROOT
ATOM      1  C   UNL A   1      42.720  25.909  26.032  1.00  0.00     0.059 C 
ENDROOT
BRANCH   1   2
ATOM      2  C   UNL A   1      43.402  27.969  26.389  1.00  0.00     0.195 C 
BRANCH   2   3
ATOM      3  N   UNL A   1      42.892  29.051  27.471  1.00  0.00    -0.305 N 
ATOM      4  C   UNL A   1      45.682  30.020  26.778  1.00  0.00     0.030 C 
ATOM      5  C   UNL A   1      44.705  30.815  27.238  1.00  0.00     0.129 C 
ATOM      6  C   UNL A   1      44.846  32.281  27.256  1.00  0.00     0.328 C 
ATOM      7  C   UNL A   1      43.454  30.264  27.823  1.00  0.00     0.236 C 
ATOM      8  O   UNL A   1      45.581  32.852  26.455  1.00  0.00    -0.249 OA
ATOM      9  N   UNL A   1      44.113  32.872  28.273  1.00  0.00    -0.155 N 
ATOM     10  N   UNL A   1      42.869  30.923  28.780  1.00  0.00    -0.209 N 
ATOM     11  C   UNL A   1      43.426  32.108  29.216  1.00  0.00     0.448 C 
ATOM     12  H   UNL A   1      42.041  30.582  29.187  1.00  0.00     0.270 HD
ATOM     13  H   UNL A   1      42.063  28.814  27.948  1.00  0.00     0.256 HD
ATOM     14  O   UNL A   1      43.288  32.457  30.386  1.00  0.00    -0.212 OA
BRANCH   4  15
ATOM     15  C   UNL A   1      45.365  28.602  26.694  1.00  0.00    -0.021 A 
ATOM     16  C   UNL A   1      46.142  25.990  25.134  1.00  0.00     0.161 A 
ATOM     17  C   UNL A   1      45.577  27.704  25.104  1.00  0.00     0.058 A 
ATOM     18  C   UNL A   1      46.313  25.116  26.690  1.00  0.00     0.161 A 
ATOM     19  C   UNL A   1      46.031  25.977  28.244  1.00  0.00     0.051 A 
ATOM     20  C   UNL A   1      45.533  27.719  28.260  1.00  0.00     0.012 A 
BRANCH  16  21
ATOM     21  O   UNL A   1      47.013  25.493  24.188  1.00  0.00    -0.493 OA
ATOM     22  C   UNL A   1      48.349  25.956  24.199  1.00  0.00     0.278 C 
ENDBRANCH  16  21
BRANCH  18  23
ATOM     23  O   UNL A   1      46.635  23.795  26.816  1.00  0.00    -0.484 OA
BRANCH  23  24
ATOM     24  C   UNL A   1      45.684  22.752  26.670  1.00  0.00     0.282 C 
BRANCH  24  25
ATOM     25  C   UNL A   1      45.588  21.686  25.554  1.00  0.00     0.079 C 
ATOM     26  O   UNL A   1      46.562  21.215  24.982  1.00  0.00    -0.546 OA
ATOM     27  O   UNL A   1      44.340  21.349  25.189  1.00  0.00    -0.546 OA
ENDBRANCH  24  25
ENDBRANCH  23  24
ENDBRANCH  18  23
ENDBRANCH   4  15
BRANCH   9  28
ATOM     28  C   UNL A   1      44.232  34.272  28.450  1.00  0.00     0.111 A 
ATOM     29  C   UNL A   1      45.156  34.821  29.344  1.00  0.00     0.044 A 
ATOM     30  C   UNL A   1      43.405  35.114  27.696  1.00  0.00     0.044 A 
ATOM     31  C   UNL A   1      45.262  36.208  29.465  1.00  0.00     0.004 A 
ATOM     32  C   UNL A   1      43.491  36.497  27.846  1.00  0.00     0.004 A 
ATOM     33  C   UNL A   1      44.427  37.043  28.722  1.00  0.00     0.000 A 
ENDBRANCH   9  28
ENDBRANCH   2   3
ENDBRANCH   1   2
BRANCH   1  34
ATOM     34  C   UNL A   1      42.133  24.598  26.915  1.00  0.00     0.119 C 
BRANCH  34  35
ATOM     35  N   UNL A   1      40.764  24.206  26.578  1.00  0.00    -0.352 N 
ATOM     36  C   UNL A   1      39.513  24.729  26.725  1.00  0.00     0.251 C 
ATOM     37  H   UNL A   1      40.739  23.332  26.125  1.00  0.00     0.163 HD
ATOM     38  O   UNL A   1      38.587  24.137  26.176  1.00  0.00    -0.269 OA
BRANCH  36  39
ATOM     39  C   UNL A   1      39.258  25.910  27.557  1.00  0.00     0.039 A 
ATOM     40  C   UNL A   1      38.899  25.637  28.881  1.00  0.00     0.014 A 
ATOM     41  C   UNL A   1      39.488  27.219  27.133  1.00  0.00     0.014 A 
ATOM     42  C   UNL A   1      38.952  26.651  29.816  1.00  0.00     0.010 A 
ATOM     43  C   UNL A   1      39.611  28.221  28.073  1.00  0.00     0.010 A 
ATOM     44  C   UNL A   1      39.412  27.911  29.417  1.00  0.00    -0.014 A 
BRANCH  44  45
ATOM     45  C   UNL A   1      39.890  28.843  30.436  1.00  0.00     0.031 A 
ATOM     46  C   UNL A   1      41.284  28.737  30.931  1.00  0.00     0.074 A 
ATOM     47  C   UNL A   1      38.997  29.748  30.880  1.00  0.00     0.049 A 
ATOM     48  N   UNL A   1      41.936  29.569  31.687  1.00  0.00    -0.248 NA
ATOM     49  C   UNL A   1      42.038  27.533  30.544  1.00  0.00     0.031 C 
ATOM     50  C   UNL A   1      37.584  29.805  30.473  1.00  0.00     0.029 A 
ATOM     51  N   UNL A   1      39.137  30.807  31.727  1.00  0.00    -0.354 N 
ATOM     52  C   UNL A   1      43.191  29.004  31.854  1.00  0.00     0.074 A 
ATOM     53  C   UNL A   1      43.183  27.724  31.183  1.00  0.00     0.031 C 
ATOM     54  C   UNL A   1      37.014  30.894  31.006  1.00  0.00     0.029 A 
ATOM     55  C   UNL A   1      38.009  31.592  31.804  1.00  0.00     0.049 A 
ATOM     56  H   UNL A   1      39.960  30.990  32.235  1.00  0.00     0.167 HD
ATOM     57  C   UNL A   1      44.252  29.541  32.496  1.00  0.00     0.031 A 
ATOM     58  C   UNL A   1      37.830  32.774  32.419  1.00  0.00     0.031 A 
ATOM     59  C   UNL A   1      44.173  30.805  33.177  1.00  0.00     0.049 A 
ATOM     60  C   UNL A   1      39.030  33.363  33.100  1.00  0.00     0.074 A 
ATOM     61  C   UNL A   1      45.154  31.486  33.868  1.00  0.00     0.029 A 
ATOM     62  N   UNL A   1      43.014  31.577  33.254  1.00  0.00    -0.354 N 
ATOM     63  N   UNL A   1      40.247  32.869  33.185  1.00  0.00    -0.248 NA
ATOM     64  C   UNL A   1      38.853  34.664  33.748  1.00  0.00     0.031 C 
ATOM     65  C   UNL A   1      44.577  32.644  34.401  1.00  0.00     0.029 A 
ATOM     66  C   UNL A   1      43.250  32.717  33.995  1.00  0.00     0.049 A 
ATOM     67  H   UNL A   1      42.153  31.342  32.839  1.00  0.00     0.167 HD
ATOM     68  C   UNL A   1      40.989  33.804  33.886  1.00  0.00     0.074 A 
ATOM     69  C   UNL A   1      40.085  34.905  34.179  1.00  0.00     0.031 C 
ATOM     70  C   UNL A   1      42.293  33.767  34.263  1.00  0.00     0.031 A 
BRANCH  57  71
ATOM     71  C   UNL A   1      45.525  28.740  32.493  1.00  0.00    -0.014 A 
ATOM     72  C   UNL A   1      46.489  28.914  31.479  1.00  0.00     0.010 A 
ATOM     73  C   UNL A   1      45.743  27.759  33.475  1.00  0.00     0.010 A 
ATOM     74  C   UNL A   1      47.608  28.079  31.409  1.00  0.00     0.020 A 
ATOM     75  C   UNL A   1      46.878  26.942  33.427  1.00  0.00     0.020 A 
ATOM     76  C   UNL A   1      47.790  27.090  32.378  1.00  0.00     0.054 A 
BRANCH  76  77
ATOM     77  S   UNL A   1      49.235  26.003  32.250  1.00  0.00     0.124 S 
ATOM     78  O   UNL A   1      50.322  26.899  32.637  1.00  0.00    -0.237 OA
ATOM     79  O   UNL A   1      48.926  24.943  33.206  1.00  0.00    -0.237 OA
ATOM     80  O   UNL A   1      49.238  25.592  30.848  1.00  0.00    -0.744 OA
ENDBRANCH  76  77
ENDBRANCH  57  71
BRANCH  58  81
ATOM     81  C   UNL A   1      36.516  33.469  32.334  1.00  0.00    -0.014 A 
ATOM     82  C   UNL A   1      35.688  33.586  33.465  1.00  0.00     0.010 A 
ATOM     83  C   UNL A   1      36.117  34.091  31.135  1.00  0.00     0.010 A 
ATOM     84  C   UNL A   1      34.486  34.301  33.397  1.00  0.00     0.020 A 
ATOM     85  C   UNL A   1      34.929  34.828  31.070  1.00  0.00     0.020 A 
ATOM     86  C   UNL A   1      34.117  34.921  32.201  1.00  0.00     0.054 A 
BRANCH  86  87
ATOM     87  S   UNL A   1      32.586  35.898  32.155  1.00  0.00     0.124 S 
ATOM     88  O   UNL A   1      32.502  36.267  30.745  1.00  0.00    -0.237 OA
ATOM     89  O   UNL A   1      31.587  34.940  32.620  1.00  0.00    -0.237 OA
ATOM     90  O   UNL A   1      32.856  37.001  33.075  1.00  0.00    -0.744 OA
ENDBRANCH  86  87
ENDBRANCH  58  81
BRANCH  70  91
ATOM     91  C   UNL A   1      42.794  34.955  35.030  1.00  0.00    -0.014 A 
ATOM     92  C   UNL A   1      42.644  35.026  36.425  1.00  0.00     0.010 A 
ATOM     93  C   UNL A   1      43.480  35.976  34.348  1.00  0.00     0.010 A 
ATOM     94  C   UNL A   1      43.150  36.118  37.127  1.00  0.00     0.020 A 
ATOM     95  C   UNL A   1      44.015  37.053  35.052  1.00  0.00     0.020 A 
ATOM     96  C   UNL A   1      43.835  37.123  36.435  1.00  0.00     0.054 A 
BRANCH  96  97
ATOM     97  S   UNL A   1      44.534  38.502  37.379  1.00  0.00     0.124 S 
ATOM     98  O   UNL A   1      45.881  38.019  37.667  1.00  0.00    -0.237 OA
ATOM     99  O   UNL A   1      44.452  39.612  36.433  1.00  0.00    -0.237 OA
ATOM    100  O   UNL A   1      43.649  38.611  38.537  1.00  0.00    -0.744 OA
ENDBRANCH  96  97
ENDBRANCH  70  91
ENDBRANCH  44  45
ENDBRANCH  36  39
ENDBRANCH  34  35
ENDBRANCH   1  34
TORSDOF 18
ENDMDL
MODEL 2
REMARK VINA RESULT:      -9.0      4.336     11.109
REMARK SMILES COc1cc(/C=C2/C(=O)N(c3ccccc3)C(=O)[NH+]=C2NCCCNC(=O)c2ccc(-c3c4nc(c(-c5ccc(S(=O)(=O)[O-])cc5)c5ccc([nH]5)c(-c5ccc(S(=O)(=O)[O-])cc5)c5nc(c(-c6ccc(S(=O)(=O)[O-])cc6)c6ccc3[nH]6)C=C5)C=C4)cc2)ccc1OCC(=O)[O-]
REMARK SMILES IDX 23 1 22 2 21 3 6 4 7 5 8 6 20 7 9 8 10 9 19 10 17 11 18 14
REMARK SMILES IDX 5 15 3 16 4 17 90 18 89 19 88 20 2 21 1 22 91 23 92 24 93 25
REMARK SMILES IDX 94 26 95 27 11 28 12 29 16 30 13 31 15 32 14 33 24 34 25 35
REMARK SMILES IDX 26 36 27 38 28 39 29 40 87 41 30 42 86 43 31 44 32 45 33 46
REMARK SMILES IDX 80 47 34 48 85 49 79 50 81 51 35 52 84 53 78 54 77 55 36 57
REMARK SMILES IDX 66 58 47 59 65 60 48 61 51 62 64 63 82 64 49 65 50 66 63 68
REMARK SMILES IDX 83 69 52 70 37 71 38 72 46 73 39 74 45 75 40 76 41 77 42 78
REMARK SMILES IDX 43 79 44 80 67 81 68 82 76 83 69 84 75 85 70 86 71 87 72 88
REMARK SMILES IDX 73 89 74 90 53 91 54 92 62 93 55 94 61 95 56 96 57 97 58 98
REMARK SMILES IDX 59 99 60 100
REMARK H PARENT 19 12 21 13 25 37 81 56 51 67
REMARK Flexibility Score: inf
ROOT
ATOM      1  C   UNL A   1      39.992  31.467  30.659  1.00  0.00     0.059 C 
ENDROOT
BRANCH   1   2
ATOM      2  C   UNL A   1      40.497  29.795  29.323  1.00  0.00     0.195 C 
BRANCH   2   3
ATOM      3  N   UNL A   1      41.689  28.714  29.430  1.00  0.00    -0.305 N 
ATOM      4  C   UNL A   1      39.582  27.270  27.792  1.00  0.00     0.030 C 
ATOM      5  C   UNL A   1      40.893  26.994  27.739  1.00  0.00     0.129 C 
ATOM      6  C   UNL A   1      41.450  26.089  26.719  1.00  0.00     0.328 C 
ATOM      7  C   UNL A   1      41.850  27.523  28.747  1.00  0.00     0.236 C 
ATOM      8  O   UNL A   1      40.893  25.944  25.635  1.00  0.00    -0.249 OA
ATOM      9  N   UNL A   1      42.592  25.436  27.156  1.00  0.00    -0.155 N 
ATOM     10  N   UNL A   1      42.881  26.799  29.069  1.00  0.00    -0.209 N 
ATOM     11  C   UNL A   1      43.053  25.571  28.465  1.00  0.00     0.448 C 
ATOM     12  H   UNL A   1      43.530  27.123  29.734  1.00  0.00     0.270 HD
ATOM     13  H   UNL A   1      42.403  28.933  30.072  1.00  0.00     0.256 HD
ATOM     14  O   UNL A   1      43.612  24.660  29.074  1.00  0.00    -0.212 OA
BRANCH   4  15
ATOM     15  C   UNL A   1      39.182  28.277  28.763  1.00  0.00    -0.021 A 
ATOM     16  C   UNL A   1      36.951  30.416  29.319  1.00  0.00     0.161 A 
ATOM     17  C   UNL A   1      38.217  29.745  28.222  1.00  0.00     0.058 A 
ATOM     18  C   UNL A   1      36.764  29.782  30.987  1.00  0.00     0.161 A 
ATOM     19  C   UNL A   1      37.763  28.393  31.540  1.00  0.00     0.051 A 
ATOM     20  C   UNL A   1      38.995  27.643  30.444  1.00  0.00     0.012 A 
BRANCH  16  21
ATOM     21  O   UNL A   1      35.756  30.908  28.840  1.00  0.00    -0.493 OA
ATOM     22  C   UNL A   1      35.634  32.304  28.651  1.00  0.00     0.278 C 
ENDBRANCH  16  21
BRANCH  18  23
ATOM     23  O   UNL A   1      35.909  30.285  31.926  1.00  0.00    -0.484 OA
BRANCH  23  24
ATOM     24  C   UNL A   1      36.084  31.559  32.524  1.00  0.00     0.282 C 
BRANCH  24  25
ATOM     25  C   UNL A   1      35.094  32.747  32.568  1.00  0.00     0.079 C 
ATOM     26  O   UNL A   1      33.969  32.708  32.088  1.00  0.00    -0.546 OA
ATOM     27  O   UNL A   1      35.576  33.874  33.116  1.00  0.00    -0.546 OA
ENDBRANCH  24  25
ENDBRANCH  23  24
ENDBRANCH  18  23
ENDBRANCH   4  15
BRANCH   9  28
ATOM     28  C   UNL A   1      43.175  24.473  26.297  1.00  0.00     0.111 A 
ATOM     29  C   UNL A   1      42.603  23.210  26.116  1.00  0.00     0.044 A 
ATOM     30  C   UNL A   1      44.349  24.811  25.612  1.00  0.00     0.044 A 
ATOM     31  C   UNL A   1      43.194  22.302  25.236  1.00  0.00     0.004 A 
ATOM     32  C   UNL A   1      44.955  23.889  24.761  1.00  0.00     0.004 A 
ATOM     33  C   UNL A   1      44.371  22.639  24.566  1.00  0.00     0.000 A 
ENDBRANCH   9  28
ENDBRANCH   2   3
ENDBRANCH   1   2
BRANCH   1  34
ATOM     34  C   UNL A   1      40.191  31.901  32.276  1.00  0.00     0.119 C 
BRANCH  34  35
ATOM     35  N   UNL A   1      39.441  31.073  33.222  1.00  0.00    -0.352 N 
ATOM     36  C   UNL A   1      39.717  30.071  34.105  1.00  0.00     0.251 C 
ATOM     37  H   UNL A   1      38.482  31.299  33.219  1.00  0.00     0.163 HD
ATOM     38  O   UNL A   1      38.804  29.703  34.840  1.00  0.00    -0.269 OA
BRANCH  36  39
ATOM     39  C   UNL A   1      41.023  29.405  34.141  1.00  0.00     0.039 A 
ATOM     40  C   UNL A   1      41.154  28.307  33.285  1.00  0.00     0.014 A 
ATOM     41  C   UNL A   1      42.119  29.891  34.854  1.00  0.00     0.014 A 
ATOM     42  C   UNL A   1      42.413  27.818  33.004  1.00  0.00     0.010 A 
ATOM     43  C   UNL A   1      43.385  29.454  34.527  1.00  0.00     0.010 A 
ATOM     44  C   UNL A   1      43.525  28.469  33.550  1.00  0.00    -0.014 A 
BRANCH  44  45
ATOM     45  C   UNL A   1      44.835  28.263  32.936  1.00  0.00     0.031 A 
ATOM     46  C   UNL A   1      45.710  27.171  33.424  1.00  0.00     0.074 A 
ATOM     47  C   UNL A   1      45.171  29.117  31.951  1.00  0.00     0.049 A 
ATOM     48  N   UNL A   1      46.811  26.723  32.898  1.00  0.00    -0.248 NA
ATOM     49  C   UNL A   1      45.311  26.506  34.677  1.00  0.00     0.031 C 
ATOM     50  C   UNL A   1      44.358  30.267  31.520  1.00  0.00     0.029 A 
ATOM     51  N   UNL A   1      46.245  29.144  31.112  1.00  0.00    -0.354 N 
ATOM     52  C   UNL A   1      47.232  25.706  33.741  1.00  0.00     0.074 A 
ATOM     53  C   UNL A   1      46.309  25.654  34.852  1.00  0.00     0.031 C 
ATOM     54  C   UNL A   1      44.924  30.830  30.444  1.00  0.00     0.029 A 
ATOM     55  C   UNL A   1      46.141  30.100  30.128  1.00  0.00     0.049 A 
ATOM     56  H   UNL A   1      47.018  28.541  31.201  1.00  0.00     0.167 HD
ATOM     57  C   UNL A   1      48.289  24.882  33.566  1.00  0.00     0.031 A 
ATOM     58  C   UNL A   1      46.929  30.318  29.061  1.00  0.00     0.031 A 
ATOM     59  C   UNL A   1      49.189  25.021  32.453  1.00  0.00     0.049 A 
ATOM     60  C   UNL A   1      48.079  29.373  28.873  1.00  0.00     0.074 A 
ATOM     61  C   UNL A   1      50.300  24.267  32.132  1.00  0.00     0.029 A 
ATOM     62  N   UNL A   1      49.072  26.007  31.475  1.00  0.00    -0.354 N 
ATOM     63  N   UNL A   1      48.429  28.351  29.624  1.00  0.00    -0.248 NA
ATOM     64  C   UNL A   1      48.926  29.585  27.698  1.00  0.00     0.031 C 
ATOM     65  C   UNL A   1      50.880  24.828  30.987  1.00  0.00     0.029 A 
ATOM     66  C   UNL A   1      50.099  25.895  30.560  1.00  0.00     0.049 A 
ATOM     67  H   UNL A   1      48.359  26.686  31.443  1.00  0.00     0.167 HD
ATOM     68  C   UNL A   1      49.534  27.786  29.009  1.00  0.00     0.074 A 
ATOM     69  C   UNL A   1      49.775  28.570  27.807  1.00  0.00     0.031 C 
ATOM     70  C   UNL A   1      50.288  26.725  29.392  1.00  0.00     0.031 A 
BRANCH  57  71
ATOM     71  C   UNL A   1      48.503  23.821  34.610  1.00  0.00    -0.014 A 
ATOM     72  C   UNL A   1      49.498  23.967  35.599  1.00  0.00     0.010 A 
ATOM     73  C   UNL A   1      47.749  22.636  34.576  1.00  0.00     0.010 A 
ATOM     74  C   UNL A   1      49.779  22.924  36.486  1.00  0.00     0.020 A 
ATOM     75  C   UNL A   1      48.006  21.601  35.482  1.00  0.00     0.020 A 
ATOM     76  C   UNL A   1      49.038  21.742  36.414  1.00  0.00     0.054 A 
BRANCH  76  77
ATOM     77  S   UNL A   1      49.440  20.393  37.558  1.00  0.00     0.124 S 
ATOM     78  O   UNL A   1      50.553  19.740  36.875  1.00  0.00    -0.237 OA
ATOM     79  O   UNL A   1      49.788  21.105  38.785  1.00  0.00    -0.237 OA
ATOM     80  O   UNL A   1      48.206  19.613  37.623  1.00  0.00    -0.744 OA
ENDBRANCH  76  77
ENDBRANCH  57  71
BRANCH  58  81
ATOM     81  C   UNL A   1      46.596  31.401  28.095  1.00  0.00    -0.014 A 
ATOM     82  C   UNL A   1      45.592  31.220  27.127  1.00  0.00     0.010 A 
ATOM     83  C   UNL A   1      47.227  32.657  28.188  1.00  0.00     0.010 A 
ATOM     84  C   UNL A   1      45.234  32.265  26.267  1.00  0.00     0.020 A 
ATOM     85  C   UNL A   1      46.855  33.712  27.347  1.00  0.00     0.020 A 
ATOM     86  C   UNL A   1      45.865  33.506  26.386  1.00  0.00     0.054 A 
BRANCH  86  87
ATOM     87  S   UNL A   1      45.338  34.866  25.303  1.00  0.00     0.124 S 
ATOM     88  O   UNL A   1      45.263  34.209  24.003  1.00  0.00    -0.237 OA
ATOM     89  O   UNL A   1      44.060  35.260  25.890  1.00  0.00    -0.237 OA
ATOM     90  O   UNL A   1      46.409  35.851  25.445  1.00  0.00    -0.744 OA
ENDBRANCH  86  87
ENDBRANCH  58  81
BRANCH  70  91
ATOM     91  C   UNL A   1      51.435  26.370  28.492  1.00  0.00    -0.014 A 
ATOM     92  C   UNL A   1      52.751  26.731  28.829  1.00  0.00     0.010 A 
ATOM     93  C   UNL A   1      51.194  25.611  27.334  1.00  0.00     0.010 A 
ATOM     94  C   UNL A   1      53.809  26.359  28.001  1.00  0.00     0.020 A 
ATOM     95  C   UNL A   1      52.254  25.211  26.523  1.00  0.00     0.020 A 
ATOM     96  C   UNL A   1      53.553  25.599  26.856  1.00  0.00     0.054 A 
BRANCH  96  97
ATOM     97  S   UNL A   1      54.953  25.079  25.831  1.00  0.00     0.124 S 
ATOM     98  O   UNL A   1      56.033  25.913  26.349  1.00  0.00    -0.237 OA
ATOM     99  O   UNL A   1      55.058  23.653  26.132  1.00  0.00    -0.237 OA
ATOM    100  O   UNL A   1      54.520  25.392  24.470  1.00  0.00    -0.744 OA
ENDBRANCH  96  97
ENDBRANCH  70  91
ENDBRANCH  44  45
ENDBRANCH  36  39
ENDBRANCH  34  35
ENDBRANCH   1  34
TORSDOF 18
ENDMDL
MODEL 3
REMARK VINA RESULT:      -9.0      7.761     13.057
REMARK SMILES COc1cc(/C=C2/C(=O)N(c3ccccc3)C(=O)[NH+]=C2NCCCNC(=O)c2ccc(-c3c4nc(c(-c5ccc(S(=O)(=O)[O-])cc5)c5ccc([nH]5)c(-c5ccc(S(=O)(=O)[O-])cc5)c5nc(c(-c6ccc(S(=O)(=O)[O-])cc6)c6ccc3[nH]6)C=C5)C=C4)cc2)ccc1OCC(=O)[O-]
REMARK SMILES IDX 23 1 22 2 21 3 6 4 7 5 8 6 20 7 9 8 10 9 19 10 17 11 18 14
REMARK SMILES IDX 5 15 3 16 4 17 90 18 89 19 88 20 2 21 1 22 91 23 92 24 93 25
REMARK SMILES IDX 94 26 95 27 11 28 12 29 16 30 13 31 15 32 14 33 24 34 25 35
REMARK SMILES IDX 26 36 27 38 28 39 29 40 87 41 30 42 86 43 31 44 32 45 33 46
REMARK SMILES IDX 80 47 34 48 85 49 79 50 81 51 35 52 84 53 78 54 77 55 36 57
REMARK SMILES IDX 66 58 47 59 65 60 48 61 51 62 64 63 82 64 49 65 50 66 63 68
REMARK SMILES IDX 83 69 52 70 37 71 38 72 46 73 39 74 45 75 40 76 41 77 42 78
REMARK SMILES IDX 43 79 44 80 67 81 68 82 76 83 69 84 75 85 70 86 71 87 72 88
REMARK SMILES IDX 73 89 74 90 53 91 54 92 62 93 55 94 61 95 56 96 57 97 58 98
REMARK SMILES IDX 59 99 60 100
REMARK H PARENT 19 12 21 13 25 37 81 56 51 67
REMARK Flexibility Score: inf
ROOT
ATOM      1  C   UNL A   1      46.383  22.146  39.738  1.00  0.00     0.059 C 
ENDROOT
BRANCH   1   2
ATOM      2  C   UNL A   1      46.213  20.163  40.673  1.00  0.00     0.195 C 
BRANCH   2   3
ATOM      3  N   UNL A   1      44.944  19.462  41.379  1.00  0.00    -0.305 N 
ATOM      4  C   UNL A   1      46.768  17.123  40.740  1.00  0.00     0.030 C 
ATOM      5  C   UNL A   1      45.856  17.116  41.723  1.00  0.00     0.129 C 
ATOM      6  C   UNL A   1      45.800  16.031  42.717  1.00  0.00     0.328 C 
ATOM      7  C   UNL A   1      44.803  18.161  41.826  1.00  0.00     0.236 C 
ATOM      8  O   UNL A   1      46.806  15.386  43.002  1.00  0.00    -0.249 OA
ATOM      9  N   UNL A   1      44.521  15.830  43.211  1.00  0.00    -0.155 N 
ATOM     10  N   UNL A   1      43.640  17.831  42.306  1.00  0.00    -0.209 N 
ATOM     11  C   UNL A   1      43.425  16.528  42.705  1.00  0.00     0.448 C 
ATOM     12  H   UNL A   1      42.924  18.501  42.385  1.00  0.00     0.270 HD
ATOM     13  H   UNL A   1      44.159  20.042  41.509  1.00  0.00     0.256 HD
ATOM     14  O   UNL A   1      42.300  16.040  42.626  1.00  0.00    -0.212 OA
BRANCH   4  15
ATOM     15  C   UNL A   1      46.798  18.315  39.906  1.00  0.00    -0.021 A 
ATOM     16  C   UNL A   1      48.751  20.071  38.185  1.00  0.00     0.161 A 
ATOM     17  C   UNL A   1      48.343  19.301  39.765  1.00  0.00     0.058 A 
ATOM     18  C   UNL A   1      47.581  20.035  36.826  1.00  0.00     0.161 A 
ATOM     19  C   UNL A   1      46.035  19.131  36.992  1.00  0.00     0.051 A 
ATOM     20  C   UNL A   1      45.619  18.284  38.538  1.00  0.00     0.012 A 
BRANCH  16  21
ATOM     21  O   UNL A   1      50.047  20.140  37.721  1.00  0.00    -0.493 OA
ATOM     22  C   UNL A   1      50.894  19.028  37.933  1.00  0.00     0.278 C 
ENDBRANCH  16  21
BRANCH  18  23
ATOM     23  O   UNL A   1      47.750  20.670  35.629  1.00  0.00    -0.484 OA
BRANCH  23  24
ATOM     24  C   UNL A   1      48.451  20.090  34.541  1.00  0.00     0.282 C 
BRANCH  24  25
ATOM     25  C   UNL A   1      49.877  20.410  34.034  1.00  0.00     0.079 C 
ATOM     26  O   UNL A   1      50.127  21.309  33.241  1.00  0.00    -0.546 OA
ATOM     27  O   UNL A   1      50.840  19.581  34.469  1.00  0.00    -0.546 OA
ENDBRANCH  24  25
ENDBRANCH  23  24
ENDBRANCH  18  23
ENDBRANCH   4  15
BRANCH   9  28
ATOM     28  C   UNL A   1      44.319  14.756  44.112  1.00  0.00     0.111 A 
ATOM     29  C   UNL A   1      44.436  14.928  45.495  1.00  0.00     0.044 A 
ATOM     30  C   UNL A   1      43.986  13.499  43.592  1.00  0.00     0.044 A 
ATOM     31  C   UNL A   1      44.199  13.850  46.349  1.00  0.00     0.004 A 
ATOM     32  C   UNL A   1      43.783  12.418  44.447  1.00  0.00     0.004 A 
ATOM     33  C   UNL A   1      43.880  12.596  45.825  1.00  0.00     0.000 A 
ENDBRANCH   9  28
ENDBRANCH   2   3
ENDBRANCH   1   2
BRANCH   1  34
ATOM     34  C   UNL A   1      45.652  23.032  38.503  1.00  0.00     0.119 C 
BRANCH  34  35
ATOM     35  N   UNL A   1      46.516  23.290  37.350  1.00  0.00    -0.352 N 
ATOM     36  C   UNL A   1      46.709  24.301  36.456  1.00  0.00     0.251 C 
ATOM     37  H   UNL A   1      47.117  22.530  37.171  1.00  0.00     0.163 HD
ATOM     38  O   UNL A   1      47.654  24.192  35.679  1.00  0.00    -0.269 OA
BRANCH  36  39
ATOM     39  C   UNL A   1      45.797  25.446  36.369  1.00  0.00     0.039 A 
ATOM     40  C   UNL A   1      46.359  26.615  35.847  1.00  0.00     0.014 A 
ATOM     41  C   UNL A   1      44.430  25.367  36.639  1.00  0.00     0.014 A 
ATOM     42  C   UNL A   1      45.527  27.632  35.426  1.00  0.00     0.010 A 
ATOM     43  C   UNL A   1      43.590  26.349  36.158  1.00  0.00     0.010 A 
ATOM     44  C   UNL A   1      44.143  27.440  35.490  1.00  0.00    -0.014 A 
BRANCH  44  45
ATOM     45  C   UNL A   1      43.275  28.280  34.667  1.00  0.00     0.031 A 
ATOM     46  C   UNL A   1      43.000  27.896  33.262  1.00  0.00     0.074 A 
ATOM     47  C   UNL A   1      42.785  29.387  35.258  1.00  0.00     0.049 A 
ATOM     48  N   UNL A   1      42.129  28.406  32.442  1.00  0.00    -0.248 NA
ATOM     49  C   UNL A   1      43.822  26.814  32.694  1.00  0.00     0.031 C 
ATOM     50  C   UNL A   1      43.125  29.835  36.618  1.00  0.00     0.029 A 
ATOM     51  N   UNL A   1      41.882  30.311  34.825  1.00  0.00    -0.354 N 
ATOM     52  C   UNL A   1      42.278  27.693  31.262  1.00  0.00     0.074 A 
ATOM     53  C   UNL A   1      43.373  26.769  31.449  1.00  0.00     0.031 C 
ATOM     54  C   UNL A   1      42.374  30.899  36.934  1.00  0.00     0.029 A 
ATOM     55  C   UNL A   1      41.523  31.216  35.798  1.00  0.00     0.049 A 
ATOM     56  H   UNL A   1      41.522  30.331  33.908  1.00  0.00     0.167 HD
ATOM     57  C   UNL A   1      41.534  27.803  30.140  1.00  0.00     0.031 A 
ATOM     58  C   UNL A   1      40.572  32.165  35.774  1.00  0.00     0.031 A 
ATOM     59  C   UNL A   1      40.483  28.777  30.013  1.00  0.00     0.049 A 
ATOM     60  C   UNL A   1      39.739  32.248  34.528  1.00  0.00     0.074 A 
ATOM     61  C   UNL A   1      39.637  29.012  28.949  1.00  0.00     0.029 A 
ATOM     62  N   UNL A   1      40.147  29.694  31.008  1.00  0.00    -0.354 N 
ATOM     63  N   UNL A   1      39.821  31.514  33.439  1.00  0.00    -0.248 NA
ATOM     64  C   UNL A   1      38.681  33.260  34.504  1.00  0.00     0.031 C 
ATOM     65  C   UNL A   1      38.823  30.101  29.282  1.00  0.00     0.029 A 
ATOM     66  C   UNL A   1      39.119  30.509  30.577  1.00  0.00     0.049 A 
ATOM     67  H   UNL A   1      40.580  29.751  31.890  1.00  0.00     0.167 HD
ATOM     68  C   UNL A   1      38.816  31.965  32.600  1.00  0.00     0.074 A 
ATOM     69  C   UNL A   1      38.125  33.020  33.323  1.00  0.00     0.031 C 
ATOM     70  C   UNL A   1      38.489  31.556  31.347  1.00  0.00     0.031 A 
BRANCH  57  71
ATOM     71  C   UNL A   1      41.871  26.874  29.007  1.00  0.00    -0.014 A 
ATOM     72  C   UNL A   1      41.160  25.671  28.819  1.00  0.00     0.010 A 
ATOM     73  C   UNL A   1      42.946  27.167  28.150  1.00  0.00     0.010 A 
ATOM     74  C   UNL A   1      41.559  24.752  27.845  1.00  0.00     0.020 A 
ATOM     75  C   UNL A   1      43.330  26.264  27.153  1.00  0.00     0.020 A 
ATOM     76  C   UNL A   1      42.650  25.049  27.024  1.00  0.00     0.054 A 
BRANCH  76  77
ATOM     77  S   UNL A   1      43.166  23.829  25.786  1.00  0.00     0.124 S 
ATOM     78  O   UNL A   1      41.951  23.034  25.622  1.00  0.00    -0.237 OA
ATOM     79  O   UNL A   1      43.528  24.664  24.644  1.00  0.00    -0.237 OA
ATOM     80  O   UNL A   1      44.281  23.135  26.426  1.00  0.00    -0.744 OA
ENDBRANCH  76  77
ENDBRANCH  57  71
BRANCH  58  81
ATOM     81  C   UNL A   1      40.333  33.014  36.974  1.00  0.00    -0.014 A 
ATOM     82  C   UNL A   1      39.340  32.675  37.910  1.00  0.00     0.010 A 
ATOM     83  C   UNL A   1      41.155  34.129  37.232  1.00  0.00     0.010 A 
ATOM     84  C   UNL A   1      39.167  33.437  39.072  1.00  0.00     0.020 A 
ATOM     85  C   UNL A   1      41.002  34.877  38.404  1.00  0.00     0.020 A 
ATOM     86  C   UNL A   1      40.002  34.531  39.313  1.00  0.00     0.054 A 
BRANCH  86  87
ATOM     87  S   UNL A   1      39.801  35.465  40.858  1.00  0.00     0.124 S 
ATOM     88  O   UNL A   1      39.791  34.402  41.858  1.00  0.00    -0.237 OA
ATOM     89  O   UNL A   1      40.980  36.327  40.861  1.00  0.00    -0.237 OA
ATOM     90  O   UNL A   1      38.530  36.163  40.673  1.00  0.00    -0.744 OA
ENDBRANCH  86  87
ENDBRANCH  58  81
BRANCH  70  91
ATOM     91  C   UNL A   1      37.335  32.266  30.701  1.00  0.00    -0.014 A 
ATOM     92  C   UNL A   1      37.554  33.317  29.795  1.00  0.00     0.010 A 
ATOM     93  C   UNL A   1      36.024  31.827  30.958  1.00  0.00     0.010 A 
ATOM     94  C   UNL A   1      36.472  33.939  29.174  1.00  0.00     0.020 A 
ATOM     95  C   UNL A   1      34.944  32.426  30.314  1.00  0.00     0.020 A 
ATOM     96  C   UNL A   1      35.175  33.486  29.436  1.00  0.00     0.054 A 
BRANCH  96  97
ATOM     97  S   UNL A   1      33.792  34.273  28.570  1.00  0.00     0.124 S 
ATOM     98  O   UNL A   1      33.294  33.181  27.740  1.00  0.00    -0.237 OA
ATOM     99  O   UNL A   1      32.918  34.681  29.667  1.00  0.00    -0.237 OA
ATOM    100  O   UNL A   1      34.422  35.374  27.842  1.00  0.00    -0.744 OA
ENDBRANCH  96  97
ENDBRANCH  70  91
ENDBRANCH  44  45
ENDBRANCH  36  39
ENDBRANCH  34  35
ENDBRANCH   1  34
TORSDOF 18
ENDMDL
