MODEL 1
REMARK VINA RESULT:      -9.7      0.000      0.000
REMARK SMILES CCCCCCNC(=O)Oc1cccc(-c2ccc([C@@H](C)C(=O)NCCCNC(=O)c3ccc(-c4c5nc(c(-c6ccc(S(=O)(=O)[O-])cc6)c6ccc([nH]6)c(-c6ccc(S(=O)(=O)[O-])cc6)c6nc(c(-c7ccc(S(=O)(=O)[O-])cc7)c7ccc4[nH]7)C=C6)C=C5)cc3)cc2)c1
REMARK SMILES IDX 20 1 21 2 19 3 16 4 17 5 92 6 18 7 91 8 15 9 11 10 12 11
REMARK SMILES IDX 93 12 13 13 14 14 10 15 8 16 7 17 9 19 6 20 5 21 4 22 3 23
REMARK SMILES IDX 2 24 1 25 22 26 23 27 24 28 25 30 26 31 27 32 28 33 29 34
REMARK SMILES IDX 30 36 31 37 32 38 90 39 33 40 89 41 34 42 35 43 36 44 83 45
REMARK SMILES IDX 37 46 88 47 82 48 84 49 38 50 87 51 81 52 80 53 39 55 69 56
REMARK SMILES IDX 50 57 68 58 51 59 54 60 67 61 85 62 52 63 53 64 66 66 86 67
REMARK SMILES IDX 55 68 40 69 41 70 49 71 42 72 48 73 43 74 44 75 45 76 46 77
REMARK SMILES IDX 47 78 70 79 71 80 79 81 72 82 78 83 73 84 74 85 75 86 76 87
REMARK SMILES IDX 77 88 56 89 57 90 65 91 58 92 64 93 59 94 60 95 61 96 62 97
REMARK SMILES IDX 63 98
REMARK H PARENT 7 18 24 29 28 35 84 54 54 65
REMARK Flexibility Score: inf
ROOT
ATOM      1  C   UNL A   1      37.532  21.056  25.659  1.00  0.00     0.105 C 
ATOM      2  C   UNL A   1      37.638  20.067  24.499  1.00  0.00     0.023 C 
ENDROOT
BRANCH   1   3
ATOM      3  C   UNL A   1      36.355  22.015  25.604  1.00  0.00    -0.036 A 
ATOM      4  C   UNL A   1      34.002  23.610  25.343  1.00  0.00    -0.018 A 
ATOM      5  C   UNL A   1      34.349  23.005  26.559  1.00  0.00     0.009 A 
ATOM      6  C   UNL A   1      34.897  23.453  24.275  1.00  0.00     0.009 A 
ATOM      7  C   UNL A   1      35.522  22.256  26.697  1.00  0.00     0.005 A 
ATOM      8  C   UNL A   1      36.041  22.654  24.395  1.00  0.00     0.005 A 
BRANCH   4   9
ATOM      9  C   UNL A   1      32.724  24.342  25.197  1.00  0.00    -0.015 A 
ATOM     10  C   UNL A   1      31.310  26.259  25.688  1.00  0.00     0.133 A 
ATOM     11  C   UNL A   1      30.318  25.792  24.831  1.00  0.00     0.047 A 
ATOM     12  C   UNL A   1      32.495  25.548  25.882  1.00  0.00     0.056 A 
ATOM     13  C   UNL A   1      30.523  24.600  24.149  1.00  0.00     0.004 A 
ATOM     14  C   UNL A   1      31.708  23.880  24.336  1.00  0.00     0.009 A 
BRANCH  10  15
ATOM     15  O   UNL A   1      31.016  27.413  26.430  1.00  0.00    -0.410 OA
BRANCH  15  16
ATOM     16  C   UNL A   1      32.035  28.319  26.677  1.00  0.00     0.412 C 
ATOM     17  N   UNL A   1      32.094  29.316  25.741  1.00  0.00    -0.321 N 
ATOM     18  H   UNL A   1      32.819  29.975  25.843  1.00  0.00     0.167 HD
ATOM     19  O   UNL A   1      32.823  28.288  27.613  1.00  0.00    -0.224 OA
BRANCH  17  20
ATOM     20  C   UNL A   1      31.198  29.501  24.618  1.00  0.00     0.119 C 
BRANCH  20  21
ATOM     21  C   UNL A   1      31.770  28.897  23.336  1.00  0.00     0.021 C 
BRANCH  21  22
ATOM     22  C   UNL A   1      33.303  28.880  23.267  1.00  0.00     0.002 C 
BRANCH  22  23
ATOM     23  C   UNL A   1      33.903  27.934  22.221  1.00  0.00    -0.000 C 
BRANCH  23  24
ATOM     24  C   UNL A   1      33.487  26.466  22.352  1.00  0.00    -0.003 C 
ATOM     25  C   UNL A   1      32.414  26.055  21.355  1.00  0.00     0.004 C 
ENDBRANCH  23  24
ENDBRANCH  22  23
ENDBRANCH  21  22
ENDBRANCH  20  21
ENDBRANCH  17  20
ENDBRANCH  15  16
ENDBRANCH  10  15
ENDBRANCH   4   9
ENDBRANCH   1   3
BRANCH   1  26
ATOM     26  C   UNL A   1      38.859  21.735  26.036  1.00  0.00     0.227 C 
ATOM     27  O   UNL A   1      38.920  22.968  26.103  1.00  0.00    -0.274 OA
ATOM     28  N   UNL A   1      40.004  21.059  26.327  1.00  0.00    -0.356 N 
ATOM     29  H   UNL A   1      40.754  21.637  26.597  1.00  0.00     0.163 HD
BRANCH  28  30
ATOM     30  C   UNL A   1      40.322  19.645  26.313  1.00  0.00     0.117 C 
BRANCH  30  31
ATOM     31  C   UNL A   1      41.773  19.378  25.922  1.00  0.00     0.042 C 
BRANCH  31  32
ATOM     32  C   UNL A   1      42.738  20.476  26.344  1.00  0.00     0.118 C 
BRANCH  32  33
ATOM     33  N   UNL A   1      43.170  21.286  25.215  1.00  0.00    -0.352 N 
ATOM     34  C   UNL A   1      43.307  22.644  25.087  1.00  0.00     0.251 C 
ATOM     35  H   UNL A   1      43.404  20.773  24.409  1.00  0.00     0.163 HD
ATOM     36  O   UNL A   1      43.459  23.112  23.960  1.00  0.00    -0.269 OA
BRANCH  34  37
ATOM     37  C   UNL A   1      43.282  23.545  26.263  1.00  0.00     0.039 A 
ATOM     38  C   UNL A   1      42.485  23.191  27.358  1.00  0.00     0.014 A 
ATOM     39  C   UNL A   1      43.955  24.770  26.272  1.00  0.00     0.014 A 
ATOM     40  C   UNL A   1      42.371  24.056  28.449  1.00  0.00     0.010 A 
ATOM     41  C   UNL A   1      43.925  25.582  27.403  1.00  0.00     0.010 A 
ATOM     42  C   UNL A   1      43.097  25.256  28.485  1.00  0.00    -0.014 A 
BRANCH  42  43
ATOM     43  C   UNL A   1      42.933  26.216  29.608  1.00  0.00     0.031 A 
ATOM     44  C   UNL A   1      43.919  26.212  30.750  1.00  0.00     0.074 A 
ATOM     45  C   UNL A   1      41.896  27.075  29.609  1.00  0.00     0.049 A 
ATOM     46  N   UNL A   1      43.953  26.976  31.812  1.00  0.00    -0.248 NA
ATOM     47  C   UNL A   1      44.991  25.204  30.707  1.00  0.00     0.031 C 
ATOM     48  C   UNL A   1      40.853  27.146  28.583  1.00  0.00     0.029 A 
ATOM     49  N   UNL A   1      41.552  28.061  30.499  1.00  0.00    -0.354 N 
ATOM     50  C   UNL A   1      45.034  26.529  32.566  1.00  0.00     0.074 A 
ATOM     51  C   UNL A   1      45.591  25.389  31.873  1.00  0.00     0.031 C 
ATOM     52  C   UNL A   1      40.010  28.148  28.882  1.00  0.00     0.029 A 
ATOM     53  C   UNL A   1      40.430  28.766  30.135  1.00  0.00     0.049 A 
ATOM     54  H   UNL A   1      42.061  28.245  31.322  1.00  0.00     0.167 HD
ATOM     55  C   UNL A   1      45.537  27.035  33.717  1.00  0.00     0.031 A 
ATOM     56  C   UNL A   1      39.813  29.800  30.740  1.00  0.00     0.031 A 
ATOM     57  C   UNL A   1      44.989  28.178  34.396  1.00  0.00     0.049 A 
ATOM     58  C   UNL A   1      40.397  30.353  32.012  1.00  0.00     0.074 A 
ATOM     59  C   UNL A   1      45.448  28.803  35.542  1.00  0.00     0.029 A 
ATOM     60  N   UNL A   1      43.860  28.872  33.986  1.00  0.00    -0.354 N 
ATOM     61  N   UNL A   1      41.454  29.953  32.678  1.00  0.00    -0.248 NA
ATOM     62  C   UNL A   1      39.717  31.515  32.599  1.00  0.00     0.031 C 
ATOM     63  C   UNL A   1      44.566  29.844  35.853  1.00  0.00     0.029 A 
ATOM     64  C   UNL A   1      43.598  29.911  34.863  1.00  0.00     0.049 A 
ATOM     65  H   UNL A   1      43.323  28.658  33.189  1.00  0.00     0.167 HD
ATOM     66  C   UNL A   1      41.589  30.839  33.742  1.00  0.00     0.074 A 
ATOM     67  C   UNL A   1      40.513  31.802  33.620  1.00  0.00     0.031 C 
ATOM     68  C   UNL A   1      42.522  30.860  34.726  1.00  0.00     0.031 A 
BRANCH  55  69
ATOM     69  C   UNL A   1      46.742  26.349  34.314  1.00  0.00    -0.014 A 
ATOM     70  C   UNL A   1      48.049  26.742  33.972  1.00  0.00     0.010 A 
ATOM     71  C   UNL A   1      46.565  25.317  35.255  1.00  0.00     0.010 A 
ATOM     72  C   UNL A   1      49.154  26.087  34.521  1.00  0.00     0.020 A 
ATOM     73  C   UNL A   1      47.668  24.681  35.831  1.00  0.00     0.020 A 
ATOM     74  C   UNL A   1      48.957  25.058  35.447  1.00  0.00     0.054 A 
BRANCH  74  75
ATOM     75  S   UNL A   1      50.410  24.241  36.161  1.00  0.00     0.124 S 
ATOM     76  O   UNL A   1      51.502  25.061  35.643  1.00  0.00    -0.237 OA
ATOM     77  O   UNL A   1      50.168  24.354  37.597  1.00  0.00    -0.237 OA
ATOM     78  O   UNL A   1      50.343  22.884  35.626  1.00  0.00    -0.744 OA
ENDBRANCH  74  75
ENDBRANCH  55  69
BRANCH  56  79
ATOM     79  C   UNL A   1      38.594  30.399  30.129  1.00  0.00    -0.014 A 
ATOM     80  C   UNL A   1      37.341  29.773  30.268  1.00  0.00     0.010 A 
ATOM     81  C   UNL A   1      38.677  31.608  29.414  1.00  0.00     0.010 A 
ATOM     82  C   UNL A   1      36.201  30.331  29.679  1.00  0.00     0.020 A 
ATOM     83  C   UNL A   1      37.534  32.184  28.853  1.00  0.00     0.020 A 
ATOM     84  C   UNL A   1      36.306  31.534  28.977  1.00  0.00     0.054 A 
BRANCH  84  85
ATOM     85  S   UNL A   1      34.806  32.261  28.259  1.00  0.00     0.124 S 
ATOM     86  O   UNL A   1      35.337  33.426  27.557  1.00  0.00    -0.237 OA
ATOM     87  O   UNL A   1      34.308  31.182  27.410  1.00  0.00    -0.237 OA
ATOM     88  O   UNL A   1      33.977  32.557  29.425  1.00  0.00    -0.744 OA
ENDBRANCH  84  85
ENDBRANCH  56  79
BRANCH  68  89
ATOM     89  C   UNL A   1      42.456  31.994  35.716  1.00  0.00    -0.014 A 
ATOM     90  C   UNL A   1      42.870  33.294  35.378  1.00  0.00     0.010 A 
ATOM     91  C   UNL A   1      41.945  31.750  37.004  1.00  0.00     0.010 A 
ATOM     92  C   UNL A   1      42.827  34.317  36.330  1.00  0.00     0.020 A 
ATOM     93  C   UNL A   1      41.868  32.776  37.947  1.00  0.00     0.020 A 
ATOM     94  C   UNL A   1      42.332  34.049  37.611  1.00  0.00     0.054 A 
BRANCH  94  95
ATOM     95  S   UNL A   1      42.282  35.393  38.827  1.00  0.00     0.124 S 
ATOM     96  O   UNL A   1      42.292  36.576  37.972  1.00  0.00    -0.237 OA
ATOM     97  O   UNL A   1      41.030  35.139  39.536  1.00  0.00    -0.237 OA
ATOM     98  O   UNL A   1      43.493  35.187  39.621  1.00  0.00    -0.744 OA
ENDBRANCH  94  95
ENDBRANCH  68  89
ENDBRANCH  42  43
ENDBRANCH  34  37
ENDBRANCH  32  33
ENDBRANCH  31  32
ENDBRANCH  30  31
ENDBRANCH  28  30
ENDBRANCH   1  26
TORSDOF 22
ENDMDL
MODEL 2
REMARK VINA RESULT:      -9.5      6.625     10.486
REMARK SMILES CCCCCCNC(=O)Oc1cccc(-c2ccc([C@@H](C)C(=O)NCCCNC(=O)c3ccc(-c4c5nc(c(-c6ccc(S(=O)(=O)[O-])cc6)c6ccc([nH]6)c(-c6ccc(S(=O)(=O)[O-])cc6)c6nc(c(-c7ccc(S(=O)(=O)[O-])cc7)c7ccc4[nH]7)C=C6)C=C5)cc3)cc2)c1
REMARK SMILES IDX 20 1 21 2 19 3 16 4 17 5 92 6 18 7 91 8 15 9 11 10 12 11
REMARK SMILES IDX 93 12 13 13 14 14 10 15 8 16 7 17 9 19 6 20 5 21 4 22 3 23
REMARK SMILES IDX 2 24 1 25 22 26 23 27 24 28 25 30 26 31 27 32 28 33 29 34
REMARK SMILES IDX 30 36 31 37 32 38 90 39 33 40 89 41 34 42 35 43 36 44 83 45
REMARK SMILES IDX 37 46 88 47 82 48 84 49 38 50 87 51 81 52 80 53 39 55 69 56
REMARK SMILES IDX 50 57 68 58 51 59 54 60 67 61 85 62 52 63 53 64 66 66 86 67
REMARK SMILES IDX 55 68 40 69 41 70 49 71 42 72 48 73 43 74 44 75 45 76 46 77
REMARK SMILES IDX 47 78 70 79 71 80 79 81 72 82 78 83 73 84 74 85 75 86 76 87
REMARK SMILES IDX 77 88 56 89 57 90 65 91 58 92 64 93 59 94 60 95 61 96 62 97
REMARK SMILES IDX 63 98
REMARK H PARENT 7 18 24 29 28 35 84 54 54 65
REMARK Flexibility Score: inf
ROOT
ATOM      1  C   UNL A   1      35.436  32.471  28.773  1.00  0.00     0.105 C 
ATOM      2  C   UNL A   1      36.642  33.101  28.078  1.00  0.00     0.023 C 
ENDROOT
BRANCH   1   3
ATOM      3  C   UNL A   1      34.796  31.296  28.051  1.00  0.00    -0.036 A 
ATOM      4  C   UNL A   1      33.596  28.948  26.957  1.00  0.00    -0.018 A 
ATOM      5  C   UNL A   1      32.860  30.124  27.161  1.00  0.00     0.009 A 
ATOM      6  C   UNL A   1      34.967  28.996  27.252  1.00  0.00     0.009 A 
ATOM      7  C   UNL A   1      33.457  31.286  27.660  1.00  0.00     0.005 A 
ATOM      8  C   UNL A   1      35.553  30.140  27.809  1.00  0.00     0.005 A 
BRANCH   4   9
ATOM      9  C   UNL A   1      32.935  27.709  26.492  1.00  0.00    -0.015 A 
ATOM     10  C   UNL A   1      33.052  25.425  25.666  1.00  0.00     0.133 A 
ATOM     11  C   UNL A   1      31.666  25.302  25.705  1.00  0.00     0.047 A 
ATOM     12  C   UNL A   1      33.686  26.609  26.043  1.00  0.00     0.056 A 
ATOM     13  C   UNL A   1      30.905  26.379  26.141  1.00  0.00     0.004 A 
ATOM     14  C   UNL A   1      31.533  27.570  26.522  1.00  0.00     0.009 A 
BRANCH  10  15
ATOM     15  O   UNL A   1      33.770  24.348  25.124  1.00  0.00    -0.410 OA
BRANCH  15  16
ATOM     16  C   UNL A   1      33.605  24.053  23.779  1.00  0.00     0.412 C 
ATOM     17  N   UNL A   1      33.190  22.766  23.568  1.00  0.00    -0.321 N 
ATOM     18  H   UNL A   1      33.085  22.484  22.630  1.00  0.00     0.167 HD
ATOM     19  O   UNL A   1      33.787  24.818  22.841  1.00  0.00    -0.224 OA
BRANCH  17  20
ATOM     20  C   UNL A   1      32.889  21.777  24.582  1.00  0.00     0.119 C 
BRANCH  20  21
ATOM     21  C   UNL A   1      33.981  20.710  24.670  1.00  0.00     0.021 C 
BRANCH  21  22
ATOM     22  C   UNL A   1      33.462  19.266  24.685  1.00  0.00     0.002 C 
BRANCH  22  23
ATOM     23  C   UNL A   1      32.479  18.911  23.564  1.00  0.00    -0.000 C 
BRANCH  23  24
ATOM     24  C   UNL A   1      32.866  17.698  22.713  1.00  0.00    -0.003 C 
ATOM     25  C   UNL A   1      33.995  16.877  23.318  1.00  0.00     0.004 C 
ENDBRANCH  23  24
ENDBRANCH  22  23
ENDBRANCH  21  22
ENDBRANCH  20  21
ENDBRANCH  17  20
ENDBRANCH  15  16
ENDBRANCH  10  15
ENDBRANCH   4   9
ENDBRANCH   1   3
BRANCH   1  26
ATOM     26  C   UNL A   1      34.416  33.486  29.315  1.00  0.00     0.227 C 
ATOM     27  O   UNL A   1      33.883  34.292  28.543  1.00  0.00    -0.274 OA
ATOM     28  N   UNL A   1      34.030  33.555  30.618  1.00  0.00    -0.356 N 
ATOM     29  H   UNL A   1      33.332  34.227  30.795  1.00  0.00     0.163 HD
BRANCH  28  30
ATOM     30  C   UNL A   1      34.457  32.822  31.793  1.00  0.00     0.117 C 
BRANCH  30  31
ATOM     31  C   UNL A   1      35.644  33.479  32.490  1.00  0.00     0.042 C 
BRANCH  31  32
ATOM     32  C   UNL A   1      36.265  32.626  33.587  1.00  0.00     0.118 C 
BRANCH  32  33
ATOM     33  N   UNL A   1      36.289  31.215  33.232  1.00  0.00    -0.352 N 
ATOM     34  C   UNL A   1      37.159  30.503  32.449  1.00  0.00     0.251 C 
ATOM     35  H   UNL A   1      35.558  30.683  33.621  1.00  0.00     0.163 HD
ATOM     36  O   UNL A   1      36.838  29.367  32.102  1.00  0.00    -0.269 OA
BRANCH  34  37
ATOM     37  C   UNL A   1      38.464  31.063  32.023  1.00  0.00     0.039 A 
ATOM     38  C   UNL A   1      38.530  31.749  30.806  1.00  0.00     0.014 A 
ATOM     39  C   UNL A   1      39.636  30.849  32.754  1.00  0.00     0.014 A 
ATOM     40  C   UNL A   1      39.757  32.218  30.332  1.00  0.00     0.010 A 
ATOM     41  C   UNL A   1      40.840  31.408  32.334  1.00  0.00     0.010 A 
ATOM     42  C   UNL A   1      40.923  32.058  31.096  1.00  0.00    -0.014 A 
BRANCH  42  43
ATOM     43  C   UNL A   1      42.245  32.493  30.575  1.00  0.00     0.031 A 
ATOM     44  C   UNL A   1      43.095  31.530  29.783  1.00  0.00     0.074 A 
ATOM     45  C   UNL A   1      42.687  33.741  30.824  1.00  0.00     0.049 A 
ATOM     46  N   UNL A   1      44.268  31.722  29.236  1.00  0.00    -0.248 NA
ATOM     47  C   UNL A   1      42.571  30.166  29.603  1.00  0.00     0.031 C 
ATOM     48  C   UNL A   1      41.975  34.749  31.613  1.00  0.00     0.029 A 
ATOM     49  N   UNL A   1      43.836  34.378  30.431  1.00  0.00    -0.354 N 
ATOM     50  C   UNL A   1      44.626  30.504  28.666  1.00  0.00     0.074 A 
ATOM     51  C   UNL A   1      43.577  29.563  28.987  1.00  0.00     0.031 C 
ATOM     52  C   UNL A   1      42.686  35.889  31.612  1.00  0.00     0.029 A 
ATOM     53  C   UNL A   1      43.916  35.683  30.855  1.00  0.00     0.049 A 
ATOM     54  H   UNL A   1      44.538  33.941  29.896  1.00  0.00     0.167 HD
ATOM     55  C   UNL A   1      45.714  30.200  27.920  1.00  0.00     0.031 A 
ATOM     56  C   UNL A   1      44.871  36.612  30.651  1.00  0.00     0.031 A 
ATOM     57  C   UNL A   1      46.748  31.144  27.590  1.00  0.00     0.049 A 
ATOM     58  C   UNL A   1      46.065  36.254  29.809  1.00  0.00     0.074 A 
ATOM     59  C   UNL A   1      47.870  30.955  26.802  1.00  0.00     0.029 A 
ATOM     60  N   UNL A   1      46.784  32.460  28.029  1.00  0.00    -0.354 N 
ATOM     61  N   UNL A   1      46.357  35.113  29.230  1.00  0.00    -0.248 NA
ATOM     62  C   UNL A   1      47.048  37.320  29.571  1.00  0.00     0.031 C 
ATOM     63  C   UNL A   1      48.611  32.142  26.806  1.00  0.00     0.029 A 
ATOM     64  C   UNL A   1      47.915  33.091  27.539  1.00  0.00     0.049 A 
ATOM     65  H   UNL A   1      46.105  32.883  28.604  1.00  0.00     0.167 HD
ATOM     66  C   UNL A   1      47.537  35.336  28.527  1.00  0.00     0.074 A 
ATOM     67  C   UNL A   1      47.895  36.723  28.744  1.00  0.00     0.031 C 
ATOM     68  C   UNL A   1      48.255  34.473  27.765  1.00  0.00     0.031 A 
BRANCH  55  69
ATOM     69  C   UNL A   1      45.840  28.785  27.412  1.00  0.00    -0.014 A 
ATOM     70  C   UNL A   1      45.246  28.389  26.199  1.00  0.00     0.010 A 
ATOM     71  C   UNL A   1      46.588  27.843  28.143  1.00  0.00     0.010 A 
ATOM     72  C   UNL A   1      45.358  27.070  25.750  1.00  0.00     0.020 A 
ATOM     73  C   UNL A   1      46.730  26.531  27.681  1.00  0.00     0.020 A 
ATOM     74  C   UNL A   1      46.098  26.148  26.496  1.00  0.00     0.054 A 
BRANCH  74  75
ATOM     75  S   UNL A   1      46.246  24.450  25.877  1.00  0.00     0.124 S 
ATOM     76  O   UNL A   1      47.448  23.982  26.561  1.00  0.00    -0.237 OA
ATOM     77  O   UNL A   1      44.995  23.838  26.318  1.00  0.00    -0.237 OA
ATOM     78  O   UNL A   1      46.377  24.618  24.432  1.00  0.00    -0.744 OA
ENDBRANCH  74  75
ENDBRANCH  55  69
BRANCH  56  79
ATOM     79  C   UNL A   1      44.715  37.977  31.226  1.00  0.00    -0.014 A 
ATOM     80  C   UNL A   1      45.227  38.281  32.501  1.00  0.00     0.010 A 
ATOM     81  C   UNL A   1      44.063  38.987  30.494  1.00  0.00     0.010 A 
ATOM     82  C   UNL A   1      45.065  39.560  33.043  1.00  0.00     0.020 A 
ATOM     83  C   UNL A   1      43.928  40.274  31.020  1.00  0.00     0.020 A 
ATOM     84  C   UNL A   1      44.418  40.549  32.298  1.00  0.00     0.054 A 
BRANCH  84  85
ATOM     85  S   UNL A   1      44.258  42.213  33.004  1.00  0.00     0.124 S 
ATOM     86  O   UNL A   1      44.822  42.033  34.339  1.00  0.00    -0.237 OA
ATOM     87  O   UNL A   1      45.052  43.023  32.084  1.00  0.00    -0.237 OA
ATOM     88  O   UNL A   1      42.820  42.465  32.961  1.00  0.00    -0.744 OA
ENDBRANCH  84  85
ENDBRANCH  56  79
BRANCH  68  89
ATOM     89  C   UNL A   1      49.469  35.022  27.062  1.00  0.00    -0.014 A 
ATOM     90  C   UNL A   1      50.742  34.999  27.659  1.00  0.00     0.010 A 
ATOM     91  C   UNL A   1      49.330  35.549  25.765  1.00  0.00     0.010 A 
ATOM     92  C   UNL A   1      51.843  35.547  26.993  1.00  0.00     0.020 A 
ATOM     93  C   UNL A   1      50.433  36.066  25.082  1.00  0.00     0.020 A 
ATOM     94  C   UNL A   1      51.679  36.083  25.711  1.00  0.00     0.054 A 
BRANCH  94  95
ATOM     95  S   UNL A   1      53.122  36.783  24.866  1.00  0.00     0.124 S 
ATOM     96  O   UNL A   1      53.108  38.165  25.337  1.00  0.00    -0.237 OA
ATOM     97  O   UNL A   1      54.219  35.958  25.367  1.00  0.00    -0.237 OA
ATOM     98  O   UNL A   1      52.814  36.604  23.448  1.00  0.00    -0.744 OA
ENDBRANCH  94  95
ENDBRANCH  68  89
ENDBRANCH  42  43
ENDBRANCH  34  37
ENDBRANCH  32  33
ENDBRANCH  31  32
ENDBRANCH  30  31
ENDBRANCH  28  30
ENDBRANCH   1  26
TORSDOF 22
ENDMDL
MODEL 3
REMARK VINA RESULT:      -9.5      6.346      7.770
REMARK SMILES CCCCCCNC(=O)Oc1cccc(-c2ccc([C@@H](C)C(=O)NCCCNC(=O)c3ccc(-c4c5nc(c(-c6ccc(S(=O)(=O)[O-])cc6)c6ccc([nH]6)c(-c6ccc(S(=O)(=O)[O-])cc6)c6nc(c(-c7ccc(S(=O)(=O)[O-])cc7)c7ccc4[nH]7)C=C6)C=C5)cc3)cc2)c1
REMARK SMILES IDX 20 1 21 2 19 3 16 4 17 5 92 6 18 7 91 8 15 9 11 10 12 11
REMARK SMILES IDX 93 12 13 13 14 14 10 15 8 16 7 17 9 19 6 20 5 21 4 22 3 23
REMARK SMILES IDX 2 24 1 25 22 26 23 27 24 28 25 30 26 31 27 32 28 33 29 34
REMARK SMILES IDX 30 36 31 37 32 38 90 39 33 40 89 41 34 42 35 43 36 44 83 45
REMARK SMILES IDX 37 46 88 47 82 48 84 49 38 50 87 51 81 52 80 53 39 55 69 56
REMARK SMILES IDX 50 57 68 58 51 59 54 60 67 61 85 62 52 63 53 64 66 66 86 67
REMARK SMILES IDX 55 68 40 69 41 70 49 71 42 72 48 73 43 74 44 75 45 76 46 77
REMARK SMILES IDX 47 78 70 79 71 80 79 81 72 82 78 83 73 84 74 85 75 86 76 87
REMARK SMILES IDX 77 88 56 89 57 90 65 91 58 92 64 93 59 94 60 95 61 96 62 97
REMARK SMILES IDX 63 98
REMARK H PARENT 7 18 24 29 28 35 84 54 54 65
REMARK Flexibility Score: inf
ROOT
ATOM      1  C   UNL A   1      41.272  26.490  27.501  1.00  0.00     0.105 C 
ATOM      2  C   UNL A   1      42.040  26.094  28.761  1.00  0.00     0.023 C 
ENDROOT
BRANCH   1   3
ATOM      3  C   UNL A   1      40.144  27.488  27.700  1.00  0.00    -0.036 A 
ATOM      4  C   UNL A   1      37.897  29.244  27.834  1.00  0.00    -0.018 A 
ATOM      5  C   UNL A   1      38.063  28.191  28.744  1.00  0.00     0.009 A 
ATOM      6  C   UNL A   1      38.919  29.440  26.894  1.00  0.00     0.009 A 
ATOM      7  C   UNL A   1      39.183  27.355  28.703  1.00  0.00     0.005 A 
ATOM      8  C   UNL A   1      40.011  28.567  26.813  1.00  0.00     0.005 A 
BRANCH   4   9
ATOM      9  C   UNL A   1      36.673  30.075  27.850  1.00  0.00    -0.015 A 
ATOM     10  C   UNL A   1      34.250  30.282  27.822  1.00  0.00     0.133 A 
ATOM     11  C   UNL A   1      34.330  31.661  27.989  1.00  0.00     0.047 A 
ATOM     12  C   UNL A   1      35.398  29.493  27.743  1.00  0.00     0.056 A 
ATOM     13  C   UNL A   1      35.580  32.257  28.092  1.00  0.00     0.004 A 
ATOM     14  C   UNL A   1      36.737  31.473  28.015  1.00  0.00     0.009 A 
BRANCH  10  15
ATOM     15  O   UNL A   1      32.971  29.740  27.621  1.00  0.00    -0.410 OA
BRANCH  15  16
ATOM     16  C   UNL A   1      32.405  29.828  26.359  1.00  0.00     0.412 C 
ATOM     17  N   UNL A   1      32.431  28.637  25.684  1.00  0.00    -0.321 N 
ATOM     18  H   UNL A   1      32.073  28.642  24.767  1.00  0.00     0.167 HD
ATOM     19  O   UNL A   1      31.915  30.828  25.852  1.00  0.00    -0.224 OA
BRANCH  17  20
ATOM     20  C   UNL A   1      32.932  27.373  26.182  1.00  0.00     0.119 C 
BRANCH  20  21
ATOM     21  C   UNL A   1      34.009  26.793  25.265  1.00  0.00     0.021 C 
BRANCH  21  22
ATOM     22  C   UNL A   1      33.802  25.320  24.889  1.00  0.00     0.002 C 
BRANCH  22  23
ATOM     23  C   UNL A   1      34.856  24.350  25.435  1.00  0.00    -0.000 C 
BRANCH  23  24
ATOM     24  C   UNL A   1      34.557  22.865  25.210  1.00  0.00    -0.003 C 
ATOM     25  C   UNL A   1      33.209  22.617  24.551  1.00  0.00     0.004 C 
ENDBRANCH  23  24
ENDBRANCH  22  23
ENDBRANCH  21  22
ENDBRANCH  20  21
ENDBRANCH  17  20
ENDBRANCH  15  16
ENDBRANCH  10  15
ENDBRANCH   4   9
ENDBRANCH   1   3
BRANCH   1  26
ATOM     26  C   UNL A   1      40.892  25.308  26.594  1.00  0.00     0.227 C 
ATOM     27  O   UNL A   1      39.710  24.948  26.518  1.00  0.00    -0.274 OA
ATOM     28  N   UNL A   1      41.781  24.617  25.831  1.00  0.00    -0.356 N 
ATOM     29  H   UNL A   1      41.371  23.919  25.269  1.00  0.00     0.163 HD
BRANCH  28  30
ATOM     30  C   UNL A   1      43.220  24.717  25.694  1.00  0.00     0.117 C 
BRANCH  30  31
ATOM     31  C   UNL A   1      43.939  23.448  26.143  1.00  0.00     0.042 C 
BRANCH  31  32
ATOM     32  C   UNL A   1      45.330  23.693  26.708  1.00  0.00     0.118 C 
BRANCH  32  33
ATOM     33  N   UNL A   1      46.331  23.815  25.658  1.00  0.00    -0.352 N 
ATOM     34  C   UNL A   1      46.869  24.922  25.056  1.00  0.00     0.251 C 
ATOM     35  H   UNL A   1      46.681  22.957  25.326  1.00  0.00     0.163 HD
ATOM     36  O   UNL A   1      47.525  24.768  24.027  1.00  0.00    -0.269 OA
BRANCH  34  37
ATOM     37  C   UNL A   1      46.683  26.282  25.616  1.00  0.00     0.039 A 
ATOM     38  C   UNL A   1      47.292  26.588  26.839  1.00  0.00     0.014 A 
ATOM     39  C   UNL A   1      45.853  27.227  25.008  1.00  0.00     0.014 A 
ATOM     40  C   UNL A   1      47.071  27.830  27.438  1.00  0.00     0.010 A 
ATOM     41  C   UNL A   1      45.719  28.502  25.553  1.00  0.00     0.010 A 
ATOM     42  C   UNL A   1      46.289  28.802  26.796  1.00  0.00    -0.014 A 
BRANCH  42  43
ATOM     43  C   UNL A   1      45.992  30.101  27.453  1.00  0.00     0.031 A 
ATOM     44  C   UNL A   1      46.953  31.255  27.307  1.00  0.00     0.074 A 
ATOM     45  C   UNL A   1      44.873  30.240  28.190  1.00  0.00     0.049 A 
ATOM     46  N   UNL A   1      46.867  32.467  27.793  1.00  0.00    -0.248 NA
ATOM     47  C   UNL A   1      48.184  31.009  26.537  1.00  0.00     0.031 C 
ATOM     48  C   UNL A   1      43.887  29.185  28.440  1.00  0.00     0.029 A 
ATOM     49  N   UNL A   1      44.370  31.328  28.855  1.00  0.00    -0.354 N 
ATOM     50  C   UNL A   1      48.034  33.117  27.402  1.00  0.00     0.074 A 
ATOM     51  C   UNL A   1      48.840  32.149  26.695  1.00  0.00     0.031 C 
ATOM     52  C   UNL A   1      42.880  29.690  29.171  1.00  0.00     0.029 A 
ATOM     53  C   UNL A   1      43.163  31.089  29.471  1.00  0.00     0.049 A 
ATOM     54  H   UNL A   1      44.829  32.198  28.891  1.00  0.00     0.167 HD
ATOM     55  C   UNL A   1      48.394  34.409  27.590  1.00  0.00     0.031 A 
ATOM     56  C   UNL A   1      42.372  31.908  30.190  1.00  0.00     0.031 A 
ATOM     57  C   UNL A   1      47.581  35.373  28.282  1.00  0.00     0.049 A 
ATOM     58  C   UNL A   1      42.785  33.343  30.376  1.00  0.00     0.074 A 
ATOM     59  C   UNL A   1      47.827  36.719  28.488  1.00  0.00     0.029 A 
ATOM     60  N   UNL A   1      46.360  35.093  28.878  1.00  0.00    -0.354 N 
ATOM     61  N   UNL A   1      43.866  33.954  29.948  1.00  0.00    -0.248 NA
ATOM     62  C   UNL A   1      41.859  34.206  31.120  1.00  0.00     0.031 C 
ATOM     63  C   UNL A   1      46.778  37.242  29.253  1.00  0.00     0.029 A 
ATOM     64  C   UNL A   1      45.846  36.238  29.464  1.00  0.00     0.049 A 
ATOM     65  H   UNL A   1      45.923  34.211  28.884  1.00  0.00     0.167 HD
ATOM     66  C   UNL A   1      43.730  35.282  30.338  1.00  0.00     0.074 A 
ATOM     67  C   UNL A   1      42.457  35.386  31.023  1.00  0.00     0.031 C 
ATOM     68  C   UNL A   1      44.577  36.323  30.141  1.00  0.00     0.031 A 
BRANCH  55  69
ATOM     69  C   UNL A   1      49.727  34.850  27.038  1.00  0.00    -0.014 A 
ATOM     70  C   UNL A   1      50.901  34.758  27.808  1.00  0.00     0.010 A 
ATOM     71  C   UNL A   1      49.814  35.335  25.720  1.00  0.00     0.010 A 
ATOM     72  C   UNL A   1      52.126  35.185  27.289  1.00  0.00     0.020 A 
ATOM     73  C   UNL A   1      51.043  35.733  25.186  1.00  0.00     0.020 A 
ATOM     74  C   UNL A   1      52.189  35.673  25.980  1.00  0.00     0.054 A 
BRANCH  74  75
ATOM     75  S   UNL A   1      53.797  36.198  25.325  1.00  0.00     0.124 S 
ATOM     76  O   UNL A   1      54.578  36.373  26.547  1.00  0.00    -0.237 OA
ATOM     77  O   UNL A   1      54.187  35.067  24.488  1.00  0.00    -0.237 OA
ATOM     78  O   UNL A   1      53.490  37.429  24.601  1.00  0.00    -0.744 OA
ENDBRANCH  74  75
ENDBRANCH  55  69
BRANCH  56  79
ATOM     79  C   UNL A   1      41.092  31.398  30.756  1.00  0.00    -0.014 A 
ATOM     80  C   UNL A   1      39.877  31.591  30.073  1.00  0.00     0.010 A 
ATOM     81  C   UNL A   1      41.083  30.704  31.980  1.00  0.00     0.010 A 
ATOM     82  C   UNL A   1      38.676  31.124  30.616  1.00  0.00     0.020 A 
ATOM     83  C   UNL A   1      39.889  30.207  32.509  1.00  0.00     0.020 A 
ATOM     84  C   UNL A   1      38.690  30.433  31.830  1.00  0.00     0.054 A 
BRANCH  84  85
ATOM     85  S   UNL A   1      37.125  29.798  32.494  1.00  0.00     0.124 S 
ATOM     86  O   UNL A   1      37.544  28.546  33.116  1.00  0.00    -0.237 OA
ATOM     87  O   UNL A   1      36.720  30.858  33.413  1.00  0.00    -0.237 OA
ATOM     88  O   UNL A   1      36.283  29.658  31.308  1.00  0.00    -0.744 OA
ENDBRANCH  84  85
ENDBRANCH  56  79
BRANCH  68  89
ATOM     89  C   UNL A   1      44.127  37.678  30.621  1.00  0.00    -0.014 A 
ATOM     90  C   UNL A   1      43.595  38.635  29.740  1.00  0.00     0.010 A 
ATOM     91  C   UNL A   1      44.220  37.985  31.991  1.00  0.00     0.010 A 
ATOM     92  C   UNL A   1      43.218  39.896  30.212  1.00  0.00     0.020 A 
ATOM     93  C   UNL A   1      43.813  39.231  32.473  1.00  0.00     0.020 A 
ATOM     94  C   UNL A   1      43.336  40.188  31.575  1.00  0.00     0.054 A 
BRANCH  94  95
ATOM     95  S   UNL A   1      42.837  41.828  32.164  1.00  0.00     0.124 S 
ATOM     96  O   UNL A   1      42.250  41.517  33.464  1.00  0.00    -0.237 OA
ATOM     97  O   UNL A   1      44.104  42.555  32.204  1.00  0.00    -0.237 OA
ATOM     98  O   UNL A   1      41.893  42.289  31.148  1.00  0.00    -0.744 OA
ENDBRANCH  94  95
ENDBRANCH  68  89
ENDBRANCH  42  43
ENDBRANCH  34  37
ENDBRANCH  32  33
ENDBRANCH  31  32
ENDBRANCH  30  31
ENDBRANCH  28  30
ENDBRANCH   1  26
TORSDOF 22
ENDMDL
