MODEL 1
REMARK VINA RESULT:     -10.9      0.000      0.000
REMARK SMILES COc1ccc2c(c1)c(Cc1nc(-c3ccc(C(=O)NCCCNC(=O)c4ccc(-c5c6nc(c(-c7ccc(S(=O)(=O)[O-])cc7)c7ccc([nH]7)c(-c7ccc(S(=O)(=O)[O-])cc7)c7nc(c(-c8ccc(S(=O)(=O)[O-])cc8)c8ccc5[nH]8)C=C7)C=C6)cc4)cc3)cs1)c(C)n2C(=O)c1ccc(Cl)cc1
REMARK SMILES IDX 21 1 20 2 18 3 19 4 17 6 14 7 15 8 88 9 16 10 87 11 13 12
REMARK SMILES IDX 11 13 12 14 90 15 89 16 10 17 9 18 3 19 4 20 8 21 5 22 7 23
REMARK SMILES IDX 6 24 93 25 91 26 92 27 2 28 1 29 94 30 95 31 96 32 97 33
REMARK SMILES IDX 102 34 98 35 101 36 99 37 100 38 22 39 23 40 24 41 25 42
REMARK SMILES IDX 26 44 27 45 28 46 86 47 29 48 85 49 30 50 31 51 32 52 79 53
REMARK SMILES IDX 33 54 84 55 78 56 80 57 34 58 83 59 77 60 76 61 35 63 65 64
REMARK SMILES IDX 46 65 64 66 47 67 50 68 63 69 81 70 48 71 49 72 62 74 82 75
REMARK SMILES IDX 51 76 36 77 37 78 45 79 38 80 44 81 39 82 40 83 41 84 42 85
REMARK SMILES IDX 43 86 66 87 67 88 75 89 68 90 74 91 69 92 70 93 71 94 72 95
REMARK SMILES IDX 73 96 52 97 53 98 61 99 54 100 60 101 55 102 56 103 57 104
REMARK SMILES IDX 58 105 59 106
REMARK H PARENT 20 5 24 43 80 62 50 73
REMARK Flexibility Score: inf
ROOT
ATOM      1  C   UNL A   1      47.078  24.046  25.718  1.00  0.00     0.118 C 
ENDROOT
BRANCH   1   2
ATOM      2  N   UNL A   1      47.032  25.465  25.404  1.00  0.00    -0.352 N 
ATOM      3  C   UNL A   1      46.976  26.598  26.181  1.00  0.00     0.251 C 
ATOM      4  O   UNL A   1      46.979  27.685  25.600  1.00  0.00    -0.269 OA
ATOM      5  H   UNL A   1      47.044  25.654  24.438  1.00  0.00     0.163 HD
BRANCH   3   6
ATOM      6  C   UNL A   1      46.832  26.582  27.664  1.00  0.00     0.039 A 
ATOM      7  C   UNL A   1      46.354  26.322  30.437  1.00  0.00     0.001 A 
ATOM      8  C   UNL A   1      45.286  26.481  29.550  1.00  0.00     0.011 A 
ATOM      9  C   UNL A   1      47.658  26.414  29.936  1.00  0.00     0.011 A 
ATOM     10  C   UNL A   1      45.524  26.603  28.176  1.00  0.00     0.014 A 
ATOM     11  C   UNL A   1      47.895  26.579  28.566  1.00  0.00     0.014 A 
BRANCH   7  12
ATOM     12  C   UNL A   1      46.148  26.094  31.860  1.00  0.00     0.081 A 
ATOM     13  C   UNL A   1      46.772  25.422  33.879  1.00  0.00     0.098 A 
ATOM     14  N   UNL A   1      47.124  25.483  32.613  1.00  0.00    -0.241 NA
ATOM     15  S   UNL A   1      45.189  25.997  34.218  1.00  0.00    -0.126 S 
ATOM     16  C   UNL A   1      44.999  26.407  32.560  1.00  0.00     0.095 A 
BRANCH  13  17
ATOM     17  C   UNL A   1      47.678  24.929  34.970  1.00  0.00     0.105 C 
BRANCH  17  18
ATOM     18  C   UNL A   1      47.662  23.420  35.055  1.00  0.00    -0.012 A 
ATOM     19  C   UNL A   1      50.726  21.762  33.481  1.00  0.00     0.119 A 
ATOM     20  C   UNL A   1      50.302  20.458  33.663  1.00  0.00     0.048 A 
ATOM     21  C   UNL A   1      49.911  22.809  33.902  1.00  0.00     0.057 A 
ATOM     22  C   UNL A   1      49.072  20.185  34.276  1.00  0.00     0.031 A 
ATOM     23  C   UNL A   1      48.678  22.561  34.551  1.00  0.00     0.008 A 
ATOM     24  C   UNL A   1      48.280  21.243  34.779  1.00  0.00     0.057 A 
ATOM     25  N   UNL A   1      47.085  21.274  35.527  1.00  0.00    -0.280 N 
ATOM     26  C   UNL A   1      46.685  22.618  35.632  1.00  0.00     0.028 A 
ATOM     27  C   UNL A   1      45.434  23.116  36.284  1.00  0.00     0.065 C 
BRANCH  19  28
ATOM     28  O   UNL A   1      51.931  22.128  32.950  1.00  0.00    -0.497 OA
ATOM     29  C   UNL A   1      52.581  23.205  33.612  1.00  0.00     0.278 C 
ENDBRANCH  19  28
BRANCH  25  30
ATOM     30  C   UNL A   1      46.415  20.141  36.081  1.00  0.00     0.262 C 
ATOM     31  O   UNL A   1      45.507  19.603  35.461  1.00  0.00    -0.268 OA
BRANCH  30  32
ATOM     32  C   UNL A   1      46.735  19.516  37.378  1.00  0.00     0.040 A 
ATOM     33  C   UNL A   1      47.933  19.803  38.040  1.00  0.00     0.015 A 
ATOM     34  C   UNL A   1      45.813  18.614  37.921  1.00  0.00     0.015 A 
ATOM     35  C   UNL A   1      48.244  19.117  39.217  1.00  0.00     0.021 A 
ATOM     36  C   UNL A   1      46.126  17.937  39.100  1.00  0.00     0.021 A 
ATOM     37  C   UNL A   1      47.346  18.180  39.734  1.00  0.00     0.041 A 
ATOM     38  Cl  UNL A   1      47.754  17.300  41.155  1.00  0.00    -0.084 Cl
ENDBRANCH  30  32
ENDBRANCH  25  30
ENDBRANCH  17  18
ENDBRANCH  13  17
ENDBRANCH   7  12
ENDBRANCH   3   6
ENDBRANCH   1   2
BRANCH   1  39
ATOM     39  C   UNL A   1      45.720  23.410  25.989  1.00  0.00     0.042 C 
BRANCH  39  40
ATOM     40  C   UNL A   1      45.000  22.791  24.794  1.00  0.00     0.118 C 
BRANCH  40  41
ATOM     41  N   UNL A   1      43.666  22.281  25.044  1.00  0.00    -0.352 N 
ATOM     42  C   UNL A   1      42.504  22.786  25.564  1.00  0.00     0.251 C 
ATOM     43  H   UNL A   1      43.571  21.340  24.773  1.00  0.00     0.163 HD
ATOM     44  O   UNL A   1      41.505  22.076  25.409  1.00  0.00    -0.269 OA
BRANCH  42  45
ATOM     45  C   UNL A   1      42.364  24.058  26.328  1.00  0.00     0.039 A 
ATOM     46  C   UNL A   1      42.337  24.176  27.716  1.00  0.00     0.014 A 
ATOM     47  C   UNL A   1      42.199  25.229  25.560  1.00  0.00     0.014 A 
ATOM     48  C   UNL A   1      42.055  25.406  28.317  1.00  0.00     0.010 A 
ATOM     49  C   UNL A   1      41.952  26.465  26.156  1.00  0.00     0.010 A 
ATOM     50  C   UNL A   1      41.839  26.549  27.539  1.00  0.00    -0.014 A 
BRANCH  50  51
ATOM     51  C   UNL A   1      41.601  27.818  28.234  1.00  0.00     0.031 A 
ATOM     52  C   UNL A   1      42.668  28.851  28.096  1.00  0.00     0.074 A 
ATOM     53  C   UNL A   1      40.454  28.151  28.861  1.00  0.00     0.049 A 
ATOM     54  N   UNL A   1      43.370  29.417  29.024  1.00  0.00    -0.248 NA
ATOM     55  C   UNL A   1      43.037  29.262  26.732  1.00  0.00     0.031 C 
ATOM     56  C   UNL A   1      39.172  27.445  28.826  1.00  0.00     0.029 A 
ATOM     57  N   UNL A   1      40.171  29.277  29.584  1.00  0.00    -0.354 N 
ATOM     58  C   UNL A   1      44.169  30.367  28.389  1.00  0.00     0.074 A 
ATOM     59  C   UNL A   1      44.000  30.154  26.973  1.00  0.00     0.031 C 
ATOM     60  C   UNL A   1      38.203  28.264  29.294  1.00  0.00     0.029 A 
ATOM     61  C   UNL A   1      38.816  29.481  29.799  1.00  0.00     0.049 A 
ATOM     62  H   UNL A   1      40.866  29.888  29.923  1.00  0.00     0.167 HD
ATOM     63  C   UNL A   1      44.806  31.365  29.064  1.00  0.00     0.031 A 
ATOM     64  C   UNL A   1      38.230  30.599  30.291  1.00  0.00     0.031 A 
ATOM     65  C   UNL A   1      44.847  31.120  30.478  1.00  0.00     0.049 A 
ATOM     66  C   UNL A   1      39.251  31.368  31.036  1.00  0.00     0.074 A 
ATOM     67  C   UNL A   1      45.438  30.175  31.289  1.00  0.00     0.029 A 
ATOM     68  N   UNL A   1      43.925  31.779  31.252  1.00  0.00    -0.354 N 
ATOM     69  N   UNL A   1      39.803  30.971  32.147  1.00  0.00    -0.248 NA
ATOM     70  C   UNL A   1      39.908  32.489  30.381  1.00  0.00     0.031 C 
ATOM     71  C   UNL A   1      44.559  30.030  32.399  1.00  0.00     0.029 A 
ATOM     72  C   UNL A   1      43.490  30.914  32.222  1.00  0.00     0.049 A 
ATOM     73  H   UNL A   1      43.628  32.710  31.132  1.00  0.00     0.167 HD
ATOM     74  C   UNL A   1      41.081  31.503  32.120  1.00  0.00     0.074 A 
ATOM     75  C   UNL A   1      41.034  32.539  31.095  1.00  0.00     0.031 C 
ATOM     76  C   UNL A   1      42.128  30.870  32.726  1.00  0.00     0.031 A 
BRANCH  63  77
ATOM     77  C   UNL A   1      45.150  32.719  28.486  1.00  0.00    -0.014 A 
ATOM     78  C   UNL A   1      44.212  33.763  28.357  1.00  0.00     0.010 A 
ATOM     79  C   UNL A   1      46.508  33.062  28.292  1.00  0.00     0.010 A 
ATOM     80  C   UNL A   1      44.594  35.071  28.045  1.00  0.00     0.020 A 
ATOM     81  C   UNL A   1      46.907  34.381  28.026  1.00  0.00     0.020 A 
ATOM     82  C   UNL A   1      45.942  35.378  27.902  1.00  0.00     0.054 A 
BRANCH  82  83
ATOM     83  S   UNL A   1      46.405  37.111  27.657  1.00  0.00     0.124 S 
ATOM     84  O   UNL A   1      47.178  37.042  26.420  1.00  0.00    -0.237 OA
ATOM     85  O   UNL A   1      45.106  37.770  27.552  1.00  0.00    -0.237 OA
ATOM     86  O   UNL A   1      47.171  37.435  28.857  1.00  0.00    -0.744 OA
ENDBRANCH  82  83
ENDBRANCH  63  77
BRANCH  64  87
ATOM     87  C   UNL A   1      36.944  31.203  29.862  1.00  0.00    -0.014 A 
ATOM     88  C   UNL A   1      36.842  31.799  28.587  1.00  0.00     0.010 A 
ATOM     89  C   UNL A   1      35.928  31.472  30.797  1.00  0.00     0.010 A 
ATOM     90  C   UNL A   1      35.810  32.691  28.282  1.00  0.00     0.020 A 
ATOM     91  C   UNL A   1      34.892  32.374  30.500  1.00  0.00     0.020 A 
ATOM     92  C   UNL A   1      34.865  33.005  29.256  1.00  0.00     0.054 A 
BRANCH  92  93
ATOM     93  S   UNL A   1      33.670  34.322  28.891  1.00  0.00     0.124 S 
ATOM     94  O   UNL A   1      34.505  35.308  28.209  1.00  0.00    -0.237 OA
ATOM     95  O   UNL A   1      32.694  33.638  28.046  1.00  0.00    -0.237 OA
ATOM     96  O   UNL A   1      33.179  34.721  30.207  1.00  0.00    -0.744 OA
ENDBRANCH  92  93
ENDBRANCH  64  87
BRANCH  76  97
ATOM     97  C   UNL A   1      41.847  29.825  33.782  1.00  0.00    -0.014 A 
ATOM     98  C   UNL A   1      42.352  30.061  35.076  1.00  0.00     0.010 A 
ATOM     99  C   UNL A   1      41.286  28.563  33.504  1.00  0.00     0.010 A 
ATOM    100  C   UNL A   1      42.342  29.060  36.049  1.00  0.00     0.020 A 
ATOM    101  C   UNL A   1      41.245  27.563  34.487  1.00  0.00     0.020 A 
ATOM    102  C   UNL A   1      41.802  27.809  35.744  1.00  0.00     0.054 A 
BRANCH 102 103
ATOM    103  S   UNL A   1      41.873  26.511  37.008  1.00  0.00     0.124 S 
ATOM    104  O   UNL A   1      40.550  26.604  37.621  1.00  0.00    -0.237 OA
ATOM    105  O   UNL A   1      42.109  25.303  36.221  1.00  0.00    -0.237 OA
ATOM    106  O   UNL A   1      42.984  26.914  37.867  1.00  0.00    -0.744 OA
ENDBRANCH 102 103
ENDBRANCH  76  97
ENDBRANCH  50  51
ENDBRANCH  42  45
ENDBRANCH  40  41
ENDBRANCH  39  40
ENDBRANCH   1  39
TORSDOF 19
ENDMDL
MODEL 2
REMARK VINA RESULT:     -10.6      4.303     12.268
REMARK SMILES COc1ccc2c(c1)c(Cc1nc(-c3ccc(C(=O)NCCCNC(=O)c4ccc(-c5c6nc(c(-c7ccc(S(=O)(=O)[O-])cc7)c7ccc([nH]7)c(-c7ccc(S(=O)(=O)[O-])cc7)c7nc(c(-c8ccc(S(=O)(=O)[O-])cc8)c8ccc5[nH]8)C=C7)C=C6)cc4)cc3)cs1)c(C)n2C(=O)c1ccc(Cl)cc1
REMARK SMILES IDX 21 1 20 2 18 3 19 4 17 6 14 7 15 8 88 9 16 10 87 11 13 12
REMARK SMILES IDX 11 13 12 14 90 15 89 16 10 17 9 18 3 19 4 20 8 21 5 22 7 23
REMARK SMILES IDX 6 24 93 25 91 26 92 27 2 28 1 29 94 30 95 31 96 32 97 33
REMARK SMILES IDX 102 34 98 35 101 36 99 37 100 38 22 39 23 40 24 41 25 42
REMARK SMILES IDX 26 44 27 45 28 46 86 47 29 48 85 49 30 50 31 51 32 52 79 53
REMARK SMILES IDX 33 54 84 55 78 56 80 57 34 58 83 59 77 60 76 61 35 63 65 64
REMARK SMILES IDX 46 65 64 66 47 67 50 68 63 69 81 70 48 71 49 72 62 74 82 75
REMARK SMILES IDX 51 76 36 77 37 78 45 79 38 80 44 81 39 82 40 83 41 84 42 85
REMARK SMILES IDX 43 86 66 87 67 88 75 89 68 90 74 91 69 92 70 93 71 94 72 95
REMARK SMILES IDX 73 96 52 97 53 98 61 99 54 100 60 101 55 102 56 103 57 104
REMARK SMILES IDX 58 105 59 106
REMARK H PARENT 20 5 24 43 80 62 50 73
REMARK Flexibility Score: inf
ROOT
ATOM      1  C   UNL A   1      47.469  24.222  36.332  1.00  0.00     0.118 C 
ENDROOT
BRANCH   1   2
ATOM      2  N   UNL A   1      46.901  23.182  35.491  1.00  0.00    -0.352 N 
ATOM      3  C   UNL A   1      45.884  23.172  34.565  1.00  0.00     0.251 C 
ATOM      4  O   UNL A   1      45.657  22.109  33.983  1.00  0.00    -0.269 OA
ATOM      5  H   UNL A   1      47.332  22.304  35.607  1.00  0.00     0.163 HD
BRANCH   3   6
ATOM      6  C   UNL A   1      45.001  24.339  34.290  1.00  0.00     0.039 A 
ATOM      7  C   UNL A   1      43.353  26.624  34.070  1.00  0.00     0.001 A 
ATOM      8  C   UNL A   1      43.090  25.658  35.044  1.00  0.00     0.011 A 
ATOM      9  C   UNL A   1      44.368  26.375  33.138  1.00  0.00     0.011 A 
ATOM     10  C   UNL A   1      43.911  24.530  35.156  1.00  0.00     0.014 A 
ATOM     11  C   UNL A   1      45.162  25.225  33.226  1.00  0.00     0.014 A 
BRANCH   7  12
ATOM     12  C   UNL A   1      42.585  27.858  33.980  1.00  0.00     0.081 A 
ATOM     13  C   UNL A   1      40.739  29.031  33.615  1.00  0.00     0.098 A 
ATOM     14  N   UNL A   1      41.270  27.828  33.575  1.00  0.00    -0.241 NA
ATOM     15  S   UNL A   1      41.831  30.290  34.035  1.00  0.00    -0.126 S 
ATOM     16  C   UNL A   1      43.076  29.123  34.233  1.00  0.00     0.095 A 
BRANCH  13  17
ATOM     17  C   UNL A   1      39.286  29.306  33.357  1.00  0.00     0.105 C 
BRANCH  17  18
ATOM     18  C   UNL A   1      39.085  29.976  32.017  1.00  0.00    -0.012 A 
ATOM     19  C   UNL A   1      39.315  27.576  29.050  1.00  0.00     0.119 A 
ATOM     20  C   UNL A   1      39.188  28.540  28.066  1.00  0.00     0.048 A 
ATOM     21  C   UNL A   1      39.303  27.962  30.388  1.00  0.00     0.057 A 
ATOM     22  C   UNL A   1      39.033  29.891  28.404  1.00  0.00     0.031 A 
ATOM     23  C   UNL A   1      39.119  29.315  30.758  1.00  0.00     0.008 A 
ATOM     24  C   UNL A   1      38.938  30.276  29.761  1.00  0.00     0.057 A 
ATOM     25  N   UNL A   1      38.671  31.509  30.391  1.00  0.00    -0.280 N 
ATOM     26  C   UNL A   1      38.831  31.321  31.775  1.00  0.00     0.028 A 
ATOM     27  C   UNL A   1      38.712  32.378  32.828  1.00  0.00     0.065 C 
BRANCH  19  28
ATOM     28  O   UNL A   1      39.409  26.231  28.824  1.00  0.00    -0.497 OA
ATOM     29  C   UNL A   1      39.650  25.862  27.472  1.00  0.00     0.278 C 
ENDBRANCH  19  28
BRANCH  25  30
ATOM     30  C   UNL A   1      38.301  32.722  29.734  1.00  0.00     0.262 C 
ATOM     31  O   UNL A   1      39.165  33.478  29.310  1.00  0.00    -0.268 OA
BRANCH  30  32
ATOM     32  C   UNL A   1      36.915  33.165  29.489  1.00  0.00     0.040 A 
ATOM     33  C   UNL A   1      36.347  33.083  28.214  1.00  0.00     0.015 A 
ATOM     34  C   UNL A   1      36.189  33.685  30.566  1.00  0.00     0.015 A 
ATOM     35  C   UNL A   1      35.068  33.603  28.001  1.00  0.00     0.021 A 
ATOM     36  C   UNL A   1      34.908  34.196  30.350  1.00  0.00     0.021 A 
ATOM     37  C   UNL A   1      34.361  34.167  29.066  1.00  0.00     0.041 A 
ATOM     38  Cl  UNL A   1      32.806  34.852  28.791  1.00  0.00    -0.084 Cl
ENDBRANCH  30  32
ENDBRANCH  25  30
ENDBRANCH  17  18
ENDBRANCH  13  17
ENDBRANCH   7  12
ENDBRANCH   3   6
ENDBRANCH   1   2
BRANCH   1  39
ATOM     39  C   UNL A   1      48.863  23.917  36.868  1.00  0.00     0.042 C 
BRANCH  39  40
ATOM     40  C   UNL A   1      50.015  24.738  36.294  1.00  0.00     0.118 C 
BRANCH  40  41
ATOM     41  N   UNL A   1      50.965  24.017  35.468  1.00  0.00    -0.352 N 
ATOM     42  C   UNL A   1      51.283  23.988  34.137  1.00  0.00     0.251 C 
ATOM     43  H   UNL A   1      51.518  23.396  35.994  1.00  0.00     0.163 HD
ATOM     44  O   UNL A   1      52.320  23.377  33.856  1.00  0.00    -0.269 OA
BRANCH  42  45
ATOM     45  C   UNL A   1      50.474  24.567  33.028  1.00  0.00     0.039 A 
ATOM     46  C   UNL A   1      49.107  24.830  33.067  1.00  0.00     0.014 A 
ATOM     47  C   UNL A   1      51.163  24.822  31.824  1.00  0.00     0.014 A 
ATOM     48  C   UNL A   1      48.430  25.239  31.916  1.00  0.00     0.010 A 
ATOM     49  C   UNL A   1      50.498  25.263  30.681  1.00  0.00     0.010 A 
ATOM     50  C   UNL A   1      49.118  25.435  30.713  1.00  0.00    -0.014 A 
BRANCH  50  51
ATOM     51  C   UNL A   1      48.357  25.916  29.555  1.00  0.00     0.031 A 
ATOM     52  C   UNL A   1      47.237  26.855  29.852  1.00  0.00     0.074 A 
ATOM     53  C   UNL A   1      48.677  25.675  28.268  1.00  0.00     0.049 A 
ATOM     54  N   UNL A   1      45.977  26.718  29.591  1.00  0.00    -0.248 NA
ATOM     55  C   UNL A   1      47.565  28.084  30.591  1.00  0.00     0.031 C 
ATOM     56  C   UNL A   1      49.907  25.079  27.743  1.00  0.00     0.029 A 
ATOM     57  N   UNL A   1      47.993  26.026  27.137  1.00  0.00    -0.354 N 
ATOM     58  C   UNL A   1      45.362  27.905  29.992  1.00  0.00     0.074 A 
ATOM     59  C   UNL A   1      46.367  28.662  30.694  1.00  0.00     0.031 C 
ATOM     60  C   UNL A   1      49.984  25.321  26.414  1.00  0.00     0.029 A 
ATOM     61  C   UNL A   1      48.747  25.945  25.976  1.00  0.00     0.049 A 
ATOM     62  H   UNL A   1      47.049  26.310  27.145  1.00  0.00     0.167 HD
ATOM     63  C   UNL A   1      44.106  28.254  29.594  1.00  0.00     0.031 A 
ATOM     64  C   UNL A   1      48.411  26.421  24.753  1.00  0.00     0.031 A 
ATOM     65  C   UNL A   1      43.388  27.144  29.035  1.00  0.00     0.049 A 
ATOM     66  C   UNL A   1      46.940  26.579  24.705  1.00  0.00     0.074 A 
ATOM     67  C   UNL A   1      42.916  25.942  29.517  1.00  0.00     0.029 A 
ATOM     68  N   UNL A   1      43.327  27.067  27.665  1.00  0.00    -0.354 N 
ATOM     69  N   UNL A   1      46.094  25.589  24.733  1.00  0.00    -0.248 NA
ATOM     70  C   UNL A   1      46.364  27.897  24.930  1.00  0.00     0.031 C 
ATOM     71  C   UNL A   1      42.979  25.044  28.415  1.00  0.00     0.029 A 
ATOM     72  C   UNL A   1      43.460  25.750  27.309  1.00  0.00     0.049 A 
ATOM     73  H   UNL A   1      43.209  27.825  27.048  1.00  0.00     0.167 HD
ATOM     74  C   UNL A   1      44.976  26.095  25.374  1.00  0.00     0.074 A 
ATOM     75  C   UNL A   1      45.143  27.543  25.335  1.00  0.00     0.031 C 
ATOM     76  C   UNL A   1      44.162  25.293  26.122  1.00  0.00     0.031 A 
BRANCH  63  77
ATOM     77  C   UNL A   1      43.610  29.674  29.443  1.00  0.00    -0.014 A 
ATOM     78  C   UNL A   1      42.632  30.243  30.282  1.00  0.00     0.010 A 
ATOM     79  C   UNL A   1      44.312  30.564  28.597  1.00  0.00     0.010 A 
ATOM     80  C   UNL A   1      42.357  31.614  30.281  1.00  0.00     0.020 A 
ATOM     81  C   UNL A   1      44.078  31.947  28.622  1.00  0.00     0.020 A 
ATOM     82  C   UNL A   1      43.097  32.462  29.466  1.00  0.00     0.054 A 
BRANCH  82  83
ATOM     83  S   UNL A   1      42.821  34.246  29.611  1.00  0.00     0.124 S 
ATOM     84  O   UNL A   1      44.177  34.742  29.831  1.00  0.00    -0.237 OA
ATOM     85  O   UNL A   1      42.230  34.577  28.318  1.00  0.00    -0.237 OA
ATOM     86  O   UNL A   1      41.919  34.362  30.754  1.00  0.00    -0.744 OA
ENDBRANCH  82  83
ENDBRANCH  63  77
BRANCH  64  87
ATOM     87  C   UNL A   1      49.307  27.069  23.762  1.00  0.00    -0.014 A 
ATOM     88  C   UNL A   1      48.842  27.314  22.453  1.00  0.00     0.010 A 
ATOM     89  C   UNL A   1      50.692  27.163  23.997  1.00  0.00     0.010 A 
ATOM     90  C   UNL A   1      49.728  27.563  21.402  1.00  0.00     0.020 A 
ATOM     91  C   UNL A   1      51.589  27.406  22.944  1.00  0.00     0.020 A 
ATOM     92  C   UNL A   1      51.099  27.566  21.647  1.00  0.00     0.054 A 
BRANCH  92  93
ATOM     93  S   UNL A   1      52.220  27.684  20.223  1.00  0.00     0.124 S 
ATOM     94  O   UNL A   1      52.257  29.125  19.986  1.00  0.00    -0.237 OA
ATOM     95  O   UNL A   1      53.455  27.104  20.745  1.00  0.00    -0.237 OA
ATOM     96  O   UNL A   1      51.553  26.897  19.189  1.00  0.00    -0.744 OA
ENDBRANCH  92  93
ENDBRANCH  64  87
BRANCH  76  97
ATOM     97  C   UNL A   1      44.214  23.795  25.920  1.00  0.00    -0.014 A 
ATOM     98  C   UNL A   1      45.449  23.156  26.145  1.00  0.00     0.010 A 
ATOM     99  C   UNL A   1      43.169  23.046  25.347  1.00  0.00     0.010 A 
ATOM    100  C   UNL A   1      45.652  21.827  25.769  1.00  0.00     0.020 A 
ATOM    101  C   UNL A   1      43.357  21.702  24.995  1.00  0.00     0.020 A 
ATOM    102  C   UNL A   1      44.609  21.110  25.181  1.00  0.00     0.054 A 
BRANCH 102 103
ATOM    103  S   UNL A   1      44.933  19.410  24.638  1.00  0.00     0.124 S 
ATOM    104  O   UNL A   1      46.369  19.280  24.871  1.00  0.00    -0.237 OA
ATOM    105  O   UNL A   1      44.085  18.618  25.527  1.00  0.00    -0.237 OA
ATOM    106  O   UNL A   1      44.528  19.404  23.234  1.00  0.00    -0.744 OA
ENDBRANCH 102 103
ENDBRANCH  76  97
ENDBRANCH  50  51
ENDBRANCH  42  45
ENDBRANCH  40  41
ENDBRANCH  39  40
ENDBRANCH   1  39
TORSDOF 19
ENDMDL
MODEL 3
REMARK VINA RESULT:     -10.4      4.357     11.567
REMARK SMILES COc1ccc2c(c1)c(Cc1nc(-c3ccc(C(=O)NCCCNC(=O)c4ccc(-c5c6nc(c(-c7ccc(S(=O)(=O)[O-])cc7)c7ccc([nH]7)c(-c7ccc(S(=O)(=O)[O-])cc7)c7nc(c(-c8ccc(S(=O)(=O)[O-])cc8)c8ccc5[nH]8)C=C7)C=C6)cc4)cc3)cs1)c(C)n2C(=O)c1ccc(Cl)cc1
REMARK SMILES IDX 21 1 20 2 18 3 19 4 17 6 14 7 15 8 88 9 16 10 87 11 13 12
REMARK SMILES IDX 11 13 12 14 90 15 89 16 10 17 9 18 3 19 4 20 8 21 5 22 7 23
REMARK SMILES IDX 6 24 93 25 91 26 92 27 2 28 1 29 94 30 95 31 96 32 97 33
REMARK SMILES IDX 102 34 98 35 101 36 99 37 100 38 22 39 23 40 24 41 25 42
REMARK SMILES IDX 26 44 27 45 28 46 86 47 29 48 85 49 30 50 31 51 32 52 79 53
REMARK SMILES IDX 33 54 84 55 78 56 80 57 34 58 83 59 77 60 76 61 35 63 65 64
REMARK SMILES IDX 46 65 64 66 47 67 50 68 63 69 81 70 48 71 49 72 62 74 82 75
REMARK SMILES IDX 51 76 36 77 37 78 45 79 38 80 44 81 39 82 40 83 41 84 42 85
REMARK SMILES IDX 43 86 66 87 67 88 75 89 68 90 74 91 69 92 70 93 71 94 72 95
REMARK SMILES IDX 73 96 52 97 53 98 61 99 54 100 60 101 55 102 56 103 57 104
REMARK SMILES IDX 58 105 59 106
REMARK H PARENT 20 5 24 43 80 62 50 73
REMARK Flexibility Score: inf
ROOT
ATOM      1  C   UNL A   1      35.134  32.590  31.803  1.00  0.00     0.118 C 
ENDROOT
BRANCH   1   2
ATOM      2  N   UNL A   1      35.500  31.185  31.751  1.00  0.00    -0.352 N 
ATOM      3  C   UNL A   1      36.596  30.482  32.195  1.00  0.00     0.251 C 
ATOM      4  O   UNL A   1      36.595  29.261  32.022  1.00  0.00    -0.269 OA
ATOM      5  H   UNL A   1      34.827  30.619  31.309  1.00  0.00     0.163 HD
BRANCH   3   6
ATOM      6  C   UNL A   1      37.803  31.118  32.792  1.00  0.00     0.039 A 
ATOM      7  C   UNL A   1      40.140  32.057  34.075  1.00  0.00     0.001 A 
ATOM      8  C   UNL A   1      39.110  31.480  34.822  1.00  0.00     0.011 A 
ATOM      9  C   UNL A   1      39.936  32.267  32.705  1.00  0.00     0.011 A 
ATOM     10  C   UNL A   1      37.956  31.009  34.185  1.00  0.00     0.014 A 
ATOM     11  C   UNL A   1      38.762  31.833  32.076  1.00  0.00     0.014 A 
BRANCH   7  12
ATOM     12  C   UNL A   1      41.396  32.471  34.682  1.00  0.00     0.081 A 
ATOM     13  C   UNL A   1      43.119  33.841  34.956  1.00  0.00     0.098 A 
ATOM     14  N   UNL A   1      42.037  33.608  34.245  1.00  0.00    -0.241 NA
ATOM     15  S   UNL A   1      43.491  32.635  36.122  1.00  0.00    -0.126 S 
ATOM     16  C   UNL A   1      42.066  31.785  35.675  1.00  0.00     0.095 A 
BRANCH  13  17
ATOM     17  C   UNL A   1      43.960  35.075  34.807  1.00  0.00     0.105 C 
BRANCH  17  18
ATOM     18  C   UNL A   1      44.991  34.907  33.714  1.00  0.00    -0.012 A 
ATOM     19  C   UNL A   1      43.585  35.388  30.192  1.00  0.00     0.119 A 
ATOM     20  C   UNL A   1      44.749  35.067  29.519  1.00  0.00     0.048 A 
ATOM     21  C   UNL A   1      43.569  35.351  31.584  1.00  0.00     0.057 A 
ATOM     22  C   UNL A   1      45.910  34.720  30.224  1.00  0.00     0.031 A 
ATOM     23  C   UNL A   1      44.734  35.034  32.321  1.00  0.00     0.008 A 
ATOM     24  C   UNL A   1      45.921  34.762  31.637  1.00  0.00     0.057 A 
ATOM     25  N   UNL A   1      46.941  34.586  32.594  1.00  0.00    -0.280 N 
ATOM     26  C   UNL A   1      46.341  34.613  33.865  1.00  0.00     0.028 A 
ATOM     27  C   UNL A   1      47.035  34.397  35.172  1.00  0.00     0.065 C 
BRANCH  19  28
ATOM     28  O   UNL A   1      42.422  35.795  29.598  1.00  0.00    -0.497 OA
ATOM     29  C   UNL A   1      41.384  34.825  29.576  1.00  0.00     0.278 C 
ENDBRANCH  19  28
BRANCH  25  30
ATOM     30  C   UNL A   1      48.332  34.419  32.313  1.00  0.00     0.262 C 
ATOM     31  O   UNL A   1      49.067  35.395  32.255  1.00  0.00    -0.268 OA
BRANCH  30  32
ATOM     32  C   UNL A   1      49.003  33.123  32.094  1.00  0.00     0.040 A 
ATOM     33  C   UNL A   1      48.352  32.078  31.431  1.00  0.00     0.015 A 
ATOM     34  C   UNL A   1      50.304  32.964  32.584  1.00  0.00     0.015 A 
ATOM     35  C   UNL A   1      48.984  30.835  31.331  1.00  0.00     0.021 A 
ATOM     36  C   UNL A   1      50.933  31.723  32.473  1.00  0.00     0.021 A 
ATOM     37  C   UNL A   1      50.264  30.661  31.863  1.00  0.00     0.041 A 
ATOM     38  Cl  UNL A   1      51.019  29.117  31.782  1.00  0.00    -0.084 Cl
ENDBRANCH  30  32
ENDBRANCH  25  30
ENDBRANCH  17  18
ENDBRANCH  13  17
ENDBRANCH   7  12
ENDBRANCH   3   6
ENDBRANCH   1   2
BRANCH   1  39
ATOM     39  C   UNL A   1      35.815  33.465  30.756  1.00  0.00     0.042 C 
BRANCH  39  40
ATOM     40  C   UNL A   1      34.944  33.966  29.607  1.00  0.00     0.118 C 
BRANCH  40  41
ATOM     41  N   UNL A   1      34.511  32.968  28.649  1.00  0.00    -0.352 N 
ATOM     42  C   UNL A   1      34.969  31.747  28.229  1.00  0.00     0.251 C 
ATOM     43  H   UNL A   1      33.684  33.231  28.186  1.00  0.00     0.163 HD
ATOM     44  O   UNL A   1      34.182  31.101  27.529  1.00  0.00    -0.269 OA
BRANCH  42  45
ATOM     45  C   UNL A   1      36.321  31.178  28.494  1.00  0.00     0.039 A 
ATOM     46  C   UNL A   1      37.489  31.911  28.693  1.00  0.00     0.014 A 
ATOM     47  C   UNL A   1      36.413  29.772  28.492  1.00  0.00     0.014 A 
ATOM     48  C   UNL A   1      38.723  31.264  28.789  1.00  0.00     0.010 A 
ATOM     49  C   UNL A   1      37.639  29.120  28.621  1.00  0.00     0.010 A 
ATOM     50  C   UNL A   1      38.806  29.868  28.730  1.00  0.00    -0.014 A 
BRANCH  50  51
ATOM     51  C   UNL A   1      40.126  29.250  28.890  1.00  0.00     0.031 A 
ATOM     52  C   UNL A   1      40.614  29.099  30.291  1.00  0.00     0.074 A 
ATOM     53  C   UNL A   1      40.849  28.706  27.890  1.00  0.00     0.049 A 
ATOM     54  N   UNL A   1      41.683  29.588  30.832  1.00  0.00    -0.248 NA
ATOM     55  C   UNL A   1      39.760  28.348  31.225  1.00  0.00     0.031 C 
ATOM     56  C   UNL A   1      40.422  28.435  26.516  1.00  0.00     0.029 A 
ATOM     57  N   UNL A   1      42.107  28.171  27.937  1.00  0.00    -0.354 N 
ATOM     58  C   UNL A   1      41.727  29.089  32.134  1.00  0.00     0.074 A 
ATOM     59  C   UNL A   1      40.469  28.422  32.353  1.00  0.00     0.031 C 
ATOM     60  C   UNL A   1      41.304  27.589  25.936  1.00  0.00     0.029 A 
ATOM     61  C   UNL A   1      42.426  27.387  26.838  1.00  0.00     0.049 A 
ATOM     62  H   UNL A   1      42.730  28.329  28.683  1.00  0.00     0.167 HD
ATOM     63  C   UNL A   1      42.853  29.129  32.901  1.00  0.00     0.031 A 
ATOM     64  C   UNL A   1      43.499  26.571  26.706  1.00  0.00     0.031 A 
ATOM     65  C   UNL A   1      43.839  30.026  32.366  1.00  0.00     0.049 A 
ATOM     66  C   UNL A   1      44.538  27.012  27.664  1.00  0.00     0.074 A 
ATOM     67  C   UNL A   1      43.913  31.387  32.161  1.00  0.00     0.029 A 
ATOM     68  N   UNL A   1      44.870  29.467  31.654  1.00  0.00    -0.354 N 
ATOM     69  N   UNL A   1      45.180  28.143  27.581  1.00  0.00    -0.248 NA
ATOM     70  C   UNL A   1      44.672  26.313  28.933  1.00  0.00     0.031 C 
ATOM     71  C   UNL A   1      44.731  31.550  31.009  1.00  0.00     0.029 A 
ATOM     72  C   UNL A   1      45.138  30.282  30.585  1.00  0.00     0.049 A 
ATOM     73  H   UNL A   1      45.336  28.628  31.873  1.00  0.00     0.167 HD
ATOM     74  C   UNL A   1      45.454  28.494  28.892  1.00  0.00     0.074 A 
ATOM     75  C   UNL A   1      45.252  27.270  29.658  1.00  0.00     0.031 C 
ATOM     76  C   UNL A   1      45.541  29.802  29.274  1.00  0.00     0.031 A 
BRANCH  63  77
ATOM     77  C   UNL A   1      43.194  28.140  33.992  1.00  0.00    -0.014 A 
ATOM     78  C   UNL A   1      42.875  26.770  33.917  1.00  0.00     0.010 A 
ATOM     79  C   UNL A   1      44.084  28.526  35.021  1.00  0.00     0.010 A 
ATOM     80  C   UNL A   1      43.400  25.834  34.814  1.00  0.00     0.020 A 
ATOM     81  C   UNL A   1      44.653  27.590  35.897  1.00  0.00     0.020 A 
ATOM     82  C   UNL A   1      44.303  26.246  35.786  1.00  0.00     0.054 A 
BRANCH  82  83
ATOM     83  S   UNL A   1      45.080  24.982  36.824  1.00  0.00     0.124 S 
ATOM     84  O   UNL A   1      45.133  23.840  35.915  1.00  0.00    -0.237 OA
ATOM     85  O   UNL A   1      46.368  25.591  37.147  1.00  0.00    -0.237 OA
ATOM     86  O   UNL A   1      44.158  24.845  37.948  1.00  0.00    -0.744 OA
ENDBRANCH  82  83
ENDBRANCH  63  77
BRANCH  64  87
ATOM     87  C   UNL A   1      43.541  25.238  26.056  1.00  0.00    -0.014 A 
ATOM     88  C   UNL A   1      42.893  24.142  26.664  1.00  0.00     0.010 A 
ATOM     89  C   UNL A   1      44.458  24.969  25.022  1.00  0.00     0.010 A 
ATOM     90  C   UNL A   1      43.206  22.827  26.313  1.00  0.00     0.020 A 
ATOM     91  C   UNL A   1      44.782  23.648  24.669  1.00  0.00     0.020 A 
ATOM     92  C   UNL A   1      44.180  22.587  25.346  1.00  0.00     0.054 A 
BRANCH  92  93
ATOM     93  S   UNL A   1      44.705  20.872  25.069  1.00  0.00     0.124 S 
ATOM     94  O   UNL A   1      43.714  20.124  25.840  1.00  0.00    -0.237 OA
ATOM     95  O   UNL A   1      44.599  20.739  23.618  1.00  0.00    -0.237 OA
ATOM     96  O   UNL A   1      46.065  20.834  25.598  1.00  0.00    -0.744 OA
ENDBRANCH  92  93
ENDBRANCH  64  87
BRANCH  76  97
ATOM     97  C   UNL A   1      45.767  30.865  28.222  1.00  0.00    -0.014 A 
ATOM     98  C   UNL A   1      47.064  31.403  28.115  1.00  0.00     0.010 A 
ATOM     99  C   UNL A   1      44.730  31.471  27.487  1.00  0.00     0.010 A 
ATOM    100  C   UNL A   1      47.313  32.537  27.340  1.00  0.00     0.020 A 
ATOM    101  C   UNL A   1      44.980  32.592  26.682  1.00  0.00     0.020 A 
ATOM    102  C   UNL A   1      46.266  33.136  26.639  1.00  0.00     0.054 A 
BRANCH 102 103
ATOM    103  S   UNL A   1      46.613  34.649  25.702  1.00  0.00     0.124 S 
ATOM    104  O   UNL A   1      46.378  35.691  26.699  1.00  0.00    -0.237 OA
ATOM    105  O   UNL A   1      48.008  34.473  25.305  1.00  0.00    -0.237 OA
ATOM    106  O   UNL A   1      45.651  34.614  24.603  1.00  0.00    -0.744 OA
ENDBRANCH 102 103
ENDBRANCH  76  97
ENDBRANCH  50  51
ENDBRANCH  42  45
ENDBRANCH  40  41
ENDBRANCH  39  40
ENDBRANCH   1  39
TORSDOF 19
ENDMDL
