MODEL 1
REMARK VINA RESULT:     -10.6      0.000      0.000
REMARK SMILES CCn1cnc(S(=O)(=O)N[C@H](Cc2cnc[nH]2)C(=O)NCCCNC(=O)c2ccc(-c3c4nc(c(-c5ccc(S(=O)(=O)[O-])cc5)c5ccc([nH]5)c(-c5ccc(S(=O)(=O)[O-])cc5)c5nc(c(-c6ccc(S(=O)(=O)[O-])cc6)c6ccc3[nH]6)C=C5)C=C4)cc2)c1
REMARK SMILES IDX 21 1 20 2 18 3 19 4 11 6 10 7 7 9 8 10 9 11 6 12 3 13 4 14
REMARK SMILES IDX 87 15 5 16 2 17 1 18 12 19 13 20 14 21 17 22 15 23 16 24
REMARK SMILES IDX 22 26 23 27 24 28 25 29 26 31 27 32 28 33 86 34 29 35 85 36
REMARK SMILES IDX 30 37 31 38 32 39 79 40 33 41 84 42 78 43 80 44 34 45 83 46
REMARK SMILES IDX 77 47 76 48 35 50 65 51 46 52 64 53 47 54 50 55 63 56 81 57
REMARK SMILES IDX 48 58 49 59 62 61 82 62 51 63 36 64 37 65 45 66 38 67 44 68
REMARK SMILES IDX 39 69 40 70 41 71 42 72 43 73 66 74 67 75 75 76 68 77 74 78
REMARK SMILES IDX 69 79 70 80 71 81 72 82 73 83 52 84 53 85 61 86 54 87 60 88
REMARK SMILES IDX 55 89 56 90 57 91 58 92 59 93
REMARK H PARENT 20 5 10 8 17 25 24 30 80 49 50 60
REMARK Flexibility Score: inf
ROOT
ATOM      1  C   UNL A   1      31.872  29.250  25.031  1.00  0.00     0.117 C 
ENDROOT
BRANCH   1   2
ATOM      2  N   UNL A   1      31.176  29.443  23.766  1.00  0.00    -0.355 N 
ATOM      3  C   UNL A   1      30.849  28.572  22.765  1.00  0.00     0.238 C 
ATOM      4  O   UNL A   1      30.310  29.032  21.755  1.00  0.00    -0.273 OA
ATOM      5  H   UNL A   1      30.891  30.372  23.600  1.00  0.00     0.163 HD
BRANCH   3   6
ATOM      6  C   UNL A   1      31.165  27.076  22.869  1.00  0.00     0.165 C 
BRANCH   6   7
ATOM      7  N   UNL A   1      31.443  26.529  21.505  1.00  0.00    -0.197 NA
ATOM      8  H   UNL A   1      30.750  25.805  21.314  1.00  0.00     0.142 HD
BRANCH   7   9
ATOM      9  S   UNL A   1      32.978  25.851  21.257  1.00  0.00     0.260 S 
ATOM     10  O   UNL A   1      33.951  26.868  21.595  1.00  0.00    -0.205 OA
ATOM     11  O   UNL A   1      32.934  25.230  19.954  1.00  0.00    -0.205 OA
BRANCH   9  12
ATOM     12  C   UNL A   1      33.208  24.546  22.383  1.00  0.00     0.188 A 
ATOM     13  N   UNL A   1      33.987  23.326  24.017  1.00  0.00    -0.336 N 
ATOM     14  C   UNL A   1      33.158  22.578  23.229  1.00  0.00     0.201 A 
ATOM     15  C   UNL A   1      33.996  24.599  23.516  1.00  0.00     0.129 A 
ATOM     16  N   UNL A   1      32.673  23.280  22.229  1.00  0.00    -0.224 NA
BRANCH  13  17
ATOM     17  C   UNL A   1      34.822  22.846  25.101  1.00  0.00     0.120 C 
ATOM     18  C   UNL A   1      35.822  23.854  25.639  1.00  0.00     0.027 C 
ENDBRANCH  13  17
ENDBRANCH   9  12
ENDBRANCH   7   9
ENDBRANCH   6   7
BRANCH   6  19
ATOM     19  C   UNL A   1      29.989  26.359  23.550  1.00  0.00     0.085 C 
BRANCH  19  20
ATOM     20  C   UNL A   1      30.333  25.467  24.702  1.00  0.00     0.037 A 
ATOM     21  C   UNL A   1      30.752  25.787  25.976  1.00  0.00     0.134 A 
ATOM     22  N   UNL A   1      30.403  24.094  24.655  1.00  0.00    -0.348 N 
ATOM     23  N   UNL A   1      31.008  24.659  26.709  1.00  0.00    -0.245 NA
ATOM     24  C   UNL A   1      30.805  23.659  25.886  1.00  0.00     0.196 A 
ATOM     25  H   UNL A   1      30.202  23.528  23.876  1.00  0.00     0.167 HD
ENDBRANCH  19  20
ENDBRANCH   6  19
ENDBRANCH   3   6
ENDBRANCH   1   2
BRANCH   1  26
ATOM     26  C   UNL A   1      33.282  28.686  24.877  1.00  0.00     0.042 C 
BRANCH  26  27
ATOM     27  C   UNL A   1      34.167  28.814  26.112  1.00  0.00     0.118 C 
BRANCH  27  28
ATOM     28  N   UNL A   1      33.822  29.964  26.931  1.00  0.00    -0.352 N 
ATOM     29  C   UNL A   1      34.518  30.569  27.950  1.00  0.00     0.251 C 
ATOM     30  H   UNL A   1      32.953  30.375  26.722  1.00  0.00     0.163 HD
ATOM     31  O   UNL A   1      33.951  31.426  28.625  1.00  0.00    -0.269 OA
BRANCH  29  32
ATOM     32  C   UNL A   1      35.918  30.194  28.255  1.00  0.00     0.039 A 
ATOM     33  C   UNL A   1      36.215  29.704  29.532  1.00  0.00     0.014 A 
ATOM     34  C   UNL A   1      36.947  30.371  27.326  1.00  0.00     0.014 A 
ATOM     35  C   UNL A   1      37.527  29.342  29.855  1.00  0.00     0.010 A 
ATOM     36  C   UNL A   1      38.242  29.948  27.627  1.00  0.00     0.010 A 
ATOM     37  C   UNL A   1      38.548  29.436  28.897  1.00  0.00    -0.014 A 
BRANCH  37  38
ATOM     38  C   UNL A   1      39.940  29.021  29.212  1.00  0.00     0.031 A 
ATOM     39  C   UNL A   1      40.893  29.990  29.861  1.00  0.00     0.074 A 
ATOM     40  C   UNL A   1      40.367  27.791  28.864  1.00  0.00     0.049 A 
ATOM     41  N   UNL A   1      42.160  29.832  30.147  1.00  0.00    -0.248 NA
ATOM     42  C   UNL A   1      40.357  31.315  30.212  1.00  0.00     0.031 C 
ATOM     43  C   UNL A   1      39.557  26.767  28.199  1.00  0.00     0.029 A 
ATOM     44  N   UNL A   1      41.593  27.195  29.016  1.00  0.00    -0.354 N 
ATOM     45  C   UNL A   1      42.579  31.042  30.689  1.00  0.00     0.074 A 
ATOM     46  C   UNL A   1      41.440  31.935  30.658  1.00  0.00     0.031 C 
ATOM     47  C   UNL A   1      40.303  25.665  28.018  1.00  0.00     0.029 A 
ATOM     48  C   UNL A   1      41.650  25.912  28.524  1.00  0.00     0.049 A 
ATOM     49  H   UNL A   1      42.362  27.643  29.438  1.00  0.00     0.167 HD
ATOM     50  C   UNL A   1      43.796  31.378  31.180  1.00  0.00     0.031 A 
ATOM     51  C   UNL A   1      42.670  25.033  28.481  1.00  0.00     0.031 A 
ATOM     52  C   UNL A   1      44.923  30.487  31.235  1.00  0.00     0.049 A 
ATOM     53  C   UNL A   1      44.005  25.420  29.053  1.00  0.00     0.074 A 
ATOM     54  C   UNL A   1      46.183  30.722  31.760  1.00  0.00     0.029 A 
ATOM     55  N   UNL A   1      44.928  29.187  30.754  1.00  0.00    -0.354 N 
ATOM     56  N   UNL A   1      44.366  26.556  29.600  1.00  0.00    -0.248 NA
ATOM     57  C   UNL A   1      45.064  24.402  29.014  1.00  0.00     0.031 C 
ATOM     58  C   UNL A   1      46.958  29.573  31.569  1.00  0.00     0.029 A 
ATOM     59  C   UNL A   1      46.168  28.610  30.963  1.00  0.00     0.049 A 
ATOM     60  H   UNL A   1      44.161  28.740  30.328  1.00  0.00     0.167 HD
ATOM     61  C   UNL A   1      45.688  26.380  29.992  1.00  0.00     0.074 A 
ATOM     62  C   UNL A   1      46.058  25.027  29.630  1.00  0.00     0.031 C 
ATOM     63  C   UNL A   1      46.520  27.261  30.600  1.00  0.00     0.031 A 
BRANCH  50  64
ATOM     64  C   UNL A   1      43.968  32.781  31.699  1.00  0.00    -0.014 A 
ATOM     65  C   UNL A   1      44.370  33.824  30.847  1.00  0.00     0.010 A 
ATOM     66  C   UNL A   1      43.699  33.064  33.051  1.00  0.00     0.010 A 
ATOM     67  C   UNL A   1      44.543  35.118  31.344  1.00  0.00     0.020 A 
ATOM     68  C   UNL A   1      43.847  34.362  33.548  1.00  0.00     0.020 A 
ATOM     69  C   UNL A   1      44.287  35.377  32.695  1.00  0.00     0.054 A 
BRANCH  69  70
ATOM     70  S   UNL A   1      44.509  37.067  33.317  1.00  0.00     0.124 S 
ATOM     71  O   UNL A   1      45.177  37.714  32.191  1.00  0.00    -0.237 OA
ATOM     72  O   UNL A   1      43.137  37.503  33.568  1.00  0.00    -0.237 OA
ATOM     73  O   UNL A   1      45.331  36.890  34.511  1.00  0.00    -0.744 OA
ENDBRANCH  69  70
ENDBRANCH  50  64
BRANCH  51  74
ATOM     74  C   UNL A   1      42.459  23.686  27.889  1.00  0.00    -0.014 A 
ATOM     75  C   UNL A   1      42.628  23.483  26.508  1.00  0.00     0.010 A 
ATOM     76  C   UNL A   1      42.103  22.597  28.704  1.00  0.00     0.010 A 
ATOM     77  C   UNL A   1      42.432  22.218  25.950  1.00  0.00     0.020 A 
ATOM     78  C   UNL A   1      41.928  21.325  28.152  1.00  0.00     0.020 A 
ATOM     79  C   UNL A   1      42.083  21.146  26.776  1.00  0.00     0.054 A 
BRANCH  79  80
ATOM     80  S   UNL A   1      41.891  19.496  26.044  1.00  0.00     0.124 S 
ATOM     81  O   UNL A   1      40.455  19.443  25.789  1.00  0.00    -0.237 OA
ATOM     82  O   UNL A   1      42.743  19.572  24.858  1.00  0.00    -0.237 OA
ATOM     83  O   UNL A   1      42.378  18.602  27.091  1.00  0.00    -0.744 OA
ENDBRANCH  79  80
ENDBRANCH  51  74
BRANCH  63  84
ATOM     84  C   UNL A   1      47.902  26.778  30.946  1.00  0.00    -0.014 A 
ATOM     85  C   UNL A   1      48.964  26.903  30.034  1.00  0.00     0.010 A 
ATOM     86  C   UNL A   1      48.147  26.235  32.220  1.00  0.00     0.010 A 
ATOM     87  C   UNL A   1      50.244  26.464  30.380  1.00  0.00     0.020 A 
ATOM     88  C   UNL A   1      49.431  25.815  32.578  1.00  0.00     0.020 A 
ATOM     89  C   UNL A   1      50.469  25.918  31.649  1.00  0.00     0.054 A 
BRANCH  89  90
ATOM     90  S   UNL A   1      52.147  25.392  32.094  1.00  0.00     0.124 S 
ATOM     91  O   UNL A   1      51.990  23.944  32.205  1.00  0.00    -0.237 OA
ATOM     92  O   UNL A   1      52.944  25.853  30.959  1.00  0.00    -0.237 OA
ATOM     93  O   UNL A   1      52.405  26.089  33.351  1.00  0.00    -0.744 OA
ENDBRANCH  89  90
ENDBRANCH  63  84
ENDBRANCH  37  38
ENDBRANCH  29  32
ENDBRANCH  27  28
ENDBRANCH  26  27
ENDBRANCH   1  26
TORSDOF 19
ENDMDL
MODEL 2
REMARK VINA RESULT:     -10.3      2.555      3.160
REMARK SMILES CCn1cnc(S(=O)(=O)N[C@H](Cc2cnc[nH]2)C(=O)NCCCNC(=O)c2ccc(-c3c4nc(c(-c5ccc(S(=O)(=O)[O-])cc5)c5ccc([nH]5)c(-c5ccc(S(=O)(=O)[O-])cc5)c5nc(c(-c6ccc(S(=O)(=O)[O-])cc6)c6ccc3[nH]6)C=C5)C=C4)cc2)c1
REMARK SMILES IDX 21 1 20 2 18 3 19 4 11 6 10 7 7 9 8 10 9 11 6 12 3 13 4 14
REMARK SMILES IDX 87 15 5 16 2 17 1 18 12 19 13 20 14 21 17 22 15 23 16 24
REMARK SMILES IDX 22 26 23 27 24 28 25 29 26 31 27 32 28 33 86 34 29 35 85 36
REMARK SMILES IDX 30 37 31 38 32 39 79 40 33 41 84 42 78 43 80 44 34 45 83 46
REMARK SMILES IDX 77 47 76 48 35 50 65 51 46 52 64 53 47 54 50 55 63 56 81 57
REMARK SMILES IDX 48 58 49 59 62 61 82 62 51 63 36 64 37 65 45 66 38 67 44 68
REMARK SMILES IDX 39 69 40 70 41 71 42 72 43 73 66 74 67 75 75 76 68 77 74 78
REMARK SMILES IDX 69 79 70 80 71 81 72 82 73 83 52 84 53 85 61 86 54 87 60 88
REMARK SMILES IDX 55 89 56 90 57 91 58 92 59 93
REMARK H PARENT 20 5 10 8 17 25 24 30 80 49 50 60
REMARK Flexibility Score: inf
ROOT
ATOM      1  C   UNL A   1      31.709  28.971  25.254  1.00  0.00     0.117 C 
ENDROOT
BRANCH   1   2
ATOM      2  N   UNL A   1      30.987  29.166  24.003  1.00  0.00    -0.355 N 
ATOM      3  C   UNL A   1      30.694  28.310  22.979  1.00  0.00     0.238 C 
ATOM      4  O   UNL A   1      30.118  28.773  21.991  1.00  0.00    -0.273 OA
ATOM      5  H   UNL A   1      30.649  30.082  23.871  1.00  0.00     0.163 HD
BRANCH   3   6
ATOM      6  C   UNL A   1      31.093  26.831  23.030  1.00  0.00     0.165 C 
BRANCH   6   7
ATOM      7  N   UNL A   1      31.418  26.354  21.650  1.00  0.00    -0.197 NA
ATOM      8  H   UNL A   1      30.801  25.570  21.440  1.00  0.00     0.142 HD
BRANCH   7   9
ATOM      9  S   UNL A   1      33.012  25.842  21.380  1.00  0.00     0.260 S 
ATOM     10  O   UNL A   1      33.879  26.936  21.761  1.00  0.00    -0.205 OA
ATOM     11  O   UNL A   1      33.029  25.274  20.052  1.00  0.00    -0.205 OA
BRANCH   9  12
ATOM     12  C   UNL A   1      33.371  24.522  22.452  1.00  0.00     0.188 A 
ATOM     13  N   UNL A   1      34.392  23.229  23.885  1.00  0.00    -0.336 N 
ATOM     14  C   UNL A   1      33.326  22.571  23.336  1.00  0.00     0.201 A 
ATOM     15  C   UNL A   1      34.409  24.494  23.363  1.00  0.00     0.129 A 
ATOM     16  N   UNL A   1      32.690  23.319  22.463  1.00  0.00    -0.224 NA
BRANCH  13  17
ATOM     17  C   UNL A   1      35.408  22.666  24.751  1.00  0.00     0.120 C 
ATOM     18  C   UNL A   1      35.765  23.511  25.961  1.00  0.00     0.027 C 
ENDBRANCH  13  17
ENDBRANCH   9  12
ENDBRANCH   7   9
ENDBRANCH   6   7
BRANCH   6  19
ATOM     19  C   UNL A   1      29.950  26.024  23.666  1.00  0.00     0.085 C 
BRANCH  19  20
ATOM     20  C   UNL A   1      30.312  25.183  24.850  1.00  0.00     0.037 A 
ATOM     21  C   UNL A   1      30.656  25.559  26.132  1.00  0.00     0.134 A 
ATOM     22  N   UNL A   1      30.482  23.818  24.838  1.00  0.00    -0.348 N 
ATOM     23  N   UNL A   1      30.964  24.468  26.900  1.00  0.00    -0.245 NA
ATOM     24  C   UNL A   1      30.865  23.439  26.093  1.00  0.00     0.196 A 
ATOM     25  H   UNL A   1      30.353  23.223  24.065  1.00  0.00     0.167 HD
ENDBRANCH  19  20
ENDBRANCH   6  19
ENDBRANCH   3   6
ENDBRANCH   1   2
BRANCH   1  26
ATOM     26  C   UNL A   1      33.102  28.373  25.072  1.00  0.00     0.042 C 
BRANCH  26  27
ATOM     27  C   UNL A   1      34.177  28.954  25.983  1.00  0.00     0.118 C 
BRANCH  27  28
ATOM     28  N   UNL A   1      33.830  30.271  26.490  1.00  0.00    -0.352 N 
ATOM     29  C   UNL A   1      34.366  30.992  27.530  1.00  0.00     0.251 C 
ATOM     30  H   UNL A   1      33.094  30.717  26.013  1.00  0.00     0.163 HD
ATOM     31  O   UNL A   1      33.794  32.017  27.896  1.00  0.00    -0.269 OA
BRANCH  29  32
ATOM     32  C   UNL A   1      35.599  30.548  28.221  1.00  0.00     0.039 A 
ATOM     33  C   UNL A   1      36.834  30.974  27.722  1.00  0.00     0.014 A 
ATOM     34  C   UNL A   1      35.557  29.677  29.313  1.00  0.00     0.014 A 
ATOM     35  C   UNL A   1      38.018  30.572  28.349  1.00  0.00     0.010 A 
ATOM     36  C   UNL A   1      36.734  29.330  29.978  1.00  0.00     0.010 A 
ATOM     37  C   UNL A   1      37.978  29.768  29.499  1.00  0.00    -0.014 A 
BRANCH  37  38
ATOM     38  C   UNL A   1      39.224  29.363  30.199  1.00  0.00     0.031 A 
ATOM     39  C   UNL A   1      39.659  30.079  31.451  1.00  0.00     0.074 A 
ATOM     40  C   UNL A   1      39.998  28.389  29.680  1.00  0.00     0.049 A 
ATOM     41  N   UNL A   1      40.748  29.914  32.158  1.00  0.00    -0.248 NA
ATOM     42  C   UNL A   1      38.765  31.132  31.959  1.00  0.00     0.031 C 
ATOM     43  C   UNL A   1      39.711  27.638  28.455  1.00  0.00     0.029 A 
ATOM     44  N   UNL A   1      41.190  27.867  30.116  1.00  0.00    -0.354 N 
ATOM     45  C   UNL A   1      40.681  30.855  33.179  1.00  0.00     0.074 A 
ATOM     46  C   UNL A   1      39.464  31.611  32.978  1.00  0.00     0.031 C 
ATOM     47  C   UNL A   1      40.689  26.742  28.249  1.00  0.00     0.029 A 
ATOM     48  C   UNL A   1      41.687  26.873  29.307  1.00  0.00     0.049 A 
ATOM     49  H   UNL A   1      41.647  28.175  30.932  1.00  0.00     0.167 HD
ATOM     50  C   UNL A   1      41.547  31.065  34.201  1.00  0.00     0.031 A 
ATOM     51  C   UNL A   1      42.820  26.150  29.402  1.00  0.00     0.031 A 
ATOM     52  C   UNL A   1      42.746  30.301  34.418  1.00  0.00     0.049 A 
ATOM     53  C   UNL A   1      43.754  26.384  30.556  1.00  0.00     0.074 A 
ATOM     54  C   UNL A   1      43.659  30.408  35.453  1.00  0.00     0.029 A 
ATOM     55  N   UNL A   1      43.195  29.282  33.592  1.00  0.00    -0.354 N 
ATOM     56  N   UNL A   1      43.649  27.251  31.534  1.00  0.00    -0.248 NA
ATOM     57  C   UNL A   1      44.950  25.533  30.625  1.00  0.00     0.031 C 
ATOM     58  C   UNL A   1      44.678  29.473  35.236  1.00  0.00     0.029 A 
ATOM     59  C   UNL A   1      44.376  28.758  34.088  1.00  0.00     0.049 A 
ATOM     60  H   UNL A   1      42.741  28.978  32.774  1.00  0.00     0.167 HD
ATOM     61  C   UNL A   1      44.754  27.033  32.349  1.00  0.00     0.074 A 
ATOM     62  C   UNL A   1      45.507  25.947  31.755  1.00  0.00     0.031 C 
ATOM     63  C   UNL A   1      45.112  27.674  33.488  1.00  0.00     0.031 A 
BRANCH  50  64
ATOM     64  C   UNL A   1      41.223  32.175  35.164  1.00  0.00    -0.014 A 
ATOM     65  C   UNL A   1      40.514  31.919  36.352  1.00  0.00     0.010 A 
ATOM     66  C   UNL A   1      41.656  33.486  34.893  1.00  0.00     0.010 A 
ATOM     67  C   UNL A   1      40.204  32.961  37.229  1.00  0.00     0.020 A 
ATOM     68  C   UNL A   1      41.369  34.527  35.780  1.00  0.00     0.020 A 
ATOM     69  C   UNL A   1      40.627  34.261  36.933  1.00  0.00     0.054 A 
BRANCH  69  70
ATOM     70  S   UNL A   1      40.222  35.596  38.093  1.00  0.00     0.124 S 
ATOM     71  O   UNL A   1      40.029  36.728  37.190  1.00  0.00    -0.237 OA
ATOM     72  O   UNL A   1      39.013  35.101  38.747  1.00  0.00    -0.237 OA
ATOM     73  O   UNL A   1      41.401  35.678  38.951  1.00  0.00    -0.744 OA
ENDBRANCH  69  70
ENDBRANCH  50  64
BRANCH  51  74
ATOM     74  C   UNL A   1      43.123  25.115  28.378  1.00  0.00    -0.014 A 
ATOM     75  C   UNL A   1      42.661  23.797  28.542  1.00  0.00     0.010 A 
ATOM     76  C   UNL A   1      43.861  25.445  27.227  1.00  0.00     0.010 A 
ATOM     77  C   UNL A   1      42.944  22.824  27.580  1.00  0.00     0.020 A 
ATOM     78  C   UNL A   1      44.125  24.480  26.252  1.00  0.00     0.020 A 
ATOM     79  C   UNL A   1      43.674  23.172  26.441  1.00  0.00     0.054 A 
BRANCH  79  80
ATOM     80  S   UNL A   1      43.980  21.910  25.172  1.00  0.00     0.124 S 
ATOM     81  O   UNL A   1      43.811  22.672  23.939  1.00  0.00    -0.237 OA
ATOM     82  O   UNL A   1      45.345  21.482  25.471  1.00  0.00    -0.237 OA
ATOM     83  O   UNL A   1      42.952  20.907  25.438  1.00  0.00    -0.744 OA
ENDBRANCH  79  80
ENDBRANCH  51  74
BRANCH  63  84
ATOM     84  C   UNL A   1      46.352  27.194  34.189  1.00  0.00    -0.014 A 
ATOM     85  C   UNL A   1      46.294  26.171  35.151  1.00  0.00     0.010 A 
ATOM     86  C   UNL A   1      47.600  27.745  33.843  1.00  0.00     0.010 A 
ATOM     87  C   UNL A   1      47.460  25.727  35.779  1.00  0.00     0.020 A 
ATOM     88  C   UNL A   1      48.771  27.288  34.454  1.00  0.00     0.020 A 
ATOM     89  C   UNL A   1      48.692  26.292  35.430  1.00  0.00     0.054 A 
BRANCH  89  90
ATOM     90  S   UNL A   1      50.199  25.673  36.227  1.00  0.00     0.124 S 
ATOM     91  O   UNL A   1      49.656  24.807  37.270  1.00  0.00    -0.237 OA
ATOM     92  O   UNL A   1      50.886  24.988  35.135  1.00  0.00    -0.237 OA
ATOM     93  O   UNL A   1      50.858  26.886  36.705  1.00  0.00    -0.744 OA
ENDBRANCH  89  90
ENDBRANCH  63  84
ENDBRANCH  37  38
ENDBRANCH  29  32
ENDBRANCH  27  28
ENDBRANCH  26  27
ENDBRANCH   1  26
TORSDOF 19
ENDMDL
MODEL 3
REMARK VINA RESULT:     -10.2      1.858      3.032
REMARK SMILES CCn1cnc(S(=O)(=O)N[C@H](Cc2cnc[nH]2)C(=O)NCCCNC(=O)c2ccc(-c3c4nc(c(-c5ccc(S(=O)(=O)[O-])cc5)c5ccc([nH]5)c(-c5ccc(S(=O)(=O)[O-])cc5)c5nc(c(-c6ccc(S(=O)(=O)[O-])cc6)c6ccc3[nH]6)C=C5)C=C4)cc2)c1
REMARK SMILES IDX 21 1 20 2 18 3 19 4 11 6 10 7 7 9 8 10 9 11 6 12 3 13 4 14
REMARK SMILES IDX 87 15 5 16 2 17 1 18 12 19 13 20 14 21 17 22 15 23 16 24
REMARK SMILES IDX 22 26 23 27 24 28 25 29 26 31 27 32 28 33 86 34 29 35 85 36
REMARK SMILES IDX 30 37 31 38 32 39 79 40 33 41 84 42 78 43 80 44 34 45 83 46
REMARK SMILES IDX 77 47 76 48 35 50 65 51 46 52 64 53 47 54 50 55 63 56 81 57
REMARK SMILES IDX 48 58 49 59 62 61 82 62 51 63 36 64 37 65 45 66 38 67 44 68
REMARK SMILES IDX 39 69 40 70 41 71 42 72 43 73 66 74 67 75 75 76 68 77 74 78
REMARK SMILES IDX 69 79 70 80 71 81 72 82 73 83 52 84 53 85 61 86 54 87 60 88
REMARK SMILES IDX 55 89 56 90 57 91 58 92 59 93
REMARK H PARENT 20 5 10 8 17 25 24 30 80 49 50 60
REMARK Flexibility Score: inf
ROOT
ATOM      1  C   UNL A   1      32.641  26.990  24.823  1.00  0.00     0.117 C 
ENDROOT
BRANCH   1   2
ATOM      2  N   UNL A   1      33.091  26.197  23.687  1.00  0.00    -0.355 N 
ATOM      3  C   UNL A   1      33.703  24.977  23.614  1.00  0.00     0.238 C 
ATOM      4  O   UNL A   1      34.041  24.569  22.500  1.00  0.00    -0.273 OA
ATOM      5  H   UNL A   1      32.925  26.616  22.811  1.00  0.00     0.163 HD
BRANCH   3   6
ATOM      6  C   UNL A   1      33.995  24.150  24.871  1.00  0.00     0.165 C 
BRANCH   6   7
ATOM      7  N   UNL A   1      32.924  24.392  25.887  1.00  0.00    -0.197 NA
ATOM      8  H   UNL A   1      33.381  24.576  26.781  1.00  0.00     0.142 HD
BRANCH   7   9
ATOM      9  S   UNL A   1      31.808  23.138  26.128  1.00  0.00     0.260 S 
ATOM     10  O   UNL A   1      30.675  23.408  25.270  1.00  0.00    -0.205 OA
ATOM     11  O   UNL A   1      31.674  22.992  27.559  1.00  0.00    -0.205 OA
BRANCH   9  12
ATOM     12  C   UNL A   1      32.508  21.645  25.576  1.00  0.00     0.188 A 
ATOM     13  N   UNL A   1      32.815  19.764  24.512  1.00  0.00    -0.336 N 
ATOM     14  C   UNL A   1      33.712  19.873  25.537  1.00  0.00     0.201 A 
ATOM     15  C   UNL A   1      32.066  20.908  24.494  1.00  0.00     0.129 A 
ATOM     16  N   UNL A   1      33.554  20.994  26.205  1.00  0.00    -0.224 NA
BRANCH  13  17
ATOM     17  C   UNL A   1      32.588  18.601  23.677  1.00  0.00     0.120 C 
ATOM     18  C   UNL A   1      32.703  17.264  24.388  1.00  0.00     0.027 C 
ENDBRANCH  13  17
ENDBRANCH   9  12
ENDBRANCH   7   9
ENDBRANCH   6   7
BRANCH   6  19
ATOM     19  C   UNL A   1      35.389  24.518  25.403  1.00  0.00     0.085 C 
BRANCH  19  20
ATOM     20  C   UNL A   1      36.403  23.418  25.420  1.00  0.00     0.037 A 
ATOM     21  C   UNL A   1      37.691  23.406  25.916  1.00  0.00     0.134 A 
ATOM     22  N   UNL A   1      36.262  22.193  24.812  1.00  0.00    -0.348 N 
ATOM     23  N   UNL A   1      38.299  22.201  25.682  1.00  0.00    -0.245 NA
ATOM     24  C   UNL A   1      37.423  21.499  25.005  1.00  0.00     0.196 A 
ATOM     25  H   UNL A   1      35.469  21.873  24.324  1.00  0.00     0.167 HD
ENDBRANCH  19  20
ENDBRANCH   6  19
ENDBRANCH   3   6
ENDBRANCH   1   2
BRANCH   1  26
ATOM     26  C   UNL A   1      33.720  27.898  25.404  1.00  0.00     0.042 C 
BRANCH  26  27
ATOM     27  C   UNL A   1      33.649  28.102  26.913  1.00  0.00     0.118 C 
BRANCH  27  28
ATOM     28  N   UNL A   1      33.427  29.490  27.281  1.00  0.00    -0.352 N 
ATOM     29  C   UNL A   1      34.250  30.382  27.926  1.00  0.00     0.251 C 
ATOM     30  H   UNL A   1      32.547  29.850  27.027  1.00  0.00     0.163 HD
ATOM     31  O   UNL A   1      33.785  31.459  28.293  1.00  0.00    -0.269 OA
BRANCH  29  32
ATOM     32  C   UNL A   1      35.670  30.058  28.200  1.00  0.00     0.039 A 
ATOM     33  C   UNL A   1      36.017  29.605  29.478  1.00  0.00     0.014 A 
ATOM     34  C   UNL A   1      36.668  30.248  27.240  1.00  0.00     0.014 A 
ATOM     35  C   UNL A   1      37.348  29.292  29.772  1.00  0.00     0.010 A 
ATOM     36  C   UNL A   1      37.983  29.873  27.513  1.00  0.00     0.010 A 
ATOM     37  C   UNL A   1      38.339  29.399  28.784  1.00  0.00    -0.014 A 
BRANCH  37  38
ATOM     38  C   UNL A   1      39.752  29.035  29.070  1.00  0.00     0.031 A 
ATOM     39  C   UNL A   1      40.691  30.048  29.668  1.00  0.00     0.074 A 
ATOM     40  C   UNL A   1      40.208  27.811  28.738  1.00  0.00     0.049 A 
ATOM     41  N   UNL A   1      41.970  29.938  29.921  1.00  0.00    -0.248 NA
ATOM     42  C   UNL A   1      40.123  31.365  30.003  1.00  0.00     0.031 C 
ATOM     43  C   UNL A   1      39.413  26.746  28.121  1.00  0.00     0.029 A 
ATOM     44  N   UNL A   1      41.457  27.257  28.870  1.00  0.00    -0.354 N 
ATOM     45  C   UNL A   1      42.365  31.173  30.422  1.00  0.00     0.074 A 
ATOM     46  C   UNL A   1      41.198  32.029  30.403  1.00  0.00     0.031 C 
ATOM     47  C   UNL A   1      40.188  25.664  27.945  1.00  0.00     0.029 A 
ATOM     48  C   UNL A   1      41.540  25.965  28.407  1.00  0.00     0.049 A 
ATOM     49  H   UNL A   1      42.222  27.739  29.259  1.00  0.00     0.167 HD
ATOM     50  C   UNL A   1      43.585  31.559  30.871  1.00  0.00     0.031 A 
ATOM     51  C   UNL A   1      42.587  25.118  28.355  1.00  0.00     0.031 A 
ATOM     52  C   UNL A   1      44.741  30.705  30.914  1.00  0.00     0.049 A 
ATOM     53  C   UNL A   1      43.924  25.560  28.880  1.00  0.00     0.074 A 
ATOM     54  C   UNL A   1      46.006  30.992  31.397  1.00  0.00     0.029 A 
ATOM     55  N   UNL A   1      44.773  29.394  30.465  1.00  0.00    -0.354 N 
ATOM     56  N   UNL A   1      44.264  26.720  29.389  1.00  0.00    -0.248 NA
ATOM     57  C   UNL A   1      45.014  24.575  28.835  1.00  0.00     0.031 C 
ATOM     58  C   UNL A   1      46.812  29.863  31.212  1.00  0.00     0.029 A 
ATOM     59  C   UNL A   1      46.036  28.861  30.651  1.00  0.00     0.049 A 
ATOM     60  H   UNL A   1      44.010  28.913  30.071  1.00  0.00     0.167 HD
ATOM     61  C   UNL A   1      45.601  26.595  29.748  1.00  0.00     0.074 A 
ATOM     62  C   UNL A   1      46.004  25.245  29.407  1.00  0.00     0.031 C 
ATOM     63  C   UNL A   1      46.421  27.515  30.311  1.00  0.00     0.031 A 
BRANCH  50  64
ATOM     64  C   UNL A   1      43.726  32.978  31.352  1.00  0.00    -0.014 A 
ATOM     65  C   UNL A   1      43.409  33.328  32.677  1.00  0.00     0.010 A 
ATOM     66  C   UNL A   1      44.208  33.969  30.477  1.00  0.00     0.010 A 
ATOM     67  C   UNL A   1      43.528  34.652  33.106  1.00  0.00     0.020 A 
ATOM     68  C   UNL A   1      44.351  35.290  30.910  1.00  0.00     0.020 A 
ATOM     69  C   UNL A   1      43.992  35.627  32.217  1.00  0.00     0.054 A 
BRANCH  69  70
ATOM     70  S   UNL A   1      44.148  37.338  32.800  1.00  0.00     0.124 S 
ATOM     71  O   UNL A   1      43.097  37.405  33.813  1.00  0.00    -0.237 OA
ATOM     72  O   UNL A   1      45.516  37.383  33.311  1.00  0.00    -0.237 OA
ATOM     73  O   UNL A   1      43.908  38.135  31.600  1.00  0.00    -0.744 OA
ENDBRANCH  69  70
ENDBRANCH  50  64
BRANCH  51  74
ATOM     74  C   UNL A   1      42.403  23.750  27.801  1.00  0.00    -0.014 A 
ATOM     75  C   UNL A   1      42.615  23.504  26.433  1.00  0.00     0.010 A 
ATOM     76  C   UNL A   1      42.029  22.686  28.640  1.00  0.00     0.010 A 
ATOM     77  C   UNL A   1      42.443  22.220  25.911  1.00  0.00     0.020 A 
ATOM     78  C   UNL A   1      41.879  21.395  28.125  1.00  0.00     0.020 A 
ATOM     79  C   UNL A   1      42.077  21.173  26.761  1.00  0.00     0.054 A 
BRANCH  79  80
ATOM     80  S   UNL A   1      41.918  19.499  26.077  1.00  0.00     0.124 S 
ATOM     81  O   UNL A   1      42.818  19.553  24.930  1.00  0.00    -0.237 OA
ATOM     82  O   UNL A   1      42.358  18.657  27.189  1.00  0.00    -0.237 OA
ATOM     83  O   UNL A   1      40.496  19.397  25.758  1.00  0.00    -0.744 OA
ENDBRANCH  79  80
ENDBRANCH  51  74
BRANCH  63  84
ATOM     84  C   UNL A   1      47.826  27.085  30.628  1.00  0.00    -0.014 A 
ATOM     85  C   UNL A   1      48.880  27.322  29.728  1.00  0.00     0.010 A 
ATOM     86  C   UNL A   1      48.102  26.477  31.867  1.00  0.00     0.010 A 
ATOM     87  C   UNL A   1      50.182  26.929  30.049  1.00  0.00     0.020 A 
ATOM     88  C   UNL A   1      49.406  26.102  32.200  1.00  0.00     0.020 A 
ATOM     89  C   UNL A   1      50.436  26.318  31.281  1.00  0.00     0.054 A 
BRANCH  89  90
ATOM     90  S   UNL A   1      52.140  25.853  31.695  1.00  0.00     0.124 S 
ATOM     91  O   UNL A   1      52.469  26.815  32.744  1.00  0.00    -0.237 OA
ATOM     92  O   UNL A   1      52.001  24.467  32.135  1.00  0.00    -0.237 OA
ATOM     93  O   UNL A   1      52.861  26.031  30.438  1.00  0.00    -0.744 OA
ENDBRANCH  89  90
ENDBRANCH  63  84
ENDBRANCH  37  38
ENDBRANCH  29  32
ENDBRANCH  27  28
ENDBRANCH  26  27
ENDBRANCH   1  26
TORSDOF 19
ENDMDL
