MODEL 1
REMARK VINA RESULT:     -11.4      0.000      0.000
REMARK SMILES C[C@H](Oc1ccnc2c(F)cc(F)cc12)C(=O)NCCCNC(=O)c1ccc(-c2c3nc(c(-c4ccc(S(=O)(=O)[O-])cc4)c4ccc([nH]4)c(-c4ccc(S(=O)(=O)[O-])cc4)c4nc(c(-c5ccc(S(=O)(=O)[O-])cc5)c5ccc2[nH]5)C=C4)C=C3)cc1
REMARK SMILES IDX 20 1 19 2 18 3 16 4 17 5 2 7 1 8 3 9 4 10 5 11 15 12 6 13
REMARK SMILES IDX 8 14 14 15 7 16 9 17 12 18 10 19 11 20 13 21 21 22 22 23
REMARK SMILES IDX 23 24 24 26 25 27 26 28 84 29 27 30 83 31 28 32 29 33 30 34
REMARK SMILES IDX 77 35 31 36 82 37 76 38 78 39 32 40 81 41 75 42 74 43 33 45
REMARK SMILES IDX 63 46 44 47 62 48 45 49 48 50 61 51 79 52 46 53 47 54 60 56
REMARK SMILES IDX 80 57 49 58 34 59 35 60 43 61 36 62 42 63 37 64 38 65 39 66
REMARK SMILES IDX 40 67 41 68 64 69 65 70 73 71 66 72 72 73 67 74 68 75 69 76
REMARK SMILES IDX 70 77 71 78 50 79 51 80 59 81 52 82 58 83 53 84 54 85 55 86
REMARK SMILES IDX 56 87 57 88
REMARK H PARENT 18 6 22 25 78 44 48 55
REMARK Flexibility Score: inf
ROOT
ATOM      1  C   UNL A   1      32.900  28.086  26.798  1.00  0.00     0.042 C 
ENDROOT
BRANCH   1   2
ATOM      2  C   UNL A   1      31.446  27.927  26.358  1.00  0.00     0.118 C 
BRANCH   2   3
ATOM      3  N   UNL A   1      30.952  26.602  26.676  1.00  0.00    -0.353 N 
ATOM      4  C   UNL A   1      31.417  25.356  26.396  1.00  0.00     0.260 C 
ATOM      5  O   UNL A   1      30.624  24.435  26.640  1.00  0.00    -0.271 OA
ATOM      6  H   UNL A   1      30.117  26.606  27.197  1.00  0.00     0.163 HD
BRANCH   4   7
ATOM      7  C   UNL A   1      32.847  25.018  25.862  1.00  0.00     0.258 C 
ATOM      8  C   UNL A   1      33.076  25.175  24.356  1.00  0.00     0.064 C 
BRANCH   7   9
ATOM      9  O   UNL A   1      33.682  24.045  26.485  1.00  0.00    -0.480 OA
BRANCH   9  10
ATOM     10  C   UNL A   1      33.924  22.802  25.978  1.00  0.00     0.131 A 
ATOM     11  C   UNL A   1      32.938  21.919  25.579  1.00  0.00     0.067 A 
ATOM     12  C   UNL A   1      35.280  22.449  25.769  1.00  0.00     0.048 A 
ATOM     13  C   UNL A   1      33.314  20.666  25.131  1.00  0.00     0.115 A 
ATOM     14  C   UNL A   1      35.566  21.142  25.307  1.00  0.00     0.110 A 
ATOM     15  C   UNL A   1      36.350  23.349  25.969  1.00  0.00     0.053 A 
ATOM     16  N   UNL A   1      34.588  20.259  25.035  1.00  0.00    -0.253 NA
ATOM     17  C   UNL A   1      36.903  20.787  25.109  1.00  0.00     0.152 A 
ATOM     18  C   UNL A   1      37.662  22.965  25.709  1.00  0.00     0.127 A 
ATOM     19  F   UNL A   1      37.205  19.540  24.709  1.00  0.00    -0.204 F 
ATOM     20  C   UNL A   1      37.952  21.681  25.289  1.00  0.00     0.080 A 
ATOM     21  F   UNL A   1      38.650  23.857  25.857  1.00  0.00    -0.207 F 
ENDBRANCH   9  10
ENDBRANCH   7   9
ENDBRANCH   4   7
ENDBRANCH   2   3
ENDBRANCH   1   2
BRANCH   1  22
ATOM     22  C   UNL A   1      33.674  29.139  26.014  1.00  0.00     0.118 C 
BRANCH  22  23
ATOM     23  N   UNL A   1      33.691  30.403  26.733  1.00  0.00    -0.352 N 
ATOM     24  C   UNL A   1      34.491  30.815  27.774  1.00  0.00     0.251 C 
ATOM     25  H   UNL A   1      33.028  31.065  26.428  1.00  0.00     0.163 HD
ATOM     26  O   UNL A   1      34.098  31.747  28.475  1.00  0.00    -0.269 OA
BRANCH  24  27
ATOM     27  C   UNL A   1      35.802  30.177  28.073  1.00  0.00     0.039 A 
ATOM     28  C   UNL A   1      36.005  29.623  29.344  1.00  0.00     0.014 A 
ATOM     29  C   UNL A   1      36.875  30.237  27.180  1.00  0.00     0.014 A 
ATOM     30  C   UNL A   1      37.264  29.128  29.710  1.00  0.00     0.010 A 
ATOM     31  C   UNL A   1      38.113  29.683  27.521  1.00  0.00     0.010 A 
ATOM     32  C   UNL A   1      38.332  29.155  28.801  1.00  0.00    -0.014 A 
BRANCH  32  33
ATOM     33  C   UNL A   1      39.698  28.721  29.201  1.00  0.00     0.031 A 
ATOM     34  C   UNL A   1      40.575  29.647  30.009  1.00  0.00     0.074 A 
ATOM     35  C   UNL A   1      40.169  27.515  28.830  1.00  0.00     0.049 A 
ATOM     36  N   UNL A   1      41.806  29.470  30.419  1.00  0.00    -0.248 NA
ATOM     37  C   UNL A   1      39.997  30.946  30.396  1.00  0.00     0.031 C 
ATOM     38  C   UNL A   1      39.436  26.525  28.040  1.00  0.00     0.029 A 
ATOM     39  N   UNL A   1      41.383  26.916  29.073  1.00  0.00    -0.354 N 
ATOM     40  C   UNL A   1      42.152  30.634  31.096  1.00  0.00     0.074 A 
ATOM     41  C   UNL A   1      41.018  31.527  31.011  1.00  0.00     0.031 C 
ATOM     42  C   UNL A   1      40.203  25.433  27.885  1.00  0.00     0.029 A 
ATOM     43  C   UNL A   1      41.493  25.656  28.536  1.00  0.00     0.049 A 
ATOM     44  H   UNL A   1      42.104  27.349  29.583  1.00  0.00     0.167 HD
ATOM     45  C   UNL A   1      43.301  30.928  31.749  1.00  0.00     0.031 A 
ATOM     46  C   UNL A   1      42.515  24.775  28.561  1.00  0.00     0.031 A 
ATOM     47  C   UNL A   1      44.422  30.037  31.861  1.00  0.00     0.049 A 
ATOM     48  C   UNL A   1      43.792  25.131  29.273  1.00  0.00     0.074 A 
ATOM     49  C   UNL A   1      45.609  30.237  32.545  1.00  0.00     0.029 A 
ATOM     50  N   UNL A   1      44.496  28.779  31.288  1.00  0.00    -0.354 N 
ATOM     51  N   UNL A   1      44.088  26.227  29.928  1.00  0.00    -0.248 NA
ATOM     52  C   UNL A   1      44.872  24.133  29.250  1.00  0.00     0.031 C 
ATOM     53  C   UNL A   1      46.417  29.113  32.353  1.00  0.00     0.029 A 
ATOM     54  C   UNL A   1      45.715  28.197  31.586  1.00  0.00     0.049 A 
ATOM     55  H   UNL A   1      43.786  28.361  30.748  1.00  0.00     0.167 HD
ATOM     56  C   UNL A   1      45.380  26.043  30.411  1.00  0.00     0.074 A 
ATOM     57  C   UNL A   1      45.810  24.732  29.975  1.00  0.00     0.031 C 
ATOM     58  C   UNL A   1      46.135  26.889  31.152  1.00  0.00     0.031 A 
BRANCH  45  59
ATOM     59  C   UNL A   1      43.408  32.275  32.409  1.00  0.00    -0.014 A 
ATOM     60  C   UNL A   1      43.023  32.449  33.751  1.00  0.00     0.010 A 
ATOM     61  C   UNL A   1      43.972  33.357  31.709  1.00  0.00     0.010 A 
ATOM     62  C   UNL A   1      43.180  33.688  34.374  1.00  0.00     0.020 A 
ATOM     63  C   UNL A   1      44.150  34.593  32.337  1.00  0.00     0.020 A 
ATOM     64  C   UNL A   1      43.747  34.752  33.664  1.00  0.00     0.054 A 
BRANCH  64  65
ATOM     65  S   UNL A   1      43.962  36.340  34.515  1.00  0.00     0.124 S 
ATOM     66  O   UNL A   1      42.892  37.146  33.930  1.00  0.00    -0.237 OA
ATOM     67  O   UNL A   1      43.777  35.974  35.917  1.00  0.00    -0.237 OA
ATOM     68  O   UNL A   1      45.315  36.751  34.151  1.00  0.00    -0.744 OA
ENDBRANCH  64  65
ENDBRANCH  45  59
BRANCH  46  69
ATOM     69  C   UNL A   1      42.354  23.454  27.899  1.00  0.00    -0.014 A 
ATOM     70  C   UNL A   1      42.861  23.244  26.606  1.00  0.00     0.010 A 
ATOM     71  C   UNL A   1      41.742  22.385  28.580  1.00  0.00     0.010 A 
ATOM     72  C   UNL A   1      42.768  21.985  26.005  1.00  0.00     0.020 A 
ATOM     73  C   UNL A   1      41.662  21.121  27.989  1.00  0.00     0.020 A 
ATOM     74  C   UNL A   1      42.179  20.928  26.706  1.00  0.00     0.054 A 
BRANCH  74  75
ATOM     75  S   UNL A   1      42.134  19.289  25.928  1.00  0.00     0.124 S 
ATOM     76  O   UNL A   1      43.002  19.473  24.770  1.00  0.00    -0.237 OA
ATOM     77  O   UNL A   1      42.663  18.430  26.985  1.00  0.00    -0.237 OA
ATOM     78  O   UNL A   1      40.719  19.091  25.622  1.00  0.00    -0.744 OA
ENDBRANCH  74  75
ENDBRANCH  46  69
BRANCH  58  79
ATOM     79  C   UNL A   1      47.507  26.443  31.569  1.00  0.00    -0.014 A 
ATOM     80  C   UNL A   1      47.706  25.785  32.795  1.00  0.00     0.010 A 
ATOM     81  C   UNL A   1      48.578  26.547  30.661  1.00  0.00     0.010 A 
ATOM     82  C   UNL A   1      48.950  25.227  33.100  1.00  0.00     0.020 A 
ATOM     83  C   UNL A   1      49.818  25.976  30.956  1.00  0.00     0.020 A 
ATOM     84  C   UNL A   1      49.994  25.313  32.172  1.00  0.00     0.054 A 
BRANCH  84  85
ATOM     85  S   UNL A   1      51.567  24.494  32.560  1.00  0.00     0.124 S 
ATOM     86  O   UNL A   1      51.658  24.669  34.007  1.00  0.00    -0.237 OA
ATOM     87  O   UNL A   1      51.329  23.126  32.107  1.00  0.00    -0.237 OA
ATOM     88  O   UNL A   1      52.551  25.242  31.781  1.00  0.00    -0.744 OA
ENDBRANCH  84  85
ENDBRANCH  58  79
ENDBRANCH  32  33
ENDBRANCH  24  27
ENDBRANCH  22  23
ENDBRANCH   1  22
TORSDOF 15
ENDMDL
MODEL 2
REMARK VINA RESULT:     -11.1      4.494     10.356
REMARK SMILES C[C@H](Oc1ccnc2c(F)cc(F)cc12)C(=O)NCCCNC(=O)c1ccc(-c2c3nc(c(-c4ccc(S(=O)(=O)[O-])cc4)c4ccc([nH]4)c(-c4ccc(S(=O)(=O)[O-])cc4)c4nc(c(-c5ccc(S(=O)(=O)[O-])cc5)c5ccc2[nH]5)C=C4)C=C3)cc1
REMARK SMILES IDX 20 1 19 2 18 3 16 4 17 5 2 7 1 8 3 9 4 10 5 11 15 12 6 13
REMARK SMILES IDX 8 14 14 15 7 16 9 17 12 18 10 19 11 20 13 21 21 22 22 23
REMARK SMILES IDX 23 24 24 26 25 27 26 28 84 29 27 30 83 31 28 32 29 33 30 34
REMARK SMILES IDX 77 35 31 36 82 37 76 38 78 39 32 40 81 41 75 42 74 43 33 45
REMARK SMILES IDX 63 46 44 47 62 48 45 49 48 50 61 51 79 52 46 53 47 54 60 56
REMARK SMILES IDX 80 57 49 58 34 59 35 60 43 61 36 62 42 63 37 64 38 65 39 66
REMARK SMILES IDX 40 67 41 68 64 69 65 70 73 71 66 72 72 73 67 74 68 75 69 76
REMARK SMILES IDX 70 77 71 78 50 79 51 80 59 81 52 82 58 83 53 84 54 85 55 86
REMARK SMILES IDX 56 87 57 88
REMARK H PARENT 18 6 22 25 78 44 48 55
REMARK Flexibility Score: inf
ROOT
ATOM      1  C   UNL A   1      39.116  22.608  26.457  1.00  0.00     0.042 C 
ENDROOT
BRANCH   1   2
ATOM      2  C   UNL A   1      38.007  23.602  26.118  1.00  0.00     0.118 C 
BRANCH   2   3
ATOM      3  N   UNL A   1      37.668  23.537  24.710  1.00  0.00    -0.353 N 
ATOM      4  C   UNL A   1      36.556  23.117  24.050  1.00  0.00     0.260 C 
ATOM      5  O   UNL A   1      36.690  23.000  22.823  1.00  0.00    -0.271 OA
ATOM      6  H   UNL A   1      38.382  23.862  24.116  1.00  0.00     0.163 HD
BRANCH   4   7
ATOM      7  C   UNL A   1      35.163  22.838  24.702  1.00  0.00     0.258 C 
ATOM      8  C   UNL A   1      34.558  21.450  24.469  1.00  0.00     0.064 C 
BRANCH   7   9
ATOM      9  O   UNL A   1      34.203  23.868  24.917  1.00  0.00    -0.480 OA
BRANCH   9  10
ATOM     10  C   UNL A   1      33.833  24.783  23.975  1.00  0.00     0.131 A 
ATOM     11  C   UNL A   1      33.448  24.462  22.687  1.00  0.00     0.067 A 
ATOM     12  C   UNL A   1      33.758  26.136  24.391  1.00  0.00     0.048 A 
ATOM     13  C   UNL A   1      33.148  25.488  21.810  1.00  0.00     0.115 A 
ATOM     14  C   UNL A   1      33.442  27.116  23.420  1.00  0.00     0.110 A 
ATOM     15  C   UNL A   1      33.950  26.541  25.730  1.00  0.00     0.053 A 
ATOM     16  N   UNL A   1      33.183  26.787  22.141  1.00  0.00    -0.253 NA
ATOM     17  C   UNL A   1      33.377  28.452  23.825  1.00  0.00     0.152 A 
ATOM     18  C   UNL A   1      33.823  27.879  26.094  1.00  0.00     0.127 A 
ATOM     19  F   UNL A   1      33.118  29.407  22.916  1.00  0.00    -0.204 F 
ATOM     20  C   UNL A   1      33.548  28.846  25.147  1.00  0.00     0.080 A 
ATOM     21  F   UNL A   1      33.959  28.225  27.381  1.00  0.00    -0.207 F 
ENDBRANCH   9  10
ENDBRANCH   7   9
ENDBRANCH   4   7
ENDBRANCH   2   3
ENDBRANCH   1   2
BRANCH   1  22
ATOM     22  C   UNL A   1      40.357  23.248  27.069  1.00  0.00     0.118 C 
BRANCH  22  23
ATOM     23  N   UNL A   1      41.030  24.093  26.096  1.00  0.00    -0.352 N 
ATOM     24  C   UNL A   1      41.230  25.455  26.100  1.00  0.00     0.251 C 
ATOM     25  H   UNL A   1      41.400  23.619  25.316  1.00  0.00     0.163 HD
ATOM     26  O   UNL A   1      41.475  26.009  25.028  1.00  0.00    -0.269 OA
BRANCH  24  27
ATOM     27  C   UNL A   1      41.161  26.268  27.344  1.00  0.00     0.039 A 
ATOM     28  C   UNL A   1      40.091  26.060  28.225  1.00  0.00     0.014 A 
ATOM     29  C   UNL A   1      42.046  27.322  27.590  1.00  0.00     0.014 A 
ATOM     30  C   UNL A   1      39.917  26.889  29.341  1.00  0.00     0.010 A 
ATOM     31  C   UNL A   1      41.910  28.108  28.739  1.00  0.00     0.010 A 
ATOM     32  C   UNL A   1      40.826  27.924  29.608  1.00  0.00    -0.014 A 
BRANCH  32  33
ATOM     33  C   UNL A   1      40.607  28.873  30.733  1.00  0.00     0.031 A 
ATOM     34  C   UNL A   1      41.469  28.786  31.969  1.00  0.00     0.074 A 
ATOM     35  C   UNL A   1      39.630  29.799  30.667  1.00  0.00     0.049 A 
ATOM     36  N   UNL A   1      41.408  29.493  33.070  1.00  0.00    -0.248 NA
ATOM     37  C   UNL A   1      42.528  27.762  31.975  1.00  0.00     0.031 C 
ATOM     38  C   UNL A   1      38.718  29.988  29.539  1.00  0.00     0.029 A 
ATOM     39  N   UNL A   1      39.246  30.757  31.574  1.00  0.00    -0.354 N 
ATOM     40  C   UNL A   1      42.406  28.993  33.898  1.00  0.00     0.074 A 
ATOM     41  C   UNL A   1      43.035  27.899  33.193  1.00  0.00     0.031 C 
ATOM     42  C   UNL A   1      37.896  31.016  29.810  1.00  0.00     0.029 A 
ATOM     43  C   UNL A   1      38.201  31.539  31.141  1.00  0.00     0.049 A 
ATOM     44  H   UNL A   1      39.678  30.874  32.450  1.00  0.00     0.167 HD
ATOM     45  C   UNL A   1      42.783  29.418  35.127  1.00  0.00     0.031 A 
ATOM     46  C   UNL A   1      37.558  32.561  31.743  1.00  0.00     0.031 A 
ATOM     47  C   UNL A   1      42.183  30.522  35.824  1.00  0.00     0.049 A 
ATOM     48  C   UNL A   1      37.978  33.003  33.118  1.00  0.00     0.074 A 
ATOM     49  C   UNL A   1      42.534  31.050  37.055  1.00  0.00     0.029 A 
ATOM     50  N   UNL A   1      41.118  31.272  35.355  1.00  0.00    -0.354 N 
ATOM     51  N   UNL A   1      38.941  32.532  33.873  1.00  0.00    -0.248 NA
ATOM     52  C   UNL A   1      37.226  34.112  33.724  1.00  0.00     0.031 C 
ATOM     53  C   UNL A   1      41.656  32.097  37.347  1.00  0.00     0.029 A 
ATOM     54  C   UNL A   1      40.787  32.247  36.278  1.00  0.00     0.049 A 
ATOM     55  H   UNL A   1      40.664  31.131  34.492  1.00  0.00     0.167 HD
ATOM     56  C   UNL A   1      38.923  33.300  35.033  1.00  0.00     0.074 A 
ATOM     57  C   UNL A   1      37.856  34.266  34.883  1.00  0.00     0.031 C 
ATOM     58  C   UNL A   1      39.725  33.208  36.120  1.00  0.00     0.031 A 
BRANCH  45  59
ATOM     59  C   UNL A   1      43.913  28.692  35.805  1.00  0.00    -0.014 A 
ATOM     60  C   UNL A   1      45.241  29.124  35.645  1.00  0.00     0.010 A 
ATOM     61  C   UNL A   1      43.638  27.619  36.672  1.00  0.00     0.010 A 
ATOM     62  C   UNL A   1      46.278  28.482  36.325  1.00  0.00     0.020 A 
ATOM     63  C   UNL A   1      44.670  26.987  37.369  1.00  0.00     0.020 A 
ATOM     64  C   UNL A   1      45.986  27.419  37.186  1.00  0.00     0.054 A 
BRANCH  64  65
ATOM     65  S   UNL A   1      47.355  26.626  38.074  1.00  0.00     0.124 S 
ATOM     66  O   UNL A   1      48.492  26.920  37.204  1.00  0.00    -0.237 OA
ATOM     67  O   UNL A   1      47.347  27.326  39.355  1.00  0.00    -0.237 OA
ATOM     68  O   UNL A   1      46.967  25.219  38.129  1.00  0.00    -0.744 OA
ENDBRANCH  64  65
ENDBRANCH  45  59
BRANCH  46  69
ATOM     69  C   UNL A   1      36.454  33.249  31.024  1.00  0.00    -0.014 A 
ATOM     70  C   UNL A   1      35.175  33.327  31.602  1.00  0.00     0.010 A 
ATOM     71  C   UNL A   1      36.689  33.876  29.787  1.00  0.00     0.010 A 
ATOM     72  C   UNL A   1      34.151  34.029  30.959  1.00  0.00     0.020 A 
ATOM     73  C   UNL A   1      35.672  34.593  29.150  1.00  0.00     0.020 A 
ATOM     74  C   UNL A   1      34.410  34.667  29.742  1.00  0.00     0.054 A 
BRANCH  74  75
ATOM     75  S   UNL A   1      33.080  35.628  28.966  1.00  0.00     0.124 S 
ATOM     76  O   UNL A   1      32.327  36.104  30.122  1.00  0.00    -0.237 OA
ATOM     77  O   UNL A   1      33.822  36.648  28.230  1.00  0.00    -0.237 OA
ATOM     78  O   UNL A   1      32.387  34.647  28.132  1.00  0.00    -0.744 OA
ENDBRANCH  74  75
ENDBRANCH  46  69
BRANCH  58  79
ATOM     79  C   UNL A   1      39.514  34.178  37.248  1.00  0.00    -0.014 A 
ATOM     80  C   UNL A   1      38.809  33.796  38.401  1.00  0.00     0.010 A 
ATOM     81  C   UNL A   1      40.157  35.430  37.215  1.00  0.00     0.010 A 
ATOM     82  C   UNL A   1      38.761  34.645  39.510  1.00  0.00     0.020 A 
ATOM     83  C   UNL A   1      40.124  36.275  38.328  1.00  0.00     0.020 A 
ATOM     84  C   UNL A   1      39.432  35.873  39.472  1.00  0.00     0.054 A 
BRANCH  84  85
ATOM     85  S   UNL A   1      39.429  36.907  40.963  1.00  0.00     0.124 S 
ATOM     86  O   UNL A   1      40.854  37.030  41.257  1.00  0.00    -0.237 OA
ATOM     87  O   UNL A   1      38.777  38.128  40.497  1.00  0.00    -0.237 OA
ATOM     88  O   UNL A   1      38.660  36.125  41.929  1.00  0.00    -0.744 OA
ENDBRANCH  84  85
ENDBRANCH  58  79
ENDBRANCH  32  33
ENDBRANCH  24  27
ENDBRANCH  22  23
ENDBRANCH   1  22
TORSDOF 15
ENDMDL
MODEL 3
REMARK VINA RESULT:     -11.0      1.283      2.200
REMARK SMILES C[C@H](Oc1ccnc2c(F)cc(F)cc12)C(=O)NCCCNC(=O)c1ccc(-c2c3nc(c(-c4ccc(S(=O)(=O)[O-])cc4)c4ccc([nH]4)c(-c4ccc(S(=O)(=O)[O-])cc4)c4nc(c(-c5ccc(S(=O)(=O)[O-])cc5)c5ccc2[nH]5)C=C4)C=C3)cc1
REMARK SMILES IDX 20 1 19 2 18 3 16 4 17 5 2 7 1 8 3 9 4 10 5 11 15 12 6 13
REMARK SMILES IDX 8 14 14 15 7 16 9 17 12 18 10 19 11 20 13 21 21 22 22 23
REMARK SMILES IDX 23 24 24 26 25 27 26 28 84 29 27 30 83 31 28 32 29 33 30 34
REMARK SMILES IDX 77 35 31 36 82 37 76 38 78 39 32 40 81 41 75 42 74 43 33 45
REMARK SMILES IDX 63 46 44 47 62 48 45 49 48 50 61 51 79 52 46 53 47 54 60 56
REMARK SMILES IDX 80 57 49 58 34 59 35 60 43 61 36 62 42 63 37 64 38 65 39 66
REMARK SMILES IDX 40 67 41 68 64 69 65 70 73 71 66 72 72 73 67 74 68 75 69 76
REMARK SMILES IDX 70 77 71 78 50 79 51 80 59 81 52 82 58 83 53 84 54 85 55 86
REMARK SMILES IDX 56 87 57 88
REMARK H PARENT 18 6 22 25 78 44 48 55
REMARK Flexibility Score: inf
ROOT
ATOM      1  C   UNL A   1      31.757  28.204  27.391  1.00  0.00     0.042 C 
ENDROOT
BRANCH   1   2
ATOM      2  C   UNL A   1      31.355  27.129  26.383  1.00  0.00     0.118 C 
BRANCH   2   3
ATOM      3  N   UNL A   1      32.207  27.175  25.211  1.00  0.00    -0.353 N 
ATOM      4  C   UNL A   1      32.634  26.217  24.346  1.00  0.00     0.260 C 
ATOM      5  O   UNL A   1      33.535  26.575  23.574  1.00  0.00    -0.271 OA
ATOM      6  H   UNL A   1      32.540  28.076  25.000  1.00  0.00     0.163 HD
BRANCH   4   7
ATOM      7  C   UNL A   1      32.048  24.772  24.229  1.00  0.00     0.258 C 
ATOM      8  C   UNL A   1      30.649  24.642  23.622  1.00  0.00     0.064 C 
BRANCH   7   9
ATOM      9  O   UNL A   1      32.390  23.736  25.146  1.00  0.00    -0.480 OA
BRANCH   9  10
ATOM     10  C   UNL A   1      33.653  23.251  25.322  1.00  0.00     0.131 A 
ATOM     11  C   UNL A   1      34.710  23.993  25.816  1.00  0.00     0.067 A 
ATOM     12  C   UNL A   1      33.851  21.872  25.064  1.00  0.00     0.048 A 
ATOM     13  C   UNL A   1      35.955  23.399  25.896  1.00  0.00     0.115 A 
ATOM     14  C   UNL A   1      35.163  21.354  25.173  1.00  0.00     0.110 A 
ATOM     15  C   UNL A   1      32.796  20.991  24.736  1.00  0.00     0.053 A 
ATOM     16  N   UNL A   1      36.199  22.128  25.546  1.00  0.00    -0.253 NA
ATOM     17  C   UNL A   1      35.364  19.996  24.910  1.00  0.00     0.152 A 
ATOM     18  C   UNL A   1      33.039  19.636  24.533  1.00  0.00     0.127 A 
ATOM     19  F   UNL A   1      36.606  19.487  24.968  1.00  0.00    -0.204 F 
ATOM     20  C   UNL A   1      34.321  19.128  24.606  1.00  0.00     0.080 A 
ATOM     21  F   UNL A   1      32.011  18.815  24.276  1.00  0.00    -0.207 F 
ENDBRANCH   9  10
ENDBRANCH   7   9
ENDBRANCH   4   7
ENDBRANCH   2   3
ENDBRANCH   1   2
BRANCH   1  22
ATOM     22  C   UNL A   1      33.229  28.594  27.328  1.00  0.00     0.118 C 
BRANCH  22  23
ATOM     23  N   UNL A   1      33.392  30.020  27.565  1.00  0.00    -0.352 N 
ATOM     24  C   UNL A   1      34.420  30.700  28.177  1.00  0.00     0.251 C 
ATOM     25  H   UNL A   1      32.655  30.584  27.238  1.00  0.00     0.163 HD
ATOM     26  O   UNL A   1      34.192  31.829  28.610  1.00  0.00    -0.269 OA
BRANCH  24  27
ATOM     27  C   UNL A   1      35.782  30.120  28.328  1.00  0.00     0.039 A 
ATOM     28  C   UNL A   1      36.175  29.644  29.587  1.00  0.00     0.014 A 
ATOM     29  C   UNL A   1      36.724  30.162  27.296  1.00  0.00     0.014 A 
ATOM     30  C   UNL A   1      37.488  29.208  29.804  1.00  0.00     0.010 A 
ATOM     31  C   UNL A   1      38.016  29.666  27.495  1.00  0.00     0.010 A 
ATOM     32  C   UNL A   1      38.424  29.217  28.759  1.00  0.00    -0.014 A 
BRANCH  32  33
ATOM     33  C   UNL A   1      39.846  28.848  28.992  1.00  0.00     0.031 A 
ATOM     34  C   UNL A   1      40.793  29.851  29.605  1.00  0.00     0.074 A 
ATOM     35  C   UNL A   1      40.304  27.630  28.640  1.00  0.00     0.049 A 
ATOM     36  N   UNL A   1      42.074  29.735  29.849  1.00  0.00    -0.248 NA
ATOM     37  C   UNL A   1      40.229  31.159  29.980  1.00  0.00     0.031 C 
ATOM     38  C   UNL A   1      39.504  26.568  28.030  1.00  0.00     0.029 A 
ATOM     39  N   UNL A   1      41.559  27.082  28.751  1.00  0.00    -0.354 N 
ATOM     40  C   UNL A   1      42.469  30.953  30.392  1.00  0.00     0.074 A 
ATOM     41  C   UNL A   1      41.304  31.809  30.406  1.00  0.00     0.031 C 
ATOM     42  C   UNL A   1      40.281  25.488  27.842  1.00  0.00     0.029 A 
ATOM     43  C   UNL A   1      41.640  25.789  28.290  1.00  0.00     0.049 A 
ATOM     44  H   UNL A   1      42.328  27.568  29.125  1.00  0.00     0.167 HD
ATOM     45  C   UNL A   1      43.686  31.322  30.855  1.00  0.00     0.031 A 
ATOM     46  C   UNL A   1      42.686  24.939  28.231  1.00  0.00     0.031 A 
ATOM     47  C   UNL A   1      44.843  30.470  30.870  1.00  0.00     0.049 A 
ATOM     48  C   UNL A   1      44.035  25.377  28.731  1.00  0.00     0.074 A 
ATOM     49  C   UNL A   1      46.105  30.749  31.365  1.00  0.00     0.029 A 
ATOM     50  N   UNL A   1      44.881  29.176  30.378  1.00  0.00    -0.354 N 
ATOM     51  N   UNL A   1      44.380  26.524  29.263  1.00  0.00    -0.248 NA
ATOM     52  C   UNL A   1      45.136  24.408  28.625  1.00  0.00     0.031 C 
ATOM     53  C   UNL A   1      46.918  29.635  31.138  1.00  0.00     0.029 A 
ATOM     54  C   UNL A   1      46.149  28.649  30.540  1.00  0.00     0.049 A 
ATOM     55  H   UNL A   1      44.118  28.703  29.971  1.00  0.00     0.167 HD
ATOM     56  C   UNL A   1      45.731  26.408  29.572  1.00  0.00     0.074 A 
ATOM     57  C   UNL A   1      46.143  25.081  29.169  1.00  0.00     0.031 C 
ATOM     58  C   UNL A   1      46.551  27.325  30.141  1.00  0.00     0.031 A 
BRANCH  45  59
ATOM     59  C   UNL A   1      43.836  32.716  31.402  1.00  0.00    -0.014 A 
ATOM     60  C   UNL A   1      44.198  33.781  30.560  1.00  0.00     0.010 A 
ATOM     61  C   UNL A   1      43.535  32.976  32.751  1.00  0.00     0.010 A 
ATOM     62  C   UNL A   1      44.278  35.082  31.063  1.00  0.00     0.020 A 
ATOM     63  C   UNL A   1      43.593  34.279  33.253  1.00  0.00     0.020 A 
ATOM     64  C   UNL A   1      43.971  35.323  32.406  1.00  0.00     0.054 A 
BRANCH  64  65
ATOM     65  S   UNL A   1      44.058  37.028  33.018  1.00  0.00     0.124 S 
ATOM     66  O   UNL A   1      45.393  37.071  33.610  1.00  0.00    -0.237 OA
ATOM     67  O   UNL A   1      43.887  37.811  31.797  1.00  0.00    -0.237 OA
ATOM     68  O   UNL A   1      42.956  37.114  33.973  1.00  0.00    -0.744 OA
ENDBRANCH  64  65
ENDBRANCH  45  59
BRANCH  46  69
ATOM     69  C   UNL A   1      42.481  23.571  27.688  1.00  0.00    -0.014 A 
ATOM     70  C   UNL A   1      42.540  23.342  26.303  1.00  0.00     0.010 A 
ATOM     71  C   UNL A   1      42.280  22.482  28.556  1.00  0.00     0.010 A 
ATOM     72  C   UNL A   1      42.412  22.046  25.794  1.00  0.00     0.020 A 
ATOM     73  C   UNL A   1      42.169  21.183  28.052  1.00  0.00     0.020 A 
ATOM     74  C   UNL A   1      42.238  20.973  26.673  1.00  0.00     0.054 A 
BRANCH  74  75
ATOM     75  S   UNL A   1      42.144  19.296  25.987  1.00  0.00     0.124 S 
ATOM     76  O   UNL A   1      43.007  19.393  24.814  1.00  0.00    -0.237 OA
ATOM     77  O   UNL A   1      42.659  18.482  27.086  1.00  0.00    -0.237 OA
ATOM     78  O   UNL A   1      40.722  19.119  25.702  1.00  0.00    -0.744 OA
ENDBRANCH  74  75
ENDBRANCH  46  69
BRANCH  58  79
ATOM     79  C   UNL A   1      47.983  26.944  30.391  1.00  0.00    -0.014 A 
ATOM     80  C   UNL A   1      48.976  27.220  29.437  1.00  0.00     0.010 A 
ATOM     81  C   UNL A   1      48.358  26.446  31.654  1.00  0.00     0.010 A 
ATOM     82  C   UNL A   1      50.323  27.017  29.745  1.00  0.00     0.020 A 
ATOM     83  C   UNL A   1      49.705  26.257  31.970  1.00  0.00     0.020 A 
ATOM     84  C   UNL A   1      50.681  26.551  31.015  1.00  0.00     0.054 A 
BRANCH  84  85
ATOM     85  S   UNL A   1      52.444  26.389  31.414  1.00  0.00     0.124 S 
ATOM     86  O   UNL A   1      53.077  26.625  30.119  1.00  0.00    -0.237 OA
ATOM     87  O   UNL A   1      52.639  27.440  32.409  1.00  0.00    -0.237 OA
ATOM     88  O   UNL A   1      52.563  25.024  31.923  1.00  0.00    -0.744 OA
ENDBRANCH  84  85
ENDBRANCH  58  79
ENDBRANCH  32  33
ENDBRANCH  24  27
ENDBRANCH  22  23
ENDBRANCH   1  22
TORSDOF 15
ENDMDL
