MODEL 1
REMARK VINA RESULT:     -11.5      0.000      0.000
REMARK SMILES CCCCc1cc(S(F)(F)(F)(F)F)cc2c1O[C@@H](C(F)(F)F)C(C(=O)NCCCNC(=O)c1ccc(-c3c4nc(c(-c5ccc(S(=O)(=O)[O-])cc5)c5ccc([nH]5)c(-c5ccc(S(=O)(=O)[O-])cc5)c5nc(c(-c6ccc(S(=O)(=O)[O-])cc6)c6ccc3[nH]6)C=C5)C=C4)cc1)=C2
REMARK SMILES IDX 28 1 27 2 26 3 24 4 25 5 23 7 5 8 6 9 16 10 7 11 15 12 17 13
REMARK SMILES IDX 14 14 93 15 18 16 4 17 3 18 2 19 1 20 8 21 9 22 10 23 11 24
REMARK SMILES IDX 12 25 13 26 19 27 20 28 21 29 22 30 29 31 30 32 31 33 32 35
REMARK SMILES IDX 33 36 34 37 92 38 35 39 91 40 36 41 37 42 38 43 85 44 39 45
REMARK SMILES IDX 90 46 84 47 86 48 40 49 89 50 83 51 82 52 41 54 71 55 52 56
REMARK SMILES IDX 70 57 53 58 56 59 69 60 87 61 54 62 55 63 68 65 88 66 57 67
REMARK SMILES IDX 42 68 43 69 51 70 44 71 50 72 45 73 46 74 47 75 48 76 49 77
REMARK SMILES IDX 72 78 73 79 81 80 74 81 80 82 75 83 76 84 77 85 78 86 79 87
REMARK SMILES IDX 58 88 59 89 67 90 60 91 66 92 61 93 62 94 63 95 64 96 65 97
REMARK H PARENT 26 6 30 34 86 53 56 64
REMARK Flexibility Score: inf
ROOT
ATOM      1  C   UNL A   1      34.095  27.928  25.630  1.00  0.00     0.042 C 
ENDROOT
BRANCH   1   2
ATOM      2  C   UNL A   1      32.859  27.343  24.965  1.00  0.00     0.118 C 
BRANCH   2   3
ATOM      3  N   UNL A   1      32.893  27.635  23.524  1.00  0.00    -0.352 N 
ATOM      4  C   UNL A   1      33.128  26.550  22.561  1.00  0.00     0.251 C 
ATOM      5  O   UNL A   1      33.158  26.803  21.315  1.00  0.00    -0.270 OA
ATOM      6  H   UNL A   1      32.758  28.557  23.206  1.00  0.00     0.163 HD
BRANCH   4   7
ATOM      7  C   UNL A   1      33.335  25.128  23.052  1.00  0.00     0.067 C 
ATOM      8  C   UNL A   1      33.656  21.360  24.827  1.00  0.00    -0.004 A 
ATOM      9  C   UNL A   1      34.895  20.882  25.212  1.00  0.00     0.032 A 
ATOM     10  C   UNL A   1      33.572  22.624  24.295  1.00  0.00     0.131 A 
ATOM     11  C   UNL A   1      36.021  21.649  25.073  1.00  0.00     0.108 A 
ATOM     12  C   UNL A   1      34.690  23.421  24.122  1.00  0.00     0.019 A 
ATOM     13  O   UNL A   1      32.324  23.127  24.023  1.00  0.00    -0.475 OA
ATOM     14  C   UNL A   1      35.919  22.911  24.524  1.00  0.00     0.036 A 
ATOM     15  C   UNL A   1      34.493  24.757  23.587  1.00  0.00     0.025 C 
ATOM     16  C   UNL A   1      32.221  24.096  22.942  1.00  0.00     0.314 C 
BRANCH   8  17
ATOM     17  C   UNL A   1      32.410  20.504  24.989  1.00  0.00     0.039 C 
BRANCH  17  18
ATOM     18  C   UNL A   1      32.815  19.082  25.340  1.00  0.00     0.005 C 
BRANCH  18  19
ATOM     19  C   UNL A   1      32.482  18.158  24.179  1.00  0.00    -0.003 C 
ATOM     20  C   UNL A   1      33.324  16.896  24.280  1.00  0.00     0.004 C 
ENDBRANCH  18  19
ENDBRANCH  17  18
ENDBRANCH   8  17
BRANCH  11  21
ATOM     21  S   UNL A   1      37.629  21.014  25.606  1.00  0.00     0.310 S 
ATOM     22  F   UNL A   1      38.372  21.663  24.365  1.00  0.00    -0.094 F 
ATOM     23  F   UNL A   1      37.400  19.736  24.715  1.00  0.00    -0.094 F 
ATOM     24  F   UNL A   1      39.011  20.475  26.074  1.00  0.00    -0.094 F 
ATOM     25  F   UNL A   1      37.903  22.363  26.382  1.00  0.00    -0.094 F 
ATOM     26  F   UNL A   1      36.280  21.622  25.052  1.00  0.00    -0.094 F 
ENDBRANCH  11  21
BRANCH  16  27
ATOM     27  C   UNL A   1      30.879  24.804  23.037  1.00  0.00     0.429 C 
ATOM     28  F   UNL A   1      30.783  25.706  22.064  1.00  0.00    -0.167 F 
ATOM     29  F   UNL A   1      29.898  23.914  22.914  1.00  0.00    -0.167 F 
ATOM     30  F   UNL A   1      30.780  25.412  24.216  1.00  0.00    -0.167 F 
ENDBRANCH  16  27
ENDBRANCH   4   7
ENDBRANCH   2   3
ENDBRANCH   1   2
BRANCH   1  31
ATOM     31  C   UNL A   1      33.830  28.115  27.115  1.00  0.00     0.118 C 
BRANCH  31  32
ATOM     32  N   UNL A   1      33.328  29.476  27.356  1.00  0.00    -0.352 N 
ATOM     33  C   UNL A   1      34.222  30.502  27.910  1.00  0.00     0.251 C 
ATOM     34  H   UNL A   1      32.392  29.699  27.146  1.00  0.00     0.163 HD
ATOM     35  O   UNL A   1      33.788  31.678  28.118  1.00  0.00    -0.269 OA
BRANCH  33  36
ATOM     36  C   UNL A   1      35.667  30.156  28.233  1.00  0.00     0.039 A 
ATOM     37  C   UNL A   1      36.643  30.356  27.272  1.00  0.00     0.014 A 
ATOM     38  C   UNL A   1      35.968  29.671  29.431  1.00  0.00     0.014 A 
ATOM     39  C   UNL A   1      37.880  29.738  27.574  1.00  0.00     0.010 A 
ATOM     40  C   UNL A   1      37.234  29.209  29.700  1.00  0.00     0.010 A 
ATOM     41  C   UNL A   1      38.236  29.321  28.775  1.00  0.00    -0.014 A 
BRANCH  41  42
ATOM     42  C   UNL A   1      39.678  28.983  29.113  1.00  0.00     0.031 A 
ATOM     43  C   UNL A   1      40.153  27.718  28.764  1.00  0.00     0.074 A 
ATOM     44  C   UNL A   1      40.440  29.947  29.750  1.00  0.00     0.049 A 
ATOM     45  N   UNL A   1      41.384  27.234  28.939  1.00  0.00    -0.248 NA
ATOM     46  C   UNL A   1      39.337  26.680  28.119  1.00  0.00     0.031 C 
ATOM     47  C   UNL A   1      39.970  31.230  30.098  1.00  0.00     0.029 A 
ATOM     48  N   UNL A   1      41.752  29.856  30.156  1.00  0.00    -0.354 N 
ATOM     49  C   UNL A   1      41.464  25.991  28.461  1.00  0.00     0.074 A 
ATOM     50  C   UNL A   1      40.147  25.615  27.931  1.00  0.00     0.031 C 
ATOM     51  C   UNL A   1      40.981  31.896  30.714  1.00  0.00     0.029 A 
ATOM     52  C   UNL A   1      42.099  31.043  30.763  1.00  0.00     0.049 A 
ATOM     53  H   UNL A   1      42.341  29.076  30.035  1.00  0.00     0.167 HD
ATOM     54  C   UNL A   1      42.584  25.158  28.443  1.00  0.00     0.031 A 
ATOM     55  C   UNL A   1      43.317  31.381  31.333  1.00  0.00     0.031 A 
ATOM     56  C   UNL A   1      43.814  25.513  28.975  1.00  0.00     0.049 A 
ATOM     57  C   UNL A   1      44.421  30.526  31.367  1.00  0.00     0.074 A 
ATOM     58  C   UNL A   1      44.954  24.688  28.958  1.00  0.00     0.029 A 
ATOM     59  N   UNL A   1      44.154  26.690  29.602  1.00  0.00    -0.354 N 
ATOM     60  N   UNL A   1      44.512  29.297  30.853  1.00  0.00    -0.248 NA
ATOM     61  C   UNL A   1      45.705  30.860  31.997  1.00  0.00     0.031 C 
ATOM     62  C   UNL A   1      45.966  25.355  29.576  1.00  0.00     0.029 A 
ATOM     63  C   UNL A   1      45.473  26.607  29.989  1.00  0.00     0.049 A 
ATOM     64  H   UNL A   1      43.556  27.459  29.750  1.00  0.00     0.167 HD
ATOM     65  C   UNL A   1      45.731  28.799  31.065  1.00  0.00     0.074 A 
ATOM     66  C   UNL A   1      46.513  29.794  31.812  1.00  0.00     0.031 C 
ATOM     67  C   UNL A   1      46.223  27.556  30.665  1.00  0.00     0.031 A 
BRANCH  54  68
ATOM     68  C   UNL A   1      42.447  23.785  27.804  1.00  0.00    -0.014 A 
ATOM     69  C   UNL A   1      41.962  22.716  28.539  1.00  0.00     0.010 A 
ATOM     70  C   UNL A   1      42.855  23.632  26.551  1.00  0.00     0.010 A 
ATOM     71  C   UNL A   1      42.218  21.454  27.951  1.00  0.00     0.020 A 
ATOM     72  C   UNL A   1      42.952  22.379  25.995  1.00  0.00     0.020 A 
ATOM     73  C   UNL A   1      42.545  21.271  26.685  1.00  0.00     0.054 A 
BRANCH  73  74
ATOM     74  S   UNL A   1      42.461  19.639  25.905  1.00  0.00     0.124 S 
ATOM     75  O   UNL A   1      42.791  18.561  26.940  1.00  0.00    -0.237 OA
ATOM     76  O   UNL A   1      41.050  19.407  25.358  1.00  0.00    -0.237 OA
ATOM     77  O   UNL A   1      43.589  19.562  24.622  1.00  0.00    -0.744 OA
ENDBRANCH  73  74
ENDBRANCH  54  68
BRANCH  55  78
ATOM     78  C   UNL A   1      43.458  32.759  31.957  1.00  0.00    -0.014 A 
ATOM     79  C   UNL A   1      43.300  32.960  33.318  1.00  0.00     0.010 A 
ATOM     80  C   UNL A   1      43.763  33.763  31.143  1.00  0.00     0.010 A 
ATOM     81  C   UNL A   1      43.199  34.322  33.689  1.00  0.00     0.020 A 
ATOM     82  C   UNL A   1      43.778  35.057  31.603  1.00  0.00     0.020 A 
ATOM     83  C   UNL A   1      43.571  35.335  32.926  1.00  0.00     0.054 A 
BRANCH  83  84
ATOM     84  S   UNL A   1      43.795  37.001  33.598  1.00  0.00     0.124 S 
ATOM     85  O   UNL A   1      44.912  36.983  34.645  1.00  0.00    -0.237 OA
ATOM     86  O   UNL A   1      44.172  37.961  32.467  1.00  0.00    -0.237 OA
ATOM     87  O   UNL A   1      42.339  37.523  34.326  1.00  0.00    -0.744 OA
ENDBRANCH  83  84
ENDBRANCH  55  78
BRANCH  67  88
ATOM     88  C   UNL A   1      47.670  27.223  30.990  1.00  0.00    -0.014 A 
ATOM     89  C   UNL A   1      48.669  27.602  30.109  1.00  0.00     0.010 A 
ATOM     90  C   UNL A   1      47.952  26.577  32.116  1.00  0.00     0.010 A 
ATOM     91  C   UNL A   1      49.921  26.995  30.366  1.00  0.00     0.020 A 
ATOM     92  C   UNL A   1      49.228  26.130  32.364  1.00  0.00     0.020 A 
ATOM     93  C   UNL A   1      50.254  26.418  31.507  1.00  0.00     0.054 A 
BRANCH  93  94
ATOM     94  S   UNL A   1      51.974  26.028  31.912  1.00  0.00     0.124 S 
ATOM     95  O   UNL A   1      52.041  24.650  32.578  1.00  0.00    -0.237 OA
ATOM     96  O   UNL A   1      52.810  26.017  30.631  1.00  0.00    -0.237 OA
ATOM     97  O   UNL A   1      52.588  27.209  32.985  1.00  0.00    -0.744 OA
ENDBRANCH  93  94
ENDBRANCH  67  88
ENDBRANCH  41  42
ENDBRANCH  33  36
ENDBRANCH  31  32
ENDBRANCH   1  31
TORSDOF 18
ENDMDL
MODEL 2
REMARK VINA RESULT:     -11.5      3.203      8.594
REMARK SMILES CCCCc1cc(S(F)(F)(F)(F)F)cc2c1O[C@@H](C(F)(F)F)C(C(=O)NCCCNC(=O)c1ccc(-c3c4nc(c(-c5ccc(S(=O)(=O)[O-])cc5)c5ccc([nH]5)c(-c5ccc(S(=O)(=O)[O-])cc5)c5nc(c(-c6ccc(S(=O)(=O)[O-])cc6)c6ccc3[nH]6)C=C5)C=C4)cc1)=C2
REMARK SMILES IDX 28 1 27 2 26 3 24 4 25 5 23 7 5 8 6 9 16 10 7 11 15 12 17 13
REMARK SMILES IDX 14 14 93 15 18 16 4 17 3 18 2 19 1 20 8 21 9 22 10 23 11 24
REMARK SMILES IDX 12 25 13 26 19 27 20 28 21 29 22 30 29 31 30 32 31 33 32 35
REMARK SMILES IDX 33 36 34 37 92 38 35 39 91 40 36 41 37 42 38 43 85 44 39 45
REMARK SMILES IDX 90 46 84 47 86 48 40 49 89 50 83 51 82 52 41 54 71 55 52 56
REMARK SMILES IDX 70 57 53 58 56 59 69 60 87 61 54 62 55 63 68 65 88 66 57 67
REMARK SMILES IDX 42 68 43 69 51 70 44 71 50 72 45 73 46 74 47 75 48 76 49 77
REMARK SMILES IDX 72 78 73 79 81 80 74 81 80 82 75 83 76 84 77 85 78 86 79 87
REMARK SMILES IDX 58 88 59 89 67 90 60 91 66 92 61 93 62 94 63 95 64 96 65 97
REMARK H PARENT 26 6 30 34 86 53 56 64
REMARK Flexibility Score: inf
ROOT
ATOM      1  C   UNL A   1      34.551  29.956  27.113  1.00  0.00     0.042 C 
ENDROOT
BRANCH   1   2
ATOM      2  C   UNL A   1      33.468  28.916  26.877  1.00  0.00     0.118 C 
BRANCH   2   3
ATOM      3  N   UNL A   1      32.740  29.238  25.641  1.00  0.00    -0.352 N 
ATOM      4  C   UNL A   1      32.399  28.170  24.690  1.00  0.00     0.251 C 
ATOM      5  O   UNL A   1      31.769  28.449  23.621  1.00  0.00    -0.270 OA
ATOM      6  H   UNL A   1      32.481  30.169  25.451  1.00  0.00     0.163 HD
BRANCH   4   7
ATOM      7  C   UNL A   1      32.797  26.734  24.985  1.00  0.00     0.067 C 
ATOM      8  C   UNL A   1      33.779  22.887  26.281  1.00  0.00    -0.004 A 
ATOM      9  C   UNL A   1      35.094  22.460  26.241  1.00  0.00     0.032 A 
ATOM     10  C   UNL A   1      33.492  24.175  25.899  1.00  0.00     0.131 A 
ATOM     11  C   UNL A   1      36.096  23.300  25.833  1.00  0.00     0.108 A 
ATOM     12  C   UNL A   1      34.475  25.046  25.464  1.00  0.00     0.019 A 
ATOM     13  O   UNL A   1      32.201  24.619  26.051  1.00  0.00    -0.475 OA
ATOM     14  C   UNL A   1      35.786  24.586  25.441  1.00  0.00     0.036 A 
ATOM     15  C   UNL A   1      34.075  26.400  25.120  1.00  0.00     0.025 C 
ATOM     16  C   UNL A   1      31.741  25.647  25.130  1.00  0.00     0.314 C 
BRANCH   8  17
ATOM     17  C   UNL A   1      32.673  21.950  26.739  1.00  0.00     0.039 C 
BRANCH  17  18
ATOM     18  C   UNL A   1      32.092  21.226  25.535  1.00  0.00     0.005 C 
BRANCH  18  19
ATOM     19  C   UNL A   1      32.815  19.903  25.341  1.00  0.00    -0.003 C 
ATOM     20  C   UNL A   1      32.586  19.406  23.922  1.00  0.00     0.004 C 
ENDBRANCH  18  19
ENDBRANCH  17  18
ENDBRANCH   8  17
BRANCH  11  21
ATOM     21  S   UNL A   1      37.813  22.729  25.812  1.00  0.00     0.310 S 
ATOM     22  F   UNL A   1      38.279  23.951  24.916  1.00  0.00    -0.094 F 
ATOM     23  F   UNL A   1      37.518  21.949  24.475  1.00  0.00    -0.094 F 
ATOM     24  F   UNL A   1      39.289  22.240  25.805  1.00  0.00    -0.094 F 
ATOM     25  F   UNL A   1      38.126  23.628  27.073  1.00  0.00    -0.094 F 
ATOM     26  F   UNL A   1      36.348  23.321  25.769  1.00  0.00    -0.094 F 
ENDBRANCH  11  21
BRANCH  16  27
ATOM     27  C   UNL A   1      30.465  26.267  25.676  1.00  0.00     0.429 C 
ATOM     28  F   UNL A   1      29.812  26.878  24.691  1.00  0.00    -0.167 F 
ATOM     29  F   UNL A   1      29.695  25.313  26.192  1.00  0.00    -0.167 F 
ATOM     30  F   UNL A   1      30.769  27.150  26.622  1.00  0.00    -0.167 F 
ENDBRANCH  16  27
ENDBRANCH   4   7
ENDBRANCH   2   3
ENDBRANCH   1   2
BRANCH   1  31
ATOM     31  C   UNL A   1      35.650  29.356  27.973  1.00  0.00     0.118 C 
BRANCH  31  32
ATOM     32  N   UNL A   1      35.408  29.692  29.385  1.00  0.00    -0.352 N 
ATOM     33  C   UNL A   1      36.529  29.730  30.334  1.00  0.00     0.251 C 
ATOM     34  H   UNL A   1      34.494  29.891  29.692  1.00  0.00     0.163 HD
ATOM     35  O   UNL A   1      36.319  30.020  31.553  1.00  0.00    -0.269 OA
BRANCH  33  36
ATOM     36  C   UNL A   1      37.939  29.423  29.857  1.00  0.00     0.039 A 
ATOM     37  C   UNL A   1      38.839  28.837  30.733  1.00  0.00     0.014 A 
ATOM     38  C   UNL A   1      38.285  29.719  28.610  1.00  0.00     0.014 A 
ATOM     39  C   UNL A   1      40.179  28.865  30.280  1.00  0.00     0.010 A 
ATOM     40  C   UNL A   1      39.589  29.595  28.198  1.00  0.00     0.010 A 
ATOM     41  C   UNL A   1      40.544  29.077  29.029  1.00  0.00    -0.014 A 
BRANCH  41  42
ATOM     42  C   UNL A   1      41.948  28.765  28.539  1.00  0.00     0.031 A 
ATOM     43  C   UNL A   1      42.876  29.806  28.502  1.00  0.00     0.074 A 
ATOM     44  C   UNL A   1      42.228  27.465  28.154  1.00  0.00     0.049 A 
ATOM     45  N   UNL A   1      44.158  29.741  28.138  1.00  0.00    -0.248 NA
ATOM     46  C   UNL A   1      42.573  31.194  28.878  1.00  0.00     0.031 C 
ATOM     47  C   UNL A   1      41.298  26.406  28.196  1.00  0.00     0.029 A 
ATOM     48  N   UNL A   1      43.416  26.963  27.671  1.00  0.00    -0.354 N 
ATOM     49  C   UNL A   1      44.731  30.941  28.252  1.00  0.00     0.074 A 
ATOM     50  C   UNL A   1      43.719  31.894  28.725  1.00  0.00     0.031 C 
ATOM     51  C   UNL A   1      41.915  25.286  27.735  1.00  0.00     0.029 A 
ATOM     52  C   UNL A   1      43.238  25.625  27.397  1.00  0.00     0.049 A 
ATOM     53  H   UNL A   1      44.248  27.473  27.543  1.00  0.00     0.167 HD
ATOM     54  C   UNL A   1      46.059  31.276  27.984  1.00  0.00     0.031 A 
ATOM     55  C   UNL A   1      44.166  24.734  26.881  1.00  0.00     0.031 A 
ATOM     56  C   UNL A   1      46.999  30.375  27.508  1.00  0.00     0.049 A 
ATOM     57  C   UNL A   1      45.479  25.083  26.557  1.00  0.00     0.074 A 
ATOM     58  C   UNL A   1      48.343  30.695  27.240  1.00  0.00     0.029 A 
ATOM     59  N   UNL A   1      46.815  29.043  27.212  1.00  0.00    -0.354 N 
ATOM     60  N   UNL A   1      46.063  26.273  26.708  1.00  0.00    -0.248 NA
ATOM     61  C   UNL A   1      46.461  24.156  25.978  1.00  0.00     0.031 C 
ATOM     62  C   UNL A   1      48.959  29.574  26.778  1.00  0.00     0.029 A 
ATOM     63  C   UNL A   1      48.010  28.536  26.750  1.00  0.00     0.049 A 
ATOM     64  H   UNL A   1      45.974  28.539  27.311  1.00  0.00     0.167 HD
ATOM     65  C   UNL A   1      47.333  26.216  26.306  1.00  0.00     0.074 A 
ATOM     66  C   UNL A   1      47.605  24.856  25.823  1.00  0.00     0.031 C 
ATOM     67  C   UNL A   1      48.277  27.245  26.323  1.00  0.00     0.031 A 
BRANCH  54  68
ATOM     68  C   UNL A   1      46.501  32.711  28.227  1.00  0.00    -0.014 A 
ATOM     69  C   UNL A   1      46.988  33.094  29.466  1.00  0.00     0.010 A 
ATOM     70  C   UNL A   1      46.354  33.589  27.242  1.00  0.00     0.010 A 
ATOM     71  C   UNL A   1      47.023  34.495  29.659  1.00  0.00     0.020 A 
ATOM     72  C   UNL A   1      46.537  34.931  27.469  1.00  0.00     0.020 A 
ATOM     73  C   UNL A   1      46.962  35.387  28.687  1.00  0.00     0.054 A 
BRANCH  73  74
ATOM     74  S   UNL A   1      47.414  37.119  28.953  1.00  0.00     0.124 S 
ATOM     75  O   UNL A   1      46.343  38.026  28.343  1.00  0.00    -0.237 OA
ATOM     76  O   UNL A   1      47.521  37.394  30.455  1.00  0.00    -0.237 OA
ATOM     77  O   UNL A   1      48.921  37.435  28.208  1.00  0.00    -0.744 OA
ENDBRANCH  73  74
ENDBRANCH  54  68
BRANCH  55  78
ATOM     78  C   UNL A   1      43.729  23.296  26.653  1.00  0.00    -0.014 A 
ATOM     79  C   UNL A   1      43.553  22.783  25.379  1.00  0.00     0.010 A 
ATOM     80  C   UNL A   1      43.545  22.542  27.730  1.00  0.00     0.010 A 
ATOM     81  C   UNL A   1      42.895  21.531  25.350  1.00  0.00     0.020 A 
ATOM     82  C   UNL A   1      43.024  21.276  27.618  1.00  0.00     0.020 A 
ATOM     83  C   UNL A   1      42.769  20.727  26.391  1.00  0.00     0.054 A 
BRANCH  83  84
ATOM     84  S   UNL A   1      42.287  18.992  26.204  1.00  0.00     0.124 S 
ATOM     85  O   UNL A   1      42.382  18.288  27.559  1.00  0.00    -0.237 OA
ATOM     86  O   UNL A   1      40.848  18.916  25.688  1.00  0.00    -0.237 OA
ATOM     87  O   UNL A   1      43.333  18.227  25.088  1.00  0.00    -0.744 OA
ENDBRANCH  83  84
ENDBRANCH  55  78
BRANCH  67  88
ATOM     88  C   UNL A   1      49.686  26.928  25.846  1.00  0.00    -0.014 A 
ATOM     89  C   UNL A   1      50.611  26.424  26.745  1.00  0.00     0.010 A 
ATOM     90  C   UNL A   1      50.004  27.138  24.574  1.00  0.00     0.010 A 
ATOM     91  C   UNL A   1      51.943  26.443  26.268  1.00  0.00     0.020 A 
ATOM     92  C   UNL A   1      51.304  27.006  24.148  1.00  0.00     0.020 A 
ATOM     93  C   UNL A   1      52.282  26.568  24.998  1.00  0.00     0.054 A 
BRANCH  93  94
ATOM     94  S   UNL A   1      53.951  26.182  24.414  1.00  0.00     0.124 S 
ATOM     95  O   UNL A   1      54.943  27.190  25.002  1.00  0.00    -0.237 OA
ATOM     96  O   UNL A   1      54.333  24.769  24.861  1.00  0.00    -0.237 OA
ATOM     97  O   UNL A   1      53.993  26.272  22.707  1.00  0.00    -0.744 OA
ENDBRANCH  93  94
ENDBRANCH  67  88
ENDBRANCH  41  42
ENDBRANCH  33  36
ENDBRANCH  31  32
ENDBRANCH   1  31
TORSDOF 18
ENDMDL
MODEL 3
REMARK VINA RESULT:     -11.3      2.874      3.601
REMARK SMILES CCCCc1cc(S(F)(F)(F)(F)F)cc2c1O[C@@H](C(F)(F)F)C(C(=O)NCCCNC(=O)c1ccc(-c3c4nc(c(-c5ccc(S(=O)(=O)[O-])cc5)c5ccc([nH]5)c(-c5ccc(S(=O)(=O)[O-])cc5)c5nc(c(-c6ccc(S(=O)(=O)[O-])cc6)c6ccc3[nH]6)C=C5)C=C4)cc1)=C2
REMARK SMILES IDX 28 1 27 2 26 3 24 4 25 5 23 7 5 8 6 9 16 10 7 11 15 12 17 13
REMARK SMILES IDX 14 14 93 15 18 16 4 17 3 18 2 19 1 20 8 21 9 22 10 23 11 24
REMARK SMILES IDX 12 25 13 26 19 27 20 28 21 29 22 30 29 31 30 32 31 33 32 35
REMARK SMILES IDX 33 36 34 37 92 38 35 39 91 40 36 41 37 42 38 43 85 44 39 45
REMARK SMILES IDX 90 46 84 47 86 48 40 49 89 50 83 51 82 52 41 54 71 55 52 56
REMARK SMILES IDX 70 57 53 58 56 59 69 60 87 61 54 62 55 63 68 65 88 66 57 67
REMARK SMILES IDX 42 68 43 69 51 70 44 71 50 72 45 73 46 74 47 75 48 76 49 77
REMARK SMILES IDX 72 78 73 79 81 80 74 81 80 82 75 83 76 84 77 85 78 86 79 87
REMARK SMILES IDX 58 88 59 89 67 90 60 91 66 92 61 93 62 94 63 95 64 96 65 97
REMARK H PARENT 26 6 30 34 86 53 56 64
REMARK Flexibility Score: inf
ROOT
ATOM      1  C   UNL A   1      34.151  30.365  27.056  1.00  0.00     0.042 C 
ENDROOT
BRANCH   1   2
ATOM      2  C   UNL A   1      33.820  29.101  26.280  1.00  0.00     0.118 C 
BRANCH   2   3
ATOM      3  N   UNL A   1      33.121  29.459  25.036  1.00  0.00    -0.352 N 
ATOM      4  C   UNL A   1      32.649  28.403  24.129  1.00  0.00     0.251 C 
ATOM      5  O   UNL A   1      32.045  28.712  23.054  1.00  0.00    -0.270 OA
ATOM      6  H   UNL A   1      32.970  30.406  24.812  1.00  0.00     0.163 HD
BRANCH   4   7
ATOM      7  C   UNL A   1      32.882  26.942  24.477  1.00  0.00     0.067 C 
ATOM      8  C   UNL A   1      33.459  23.065  25.919  1.00  0.00    -0.004 A 
ATOM      9  C   UNL A   1      34.701  22.466  25.811  1.00  0.00     0.032 A 
ATOM     10  C   UNL A   1      33.311  24.360  25.485  1.00  0.00     0.131 A 
ATOM     11  C   UNL A   1      35.769  23.147  25.287  1.00  0.00     0.108 A 
ATOM     12  C   UNL A   1      34.361  25.072  24.934  1.00  0.00     0.019 A 
ATOM     13  O   UNL A   1      32.103  24.977  25.702  1.00  0.00    -0.475 OA
ATOM     14  C   UNL A   1      35.596  24.442  24.845  1.00  0.00     0.036 A 
ATOM     15  C   UNL A   1      34.113  26.449  24.541  1.00  0.00     0.025 C 
ATOM     16  C   UNL A   1      31.709  26.012  24.757  1.00  0.00     0.314 C 
BRANCH   8  17
ATOM     17  C   UNL A   1      32.281  22.305  26.505  1.00  0.00     0.039 C 
BRANCH  17  18
ATOM     18  C   UNL A   1      31.477  21.669  25.382  1.00  0.00     0.005 C 
BRANCH  18  19
ATOM     19  C   UNL A   1      32.131  20.360  24.969  1.00  0.00    -0.003 C 
ATOM     20  C   UNL A   1      32.465  20.408  23.486  1.00  0.00     0.004 C 
ENDBRANCH  18  19
ENDBRANCH  17  18
ENDBRANCH   8  17
BRANCH  11  21
ATOM     21  S   UNL A   1      37.391  22.353  25.178  1.00  0.00     0.310 S 
ATOM     22  F   UNL A   1      36.926  21.127  26.070  1.00  0.00    -0.094 F 
ATOM     23  F   UNL A   1      37.814  23.076  26.513  1.00  0.00    -0.094 F 
ATOM     24  F   UNL A   1      38.784  21.669  25.073  1.00  0.00    -0.094 F 
ATOM     25  F   UNL A   1      36.903  21.531  23.921  1.00  0.00    -0.094 F 
ATOM     26  F   UNL A   1      35.937  22.953  25.334  1.00  0.00    -0.094 F 
ENDBRANCH  11  21
BRANCH  16  27
ATOM     27  C   UNL A   1      30.569  26.820  25.355  1.00  0.00     0.429 C 
ATOM     28  F   UNL A   1      29.969  27.519  24.395  1.00  0.00    -0.167 F 
ATOM     29  F   UNL A   1      29.689  25.996  25.917  1.00  0.00    -0.167 F 
ATOM     30  F   UNL A   1      31.048  27.651  26.276  1.00  0.00    -0.167 F 
ENDBRANCH  16  27
ENDBRANCH   4   7
ENDBRANCH   2   3
ENDBRANCH   1   2
BRANCH   1  31
ATOM     31  C   UNL A   1      35.333  30.100  27.973  1.00  0.00     0.118 C 
BRANCH  31  32
ATOM     32  N   UNL A   1      35.112  30.769  29.264  1.00  0.00    -0.352 N 
ATOM     33  C   UNL A   1      36.242  31.004  30.173  1.00  0.00     0.251 C 
ATOM     34  H   UNL A   1      34.206  31.059  29.519  1.00  0.00     0.163 HD
ATOM     35  O   UNL A   1      36.050  31.582  31.289  1.00  0.00    -0.269 OA
BRANCH  33  36
ATOM     36  C   UNL A   1      37.641  30.557  29.779  1.00  0.00     0.039 A 
ATOM     37  C   UNL A   1      37.963  30.443  28.437  1.00  0.00     0.014 A 
ATOM     38  C   UNL A   1      38.530  30.286  30.727  1.00  0.00     0.014 A 
ATOM     39  C   UNL A   1      39.174  29.752  28.196  1.00  0.00     0.010 A 
ATOM     40  C   UNL A   1      39.747  29.738  30.407  1.00  0.00     0.010 A 
ATOM     41  C   UNL A   1      40.111  29.541  29.103  1.00  0.00    -0.014 A 
BRANCH  41  42
ATOM     42  C   UNL A   1      41.515  29.104  28.720  1.00  0.00     0.031 A 
ATOM     43  C   UNL A   1      41.719  27.761  28.401  1.00  0.00     0.074 A 
ATOM     44  C   UNL A   1      42.514  30.063  28.711  1.00  0.00     0.049 A 
ATOM     45  N   UNL A   1      42.855  27.181  28.012  1.00  0.00    -0.248 NA
ATOM     46  C   UNL A   1      40.667  26.735  28.442  1.00  0.00     0.031 C 
ATOM     47  C   UNL A   1      42.314  31.423  29.024  1.00  0.00     0.029 A 
ATOM     48  N   UNL A   1      43.846  29.892  28.410  1.00  0.00    -0.354 N 
ATOM     49  C   UNL A   1      42.654  25.883  27.779  1.00  0.00     0.074 A 
ATOM     50  C   UNL A   1      41.245  25.576  28.057  1.00  0.00     0.031 C 
ATOM     51  C   UNL A   1      43.511  32.058  28.924  1.00  0.00     0.029 A 
ATOM     52  C   UNL A   1      44.478  31.108  28.547  1.00  0.00     0.049 A 
ATOM     53  H   UNL A   1      44.274  29.046  28.144  1.00  0.00     0.167 HD
ATOM     54  C   UNL A   1      43.590  24.944  27.341  1.00  0.00     0.031 A 
ATOM     55  C   UNL A   1      45.822  31.392  28.359  1.00  0.00     0.031 A 
ATOM     56  C   UNL A   1      44.925  25.238  27.112  1.00  0.00     0.049 A 
ATOM     57  C   UNL A   1      46.770  30.440  27.978  1.00  0.00     0.074 A 
ATOM     58  C   UNL A   1      45.878  24.305  26.663  1.00  0.00     0.029 A 
ATOM     59  N   UNL A   1      45.561  26.448  27.271  1.00  0.00    -0.354 N 
ATOM     60  N   UNL A   1      46.560  29.151  27.706  1.00  0.00    -0.248 NA
ATOM     61  C   UNL A   1      48.201  30.722  27.808  1.00  0.00     0.031 C 
ATOM     62  C   UNL A   1      47.076  24.941  26.564  1.00  0.00     0.029 A 
ATOM     63  C   UNL A   1      46.890  26.282  26.949  1.00  0.00     0.049 A 
ATOM     64  H   UNL A   1      45.139  27.288  27.566  1.00  0.00     0.167 HD
ATOM     65  C   UNL A   1      47.706  28.563  27.357  1.00  0.00     0.074 A 
ATOM     66  C   UNL A   1      48.780  29.564  27.425  1.00  0.00     0.031 C 
ATOM     67  C   UNL A   1      47.898  27.232  26.982  1.00  0.00     0.031 A 
BRANCH  54  68
ATOM     68  C   UNL A   1      43.118  23.518  27.103  1.00  0.00    -0.014 A 
ATOM     69  C   UNL A   1      42.947  22.649  28.168  1.00  0.00     0.010 A 
ATOM     70  C   UNL A   1      42.931  23.119  25.851  1.00  0.00     0.010 A 
ATOM     71  C   UNL A   1      42.856  21.289  27.789  1.00  0.00     0.020 A 
ATOM     72  C   UNL A   1      42.711  21.793  25.565  1.00  0.00     0.020 A 
ATOM     73  C   UNL A   1      42.589  20.869  26.566  1.00  0.00     0.054 A 
BRANCH  73  74
ATOM     74  S   UNL A   1      42.090  19.162  26.232  1.00  0.00     0.124 S 
ATOM     75  O   UNL A   1      42.197  18.337  27.517  1.00  0.00    -0.237 OA
ATOM     76  O   UNL A   1      40.643  19.141  25.731  1.00  0.00    -0.237 OA
ATOM     77  O   UNL A   1      43.115  18.492  25.038  1.00  0.00    -0.744 OA
ENDBRANCH  73  74
ENDBRANCH  54  68
BRANCH  55  78
ATOM     78  C   UNL A   1      46.290  32.821  28.581  1.00  0.00    -0.014 A 
ATOM     79  C   UNL A   1      46.308  33.749  27.552  1.00  0.00     0.010 A 
ATOM     80  C   UNL A   1      46.662  33.151  29.812  1.00  0.00     0.010 A 
ATOM     81  C   UNL A   1      47.015  34.934  27.861  1.00  0.00     0.020 A 
ATOM     82  C   UNL A   1      47.222  34.379  30.069  1.00  0.00     0.020 A 
ATOM     83  C   UNL A   1      47.326  35.323  29.085  1.00  0.00     0.054 A 
BRANCH  83  84
ATOM     84  S   UNL A   1      47.860  37.016  29.440  1.00  0.00     0.124 S 
ATOM     85  O   UNL A   1      46.632  37.900  29.672  1.00  0.00    -0.237 OA
ATOM     86  O   UNL A   1      48.737  37.022  30.694  1.00  0.00    -0.237 OA
ATOM     87  O   UNL A   1      48.756  37.621  28.115  1.00  0.00    -0.744 OA
ENDBRANCH  83  84
ENDBRANCH  55  78
BRANCH  67  88
ATOM     88  C   UNL A   1      49.300  26.798  26.586  1.00  0.00    -0.014 A 
ATOM     89  C   UNL A   1      49.709  26.940  25.270  1.00  0.00     0.010 A 
ATOM     90  C   UNL A   1      50.111  26.293  27.508  1.00  0.00     0.010 A 
ATOM     91  C   UNL A   1      50.904  26.247  24.963  1.00  0.00     0.020 A 
ATOM     92  C   UNL A   1      51.325  25.754  27.154  1.00  0.00     0.020 A 
ATOM     93  C   UNL A   1      51.767  25.807  25.861  1.00  0.00     0.054 A 
BRANCH  93  94
ATOM     94  S   UNL A   1      53.443  25.300  25.404  1.00  0.00     0.124 S 
ATOM     95  O   UNL A   1      53.780  25.845  24.014  1.00  0.00    -0.237 OA
ATOM     96  O   UNL A   1      54.439  25.856  26.425  1.00  0.00    -0.237 OA
ATOM     97  O   UNL A   1      53.538  23.593  25.386  1.00  0.00    -0.744 OA
ENDBRANCH  93  94
ENDBRANCH  67  88
ENDBRANCH  41  42
ENDBRANCH  33  36
ENDBRANCH  31  32
ENDBRANCH   1  31
TORSDOF 18
ENDMDL
