MODEL 1
REMARK VINA RESULT:      -9.1      0.000      0.000
REMARK SMILES COCCCC(=O)N[C@H]1CC[C@@H](C(=O)NCCCNC(=O)c2ccc(-c3c4nc(c(-c5ccc(S(=O)(=O)[O-])cc5)c5ccc([nH]5)c(-c5ccc(S(=O)(=O)[O-])cc5)c5nc(c(-c6ccc(S(=O)(=O)[O-])cc6)c6ccc3[nH]6)C=C5)C=C4)cc2)CC1
REMARK SMILES IDX 16 1 15 2 13 3 14 4 12 6 9 7 10 8 83 9 11 10 82 11 8 12 6 13
REMARK SMILES IDX 7 14 5 16 4 17 3 18 2 19 1 20 17 21 18 22 19 23 20 24 21 26
REMARK SMILES IDX 22 27 23 28 81 29 24 30 80 31 25 32 26 33 27 34 74 35 28 36
REMARK SMILES IDX 79 37 73 38 75 39 29 40 78 41 72 42 71 43 30 45 60 46 41 47
REMARK SMILES IDX 59 48 42 49 45 50 58 51 76 52 43 53 44 54 57 56 77 57 46 58
REMARK SMILES IDX 31 59 32 60 40 61 33 62 39 63 34 64 35 65 36 66 37 67 38 68
REMARK SMILES IDX 61 69 62 70 70 71 63 72 69 73 64 74 65 75 66 76 67 77 68 78
REMARK SMILES IDX 47 79 48 80 56 81 49 82 55 83 50 84 51 85 52 86 53 87 54 88
REMARK H PARENT 15 5 8 15 19 25 75 44 45 55
REMARK Flexibility Score: inf
ROOT
ATOM      1  C   UNL A   1      34.284  34.519  28.900  1.00  0.00     0.117 C 
ENDROOT
BRANCH   1   2
ATOM      2  N   UNL A   1      33.685  34.454  30.212  1.00  0.00    -0.356 N 
ATOM      3  C   UNL A   1      34.194  34.523  31.465  1.00  0.00     0.223 C 
ATOM      4  O   UNL A   1      33.360  34.608  32.377  1.00  0.00    -0.275 OA
ATOM      5  H   UNL A   1      32.708  34.336  30.192  1.00  0.00     0.163 HD
BRANCH   3   6
ATOM      6  C   UNL A   1      35.686  34.481  31.825  1.00  0.00     0.078 C 
ATOM      7  C   UNL A   1      37.063  32.061  32.934  1.00  0.00     0.082 C 
ATOM      8  C   UNL A   1      36.943  32.246  31.413  1.00  0.00     0.026 C 
ATOM      9  C   UNL A   1      36.160  32.928  33.809  1.00  0.00     0.026 C 
ATOM     10  C   UNL A   1      36.602  33.648  30.933  1.00  0.00     0.015 C 
ATOM     11  C   UNL A   1      35.992  34.352  33.313  1.00  0.00     0.015 C 
BRANCH   7  12
ATOM     12  N   UNL A   1      36.894  30.641  33.227  1.00  0.00    -0.353 N 
ATOM     13  C   UNL A   1      37.769  29.605  33.168  1.00  0.00     0.220 C 
ATOM     14  O   UNL A   1      37.304  28.464  33.181  1.00  0.00    -0.275 OA
ATOM     15  H   UNL A   1      35.988  30.392  33.517  1.00  0.00     0.163 HD
BRANCH  13  16
ATOM     16  C   UNL A   1      39.263  29.835  33.181  1.00  0.00     0.102 C 
BRANCH  16  17
ATOM     17  C   UNL A   1      40.175  28.619  33.021  1.00  0.00     0.038 C 
BRANCH  17  18
ATOM     18  C   UNL A   1      41.403  28.435  33.917  1.00  0.00     0.160 C 
BRANCH  18  19
ATOM     19  O   UNL A   1      41.291  28.244  35.323  1.00  0.00    -0.385 OA
ATOM     20  C   UNL A   1      41.777  27.061  35.921  1.00  0.00     0.194 C 
ENDBRANCH  18  19
ENDBRANCH  17  18
ENDBRANCH  16  17
ENDBRANCH  13  16
ENDBRANCH   7  12
ENDBRANCH   3   6
ENDBRANCH   1   2
BRANCH   1  21
ATOM     21  C   UNL A   1      34.147  33.233  28.104  1.00  0.00     0.042 C 
BRANCH  21  22
ATOM     22  C   UNL A   1      34.266  31.988  28.954  1.00  0.00     0.118 C 
BRANCH  22  23
ATOM     23  N   UNL A   1      33.926  30.770  28.218  1.00  0.00    -0.352 N 
ATOM     24  C   UNL A   1      34.724  29.726  27.800  1.00  0.00     0.251 C 
ATOM     25  H   UNL A   1      32.974  30.682  27.981  1.00  0.00     0.163 HD
ATOM     26  O   UNL A   1      34.247  28.850  27.085  1.00  0.00    -0.269 OA
BRANCH  24  27
ATOM     27  C   UNL A   1      36.150  29.679  28.188  1.00  0.00     0.039 A 
ATOM     28  C   UNL A   1      36.517  29.211  29.453  1.00  0.00     0.014 A 
ATOM     29  C   UNL A   1      37.135  30.068  27.283  1.00  0.00     0.014 A 
ATOM     30  C   UNL A   1      37.871  29.045  29.766  1.00  0.00     0.010 A 
ATOM     31  C   UNL A   1      38.461  29.757  27.535  1.00  0.00     0.010 A 
ATOM     32  C   UNL A   1      38.854  29.267  28.789  1.00  0.00    -0.014 A 
BRANCH  32  33
ATOM     33  C   UNL A   1      40.307  29.063  29.029  1.00  0.00     0.031 A 
ATOM     34  C   UNL A   1      40.928  27.743  28.642  1.00  0.00     0.074 A 
ATOM     35  C   UNL A   1      41.030  29.982  29.699  1.00  0.00     0.049 A 
ATOM     36  N   UNL A   1      42.088  27.241  28.978  1.00  0.00    -0.248 NA
ATOM     37  C   UNL A   1      40.102  26.839  27.820  1.00  0.00     0.031 C 
ATOM     38  C   UNL A   1      40.543  31.281  30.168  1.00  0.00     0.029 A 
ATOM     39  N   UNL A   1      42.337  29.947  30.123  1.00  0.00    -0.354 N 
ATOM     40  C   UNL A   1      42.097  25.947  28.468  1.00  0.00     0.074 A 
ATOM     41  C   UNL A   1      40.809  25.721  27.854  1.00  0.00     0.031 C 
ATOM     42  C   UNL A   1      41.544  31.930  30.787  1.00  0.00     0.029 A 
ATOM     43  C   UNL A   1      42.725  31.074  30.810  1.00  0.00     0.049 A 
ATOM     44  H   UNL A   1      42.938  29.189  29.952  1.00  0.00     0.167 HD
ATOM     45  C   UNL A   1      43.098  25.036  28.484  1.00  0.00     0.031 A 
ATOM     46  C   UNL A   1      43.897  31.377  31.404  1.00  0.00     0.031 A 
ATOM     47  C   UNL A   1      44.401  25.297  29.030  1.00  0.00     0.049 A 
ATOM     48  C   UNL A   1      45.016  30.372  31.360  1.00  0.00     0.074 A 
ATOM     49  C   UNL A   1      45.515  24.477  29.027  1.00  0.00     0.029 A 
ATOM     50  N   UNL A   1      44.772  26.480  29.650  1.00  0.00    -0.354 N 
ATOM     51  N   UNL A   1      45.019  29.165  30.846  1.00  0.00    -0.248 NA
ATOM     52  C   UNL A   1      46.293  30.773  31.966  1.00  0.00     0.031 C 
ATOM     53  C   UNL A   1      46.552  25.155  29.675  1.00  0.00     0.029 A 
ATOM     54  C   UNL A   1      46.097  26.414  30.035  1.00  0.00     0.049 A 
ATOM     55  H   UNL A   1      44.178  27.252  29.796  1.00  0.00     0.167 HD
ATOM     56  C   UNL A   1      46.307  28.678  31.034  1.00  0.00     0.074 A 
ATOM     57  C   UNL A   1      47.056  29.721  31.705  1.00  0.00     0.031 C 
ATOM     58  C   UNL A   1      46.826  27.476  30.681  1.00  0.00     0.031 A 
BRANCH  45  59
ATOM     59  C   UNL A   1      42.820  23.683  27.881  1.00  0.00    -0.014 A 
ATOM     60  C   UNL A   1      42.008  22.743  28.542  1.00  0.00     0.010 A 
ATOM     61  C   UNL A   1      43.367  23.351  26.628  1.00  0.00     0.010 A 
ATOM     62  C   UNL A   1      41.796  21.477  27.990  1.00  0.00     0.020 A 
ATOM     63  C   UNL A   1      43.129  22.098  26.056  1.00  0.00     0.020 A 
ATOM     64  C   UNL A   1      42.363  21.162  26.752  1.00  0.00     0.054 A 
BRANCH  64  65
ATOM     65  S   UNL A   1      42.059  19.516  26.053  1.00  0.00     0.124 S 
ATOM     66  O   UNL A   1      42.831  19.569  24.813  1.00  0.00    -0.237 OA
ATOM     67  O   UNL A   1      42.588  18.626  27.083  1.00  0.00    -0.237 OA
ATOM     68  O   UNL A   1      40.609  19.474  25.882  1.00  0.00    -0.744 OA
ENDBRANCH  64  65
ENDBRANCH  45  59
BRANCH  46  69
ATOM     69  C   UNL A   1      44.079  32.699  32.063  1.00  0.00    -0.014 A 
ATOM     70  C   UNL A   1      44.508  33.810  31.315  1.00  0.00     0.010 A 
ATOM     71  C   UNL A   1      43.810  32.864  33.434  1.00  0.00     0.010 A 
ATOM     72  C   UNL A   1      44.683  35.055  31.927  1.00  0.00     0.020 A 
ATOM     73  C   UNL A   1      43.958  34.114  34.044  1.00  0.00     0.020 A 
ATOM     74  C   UNL A   1      44.406  35.199  33.288  1.00  0.00     0.054 A 
BRANCH  74  75
ATOM     75  S   UNL A   1      44.591  36.836  34.051  1.00  0.00     0.124 S 
ATOM     76  O   UNL A   1      43.904  37.697  33.093  1.00  0.00    -0.237 OA
ATOM     77  O   UNL A   1      43.924  36.662  35.338  1.00  0.00    -0.237 OA
ATOM     78  O   UNL A   1      46.039  37.014  34.128  1.00  0.00    -0.744 OA
ENDBRANCH  74  75
ENDBRANCH  46  69
BRANCH  58  79
ATOM     79  C   UNL A   1      48.286  27.240  30.951  1.00  0.00    -0.014 A 
ATOM     80  C   UNL A   1      49.272  27.624  30.027  1.00  0.00     0.010 A 
ATOM     81  C   UNL A   1      48.675  26.705  32.194  1.00  0.00     0.010 A 
ATOM     82  C   UNL A   1      50.624  27.461  30.335  1.00  0.00     0.020 A 
ATOM     83  C   UNL A   1      50.027  26.564  32.514  1.00  0.00     0.020 A 
ATOM     84  C   UNL A   1      50.993  26.936  31.579  1.00  0.00     0.054 A 
BRANCH  84  85
ATOM     85  S   UNL A   1      52.757  26.801  31.981  1.00  0.00     0.124 S 
ATOM     86  O   UNL A   1      53.048  25.419  31.608  1.00  0.00    -0.237 OA
ATOM     87  O   UNL A   1      53.360  27.823  31.129  1.00  0.00    -0.237 OA
ATOM     88  O   UNL A   1      52.808  27.083  33.413  1.00  0.00    -0.744 OA
ENDBRANCH  84  85
ENDBRANCH  58  79
ENDBRANCH  32  33
ENDBRANCH  24  27
ENDBRANCH  22  23
ENDBRANCH  21  22
ENDBRANCH   1  21
TORSDOF 18
ENDMDL
MODEL 2
REMARK VINA RESULT:      -8.9      5.075     11.410
REMARK SMILES COCCCC(=O)N[C@H]1CC[C@@H](C(=O)NCCCNC(=O)c2ccc(-c3c4nc(c(-c5ccc(S(=O)(=O)[O-])cc5)c5ccc([nH]5)c(-c5ccc(S(=O)(=O)[O-])cc5)c5nc(c(-c6ccc(S(=O)(=O)[O-])cc6)c6ccc3[nH]6)C=C5)C=C4)cc2)CC1
REMARK SMILES IDX 16 1 15 2 13 3 14 4 12 6 9 7 10 8 83 9 11 10 82 11 8 12 6 13
REMARK SMILES IDX 7 14 5 16 4 17 3 18 2 19 1 20 17 21 18 22 19 23 20 24 21 26
REMARK SMILES IDX 22 27 23 28 81 29 24 30 80 31 25 32 26 33 27 34 74 35 28 36
REMARK SMILES IDX 79 37 73 38 75 39 29 40 78 41 72 42 71 43 30 45 60 46 41 47
REMARK SMILES IDX 59 48 42 49 45 50 58 51 76 52 43 53 44 54 57 56 77 57 46 58
REMARK SMILES IDX 31 59 32 60 40 61 33 62 39 63 34 64 35 65 36 66 37 67 38 68
REMARK SMILES IDX 61 69 62 70 70 71 63 72 69 73 64 74 65 75 66 76 67 77 68 78
REMARK SMILES IDX 47 79 48 80 56 81 49 82 55 83 50 84 51 85 52 86 53 87 54 88
REMARK H PARENT 15 5 8 15 19 25 75 44 45 55
REMARK Flexibility Score: inf
ROOT
ATOM      1  C   UNL A   1      39.898  21.444  25.979  1.00  0.00     0.117 C 
ENDROOT
BRANCH   1   2
ATOM      2  N   UNL A   1      38.533  20.978  25.899  1.00  0.00    -0.356 N 
ATOM      3  C   UNL A   1      37.416  21.486  25.327  1.00  0.00     0.223 C 
ATOM      4  O   UNL A   1      36.437  20.727  25.301  1.00  0.00    -0.275 OA
ATOM      5  H   UNL A   1      38.385  20.116  26.351  1.00  0.00     0.163 HD
BRANCH   3   6
ATOM      6  C   UNL A   1      37.274  22.902  24.750  1.00  0.00     0.078 C 
ATOM      7  C   UNL A   1      34.641  24.191  24.130  1.00  0.00     0.082 C 
ATOM      8  C   UNL A   1      35.239  24.308  25.541  1.00  0.00     0.026 C 
ATOM      9  C   UNL A   1      35.231  23.121  23.215  1.00  0.00     0.026 C 
ATOM     10  C   UNL A   1      36.720  23.985  25.670  1.00  0.00     0.015 C 
ATOM     11  C   UNL A   1      36.737  22.971  23.324  1.00  0.00     0.015 C 
BRANCH   7  12
ATOM     12  N   UNL A   1      33.195  24.042  24.270  1.00  0.00    -0.353 N 
ATOM     13  C   UNL A   1      32.431  22.961  24.568  1.00  0.00     0.220 C 
ATOM     14  O   UNL A   1      31.223  23.034  24.335  1.00  0.00    -0.275 OA
ATOM     15  H   UNL A   1      32.686  24.872  24.122  1.00  0.00     0.163 HD
BRANCH  13  16
ATOM     16  C   UNL A   1      33.018  21.745  25.246  1.00  0.00     0.102 C 
BRANCH  16  17
ATOM     17  C   UNL A   1      32.282  20.414  25.092  1.00  0.00     0.038 C 
BRANCH  17  18
ATOM     18  C   UNL A   1      32.964  19.093  25.460  1.00  0.00     0.160 C 
BRANCH  18  19
ATOM     19  O   UNL A   1      32.250  17.864  25.515  1.00  0.00    -0.385 OA
ATOM     20  C   UNL A   1      32.751  16.720  24.855  1.00  0.00     0.194 C 
ENDBRANCH  18  19
ENDBRANCH  17  18
ENDBRANCH  16  17
ENDBRANCH  13  16
ENDBRANCH   7  12
ENDBRANCH   3   6
ENDBRANCH   1   2
BRANCH   1  21
ATOM     21  C   UNL A   1      40.234  22.118  27.297  1.00  0.00     0.042 C 
BRANCH  21  22
ATOM     22  C   UNL A   1      39.972  23.607  27.292  1.00  0.00     0.118 C 
BRANCH  22  23
ATOM     23  N   UNL A   1      40.639  24.292  26.184  1.00  0.00    -0.352 N 
ATOM     24  C   UNL A   1      40.935  25.627  26.008  1.00  0.00     0.251 C 
ATOM     25  H   UNL A   1      40.921  23.706  25.446  1.00  0.00     0.163 HD
ATOM     26  O   UNL A   1      41.399  26.006  24.936  1.00  0.00    -0.269 OA
BRANCH  24  27
ATOM     27  C   UNL A   1      40.667  26.598  27.091  1.00  0.00     0.039 A 
ATOM     28  C   UNL A   1      39.959  26.200  28.228  1.00  0.00     0.014 A 
ATOM     29  C   UNL A   1      41.150  27.901  26.999  1.00  0.00     0.014 A 
ATOM     30  C   UNL A   1      39.823  27.083  29.305  1.00  0.00     0.010 A 
ATOM     31  C   UNL A   1      41.151  28.714  28.119  1.00  0.00     0.010 A 
ATOM     32  C   UNL A   1      40.464  28.331  29.280  1.00  0.00    -0.014 A 
BRANCH  32  33
ATOM     33  C   UNL A   1      40.411  29.302  30.405  1.00  0.00     0.031 A 
ATOM     34  C   UNL A   1      41.344  29.109  31.576  1.00  0.00     0.074 A 
ATOM     35  C   UNL A   1      39.459  30.257  30.446  1.00  0.00     0.049 A 
ATOM     36  N   UNL A   1      41.309  29.656  32.763  1.00  0.00    -0.248 NA
ATOM     37  C   UNL A   1      42.420  28.115  31.407  1.00  0.00     0.031 C 
ATOM     38  C   UNL A   1      38.468  30.525  29.402  1.00  0.00     0.029 A 
ATOM     39  N   UNL A   1      39.159  31.170  31.427  1.00  0.00    -0.354 N 
ATOM     40  C   UNL A   1      42.310  29.025  33.494  1.00  0.00     0.074 A 
ATOM     41  C   UNL A   1      42.892  28.016  32.639  1.00  0.00     0.031 C 
ATOM     42  C   UNL A   1      37.691  31.552  29.785  1.00  0.00     0.029 A 
ATOM     43  C   UNL A   1      38.090  31.979  31.122  1.00  0.00     0.049 A 
ATOM     44  H   UNL A   1      39.663  31.240  32.269  1.00  0.00     0.167 HD
ATOM     45  C   UNL A   1      42.727  29.279  34.757  1.00  0.00     0.031 A 
ATOM     46  C   UNL A   1      37.488  32.945  31.844  1.00  0.00     0.031 A 
ATOM     47  C   UNL A   1      42.194  30.335  35.572  1.00  0.00     0.049 A 
ATOM     48  C   UNL A   1      38.006  33.251  33.224  1.00  0.00     0.074 A 
ATOM     49  C   UNL A   1      42.597  30.735  36.833  1.00  0.00     0.029 A 
ATOM     50  N   UNL A   1      41.160  31.176  35.192  1.00  0.00    -0.354 N 
ATOM     51  N   UNL A   1      38.974  32.666  33.889  1.00  0.00    -0.248 NA
ATOM     52  C   UNL A   1      37.358  34.354  33.947  1.00  0.00     0.031 C 
ATOM     53  C   UNL A   1      41.784  31.801  37.229  1.00  0.00     0.029 A 
ATOM     54  C   UNL A   1      40.910  32.095  36.194  1.00  0.00     0.049 A 
ATOM     55  H   UNL A   1      40.675  31.125  34.337  1.00  0.00     0.167 HD
ATOM     56  C   UNL A   1      39.075  33.354  35.092  1.00  0.00     0.074 A 
ATOM     57  C   UNL A   1      38.073  34.401  35.062  1.00  0.00     0.031 C 
ATOM     58  C   UNL A   1      39.923  33.142  36.129  1.00  0.00     0.031 A 
BRANCH  45  59
ATOM     59  C   UNL A   1      43.821  28.408  35.319  1.00  0.00    -0.014 A 
ATOM     60  C   UNL A   1      45.178  28.744  35.153  1.00  0.00     0.010 A 
ATOM     61  C   UNL A   1      43.490  27.244  36.036  1.00  0.00     0.010 A 
ATOM     62  C   UNL A   1      46.181  27.904  35.643  1.00  0.00     0.020 A 
ATOM     63  C   UNL A   1      44.490  26.419  36.558  1.00  0.00     0.020 A 
ATOM     64  C   UNL A   1      45.829  26.743  36.338  1.00  0.00     0.054 A 
BRANCH  64  65
ATOM     65  S   UNL A   1      47.152  25.678  36.974  1.00  0.00     0.124 S 
ATOM     66  O   UNL A   1      47.297  26.165  38.344  1.00  0.00    -0.237 OA
ATOM     67  O   UNL A   1      46.581  24.340  36.841  1.00  0.00    -0.237 OA
ATOM     68  O   UNL A   1      48.280  25.961  36.090  1.00  0.00    -0.744 OA
ENDBRANCH  64  65
ENDBRANCH  45  59
BRANCH  46  69
ATOM     69  C   UNL A   1      36.350  33.710  31.265  1.00  0.00    -0.014 A 
ATOM     70  C   UNL A   1      35.420  34.342  32.109  1.00  0.00     0.010 A 
ATOM     71  C   UNL A   1      36.197  33.829  29.872  1.00  0.00     0.010 A 
ATOM     72  C   UNL A   1      34.347  35.061  31.573  1.00  0.00     0.020 A 
ATOM     73  C   UNL A   1      35.141  34.571  29.332  1.00  0.00     0.020 A 
ATOM     74  C   UNL A   1      34.216  35.172  30.187  1.00  0.00     0.054 A 
BRANCH  74  75
ATOM     75  S   UNL A   1      32.845  36.154  29.513  1.00  0.00     0.124 S 
ATOM     76  O   UNL A   1      32.338  35.283  28.458  1.00  0.00    -0.237 OA
ATOM     77  O   UNL A   1      31.973  36.316  30.674  1.00  0.00    -0.237 OA
ATOM     78  O   UNL A   1      33.496  37.379  29.057  1.00  0.00    -0.744 OA
ENDBRANCH  74  75
ENDBRANCH  46  69
BRANCH  58  79
ATOM     79  C   UNL A   1      39.855  34.093  37.291  1.00  0.00    -0.014 A 
ATOM     80  C   UNL A   1      40.639  35.258  37.330  1.00  0.00     0.010 A 
ATOM     81  C   UNL A   1      38.920  33.856  38.317  1.00  0.00     0.010 A 
ATOM     82  C   UNL A   1      40.502  36.162  38.385  1.00  0.00     0.020 A 
ATOM     83  C   UNL A   1      38.763  34.770  39.360  1.00  0.00     0.020 A 
ATOM     84  C   UNL A   1      39.562  35.914  39.392  1.00  0.00     0.054 A 
BRANCH  84  85
ATOM     85  S   UNL A   1      39.354  37.139  40.714  1.00  0.00     0.124 S 
ATOM     86  O   UNL A   1      40.687  37.732  40.790  1.00  0.00    -0.237 OA
ATOM     87  O   UNL A   1      38.307  38.009  40.183  1.00  0.00    -0.237 OA
ATOM     88  O   UNL A   1      38.962  36.337  41.870  1.00  0.00    -0.744 OA
ENDBRANCH  84  85
ENDBRANCH  58  79
ENDBRANCH  32  33
ENDBRANCH  24  27
ENDBRANCH  22  23
ENDBRANCH  21  22
ENDBRANCH   1  21
TORSDOF 18
ENDMDL
MODEL 3
REMARK VINA RESULT:      -8.9      5.178     12.009
REMARK SMILES COCCCC(=O)N[C@H]1CC[C@@H](C(=O)NCCCNC(=O)c2ccc(-c3c4nc(c(-c5ccc(S(=O)(=O)[O-])cc5)c5ccc([nH]5)c(-c5ccc(S(=O)(=O)[O-])cc5)c5nc(c(-c6ccc(S(=O)(=O)[O-])cc6)c6ccc3[nH]6)C=C5)C=C4)cc2)CC1
REMARK SMILES IDX 16 1 15 2 13 3 14 4 12 6 9 7 10 8 83 9 11 10 82 11 8 12 6 13
REMARK SMILES IDX 7 14 5 16 4 17 3 18 2 19 1 20 17 21 18 22 19 23 20 24 21 26
REMARK SMILES IDX 22 27 23 28 81 29 24 30 80 31 25 32 26 33 27 34 74 35 28 36
REMARK SMILES IDX 79 37 73 38 75 39 29 40 78 41 72 42 71 43 30 45 60 46 41 47
REMARK SMILES IDX 59 48 42 49 45 50 58 51 76 52 43 53 44 54 57 56 77 57 46 58
REMARK SMILES IDX 31 59 32 60 40 61 33 62 39 63 34 64 35 65 36 66 37 67 38 68
REMARK SMILES IDX 61 69 62 70 70 71 63 72 69 73 64 74 65 75 66 76 67 77 68 78
REMARK SMILES IDX 47 79 48 80 56 81 49 82 55 83 50 84 51 85 52 86 53 87 54 88
REMARK H PARENT 15 5 8 15 19 25 75 44 45 55
REMARK Flexibility Score: inf
ROOT
ATOM      1  C   UNL A   1      39.789  21.444  25.818  1.00  0.00     0.117 C 
ENDROOT
BRANCH   1   2
ATOM      2  N   UNL A   1      38.435  20.947  25.763  1.00  0.00    -0.356 N 
ATOM      3  C   UNL A   1      37.295  21.429  25.213  1.00  0.00     0.223 C 
ATOM      4  O   UNL A   1      36.334  20.648  25.203  1.00  0.00    -0.275 OA
ATOM      5  H   UNL A   1      38.316  20.082  26.217  1.00  0.00     0.163 HD
BRANCH   3   6
ATOM      6  C   UNL A   1      37.110  22.842  24.639  1.00  0.00     0.078 C 
ATOM      7  C   UNL A   1      34.436  24.113  24.178  1.00  0.00     0.082 C 
ATOM      8  C   UNL A   1      35.120  24.240  25.548  1.00  0.00     0.026 C 
ATOM      9  C   UNL A   1      34.975  23.043  23.232  1.00  0.00     0.026 C 
ATOM     10  C   UNL A   1      36.608  23.926  25.587  1.00  0.00     0.015 C 
ATOM     11  C   UNL A   1      36.486  22.901  23.249  1.00  0.00     0.015 C 
BRANCH   7  12
ATOM     12  N   UNL A   1      33.002  23.957  24.407  1.00  0.00    -0.353 N 
ATOM     13  C   UNL A   1      32.293  22.960  24.993  1.00  0.00     0.220 C 
ATOM     14  O   UNL A   1      31.076  22.934  24.798  1.00  0.00    -0.275 OA
ATOM     15  H   UNL A   1      32.456  24.707  24.080  1.00  0.00     0.163 HD
BRANCH  13  16
ATOM     16  C   UNL A   1      32.950  21.969  25.927  1.00  0.00     0.102 C 
BRANCH  16  17
ATOM     17  C   UNL A   1      32.905  20.489  25.547  1.00  0.00     0.038 C 
BRANCH  17  18
ATOM     18  C   UNL A   1      32.651  20.058  24.100  1.00  0.00     0.160 C 
BRANCH  18  19
ATOM     19  O   UNL A   1      32.914  18.735  23.647  1.00  0.00    -0.385 OA
ATOM     20  C   UNL A   1      32.342  18.267  22.444  1.00  0.00     0.194 C 
ENDBRANCH  18  19
ENDBRANCH  17  18
ENDBRANCH  16  17
ENDBRANCH  13  16
ENDBRANCH   7  12
ENDBRANCH   3   6
ENDBRANCH   1   2
BRANCH   1  21
ATOM     21  C   UNL A   1      40.169  22.027  27.168  1.00  0.00     0.042 C 
BRANCH  21  22
ATOM     22  C   UNL A   1      39.866  23.503  27.290  1.00  0.00     0.118 C 
BRANCH  22  23
ATOM     23  N   UNL A   1      40.559  24.305  26.282  1.00  0.00    -0.352 N 
ATOM     24  C   UNL A   1      40.845  25.653  26.254  1.00  0.00     0.251 C 
ATOM     25  H   UNL A   1      40.870  23.801  25.495  1.00  0.00     0.163 HD
ATOM     26  O   UNL A   1      41.338  26.146  25.243  1.00  0.00    -0.269 OA
BRANCH  24  27
ATOM     27  C   UNL A   1      40.533  26.504  27.423  1.00  0.00     0.039 A 
ATOM     28  C   UNL A   1      39.602  26.074  28.373  1.00  0.00     0.014 A 
ATOM     29  C   UNL A   1      41.191  27.718  27.601  1.00  0.00     0.014 A 
ATOM     30  C   UNL A   1      39.408  26.819  29.541  1.00  0.00     0.010 A 
ATOM     31  C   UNL A   1      41.115  28.368  28.822  1.00  0.00     0.010 A 
ATOM     32  C   UNL A   1      40.203  27.946  29.800  1.00  0.00    -0.014 A 
BRANCH  32  33
ATOM     33  C   UNL A   1      40.093  28.759  31.040  1.00  0.00     0.031 A 
ATOM     34  C   UNL A   1      39.071  29.867  31.094  1.00  0.00     0.074 A 
ATOM     35  C   UNL A   1      40.976  28.601  32.048  1.00  0.00     0.049 A 
ATOM     36  N   UNL A   1      38.962  30.856  31.943  1.00  0.00    -0.248 NA
ATOM     37  C   UNL A   1      38.078  29.904  30.004  1.00  0.00     0.031 C 
ATOM     38  C   UNL A   1      42.040  27.597  32.106  1.00  0.00     0.029 A 
ATOM     39  N   UNL A   1      41.127  29.309  33.215  1.00  0.00    -0.354 N 
ATOM     40  C   UNL A   1      37.939  31.660  31.451  1.00  0.00     0.074 A 
ATOM     41  C   UNL A   1      37.502  31.079  30.203  1.00  0.00     0.031 C 
ATOM     42  C   UNL A   1      42.713  27.734  33.260  1.00  0.00     0.029 A 
ATOM     43  C   UNL A   1      42.169  28.868  33.998  1.00  0.00     0.049 A 
ATOM     44  H   UNL A   1      40.545  30.061  33.468  1.00  0.00     0.167 HD
ATOM     45  C   UNL A   1      37.393  32.769  32.002  1.00  0.00     0.031 A 
ATOM     46  C   UNL A   1      42.640  29.335  35.171  1.00  0.00     0.031 A 
ATOM     47  C   UNL A   1      37.783  33.296  33.281  1.00  0.00     0.049 A 
ATOM     48  C   UNL A   1      41.981  30.535  35.795  1.00  0.00     0.074 A 
ATOM     49  C   UNL A   1      37.242  34.364  33.973  1.00  0.00     0.029 A 
ATOM     50  N   UNL A   1      38.793  32.773  34.072  1.00  0.00    -0.354 N 
ATOM     51  N   UNL A   1      40.994  31.266  35.332  1.00  0.00    -0.248 NA
ATOM     52  C   UNL A   1      42.490  30.968  37.104  1.00  0.00     0.031 C 
ATOM     53  C   UNL A   1      37.948  34.506  35.171  1.00  0.00     0.029 A 
ATOM     54  C   UNL A   1      38.893  33.495  35.246  1.00  0.00     0.049 A 
ATOM     55  H   UNL A   1      39.357  32.001  33.833  1.00  0.00     0.167 HD
ATOM     56  C   UNL A   1      40.740  32.221  36.310  1.00  0.00     0.074 A 
ATOM     57  C   UNL A   1      41.674  31.973  37.390  1.00  0.00     0.031 C 
ATOM     58  C   UNL A   1      39.816  33.213  36.316  1.00  0.00     0.031 A 
BRANCH  45  59
ATOM     59  C   UNL A   1      36.308  33.472  31.227  1.00  0.00    -0.014 A 
ATOM     60  C   UNL A   1      36.523  33.914  29.909  1.00  0.00     0.010 A 
ATOM     61  C   UNL A   1      35.049  33.681  31.820  1.00  0.00     0.010 A 
ATOM     62  C   UNL A   1      35.522  34.602  29.219  1.00  0.00     0.020 A 
ATOM     63  C   UNL A   1      34.033  34.338  31.121  1.00  0.00     0.020 A 
ATOM     64  C   UNL A   1      34.284  34.814  29.833  1.00  0.00     0.054 A 
BRANCH  64  65
ATOM     65  S   UNL A   1      32.997  35.697  28.909  1.00  0.00     0.124 S 
ATOM     66  O   UNL A   1      32.386  34.617  28.138  1.00  0.00    -0.237 OA
ATOM     67  O   UNL A   1      32.165  36.258  29.971  1.00  0.00    -0.237 OA
ATOM     68  O   UNL A   1      33.745  36.677  28.125  1.00  0.00    -0.744 OA
ENDBRANCH  64  65
ENDBRANCH  45  59
BRANCH  46  69
ATOM     69  C   UNL A   1      43.777  28.649  35.844  1.00  0.00    -0.014 A 
ATOM     70  C   UNL A   1      45.097  29.083  35.624  1.00  0.00     0.010 A 
ATOM     71  C   UNL A   1      43.551  27.572  36.720  1.00  0.00     0.010 A 
ATOM     72  C   UNL A   1      46.170  28.442  36.251  1.00  0.00     0.020 A 
ATOM     73  C   UNL A   1      44.620  26.946  37.370  1.00  0.00     0.020 A 
ATOM     74  C   UNL A   1      45.924  27.378  37.121  1.00  0.00     0.054 A 
BRANCH  74  75
ATOM     75  S   UNL A   1      47.328  26.595  37.964  1.00  0.00     0.124 S 
ATOM     76  O   UNL A   1      48.395  26.744  36.979  1.00  0.00    -0.237 OA
ATOM     77  O   UNL A   1      47.463  27.404  39.172  1.00  0.00    -0.237 OA
ATOM     78  O   UNL A   1      46.870  25.226  38.189  1.00  0.00    -0.744 OA
ENDBRANCH  74  75
ENDBRANCH  46  69
BRANCH  58  79
ATOM     79  C   UNL A   1      39.718  34.068  37.549  1.00  0.00    -0.014 A 
ATOM     80  C   UNL A   1      38.889  33.708  38.625  1.00  0.00     0.010 A 
ATOM     81  C   UNL A   1      40.542  35.203  37.662  1.00  0.00     0.010 A 
ATOM     82  C   UNL A   1      38.874  34.480  39.788  1.00  0.00     0.020 A 
ATOM     83  C   UNL A   1      40.547  35.963  38.834  1.00  0.00     0.020 A 
ATOM     84  C   UNL A   1      39.706  35.601  39.886  1.00  0.00     0.054 A 
BRANCH  84  85
ATOM     85  S   UNL A   1      39.719  36.546  41.435  1.00  0.00     0.124 S 
ATOM     86  O   UNL A   1      38.759  35.806  42.250  1.00  0.00    -0.237 OA
ATOM     87  O   UNL A   1      41.113  36.447  41.860  1.00  0.00    -0.237 OA
ATOM     88  O   UNL A   1      39.291  37.882  41.028  1.00  0.00    -0.744 OA
ENDBRANCH  84  85
ENDBRANCH  58  79
ENDBRANCH  32  33
ENDBRANCH  24  27
ENDBRANCH  22  23
ENDBRANCH  21  22
ENDBRANCH   1  21
TORSDOF 18
ENDMDL
