MODEL 1
REMARK VINA RESULT:     -13.1      0.000      0.000
REMARK SMILES O=C(NCCCNC(=O)c1ccccc1/C=C1/SC(=S)N(C2CCCCC2)C1=O)c1ccc(-c2c3nc(c(-c4ccc(S(=O)(=O)[O-])cc4)c4ccc([nH]4)c(-c4ccc(S(=O)(=O)[O-])cc4)c4nc(c(-c5ccc(S(=O)(=O)[O-])cc5)c5ccc2[nH]5)C=C4)C=C3)cc1
REMARK SMILES IDX 4 1 3 2 1 3 2 4 30 6 31 7 89 8 32 9 88 10 33 11 34 12 35 13
REMARK SMILES IDX 82 14 36 15 87 16 81 17 83 18 37 19 86 20 80 21 79 22 38 24
REMARK SMILES IDX 68 25 49 26 67 27 50 28 53 29 66 30 84 31 51 32 52 33 65 35
REMARK SMILES IDX 85 36 54 37 39 38 40 39 48 40 41 41 47 42 42 43 43 44 44 45
REMARK SMILES IDX 45 46 46 47 69 48 70 49 78 50 71 51 77 52 72 53 73 54 74 55
REMARK SMILES IDX 75 56 76 57 55 58 56 59 64 60 57 61 63 62 58 63 59 64 60 65
REMARK SMILES IDX 61 66 62 67 5 68 6 69 7 70 8 71 9 73 10 74 11 75 15 76 12 77
REMARK SMILES IDX 14 78 13 79 16 80 17 81 18 82 28 83 19 84 21 85 29 86 20 87
REMARK SMILES IDX 22 88 23 89 27 90 24 91 26 92 25 93
REMARK H PARENT 3 5 83 23 53 34 7 72
REMARK Flexibility Score: inf
ROOT
ATOM      1  C   UNL A   1      35.652  30.924  27.985  1.00  0.00     0.118 C 
ENDROOT
BRANCH   1   2
ATOM      2  N   UNL A   1      35.594  30.608  29.409  1.00  0.00    -0.352 N 
ATOM      3  O   UNL A   1      36.173  29.635  31.357  1.00  0.00    -0.269 OA
ATOM      4  C   UNL A   1      36.488  29.932  30.207  1.00  0.00     0.251 C 
ATOM      5  H   UNL A   1      34.786  30.929  29.872  1.00  0.00     0.163 HD
BRANCH   4   6
ATOM      6  C   UNL A   1      37.808  29.536  29.672  1.00  0.00     0.039 A 
ATOM      7  C   UNL A   1      38.807  29.077  30.528  1.00  0.00     0.014 A 
ATOM      8  C   UNL A   1      38.058  29.627  28.299  1.00  0.00     0.014 A 
ATOM      9  C   UNL A   1      40.101  28.924  30.056  1.00  0.00     0.010 A 
ATOM     10  C   UNL A   1      39.335  29.340  27.802  1.00  0.00     0.010 A 
ATOM     11  C   UNL A   1      40.380  29.026  28.683  1.00  0.00    -0.014 A 
BRANCH  11  12
ATOM     12  C   UNL A   1      41.760  28.722  28.220  1.00  0.00     0.031 A 
ATOM     13  C   UNL A   1      42.855  29.753  28.264  1.00  0.00     0.074 A 
ATOM     14  C   UNL A   1      42.032  27.458  27.833  1.00  0.00     0.049 A 
ATOM     15  N   UNL A   1      44.122  29.611  27.968  1.00  0.00    -0.248 NA
ATOM     16  C   UNL A   1      42.489  31.115  28.684  1.00  0.00     0.031 C 
ATOM     17  C   UNL A   1      41.046  26.375  27.737  1.00  0.00     0.029 A 
ATOM     18  N   UNL A   1      43.216  26.853  27.500  1.00  0.00    -0.354 N 
ATOM     19  C   UNL A   1      44.700  30.864  28.140  1.00  0.00     0.074 A 
ATOM     20  C   UNL A   1      43.643  31.761  28.553  1.00  0.00     0.031 C 
ATOM     21  C   UNL A   1      41.677  25.226  27.458  1.00  0.00     0.029 A 
ATOM     22  C   UNL A   1      43.095  25.502  27.274  1.00  0.00     0.049 A 
ATOM     23  H   UNL A   1      44.069  27.339  27.428  1.00  0.00     0.167 HD
ATOM     24  C   UNL A   1      45.995  31.230  27.972  1.00  0.00     0.031 A 
ATOM     25  C   UNL A   1      44.018  24.581  26.943  1.00  0.00     0.031 A 
ATOM     26  C   UNL A   1      47.045  30.329  27.572  1.00  0.00     0.049 A 
ATOM     27  C   UNL A   1      45.441  25.016  26.769  1.00  0.00     0.074 A 
ATOM     28  C   UNL A   1      48.389  30.604  27.381  1.00  0.00     0.029 A 
ATOM     29  N   UNL A   1      46.875  28.977  27.309  1.00  0.00    -0.354 N 
ATOM     30  N   UNL A   1      45.961  26.207  26.936  1.00  0.00    -0.248 NA
ATOM     31  C   UNL A   1      46.400  23.985  26.352  1.00  0.00     0.031 C 
ATOM     32  C   UNL A   1      49.023  29.426  26.966  1.00  0.00     0.029 A 
ATOM     33  C   UNL A   1      48.084  28.409  26.944  1.00  0.00     0.049 A 
ATOM     34  H   UNL A   1      46.020  28.494  27.373  1.00  0.00     0.167 HD
ATOM     35  C   UNL A   1      47.309  26.071  26.638  1.00  0.00     0.074 A 
ATOM     36  C   UNL A   1      47.531  24.674  26.321  1.00  0.00     0.031 C 
ATOM     37  C   UNL A   1      48.277  27.021  26.615  1.00  0.00     0.031 A 
BRANCH  24  38
ATOM     38  C   UNL A   1      46.354  32.674  28.203  1.00  0.00    -0.014 A 
ATOM     39  C   UNL A   1      46.814  33.117  29.455  1.00  0.00     0.010 A 
ATOM     40  C   UNL A   1      46.303  33.584  27.130  1.00  0.00     0.010 A 
ATOM     41  C   UNL A   1      47.197  34.450  29.637  1.00  0.00     0.020 A 
ATOM     42  C   UNL A   1      46.705  34.913  27.304  1.00  0.00     0.020 A 
ATOM     43  C   UNL A   1      47.139  35.340  28.561  1.00  0.00     0.054 A 
BRANCH  43  44
ATOM     44  S   UNL A   1      47.683  37.053  28.814  1.00  0.00     0.124 S 
ATOM     45  O   UNL A   1      47.291  37.682  27.555  1.00  0.00    -0.237 OA
ATOM     46  O   UNL A   1      46.913  37.464  29.986  1.00  0.00    -0.237 OA
ATOM     47  O   UNL A   1      49.122  36.932  29.029  1.00  0.00    -0.744 OA
ENDBRANCH  43  44
ENDBRANCH  24  38
BRANCH  25  48
ATOM     48  C   UNL A   1      43.607  23.169  26.718  1.00  0.00    -0.014 A 
ATOM     49  C   UNL A   1      43.824  22.544  25.479  1.00  0.00     0.010 A 
ATOM     50  C   UNL A   1      43.012  22.437  27.763  1.00  0.00     0.010 A 
ATOM     51  C   UNL A   1      43.435  21.216  25.281  1.00  0.00     0.020 A 
ATOM     52  C   UNL A   1      42.651  21.101  27.579  1.00  0.00     0.020 A 
ATOM     53  C   UNL A   1      42.849  20.503  26.333  1.00  0.00     0.054 A 
BRANCH  53  54
ATOM     54  S   UNL A   1      42.392  18.767  26.080  1.00  0.00     0.124 S 
ATOM     55  O   UNL A   1      43.307  18.367  25.015  1.00  0.00    -0.237 OA
ATOM     56  O   UNL A   1      42.647  18.173  27.391  1.00  0.00    -0.237 OA
ATOM     57  O   UNL A   1      40.982  18.840  25.704  1.00  0.00    -0.744 OA
ENDBRANCH  53  54
ENDBRANCH  25  48
BRANCH  37  58
ATOM     58  C   UNL A   1      49.657  26.564  26.234  1.00  0.00    -0.014 A 
ATOM     59  C   UNL A   1      50.506  25.969  27.184  1.00  0.00     0.010 A 
ATOM     60  C   UNL A   1      50.108  26.730  24.913  1.00  0.00     0.010 A 
ATOM     61  C   UNL A   1      51.801  25.587  26.830  1.00  0.00     0.020 A 
ATOM     62  C   UNL A   1      51.395  26.328  24.550  1.00  0.00     0.020 A 
ATOM     63  C   UNL A   1      52.240  25.777  25.516  1.00  0.00     0.054 A 
BRANCH  63  64
ATOM     64  S   UNL A   1      53.923  25.267  25.073  1.00  0.00     0.124 S 
ATOM     65  O   UNL A   1      53.780  23.818  24.959  1.00  0.00    -0.237 OA
ATOM     66  O   UNL A   1      54.158  25.977  23.818  1.00  0.00    -0.237 OA
ATOM     67  O   UNL A   1      54.729  25.728  26.202  1.00  0.00    -0.744 OA
ENDBRANCH  63  64
ENDBRANCH  37  58
ENDBRANCH  11  12
ENDBRANCH   4   6
ENDBRANCH   1   2
BRANCH   1  68
ATOM     68  C   UNL A   1      34.316  30.768  27.278  1.00  0.00     0.042 C 
BRANCH  68  69
ATOM     69  C   UNL A   1      34.029  29.351  26.817  1.00  0.00     0.118 C 
BRANCH  69  70
ATOM     70  N   UNL A   1      33.024  28.690  27.635  1.00  0.00    -0.352 N 
ATOM     71  C   UNL A   1      31.767  28.258  27.302  1.00  0.00     0.251 C 
ATOM     72  H   UNL A   1      33.286  28.530  28.571  1.00  0.00     0.163 HD
ATOM     73  O   UNL A   1      31.029  27.831  28.186  1.00  0.00    -0.269 OA
BRANCH  71  74
ATOM     74  C   UNL A   1      31.293  28.310  25.901  1.00  0.00     0.047 A 
ATOM     75  C   UNL A   1      31.425  29.548  25.254  1.00  0.00     0.014 A 
ATOM     76  C   UNL A   1      30.706  27.212  25.235  1.00  0.00    -0.012 A 
ATOM     77  C   UNL A   1      31.028  29.688  23.926  1.00  0.00     0.001 A 
ATOM     78  C   UNL A   1      30.332  27.368  23.893  1.00  0.00     0.009 A 
ATOM     79  C   UNL A   1      30.492  28.597  23.245  1.00  0.00     0.001 A 
BRANCH  76  80
ATOM     80  C   UNL A   1      30.533  25.884  25.844  1.00  0.00     0.030 C 
ATOM     81  C   UNL A   1      31.452  24.910  25.891  1.00  0.00     0.081 C 
ATOM     82  S   UNL A   1      31.075  23.291  26.318  1.00  0.00    -0.054 SA
ATOM     83  C   UNL A   1      32.887  25.006  25.522  1.00  0.00     0.266 C 
ATOM     84  C   UNL A   1      32.630  22.684  25.745  1.00  0.00     0.148 C 
ATOM     85  N   UNL A   1      33.437  23.739  25.359  1.00  0.00    -0.290 N 
ATOM     86  O   UNL A   1      33.494  26.068  25.484  1.00  0.00    -0.268 OA
ATOM     87  S   UNL A   1      32.939  21.044  25.762  1.00  0.00    -0.052 S 
BRANCH  85  88
ATOM     88  C   UNL A   1      34.860  23.678  24.965  1.00  0.00     0.092 C 
ATOM     89  C   UNL A   1      35.750  23.255  26.144  1.00  0.00     0.025 C 
ATOM     90  C   UNL A   1      35.154  22.881  23.683  1.00  0.00     0.025 C 
ATOM     91  C   UNL A   1      37.229  23.286  25.770  1.00  0.00     0.002 C 
ATOM     92  C   UNL A   1      36.646  22.917  23.341  1.00  0.00     0.002 C 
ATOM     93  C   UNL A   1      37.505  22.460  24.519  1.00  0.00     0.000 C 
ENDBRANCH  85  88
ENDBRANCH  76  80
ENDBRANCH  71  74
ENDBRANCH  69  70
ENDBRANCH  68  69
ENDBRANCH   1  68
TORSDOF 15
ENDMDL
MODEL 2
REMARK VINA RESULT:     -13.0      6.456     12.070
REMARK SMILES O=C(NCCCNC(=O)c1ccccc1/C=C1/SC(=S)N(C2CCCCC2)C1=O)c1ccc(-c2c3nc(c(-c4ccc(S(=O)(=O)[O-])cc4)c4ccc([nH]4)c(-c4ccc(S(=O)(=O)[O-])cc4)c4nc(c(-c5ccc(S(=O)(=O)[O-])cc5)c5ccc2[nH]5)C=C4)C=C3)cc1
REMARK SMILES IDX 4 1 3 2 1 3 2 4 30 6 31 7 89 8 32 9 88 10 33 11 34 12 35 13
REMARK SMILES IDX 82 14 36 15 87 16 81 17 83 18 37 19 86 20 80 21 79 22 38 24
REMARK SMILES IDX 68 25 49 26 67 27 50 28 53 29 66 30 84 31 51 32 52 33 65 35
REMARK SMILES IDX 85 36 54 37 39 38 40 39 48 40 41 41 47 42 42 43 43 44 44 45
REMARK SMILES IDX 45 46 46 47 69 48 70 49 78 50 71 51 77 52 72 53 73 54 74 55
REMARK SMILES IDX 75 56 76 57 55 58 56 59 64 60 57 61 63 62 58 63 59 64 60 65
REMARK SMILES IDX 61 66 62 67 5 68 6 69 7 70 8 71 9 73 10 74 11 75 15 76 12 77
REMARK SMILES IDX 14 78 13 79 16 80 17 81 18 82 28 83 19 84 21 85 29 86 20 87
REMARK SMILES IDX 22 88 23 89 27 90 24 91 26 92 25 93
REMARK H PARENT 3 5 83 23 53 34 7 72
REMARK Flexibility Score: inf
ROOT
ATOM      1  C   UNL A   1      39.539  23.906  26.840  1.00  0.00     0.118 C 
ENDROOT
BRANCH   1   2
ATOM      2  N   UNL A   1      40.521  24.467  25.918  1.00  0.00    -0.352 N 
ATOM      3  O   UNL A   1      41.903  26.004  25.021  1.00  0.00    -0.269 OA
ATOM      4  C   UNL A   1      41.238  25.640  25.988  1.00  0.00     0.251 C 
ATOM      5  H   UNL A   1      40.699  23.919  25.119  1.00  0.00     0.163 HD
BRANCH   4   6
ATOM      6  C   UNL A   1      41.180  26.474  27.207  1.00  0.00     0.039 A 
ATOM      7  C   UNL A   1      40.665  25.955  28.393  1.00  0.00     0.014 A 
ATOM      8  C   UNL A   1      41.641  27.794  27.169  1.00  0.00     0.014 A 
ATOM      9  C   UNL A   1      40.407  26.801  29.460  1.00  0.00     0.010 A 
ATOM     10  C   UNL A   1      41.503  28.613  28.296  1.00  0.00     0.010 A 
ATOM     11  C   UNL A   1      40.846  28.136  29.439  1.00  0.00    -0.014 A 
BRANCH  11  12
ATOM     12  C   UNL A   1      40.658  28.958  30.662  1.00  0.00     0.031 A 
ATOM     13  C   UNL A   1      41.603  28.868  31.830  1.00  0.00     0.074 A 
ATOM     14  C   UNL A   1      39.655  29.862  30.669  1.00  0.00     0.049 A 
ATOM     15  N   UNL A   1      41.612  29.577  32.930  1.00  0.00    -0.248 NA
ATOM     16  C   UNL A   1      42.668  27.855  31.765  1.00  0.00     0.031 C 
ATOM     17  C   UNL A   1      38.666  30.031  29.597  1.00  0.00     0.029 A 
ATOM     18  N   UNL A   1      39.328  30.839  31.573  1.00  0.00    -0.354 N 
ATOM     19  C   UNL A   1      42.661  29.085  33.698  1.00  0.00     0.074 A 
ATOM     20  C   UNL A   1      43.259  28.003  32.945  1.00  0.00     0.031 C 
ATOM     21  C   UNL A   1      37.905  31.101  29.864  1.00  0.00     0.029 A 
ATOM     22  C   UNL A   1      38.293  31.644  31.158  1.00  0.00     0.049 A 
ATOM     23  H   UNL A   1      39.789  30.953  32.435  1.00  0.00     0.167 HD
ATOM     24  C   UNL A   1      43.087  29.498  34.916  1.00  0.00     0.031 A 
ATOM     25  C   UNL A   1      37.707  32.698  31.754  1.00  0.00     0.031 A 
ATOM     26  C   UNL A   1      42.493  30.584  35.655  1.00  0.00     0.049 A 
ATOM     27  C   UNL A   1      38.203  33.134  33.098  1.00  0.00     0.074 A 
ATOM     28  C   UNL A   1      42.857  31.082  36.896  1.00  0.00     0.029 A 
ATOM     29  N   UNL A   1      41.418  31.345  35.221  1.00  0.00    -0.354 N 
ATOM     30  N   UNL A   1      39.196  32.649  33.804  1.00  0.00    -0.248 NA
ATOM     31  C   UNL A   1      37.494  34.253  33.732  1.00  0.00     0.031 C 
ATOM     32  C   UNL A   1      41.978  32.120  37.227  1.00  0.00     0.029 A 
ATOM     33  C   UNL A   1      41.096  32.298  36.174  1.00  0.00     0.049 A 
ATOM     34  H   UNL A   1      40.952  31.226  34.362  1.00  0.00     0.167 HD
ATOM     35  C   UNL A   1      39.227  33.399  34.970  1.00  0.00     0.074 A 
ATOM     36  C   UNL A   1      38.181  34.397  34.857  1.00  0.00     0.031 C 
ATOM     37  C   UNL A   1      40.040  33.268  36.047  1.00  0.00     0.031 A 
BRANCH  24  38
ATOM     38  C   UNL A   1      44.243  28.766  35.545  1.00  0.00    -0.014 A 
ATOM     39  C   UNL A   1      45.566  29.201  35.357  1.00  0.00     0.010 A 
ATOM     40  C   UNL A   1      43.995  27.673  36.397  1.00  0.00     0.010 A 
ATOM     41  C   UNL A   1      46.624  28.543  35.994  1.00  0.00     0.020 A 
ATOM     42  C   UNL A   1      45.048  27.026  37.051  1.00  0.00     0.020 A 
ATOM     43  C   UNL A   1      46.358  27.460  36.836  1.00  0.00     0.054 A 
BRANCH  43  44
ATOM     44  S   UNL A   1      47.746  26.652  37.683  1.00  0.00     0.124 S 
ATOM     45  O   UNL A   1      47.126  25.421  38.168  1.00  0.00    -0.237 OA
ATOM     46  O   UNL A   1      48.722  26.481  36.609  1.00  0.00    -0.237 OA
ATOM     47  O   UNL A   1      48.125  27.609  38.719  1.00  0.00    -0.744 OA
ENDBRANCH  43  44
ENDBRANCH  24  38
BRANCH  25  48
ATOM     48  C   UNL A   1      36.563  33.380  31.093  1.00  0.00    -0.014 A 
ATOM     49  C   UNL A   1      35.352  33.582  31.776  1.00  0.00     0.010 A 
ATOM     50  C   UNL A   1      36.694  33.850  29.772  1.00  0.00     0.010 A 
ATOM     51  C   UNL A   1      34.284  34.227  31.144  1.00  0.00     0.020 A 
ATOM     52  C   UNL A   1      35.641  34.521  29.149  1.00  0.00     0.020 A 
ATOM     53  C   UNL A   1      34.436  34.691  29.833  1.00  0.00     0.054 A 
BRANCH  53  54
ATOM     54  S   UNL A   1      33.060  35.567  29.039  1.00  0.00     0.124 S 
ATOM     55  O   UNL A   1      32.456  34.511  28.234  1.00  0.00    -0.237 OA
ATOM     56  O   UNL A   1      32.270  36.024  30.181  1.00  0.00    -0.237 OA
ATOM     57  O   UNL A   1      33.725  36.630  28.289  1.00  0.00    -0.744 OA
ENDBRANCH  53  54
ENDBRANCH  25  48
BRANCH  37  58
ATOM     58  C   UNL A   1      39.819  34.233  37.178  1.00  0.00    -0.014 A 
ATOM     59  C   UNL A   1      40.406  35.511  37.159  1.00  0.00     0.010 A 
ATOM     60  C   UNL A   1      39.015  33.858  38.268  1.00  0.00     0.010 A 
ATOM     61  C   UNL A   1      40.228  36.383  38.234  1.00  0.00     0.020 A 
ATOM     62  C   UNL A   1      38.817  34.738  39.335  1.00  0.00     0.020 A 
ATOM     63  C   UNL A   1      39.441  35.987  39.320  1.00  0.00     0.054 A 
BRANCH  63  64
ATOM     64  S   UNL A   1      39.216  37.138  40.703  1.00  0.00     0.124 S 
ATOM     65  O   UNL A   1      40.585  37.578  40.956  1.00  0.00    -0.237 OA
ATOM     66  O   UNL A   1      38.323  38.149  40.141  1.00  0.00    -0.237 OA
ATOM     67  O   UNL A   1      38.624  36.306  41.748  1.00  0.00    -0.744 OA
ENDBRANCH  63  64
ENDBRANCH  37  58
ENDBRANCH  11  12
ENDBRANCH   4   6
ENDBRANCH   1   2
BRANCH   1  68
ATOM     68  C   UNL A   1      38.139  24.463  26.642  1.00  0.00     0.042 C 
BRANCH  68  69
ATOM     69  C   UNL A   1      37.175  23.485  25.998  1.00  0.00     0.118 C 
BRANCH  69  70
ATOM     70  N   UNL A   1      37.283  23.467  24.548  1.00  0.00    -0.352 N 
ATOM     71  C   UNL A   1      36.495  22.843  23.617  1.00  0.00     0.251 C 
ATOM     72  H   UNL A   1      38.039  23.979  24.179  1.00  0.00     0.163 HD
ATOM     73  O   UNL A   1      36.839  22.857  22.438  1.00  0.00    -0.269 OA
BRANCH  71  74
ATOM     74  C   UNL A   1      35.249  22.151  24.018  1.00  0.00     0.047 A 
ATOM     75  C   UNL A   1      35.402  21.080  24.911  1.00  0.00     0.014 A 
ATOM     76  C   UNL A   1      33.972  22.498  23.526  1.00  0.00    -0.012 A 
ATOM     77  C   UNL A   1      34.283  20.384  25.364  1.00  0.00     0.001 A 
ATOM     78  C   UNL A   1      32.858  21.798  24.009  1.00  0.00     0.009 A 
ATOM     79  C   UNL A   1      33.014  20.749  24.921  1.00  0.00     0.001 A 
BRANCH  76  80
ATOM     80  C   UNL A   1      33.730  23.607  22.589  1.00  0.00     0.030 C 
ATOM     81  C   UNL A   1      33.492  24.883  22.919  1.00  0.00     0.081 C 
ATOM     82  S   UNL A   1      32.898  26.042  21.800  1.00  0.00    -0.054 SA
ATOM     83  C   UNL A   1      33.605  25.502  24.264  1.00  0.00     0.266 C 
ATOM     84  C   UNL A   1      32.507  27.201  23.072  1.00  0.00     0.148 C 
ATOM     85  N   UNL A   1      32.949  26.728  24.295  1.00  0.00    -0.290 N 
ATOM     86  O   UNL A   1      34.282  25.022  25.163  1.00  0.00    -0.268 OA
ATOM     87  S   UNL A   1      31.743  28.633  22.685  1.00  0.00    -0.052 S 
BRANCH  85  88
ATOM     88  C   UNL A   1      32.957  27.454  25.583  1.00  0.00     0.092 C 
ATOM     89  C   UNL A   1      33.873  28.685  25.528  1.00  0.00     0.025 C 
ATOM     90  C   UNL A   1      31.570  27.771  26.168  1.00  0.00     0.025 C 
ATOM     91  C   UNL A   1      33.962  29.380  26.882  1.00  0.00     0.002 C 
ATOM     92  C   UNL A   1      31.690  28.481  27.518  1.00  0.00     0.002 C 
ATOM     93  C   UNL A   1      32.578  29.720  27.427  1.00  0.00     0.000 C 
ENDBRANCH  85  88
ENDBRANCH  76  80
ENDBRANCH  71  74
ENDBRANCH  69  70
ENDBRANCH  68  69
ENDBRANCH   1  68
TORSDOF 15
ENDMDL
MODEL 3
REMARK VINA RESULT:     -12.6      6.494     11.520
REMARK SMILES O=C(NCCCNC(=O)c1ccccc1/C=C1/SC(=S)N(C2CCCCC2)C1=O)c1ccc(-c2c3nc(c(-c4ccc(S(=O)(=O)[O-])cc4)c4ccc([nH]4)c(-c4ccc(S(=O)(=O)[O-])cc4)c4nc(c(-c5ccc(S(=O)(=O)[O-])cc5)c5ccc2[nH]5)C=C4)C=C3)cc1
REMARK SMILES IDX 4 1 3 2 1 3 2 4 30 6 31 7 89 8 32 9 88 10 33 11 34 12 35 13
REMARK SMILES IDX 82 14 36 15 87 16 81 17 83 18 37 19 86 20 80 21 79 22 38 24
REMARK SMILES IDX 68 25 49 26 67 27 50 28 53 29 66 30 84 31 51 32 52 33 65 35
REMARK SMILES IDX 85 36 54 37 39 38 40 39 48 40 41 41 47 42 42 43 43 44 44 45
REMARK SMILES IDX 45 46 46 47 69 48 70 49 78 50 71 51 77 52 72 53 73 54 74 55
REMARK SMILES IDX 75 56 76 57 55 58 56 59 64 60 57 61 63 62 58 63 59 64 60 65
REMARK SMILES IDX 61 66 62 67 5 68 6 69 7 70 8 71 9 73 10 74 11 75 15 76 12 77
REMARK SMILES IDX 14 78 13 79 16 80 17 81 18 82 28 83 19 84 21 85 29 86 20 87
REMARK SMILES IDX 22 88 23 89 27 90 24 91 26 92 25 93
REMARK H PARENT 3 5 83 23 53 34 7 72
REMARK Flexibility Score: inf
ROOT
ATOM      1  C   UNL A   1      39.540  23.798  26.992  1.00  0.00     0.118 C 
ENDROOT
BRANCH   1   2
ATOM      2  N   UNL A   1      40.422  24.409  26.002  1.00  0.00    -0.352 N 
ATOM      3  O   UNL A   1      41.552  26.042  24.938  1.00  0.00    -0.269 OA
ATOM      4  C   UNL A   1      40.955  25.676  25.947  1.00  0.00     0.251 C 
ATOM      5  H   UNL A   1      40.675  23.820  25.254  1.00  0.00     0.163 HD
BRANCH   4   6
ATOM      6  C   UNL A   1      40.780  26.605  27.085  1.00  0.00     0.039 A 
ATOM      7  C   UNL A   1      41.414  27.845  27.086  1.00  0.00     0.014 A 
ATOM      8  C   UNL A   1      39.978  26.233  28.169  1.00  0.00     0.014 A 
ATOM      9  C   UNL A   1      41.430  28.609  28.242  1.00  0.00     0.010 A 
ATOM     10  C   UNL A   1      39.885  27.072  29.287  1.00  0.00     0.010 A 
ATOM     11  C   UNL A   1      40.644  28.248  29.351  1.00  0.00    -0.014 A 
BRANCH  11  12
ATOM     12  C   UNL A   1      40.598  29.174  30.512  1.00  0.00     0.031 A 
ATOM     13  C   UNL A   1      39.549  30.246  30.630  1.00  0.00     0.074 A 
ATOM     14  C   UNL A   1      41.479  28.974  31.515  1.00  0.00     0.049 A 
ATOM     15  N   UNL A   1      39.336  31.075  31.619  1.00  0.00    -0.248 NA
ATOM     16  C   UNL A   1      38.626  30.420  29.497  1.00  0.00     0.031 C 
ATOM     17  C   UNL A   1      42.552  27.972  31.507  1.00  0.00     0.029 A 
ATOM     18  N   UNL A   1      41.587  29.559  32.750  1.00  0.00    -0.354 N 
ATOM     19  C   UNL A   1      38.276  31.883  31.224  1.00  0.00     0.074 A 
ATOM     20  C   UNL A   1      37.896  31.456  29.895  1.00  0.00     0.031 C 
ATOM     21  C   UNL A   1      43.147  27.952  32.708  1.00  0.00     0.029 A 
ATOM     22  C   UNL A   1      42.558  28.991  33.542  1.00  0.00     0.049 A 
ATOM     23  H   UNL A   1      41.024  30.312  33.042  1.00  0.00     0.167 HD
ATOM     24  C   UNL A   1      37.673  32.887  31.908  1.00  0.00     0.031 A 
ATOM     25  C   UNL A   1      42.945  29.276  34.798  1.00  0.00     0.031 A 
ATOM     26  C   UNL A   1      38.049  33.299  33.236  1.00  0.00     0.049 A 
ATOM     27  C   UNL A   1      42.257  30.388  35.530  1.00  0.00     0.074 A 
ATOM     28  C   UNL A   1      37.495  34.302  34.016  1.00  0.00     0.029 A 
ATOM     29  N   UNL A   1      39.066  32.729  33.987  1.00  0.00    -0.354 N 
ATOM     30  N   UNL A   1      41.258  31.138  35.132  1.00  0.00    -0.248 NA
ATOM     31  C   UNL A   1      42.754  30.699  36.876  1.00  0.00     0.031 C 
ATOM     32  C   UNL A   1      38.203  34.362  35.222  1.00  0.00     0.029 A 
ATOM     33  C   UNL A   1      39.166  33.367  35.213  1.00  0.00     0.049 A 
ATOM     34  H   UNL A   1      39.634  31.981  33.692  1.00  0.00     0.167 HD
ATOM     35  C   UNL A   1      41.011  32.016  36.177  1.00  0.00     0.074 A 
ATOM     36  C   UNL A   1      41.937  31.677  37.239  1.00  0.00     0.031 C 
ATOM     37  C   UNL A   1      40.107  33.024  36.247  1.00  0.00     0.031 A 
BRANCH  24  38
ATOM     38  C   UNL A   1      36.551  33.628  31.230  1.00  0.00    -0.014 A 
ATOM     39  C   UNL A   1      36.604  33.929  29.859  1.00  0.00     0.010 A 
ATOM     40  C   UNL A   1      35.394  33.959  31.960  1.00  0.00     0.010 A 
ATOM     41  C   UNL A   1      35.528  34.568  29.232  1.00  0.00     0.020 A 
ATOM     42  C   UNL A   1      34.309  34.579  31.333  1.00  0.00     0.020 A 
ATOM     43  C   UNL A   1      34.388  34.889  29.974  1.00  0.00     0.054 A 
BRANCH  43  44
ATOM     44  S   UNL A   1      32.990  35.679  29.127  1.00  0.00     0.124 S 
ATOM     45  O   UNL A   1      32.162  36.110  30.251  1.00  0.00    -0.237 OA
ATOM     46  O   UNL A   1      33.635  36.754  28.375  1.00  0.00    -0.237 OA
ATOM     47  O   UNL A   1      32.426  34.606  28.313  1.00  0.00    -0.744 OA
ENDBRANCH  43  44
ENDBRANCH  24  38
BRANCH  25  48
ATOM     48  C   UNL A   1      44.065  28.519  35.417  1.00  0.00    -0.014 A 
ATOM     49  C   UNL A   1      45.395  28.948  35.268  1.00  0.00     0.010 A 
ATOM     50  C   UNL A   1      43.796  27.369  36.182  1.00  0.00     0.010 A 
ATOM     51  C   UNL A   1      46.439  28.228  35.857  1.00  0.00     0.020 A 
ATOM     52  C   UNL A   1      44.833  26.665  36.797  1.00  0.00     0.020 A 
ATOM     53  C   UNL A   1      46.150  27.089  36.617  1.00  0.00     0.054 A 
BRANCH  53  54
ATOM     54  S   UNL A   1      47.508  26.191  37.416  1.00  0.00     0.124 S 
ATOM     55  O   UNL A   1      48.460  27.263  37.687  1.00  0.00    -0.237 OA
ATOM     56  O   UNL A   1      46.860  25.606  38.588  1.00  0.00    -0.237 OA
ATOM     57  O   UNL A   1      47.919  25.226  36.398  1.00  0.00    -0.744 OA
ENDBRANCH  53  54
ENDBRANCH  25  48
BRANCH  37  58
ATOM     58  C   UNL A   1      40.086  33.821  37.521  1.00  0.00    -0.014 A 
ATOM     59  C   UNL A   1      39.315  33.402  38.620  1.00  0.00     0.010 A 
ATOM     60  C   UNL A   1      40.849  34.997  37.621  1.00  0.00     0.010 A 
ATOM     61  C   UNL A   1      39.270  34.171  39.783  1.00  0.00     0.020 A 
ATOM     62  C   UNL A   1      40.824  35.758  38.793  1.00  0.00     0.020 A 
ATOM     63  C   UNL A   1      40.019  35.350  39.859  1.00  0.00     0.054 A 
BRANCH  63  64
ATOM     64  S   UNL A   1      39.954  36.332  41.382  1.00  0.00     0.124 S 
ATOM     65  O   UNL A   1      38.541  36.242  41.740  1.00  0.00    -0.237 OA
ATOM     66  O   UNL A   1      40.874  35.620  42.266  1.00  0.00    -0.237 OA
ATOM     67  O   UNL A   1      40.408  37.654  40.957  1.00  0.00    -0.744 OA
ENDBRANCH  63  64
ENDBRANCH  37  58
ENDBRANCH  11  12
ENDBRANCH   4   6
ENDBRANCH   1   2
BRANCH   1  68
ATOM     68  C   UNL A   1      38.526  22.841  26.387  1.00  0.00     0.042 C 
BRANCH  68  69
ATOM     69  C   UNL A   1      37.322  23.530  25.774  1.00  0.00     0.118 C 
BRANCH  69  70
ATOM     70  N   UNL A   1      37.334  23.489  24.321  1.00  0.00    -0.352 N 
ATOM     71  C   UNL A   1      36.484  22.856  23.453  1.00  0.00     0.251 C 
ATOM     72  H   UNL A   1      38.066  23.993  23.895  1.00  0.00     0.163 HD
ATOM     73  O   UNL A   1      36.750  22.850  22.254  1.00  0.00    -0.269 OA
BRANCH  71  74
ATOM     74  C   UNL A   1      35.264  22.176  23.946  1.00  0.00     0.047 A 
ATOM     75  C   UNL A   1      35.471  21.119  24.845  1.00  0.00     0.014 A 
ATOM     76  C   UNL A   1      33.959  22.520  23.532  1.00  0.00    -0.012 A 
ATOM     77  C   UNL A   1      34.382  20.436  25.382  1.00  0.00     0.001 A 
ATOM     78  C   UNL A   1      32.877  21.834  24.099  1.00  0.00     0.009 A 
ATOM     79  C   UNL A   1      33.088  20.800  25.017  1.00  0.00     0.001 A 
BRANCH  76  80
ATOM     80  C   UNL A   1      33.660  23.615  22.594  1.00  0.00     0.030 C 
ATOM     81  C   UNL A   1      33.404  24.888  22.922  1.00  0.00     0.081 C 
ATOM     82  S   UNL A   1      32.746  26.022  21.814  1.00  0.00    -0.054 SA
ATOM     83  C   UNL A   1      33.547  25.523  24.256  1.00  0.00     0.266 C 
ATOM     84  C   UNL A   1      32.371  27.184  23.088  1.00  0.00     0.148 C 
ATOM     85  N   UNL A   1      32.865  26.733  24.299  1.00  0.00    -0.290 N 
ATOM     86  O   UNL A   1      34.265  25.066  25.136  1.00  0.00    -0.268 OA
ATOM     87  S   UNL A   1      31.562  28.594  22.714  1.00  0.00    -0.052 S 
BRANCH  85  88
ATOM     88  C   UNL A   1      32.898  27.471  25.580  1.00  0.00     0.092 C 
ATOM     89  C   UNL A   1      33.864  28.664  25.515  1.00  0.00     0.025 C 
ATOM     90  C   UNL A   1      31.524  27.849  26.157  1.00  0.00     0.025 C 
ATOM     91  C   UNL A   1      33.977  29.368  26.863  1.00  0.00     0.002 C 
ATOM     92  C   UNL A   1      31.669  28.567  27.501  1.00  0.00     0.002 C 
ATOM     93  C   UNL A   1      32.607  29.769  27.400  1.00  0.00     0.000 C 
ENDBRANCH  85  88
ENDBRANCH  76  80
ENDBRANCH  71  74
ENDBRANCH  69  70
ENDBRANCH  68  69
ENDBRANCH   1  68
TORSDOF 15
ENDMDL
