MODEL 1
REMARK VINA RESULT:     -11.5      0.000      0.000
REMARK SMILES CC(C)[C@H](NC(=O)[C@H](Cc1ccccc1)n1c(=O)[nH]c2ccccc2c1=O)C(=O)NCCCNC(=O)c1ccc(-c2c3nc(c(-c4ccc(S(=O)(=O)[O-])cc4)c4ccc([nH]4)c(-c4ccc(S(=O)(=O)[O-])cc4)c4nc(c(-c5ccc(S(=O)(=O)[O-])cc5)c5ccc2[nH]5)C=C4)C=C3)cc1
REMARK SMILES IDX 31 1 30 2 28 3 29 4 4 6 2 7 1 8 3 9 5 10 6 11 7 13 8 14
REMARK SMILES IDX 16 15 17 16 26 17 18 18 19 19 25 20 27 21 20 22 24 24 21 25
REMARK SMILES IDX 23 26 22 27 9 28 10 29 11 30 15 31 12 32 14 33 13 34 32 35
REMARK SMILES IDX 33 36 34 37 35 38 36 40 37 41 38 42 96 43 39 44 95 45 40 46
REMARK SMILES IDX 41 47 42 48 89 49 43 50 94 51 88 52 90 53 44 54 93 55 87 56
REMARK SMILES IDX 86 57 45 59 75 60 56 61 74 62 57 63 60 64 73 65 91 66 58 67
REMARK SMILES IDX 59 68 72 70 92 71 61 72 46 73 47 74 55 75 48 76 54 77 49 78
REMARK SMILES IDX 50 79 51 80 52 81 53 82 76 83 77 84 85 85 78 86 84 87 79 88
REMARK SMILES IDX 80 89 81 90 82 91 83 92 62 93 63 94 71 95 64 96 70 97 65 98
REMARK SMILES IDX 66 99 67 100 68 101 69 102
REMARK H PARENT 30 5 5 12 19 23 34 39 90 58 60 69
REMARK Flexibility Score: inf
ROOT
ATOM      1  C   UNL A   1      33.787  27.206  25.061  1.00  0.00     0.117 C 
ENDROOT
BRANCH   1   2
ATOM      2  N   UNL A   1      33.668  26.862  23.664  1.00  0.00    -0.354 N 
ATOM      3  C   UNL A   1      32.744  26.089  23.036  1.00  0.00     0.242 C 
ATOM      4  O   UNL A   1      32.893  25.913  21.821  1.00  0.00    -0.273 OA
ATOM      5  H   UNL A   1      34.361  27.245  23.078  1.00  0.00     0.163 HD
BRANCH   3   6
ATOM      6  C   UNL A   1      31.462  25.575  23.744  1.00  0.00     0.173 C 
BRANCH   6   7
ATOM      7  C   UNL A   1      30.191  26.322  23.364  1.00  0.00     0.015 C 
ATOM      8  C   UNL A   1      28.919  26.008  24.158  1.00  0.00     0.010 C 
ATOM      9  C   UNL A   1      30.463  27.830  23.378  1.00  0.00     0.010 C 
ENDBRANCH   6   7
BRANCH   6  10
ATOM     10  N   UNL A   1      31.658  25.371  25.194  1.00  0.00    -0.342 N 
ATOM     11  C   UNL A   1      32.188  24.521  26.094  1.00  0.00     0.244 C 
ATOM     12  H   UNL A   1      31.257  26.130  25.676  1.00  0.00     0.164 HD
ATOM     13  O   UNL A   1      31.538  24.598  27.155  1.00  0.00    -0.273 OA
BRANCH  11  14
ATOM     14  C   UNL A   1      33.294  23.393  25.989  1.00  0.00     0.189 C 
BRANCH  14  15
ATOM     15  N   UNL A   1      33.102  21.922  25.710  1.00  0.00    -0.247 N 
ATOM     16  C   UNL A   1      33.356  20.964  26.676  1.00  0.00     0.329 A 
ATOM     17  C   UNL A   1      32.455  21.557  24.515  1.00  0.00     0.264 A 
ATOM     18  O   UNL A   1      33.732  21.154  27.821  1.00  0.00    -0.248 OA
ATOM     19  N   UNL A   1      33.154  19.657  26.362  1.00  0.00    -0.307 N 
ATOM     20  C   UNL A   1      32.471  20.121  24.136  1.00  0.00     0.064 A 
ATOM     21  O   UNL A   1      31.924  22.350  23.739  1.00  0.00    -0.268 OA
ATOM     22  C   UNL A   1      32.799  19.198  25.112  1.00  0.00     0.055 A 
ATOM     23  H   UNL A   1      33.271  18.990  27.077  1.00  0.00     0.171 HD
ATOM     24  C   UNL A   1      32.234  19.683  22.830  1.00  0.00     0.016 A 
ATOM     25  C   UNL A   1      32.838  17.831  24.836  1.00  0.00     0.027 A 
ATOM     26  C   UNL A   1      32.329  18.319  22.528  1.00  0.00     0.001 A 
ATOM     27  C   UNL A   1      32.615  17.394  23.533  1.00  0.00     0.002 A 
ENDBRANCH  14  15
BRANCH  14  28
ATOM     28  C   UNL A   1      34.502  24.015  25.191  1.00  0.00     0.071 C 
BRANCH  28  29
ATOM     29  C   UNL A   1      35.879  23.355  25.207  1.00  0.00    -0.045 A 
ATOM     30  C   UNL A   1      36.859  23.889  26.057  1.00  0.00     0.004 A 
ATOM     31  C   UNL A   1      36.227  22.231  24.439  1.00  0.00     0.004 A 
ATOM     32  C   UNL A   1      38.117  23.289  26.166  1.00  0.00     0.000 A 
ATOM     33  C   UNL A   1      37.473  21.617  24.564  1.00  0.00     0.000 A 
ATOM     34  C   UNL A   1      38.417  22.143  25.434  1.00  0.00     0.000 A 
ENDBRANCH  28  29
ENDBRANCH  14  28
ENDBRANCH  11  14
ENDBRANCH   6  10
ENDBRANCH   3   6
ENDBRANCH   1   2
BRANCH   1  35
ATOM     35  C   UNL A   1      34.201  28.662  25.239  1.00  0.00     0.042 C 
BRANCH  35  36
ATOM     36  C   UNL A   1      34.523  29.022  26.682  1.00  0.00     0.118 C 
BRANCH  36  37
ATOM     37  N   UNL A   1      34.137  30.388  27.008  1.00  0.00    -0.352 N 
ATOM     38  C   UNL A   1      34.630  31.230  27.972  1.00  0.00     0.251 C 
ATOM     39  H   UNL A   1      33.415  30.763  26.454  1.00  0.00     0.163 HD
ATOM     40  O   UNL A   1      34.033  32.272  28.228  1.00  0.00    -0.269 OA
BRANCH  38  41
ATOM     41  C   UNL A   1      35.862  30.875  28.705  1.00  0.00     0.039 A 
ATOM     42  C   UNL A   1      35.810  29.856  29.658  1.00  0.00     0.014 A 
ATOM     43  C   UNL A   1      37.061  31.551  28.461  1.00  0.00     0.014 A 
ATOM     44  C   UNL A   1      36.972  29.480  30.329  1.00  0.00     0.010 A 
ATOM     45  C   UNL A   1      38.235  31.112  29.062  1.00  0.00     0.010 A 
ATOM     46  C   UNL A   1      38.201  30.083  30.011  1.00  0.00    -0.014 A 
BRANCH  46  47
ATOM     47  C   UNL A   1      39.459  29.646  30.665  1.00  0.00     0.031 A 
ATOM     48  C   UNL A   1      39.970  30.365  31.883  1.00  0.00     0.074 A 
ATOM     49  C   UNL A   1      40.173  28.643  30.118  1.00  0.00     0.049 A 
ATOM     50  N   UNL A   1      41.063  30.149  32.569  1.00  0.00    -0.248 NA
ATOM     51  C   UNL A   1      39.166  31.495  32.379  1.00  0.00     0.031 C 
ATOM     52  C   UNL A   1      39.811  27.911  28.901  1.00  0.00     0.029 A 
ATOM     53  N   UNL A   1      41.357  28.069  30.509  1.00  0.00    -0.354 N 
ATOM     54  C   UNL A   1      41.090  31.128  33.557  1.00  0.00     0.074 A 
ATOM     55  C   UNL A   1      39.931  31.969  33.349  1.00  0.00     0.031 C 
ATOM     56  C   UNL A   1      40.737  26.971  28.660  1.00  0.00     0.029 A 
ATOM     57  C   UNL A   1      41.782  27.061  29.676  1.00  0.00     0.049 A 
ATOM     58  H   UNL A   1      41.855  28.353  31.309  1.00  0.00     0.167 HD
ATOM     59  C   UNL A   1      41.988  31.300  34.556  1.00  0.00     0.031 A 
ATOM     60  C   UNL A   1      42.892  26.300  29.715  1.00  0.00     0.031 A 
ATOM     61  C   UNL A   1      43.135  30.453  34.754  1.00  0.00     0.049 A 
ATOM     62  C   UNL A   1      43.869  26.498  30.840  1.00  0.00     0.074 A 
ATOM     63  C   UNL A   1      44.062  30.489  35.779  1.00  0.00     0.029 A 
ATOM     64  N   UNL A   1      43.517  29.425  33.905  1.00  0.00    -0.354 N 
ATOM     65  N   UNL A   1      43.827  27.365  31.824  1.00  0.00    -0.248 NA
ATOM     66  C   UNL A   1      45.035  25.606  30.871  1.00  0.00     0.031 C 
ATOM     67  C   UNL A   1      45.045  29.531  35.511  1.00  0.00     0.029 A 
ATOM     68  C   UNL A   1      44.689  28.844  34.360  1.00  0.00     0.049 A 
ATOM     69  H   UNL A   1      43.028  29.147  33.096  1.00  0.00     0.167 HD
ATOM     70  C   UNL A   1      44.951  27.110  32.603  1.00  0.00     0.074 A 
ATOM     71  C   UNL A   1      45.640  25.995  31.985  1.00  0.00     0.031 C 
ATOM     72  C   UNL A   1      45.372  27.743  33.726  1.00  0.00     0.031 A 
BRANCH  59  73
ATOM     73  C   UNL A   1      41.778  32.465  35.489  1.00  0.00    -0.014 A 
ATOM     74  C   UNL A   1      41.100  32.315  36.713  1.00  0.00     0.010 A 
ATOM     75  C   UNL A   1      42.288  33.731  35.145  1.00  0.00     0.010 A 
ATOM     76  C   UNL A   1      40.886  33.417  37.546  1.00  0.00     0.020 A 
ATOM     77  C   UNL A   1      42.105  34.828  35.991  1.00  0.00     0.020 A 
ATOM     78  C   UNL A   1      41.385  34.669  37.177  1.00  0.00     0.054 A 
BRANCH  78  79
ATOM     79  S   UNL A   1      41.096  36.081  38.278  1.00  0.00     0.124 S 
ATOM     80  O   UNL A   1      40.683  35.418  39.513  1.00  0.00    -0.237 OA
ATOM     81  O   UNL A   1      42.405  36.726  38.319  1.00  0.00    -0.237 OA
ATOM     82  O   UNL A   1      40.050  36.842  37.601  1.00  0.00    -0.744 OA
ENDBRANCH  78  79
ENDBRANCH  59  73
BRANCH  60  83
ATOM     83  C   UNL A   1      43.121  25.281  28.654  1.00  0.00    -0.014 A 
ATOM     84  C   UNL A   1      42.763  23.937  28.856  1.00  0.00     0.010 A 
ATOM     85  C   UNL A   1      43.653  25.667  27.409  1.00  0.00     0.010 A 
ATOM     86  C   UNL A   1      42.936  22.997  27.834  1.00  0.00     0.020 A 
ATOM     87  C   UNL A   1      43.800  24.737  26.376  1.00  0.00     0.020 A 
ATOM     88  C   UNL A   1      43.446  23.405  26.598  1.00  0.00     0.054 A 
BRANCH  88  89
ATOM     89  S   UNL A   1      43.588  22.182  25.265  1.00  0.00     0.124 S 
ATOM     90  O   UNL A   1      42.563  21.211  25.632  1.00  0.00    -0.237 OA
ATOM     91  O   UNL A   1      43.306  22.981  24.075  1.00  0.00    -0.237 OA
ATOM     92  O   UNL A   1      44.967  21.711  25.376  1.00  0.00    -0.744 OA
ENDBRANCH  88  89
ENDBRANCH  60  83
BRANCH  72  93
ATOM     93  C   UNL A   1      46.629  27.230  34.379  1.00  0.00    -0.014 A 
ATOM     94  C   UNL A   1      47.890  27.767  34.063  1.00  0.00     0.010 A 
ATOM     95  C   UNL A   1      46.538  26.231  35.367  1.00  0.00     0.010 A 
ATOM     96  C   UNL A   1      49.040  27.290  34.698  1.00  0.00     0.020 A 
ATOM     97  C   UNL A   1      47.681  25.776  36.028  1.00  0.00     0.020 A 
ATOM     98  C   UNL A   1      48.928  26.297  35.677  1.00  0.00     0.054 A 
BRANCH  98  99
ATOM     99  S   UNL A   1      50.431  25.724  36.514  1.00  0.00     0.124 S 
ATOM    100  O   UNL A   1      49.918  24.648  37.358  1.00  0.00    -0.237 OA
ATOM    101  O   UNL A   1      51.277  25.303  35.401  1.00  0.00    -0.237 OA
ATOM    102  O   UNL A   1      50.901  26.908  37.233  1.00  0.00    -0.744 OA
ENDBRANCH  98  99
ENDBRANCH  72  93
ENDBRANCH  46  47
ENDBRANCH  38  41
ENDBRANCH  36  37
ENDBRANCH  35  36
ENDBRANCH   1  35
TORSDOF 19
ENDMDL
MODEL 2
REMARK VINA RESULT:     -11.5      1.228      3.213
REMARK SMILES CC(C)[C@H](NC(=O)[C@H](Cc1ccccc1)n1c(=O)[nH]c2ccccc2c1=O)C(=O)NCCCNC(=O)c1ccc(-c2c3nc(c(-c4ccc(S(=O)(=O)[O-])cc4)c4ccc([nH]4)c(-c4ccc(S(=O)(=O)[O-])cc4)c4nc(c(-c5ccc(S(=O)(=O)[O-])cc5)c5ccc2[nH]5)C=C4)C=C3)cc1
REMARK SMILES IDX 31 1 30 2 28 3 29 4 4 6 2 7 1 8 3 9 5 10 6 11 7 13 8 14
REMARK SMILES IDX 16 15 17 16 26 17 18 18 19 19 25 20 27 21 20 22 24 24 21 25
REMARK SMILES IDX 23 26 22 27 9 28 10 29 11 30 15 31 12 32 14 33 13 34 32 35
REMARK SMILES IDX 33 36 34 37 35 38 36 40 37 41 38 42 96 43 39 44 95 45 40 46
REMARK SMILES IDX 41 47 42 48 89 49 43 50 94 51 88 52 90 53 44 54 93 55 87 56
REMARK SMILES IDX 86 57 45 59 75 60 56 61 74 62 57 63 60 64 73 65 91 66 58 67
REMARK SMILES IDX 59 68 72 70 92 71 61 72 46 73 47 74 55 75 48 76 54 77 49 78
REMARK SMILES IDX 50 79 51 80 52 81 53 82 76 83 77 84 85 85 78 86 84 87 79 88
REMARK SMILES IDX 80 89 81 90 82 91 83 92 62 93 63 94 71 95 64 96 70 97 65 98
REMARK SMILES IDX 66 99 67 100 68 101 69 102
REMARK H PARENT 30 5 5 12 19 23 34 39 90 58 60 69
REMARK Flexibility Score: inf
ROOT
ATOM      1  C   UNL A   1      33.587  27.852  24.376  1.00  0.00     0.117 C 
ENDROOT
BRANCH   1   2
ATOM      2  N   UNL A   1      32.276  27.518  23.872  1.00  0.00    -0.354 N 
ATOM      3  C   UNL A   1      31.799  26.332  23.412  1.00  0.00     0.242 C 
ATOM      4  O   UNL A   1      30.637  26.321  22.990  1.00  0.00    -0.273 OA
ATOM      5  H   UNL A   1      31.630  28.261  23.860  1.00  0.00     0.163 HD
BRANCH   3   6
ATOM      6  C   UNL A   1      32.588  25.002  23.549  1.00  0.00     0.173 C 
BRANCH   6   7
ATOM      7  C   UNL A   1      32.189  23.928  22.547  1.00  0.00     0.015 C 
ATOM      8  C   UNL A   1      33.296  23.020  22.002  1.00  0.00     0.010 C 
ATOM      9  C   UNL A   1      31.053  23.083  23.132  1.00  0.00     0.010 C 
ENDBRANCH   6   7
BRANCH   6  10
ATOM     10  N   UNL A   1      32.690  24.545  24.950  1.00  0.00    -0.342 N 
ATOM     11  C   UNL A   1      33.065  23.500  25.710  1.00  0.00     0.244 C 
ATOM     12  H   UNL A   1      32.368  25.264  25.540  1.00  0.00     0.164 HD
ATOM     13  O   UNL A   1      32.383  23.492  26.755  1.00  0.00    -0.273 OA
BRANCH  11  14
ATOM     14  C   UNL A   1      34.022  22.264  25.449  1.00  0.00     0.189 C 
BRANCH  14  15
ATOM     15  N   UNL A   1      35.526  22.213  25.555  1.00  0.00    -0.247 N 
ATOM     16  C   UNL A   1      36.234  21.069  25.230  1.00  0.00     0.329 A 
ATOM     17  C   UNL A   1      36.213  23.418  25.788  1.00  0.00     0.264 A 
ATOM     18  O   UNL A   1      35.780  20.012  24.822  1.00  0.00    -0.248 OA
ATOM     19  N   UNL A   1      37.590  21.092  25.340  1.00  0.00    -0.307 N 
ATOM     20  C   UNL A   1      37.659  23.334  26.118  1.00  0.00     0.064 A 
ATOM     21  O   UNL A   1      35.687  24.530  25.789  1.00  0.00    -0.268 OA
ATOM     22  C   UNL A   1      38.316  22.149  25.843  1.00  0.00     0.055 A 
ATOM     23  H   UNL A   1      38.087  20.297  25.039  1.00  0.00     0.171 HD
ATOM     24  C   UNL A   1      38.350  24.371  26.748  1.00  0.00     0.016 A 
ATOM     25  C   UNL A   1      39.673  21.988  26.125  1.00  0.00     0.027 A 
ATOM     26  C   UNL A   1      39.697  24.200  27.090  1.00  0.00     0.001 A 
ATOM     27  C   UNL A   1      40.361  23.016  26.764  1.00  0.00     0.002 A 
ENDBRANCH  14  15
BRANCH  14  28
ATOM     28  C   UNL A   1      33.319  21.005  26.083  1.00  0.00     0.071 C 
BRANCH  28  29
ATOM     29  C   UNL A   1      32.912  19.813  25.220  1.00  0.00    -0.045 A 
ATOM     30  C   UNL A   1      32.554  20.054  23.886  1.00  0.00     0.004 A 
ATOM     31  C   UNL A   1      32.892  18.481  25.669  1.00  0.00     0.004 A 
ATOM     32  C   UNL A   1      32.236  18.996  23.027  1.00  0.00     0.000 A 
ATOM     33  C   UNL A   1      32.598  17.424  24.808  1.00  0.00     0.000 A 
ATOM     34  C   UNL A   1      32.276  17.682  23.483  1.00  0.00     0.000 A 
ENDBRANCH  28  29
ENDBRANCH  14  28
ENDBRANCH  11  14
ENDBRANCH   6  10
ENDBRANCH   3   6
ENDBRANCH   1   2
BRANCH   1  35
ATOM     35  C   UNL A   1      33.585  27.957  25.896  1.00  0.00     0.042 C 
BRANCH  35  36
ATOM     36  C   UNL A   1      34.695  28.847  26.437  1.00  0.00     0.118 C 
BRANCH  36  37
ATOM     37  N   UNL A   1      34.220  30.183  26.765  1.00  0.00    -0.352 N 
ATOM     38  C   UNL A   1      34.626  31.038  27.758  1.00  0.00     0.251 C 
ATOM     39  H   UNL A   1      33.500  30.526  26.187  1.00  0.00     0.163 HD
ATOM     40  O   UNL A   1      33.962  32.040  28.004  1.00  0.00    -0.269 OA
BRANCH  38  41
ATOM     41  C   UNL A   1      35.847  30.742  28.535  1.00  0.00     0.039 A 
ATOM     42  C   UNL A   1      35.799  29.747  29.513  1.00  0.00     0.014 A 
ATOM     43  C   UNL A   1      37.031  31.449  28.307  1.00  0.00     0.014 A 
ATOM     44  C   UNL A   1      36.953  29.426  30.227  1.00  0.00     0.010 A 
ATOM     45  C   UNL A   1      38.201  31.064  28.952  1.00  0.00     0.010 A 
ATOM     46  C   UNL A   1      38.171  30.059  29.928  1.00  0.00    -0.014 A 
BRANCH  46  47
ATOM     47  C   UNL A   1      39.423  29.680  30.628  1.00  0.00     0.031 A 
ATOM     48  C   UNL A   1      39.817  30.371  31.905  1.00  0.00     0.074 A 
ATOM     49  C   UNL A   1      40.235  28.758  30.076  1.00  0.00     0.049 A 
ATOM     50  N   UNL A   1      40.886  30.199  32.639  1.00  0.00    -0.248 NA
ATOM     51  C   UNL A   1      38.908  31.415  32.407  1.00  0.00     0.031 C 
ATOM     52  C   UNL A   1      39.990  28.065  28.808  1.00  0.00     0.029 A 
ATOM     53  N   UNL A   1      41.436  28.251  30.503  1.00  0.00    -0.354 N 
ATOM     54  C   UNL A   1      40.791  31.126  33.670  1.00  0.00     0.074 A 
ATOM     55  C   UNL A   1      39.586  31.893  33.439  1.00  0.00     0.031 C 
ATOM     56  C   UNL A   1      40.994  27.205  28.575  1.00  0.00     0.029 A 
ATOM     57  C   UNL A   1      41.976  27.317  29.649  1.00  0.00     0.049 A 
ATOM     58  H   UNL A   1      41.871  28.528  31.342  1.00  0.00     0.167 HD
ATOM     59  C   UNL A   1      41.622  31.311  34.724  1.00  0.00     0.031 A 
ATOM     60  C   UNL A   1      43.135  26.636  29.714  1.00  0.00     0.031 A 
ATOM     61  C   UNL A   1      42.815  30.538  34.945  1.00  0.00     0.049 A 
ATOM     62  C   UNL A   1      44.036  26.846  30.898  1.00  0.00     0.074 A 
ATOM     63  C   UNL A   1      43.684  30.589  36.020  1.00  0.00     0.029 A 
ATOM     64  N   UNL A   1      43.315  29.583  34.071  1.00  0.00    -0.354 N 
ATOM     65  N   UNL A   1      43.880  27.657  31.917  1.00  0.00    -0.248 NA
ATOM     66  C   UNL A   1      45.261  26.037  30.951  1.00  0.00     0.031 C 
ATOM     67  C   UNL A   1      44.747  29.716  35.762  1.00  0.00     0.029 A 
ATOM     68  C   UNL A   1      44.501  29.065  34.563  1.00  0.00     0.049 A 
ATOM     69  H   UNL A   1      42.889  29.313  33.225  1.00  0.00     0.167 HD
ATOM     70  C   UNL A   1      44.979  27.444  32.744  1.00  0.00     0.074 A 
ATOM     71  C   UNL A   1      45.778  26.412  32.114  1.00  0.00     0.031 C 
ATOM     72  C   UNL A   1      45.294  28.048  33.917  1.00  0.00     0.031 A 
BRANCH  59  73
ATOM     73  C   UNL A   1      41.279  32.410  35.697  1.00  0.00    -0.014 A 
ATOM     74  C   UNL A   1      40.469  32.171  36.823  1.00  0.00     0.010 A 
ATOM     75  C   UNL A   1      41.796  33.703  35.494  1.00  0.00     0.010 A 
ATOM     76  C   UNL A   1      40.135  33.214  37.692  1.00  0.00     0.020 A 
ATOM     77  C   UNL A   1      41.493  34.741  36.379  1.00  0.00     0.020 A 
ATOM     78  C   UNL A   1      40.646  34.494  37.462  1.00  0.00     0.054 A 
BRANCH  78  79
ATOM     79  S   UNL A   1      40.200  35.828  38.608  1.00  0.00     0.124 S 
ATOM     80  O   UNL A   1      39.756  36.876  37.691  1.00  0.00    -0.237 OA
ATOM     81  O   UNL A   1      39.150  35.216  39.417  1.00  0.00    -0.237 OA
ATOM     82  O   UNL A   1      41.445  36.109  39.317  1.00  0.00    -0.744 OA
ENDBRANCH  78  79
ENDBRANCH  59  73
BRANCH  60  83
ATOM     83  C   UNL A   1      43.492  25.690  28.621  1.00  0.00    -0.014 A 
ATOM     84  C   UNL A   1      44.108  26.148  27.444  1.00  0.00     0.010 A 
ATOM     85  C   UNL A   1      43.263  24.310  28.780  1.00  0.00     0.010 A 
ATOM     86  C   UNL A   1      44.485  25.244  26.445  1.00  0.00     0.020 A 
ATOM     87  C   UNL A   1      43.665  23.401  27.797  1.00  0.00     0.020 A 
ATOM     88  C   UNL A   1      44.268  23.876  26.631  1.00  0.00     0.054 A 
BRANCH  88  89
ATOM     89  S   UNL A   1      44.837  22.718  25.354  1.00  0.00     0.124 S 
ATOM     90  O   UNL A   1      44.912  23.577  24.177  1.00  0.00    -0.237 OA
ATOM     91  O   UNL A   1      46.117  22.264  25.890  1.00  0.00    -0.237 OA
ATOM     92  O   UNL A   1      43.788  21.701  25.322  1.00  0.00    -0.744 OA
ENDBRANCH  88  89
ENDBRANCH  60  83
BRANCH  72  93
ATOM     93  C   UNL A   1      46.550  27.593  34.613  1.00  0.00    -0.014 A 
ATOM     94  C   UNL A   1      47.784  28.230  34.389  1.00  0.00     0.010 A 
ATOM     95  C   UNL A   1      46.482  26.544  35.550  1.00  0.00     0.010 A 
ATOM     96  C   UNL A   1      48.931  27.804  35.063  1.00  0.00     0.020 A 
ATOM     97  C   UNL A   1      47.619  26.138  36.250  1.00  0.00     0.020 A 
ATOM     98  C   UNL A   1      48.842  26.761  35.990  1.00  0.00     0.054 A 
BRANCH  98  99
ATOM     99  S   UNL A   1      50.338  26.254  36.881  1.00  0.00     0.124 S 
ATOM    100  O   UNL A   1      50.847  27.531  37.372  1.00  0.00    -0.237 OA
ATOM    101  O   UNL A   1      49.812  25.352  37.903  1.00  0.00    -0.237 OA
ATOM    102  O   UNL A   1      51.154  25.612  35.852  1.00  0.00    -0.744 OA
ENDBRANCH  98  99
ENDBRANCH  72  93
ENDBRANCH  46  47
ENDBRANCH  38  41
ENDBRANCH  36  37
ENDBRANCH  35  36
ENDBRANCH   1  35
TORSDOF 19
ENDMDL
MODEL 3
REMARK VINA RESULT:     -11.5      2.248      8.305
REMARK SMILES CC(C)[C@H](NC(=O)[C@H](Cc1ccccc1)n1c(=O)[nH]c2ccccc2c1=O)C(=O)NCCCNC(=O)c1ccc(-c2c3nc(c(-c4ccc(S(=O)(=O)[O-])cc4)c4ccc([nH]4)c(-c4ccc(S(=O)(=O)[O-])cc4)c4nc(c(-c5ccc(S(=O)(=O)[O-])cc5)c5ccc2[nH]5)C=C4)C=C3)cc1
REMARK SMILES IDX 31 1 30 2 28 3 29 4 4 6 2 7 1 8 3 9 5 10 6 11 7 13 8 14
REMARK SMILES IDX 16 15 17 16 26 17 18 18 19 19 25 20 27 21 20 22 24 24 21 25
REMARK SMILES IDX 23 26 22 27 9 28 10 29 11 30 15 31 12 32 14 33 13 34 32 35
REMARK SMILES IDX 33 36 34 37 35 38 36 40 37 41 38 42 96 43 39 44 95 45 40 46
REMARK SMILES IDX 41 47 42 48 89 49 43 50 94 51 88 52 90 53 44 54 93 55 87 56
REMARK SMILES IDX 86 57 45 59 75 60 56 61 74 62 57 63 60 64 73 65 91 66 58 67
REMARK SMILES IDX 59 68 72 70 92 71 61 72 46 73 47 74 55 75 48 76 54 77 49 78
REMARK SMILES IDX 50 79 51 80 52 81 53 82 76 83 77 84 85 85 78 86 84 87 79 88
REMARK SMILES IDX 80 89 81 90 82 91 83 92 62 93 63 94 71 95 64 96 70 97 65 98
REMARK SMILES IDX 66 99 67 100 68 101 69 102
REMARK H PARENT 30 5 5 12 19 23 34 39 90 58 60 69
REMARK Flexibility Score: inf
ROOT
ATOM      1  C   UNL A   1      32.919  29.776  25.868  1.00  0.00     0.117 C 
ENDROOT
BRANCH   1   2
ATOM      2  N   UNL A   1      31.808  29.686  24.950  1.00  0.00    -0.354 N 
ATOM      3  C   UNL A   1      31.438  28.666  24.132  1.00  0.00     0.242 C 
ATOM      4  O   UNL A   1      30.460  28.859  23.402  1.00  0.00    -0.273 OA
ATOM      5  H   UNL A   1      31.231  30.483  24.911  1.00  0.00     0.163 HD
BRANCH   3   6
ATOM      6  C   UNL A   1      32.087  27.258  24.205  1.00  0.00     0.173 C 
BRANCH   6   7
ATOM      7  C   UNL A   1      32.615  26.739  22.875  1.00  0.00     0.015 C 
ATOM      8  C   UNL A   1      31.587  26.347  21.808  1.00  0.00     0.010 C 
ATOM      9  C   UNL A   1      33.618  27.743  22.298  1.00  0.00     0.010 C 
ENDBRANCH   6   7
BRANCH   6  10
ATOM     10  N   UNL A   1      31.269  26.296  24.972  1.00  0.00    -0.342 N 
ATOM     11  C   UNL A   1      31.236  25.020  25.400  1.00  0.00     0.244 C 
ATOM     12  H   UNL A   1      30.453  26.752  25.282  1.00  0.00     0.164 HD
ATOM     13  O   UNL A   1      30.048  24.654  25.494  1.00  0.00    -0.273 OA
BRANCH  11  14
ATOM     14  C   UNL A   1      32.362  23.926  25.614  1.00  0.00     0.189 C 
BRANCH  14  15
ATOM     15  N   UNL A   1      32.446  22.546  25.009  1.00  0.00    -0.247 N 
ATOM     16  C   UNL A   1      32.259  22.339  23.653  1.00  0.00     0.329 A 
ATOM     17  C   UNL A   1      32.928  21.500  25.817  1.00  0.00     0.264 A 
ATOM     18  O   UNL A   1      32.032  23.185  22.803  1.00  0.00    -0.248 OA
ATOM     19  N   UNL A   1      32.357  21.071  23.171  1.00  0.00    -0.307 N 
ATOM     20  C   UNL A   1      32.795  20.114  25.299  1.00  0.00     0.064 A 
ATOM     21  O   UNL A   1      33.402  21.650  26.941  1.00  0.00    -0.268 OA
ATOM     22  C   UNL A   1      32.538  19.949  23.950  1.00  0.00     0.055 A 
ATOM     23  H   UNL A   1      32.292  20.946  22.197  1.00  0.00     0.171 HD
ATOM     24  C   UNL A   1      32.853  18.991  26.127  1.00  0.00     0.016 A 
ATOM     25  C   UNL A   1      32.398  18.681  23.386  1.00  0.00     0.027 A 
ATOM     26  C   UNL A   1      32.655  17.716  25.583  1.00  0.00     0.001 A 
ATOM     27  C   UNL A   1      32.443  17.562  24.212  1.00  0.00     0.002 A 
ENDBRANCH  14  15
BRANCH  14  28
ATOM     28  C   UNL A   1      33.742  24.686  25.600  1.00  0.00     0.071 C 
BRANCH  28  29
ATOM     29  C   UNL A   1      35.030  23.972  25.195  1.00  0.00    -0.045 A 
ATOM     30  C   UNL A   1      35.262  23.749  23.830  1.00  0.00     0.004 A 
ATOM     31  C   UNL A   1      36.013  23.540  26.101  1.00  0.00     0.004 A 
ATOM     32  C   UNL A   1      36.453  23.161  23.393  1.00  0.00     0.000 A 
ATOM     33  C   UNL A   1      37.211  22.975  25.666  1.00  0.00     0.000 A 
ATOM     34  C   UNL A   1      37.434  22.791  24.309  1.00  0.00     0.000 A 
ENDBRANCH  28  29
ENDBRANCH  14  28
ENDBRANCH  11  14
ENDBRANCH   6  10
ENDBRANCH   3   6
ENDBRANCH   1   2
BRANCH   1  35
ATOM     35  C   UNL A   1      32.578  30.659  27.063  1.00  0.00     0.042 C 
BRANCH  35  36
ATOM     36  C   UNL A   1      33.675  31.658  27.403  1.00  0.00     0.118 C 
BRANCH  36  37
ATOM     37  N   UNL A   1      33.138  32.953  27.796  1.00  0.00    -0.352 N 
ATOM     38  C   UNL A   1      33.531  33.792  28.808  1.00  0.00     0.251 C 
ATOM     39  H   UNL A   1      32.382  33.275  27.255  1.00  0.00     0.163 HD
ATOM     40  O   UNL A   1      32.821  34.746  29.113  1.00  0.00    -0.269 OA
BRANCH  38  41
ATOM     41  C   UNL A   1      34.791  33.537  29.533  1.00  0.00     0.039 A 
ATOM     42  C   UNL A   1      34.786  32.635  30.598  1.00  0.00     0.014 A 
ATOM     43  C   UNL A   1      35.972  34.193  29.173  1.00  0.00     0.014 A 
ATOM     44  C   UNL A   1      35.976  32.350  31.268  1.00  0.00     0.010 A 
ATOM     45  C   UNL A   1      37.172  33.839  29.778  1.00  0.00     0.010 A 
ATOM     46  C   UNL A   1      37.184  32.926  30.840  1.00  0.00    -0.014 A 
BRANCH  46  47
ATOM     47  C   UNL A   1      38.470  32.580  31.495  1.00  0.00     0.031 A 
ATOM     48  C   UNL A   1      39.395  31.574  30.867  1.00  0.00     0.074 A 
ATOM     49  C   UNL A   1      38.770  33.126  32.690  1.00  0.00     0.049 A 
ATOM     50  N   UNL A   1      40.541  31.121  31.307  1.00  0.00    -0.248 NA
ATOM     51  C   UNL A   1      38.962  30.972  29.594  1.00  0.00     0.031 C 
ATOM     52  C   UNL A   1      37.922  34.066  33.428  1.00  0.00     0.029 A 
ATOM     53  N   UNL A   1      39.866  32.963  33.499  1.00  0.00    -0.354 N 
ATOM     54  C   UNL A   1      40.952  30.168  30.381  1.00  0.00     0.074 A 
ATOM     55  C   UNL A   1      39.908  30.070  29.385  1.00  0.00     0.031 C 
ATOM     56  C   UNL A   1      38.540  34.417  34.566  1.00  0.00     0.029 A 
ATOM     57  C   UNL A   1      39.804  33.694  34.663  1.00  0.00     0.049 A 
ATOM     58  H   UNL A   1      40.624  32.380  33.269  1.00  0.00     0.167 HD
ATOM     59  C   UNL A   1      42.101  29.452  30.355  1.00  0.00     0.031 A 
ATOM     60  C   UNL A   1      40.661  33.766  35.699  1.00  0.00     0.031 A 
ATOM     61  C   UNL A   1      43.134  29.562  31.351  1.00  0.00     0.049 A 
ATOM     62  C   UNL A   1      41.937  32.974  35.644  1.00  0.00     0.074 A 
ATOM     63  C   UNL A   1      44.371  28.944  31.378  1.00  0.00     0.029 A 
ATOM     64  N   UNL A   1      43.047  30.333  32.502  1.00  0.00    -0.354 N 
ATOM     65  N   UNL A   1      42.355  32.151  34.711  1.00  0.00    -0.248 NA
ATOM     66  C   UNL A   1      42.865  33.131  36.772  1.00  0.00     0.031 C 
ATOM     67  C   UNL A   1      45.001  29.284  32.580  1.00  0.00     0.029 A 
ATOM     68  C   UNL A   1      44.191  30.175  33.266  1.00  0.00     0.049 A 
ATOM     69  H   UNL A   1      42.284  30.908  32.741  1.00  0.00     0.167 HD
ATOM     70  C   UNL A   1      43.605  31.706  35.131  1.00  0.00     0.074 A 
ATOM     71  C   UNL A   1      43.880  32.369  36.390  1.00  0.00     0.031 C 
ATOM     72  C   UNL A   1      44.445  30.830  34.526  1.00  0.00     0.031 A 
BRANCH  59  73
ATOM     73  C   UNL A   1      42.284  28.468  29.228  1.00  0.00    -0.014 A 
ATOM     74  C   UNL A   1      41.808  27.146  29.320  1.00  0.00     0.010 A 
ATOM     75  C   UNL A   1      42.925  28.879  28.045  1.00  0.00     0.010 A 
ATOM     76  C   UNL A   1      42.021  26.241  28.276  1.00  0.00     0.020 A 
ATOM     77  C   UNL A   1      43.110  27.987  26.985  1.00  0.00     0.020 A 
ATOM     78  C   UNL A   1      42.676  26.666  27.117  1.00  0.00     0.054 A 
BRANCH  78  79
ATOM     79  S   UNL A   1      42.935  25.472  25.776  1.00  0.00     0.124 S 
ATOM     80  O   UNL A   1      42.936  24.202  26.501  1.00  0.00    -0.237 OA
ATOM     81  O   UNL A   1      41.778  25.702  24.916  1.00  0.00    -0.237 OA
ATOM     82  O   UNL A   1      44.221  25.862  25.206  1.00  0.00    -0.744 OA
ENDBRANCH  78  79
ENDBRANCH  59  73
BRANCH  60  83
ATOM     83  C   UNL A   1      40.330  34.631  36.865  1.00  0.00    -0.014 A 
ATOM     84  C   UNL A   1      40.744  35.973  36.908  1.00  0.00     0.010 A 
ATOM     85  C   UNL A   1      39.547  34.123  37.920  1.00  0.00     0.010 A 
ATOM     86  C   UNL A   1      40.385  36.790  37.986  1.00  0.00     0.020 A 
ATOM     87  C   UNL A   1      39.162  34.944  38.983  1.00  0.00     0.020 A 
ATOM     88  C   UNL A   1      39.589  36.273  39.012  1.00  0.00     0.054 A 
BRANCH  88  89
ATOM     89  S   UNL A   1      39.073  37.375  40.358  1.00  0.00     0.124 S 
ATOM     90  O   UNL A   1      40.353  37.866  40.857  1.00  0.00    -0.237 OA
ATOM     91  O   UNL A   1      38.245  38.356  39.661  1.00  0.00    -0.237 OA
ATOM     92  O   UNL A   1      38.344  36.490  41.266  1.00  0.00    -0.744 OA
ENDBRANCH  88  89
ENDBRANCH  60  83
BRANCH  72  93
ATOM     93  C   UNL A   1      45.759  30.550  35.207  1.00  0.00    -0.014 A 
ATOM     94  C   UNL A   1      46.893  31.347  34.968  1.00  0.00     0.010 A 
ATOM     95  C   UNL A   1      45.844  29.503  36.145  1.00  0.00     0.010 A 
ATOM     96  C   UNL A   1      48.096  31.080  35.628  1.00  0.00     0.020 A 
ATOM     97  C   UNL A   1      47.034  29.255  36.832  1.00  0.00     0.020 A 
ATOM     98  C   UNL A   1      48.158  30.036  36.557  1.00  0.00     0.054 A 
BRANCH  98  99
ATOM     99  S   UNL A   1      49.719  29.738  37.430  1.00  0.00     0.124 S 
ATOM    100  O   UNL A   1      49.463  30.349  38.731  1.00  0.00    -0.237 OA
ATOM    101  O   UNL A   1      49.814  28.280  37.427  1.00  0.00    -0.237 OA
ATOM    102  O   UNL A   1      50.715  30.422  36.606  1.00  0.00    -0.744 OA
ENDBRANCH  98  99
ENDBRANCH  72  93
ENDBRANCH  46  47
ENDBRANCH  38  41
ENDBRANCH  36  37
ENDBRANCH  35  36
ENDBRANCH   1  35
TORSDOF 19
ENDMDL
