MODEL 1
REMARK VINA RESULT:     -11.5      0.000      0.000
REMARK SMILES Nc1ccc(N2CC3(CCC3)C2)c(C(=O)NCCCNC(=O)c2ccc(-c3c4nc(c(-c5ccc(S(=O)(=O)[O-])cc5)c5ccc([nH]5)c(-c5ccc(S(=O)(=O)[O-])cc5)c5nc(c(-c6ccc(S(=O)(=O)[O-])cc6)c6ccc3[nH]6)C=C5)C=C4)cc2)c1
REMARK SMILES IDX 19 1 18 2 17 3 16 4 14 5 15 6 13 8 2 9 3 10 83 11 4 12 5 13
REMARK SMILES IDX 1 14 6 17 7 18 12 19 8 20 9 21 11 22 10 23 20 24 21 25 22 27
REMARK SMILES IDX 23 28 24 29 82 30 25 31 81 32 26 33 27 34 28 35 75 36 29 37
REMARK SMILES IDX 80 38 74 39 76 40 30 41 79 42 73 43 72 44 31 46 61 47 42 48
REMARK SMILES IDX 60 49 43 50 46 51 59 52 77 53 44 54 45 55 58 57 78 58 47 59
REMARK SMILES IDX 32 60 33 61 41 62 34 63 40 64 35 65 36 66 37 67 38 68 39 69
REMARK SMILES IDX 62 70 63 71 71 72 64 73 70 74 65 75 66 76 67 77 68 78 69 79
REMARK SMILES IDX 48 80 49 81 57 82 50 83 56 84 51 85 52 86 53 87 54 88 55 89
REMARK H PARENT 16 7 1 15 1 16 20 26 76 45 46 56
REMARK Flexibility Score: inf
ROOT
ATOM      1  C   UNL A   1      33.537  28.426  27.184  1.00  0.00     0.118 C 
ENDROOT
BRANCH   1   2
ATOM      2  C   UNL A   1      33.848  28.155  25.712  1.00  0.00     0.042 C 
BRANCH   2   3
ATOM      3  C   UNL A   1      33.389  29.286  24.792  1.00  0.00     0.118 C 
BRANCH   3   4
ATOM      4  N   UNL A   1      33.769  29.000  23.426  1.00  0.00    -0.352 N 
ATOM      5  C   UNL A   1      33.446  28.057  22.484  1.00  0.00     0.253 C 
ATOM      6  O   UNL A   1      34.133  28.166  21.471  1.00  0.00    -0.269 OA
ATOM      7  H   UNL A   1      34.427  29.648  23.085  1.00  0.00     0.163 HD
BRANCH   5   8
ATOM      8  C   UNL A   1      32.337  27.048  22.609  1.00  0.00     0.065 A 
ATOM      9  C   UNL A   1      31.729  24.682  22.896  1.00  0.00     0.032 A 
ATOM     10  C   UNL A   1      30.463  25.063  23.314  1.00  0.00     0.027 A 
ATOM     11  C   UNL A   1      32.621  25.676  22.485  1.00  0.00     0.041 A 
ATOM     12  C   UNL A   1      30.111  26.414  23.335  1.00  0.00     0.029 A 
ATOM     13  C   UNL A   1      31.019  27.427  22.965  1.00  0.00     0.050 A 
BRANCH   9  14
ATOM     14  N   UNL A   1      32.076  23.347  22.813  1.00  0.00    -0.399 N 
ATOM     15  H   UNL A   1      31.375  22.656  22.794  1.00  0.00     0.156 HD
ATOM     16  H   UNL A   1      33.025  23.086  22.773  1.00  0.00     0.156 HD
ENDBRANCH   9  14
BRANCH  13  17
ATOM     17  N   UNL A   1      30.506  28.734  22.970  1.00  0.00    -0.370 N 
ATOM     18  C   UNL A   1      29.986  29.528  21.896  1.00  0.00     0.125 C 
ATOM     19  C   UNL A   1      30.082  29.632  24.003  1.00  0.00     0.125 C 
ATOM     20  C   UNL A   1      29.211  30.262  22.950  1.00  0.00     0.005 C 
ATOM     21  C   UNL A   1      29.043  31.758  22.931  1.00  0.00     0.011 C 
ATOM     22  C   UNL A   1      27.708  30.069  22.999  1.00  0.00     0.011 C 
ATOM     23  C   UNL A   1      27.638  31.513  23.549  1.00  0.00     0.001 C 
ENDBRANCH  13  17
ENDBRANCH   5   8
ENDBRANCH   3   4
ENDBRANCH   2   3
ENDBRANCH   1   2
BRANCH   1  24
ATOM     24  N   UNL A   1      33.462  29.854  27.470  1.00  0.00    -0.352 N 
ATOM     25  C   UNL A   1      34.350  30.660  28.140  1.00  0.00     0.251 C 
ATOM     26  H   UNL A   1      32.656  30.307  27.134  1.00  0.00     0.163 HD
ATOM     27  O   UNL A   1      34.004  31.773  28.515  1.00  0.00    -0.269 OA
BRANCH  25  28
ATOM     28  C   UNL A   1      35.719  30.172  28.408  1.00  0.00     0.039 A 
ATOM     29  C   UNL A   1      36.674  30.220  27.389  1.00  0.00     0.014 A 
ATOM     30  C   UNL A   1      36.051  29.660  29.664  1.00  0.00     0.014 A 
ATOM     31  C   UNL A   1      37.984  29.818  27.655  1.00  0.00     0.010 A 
ATOM     32  C   UNL A   1      37.372  29.332  29.948  1.00  0.00     0.010 A 
ATOM     33  C   UNL A   1      38.352  29.408  28.947  1.00  0.00    -0.014 A 
BRANCH  33  34
ATOM     34  C   UNL A   1      39.755  29.063  29.289  1.00  0.00     0.031 A 
ATOM     35  C   UNL A   1      40.657  30.103  29.896  1.00  0.00     0.074 A 
ATOM     36  C   UNL A   1      40.240  27.849  28.963  1.00  0.00     0.049 A 
ATOM     37  N   UNL A   1      41.939  30.037  30.146  1.00  0.00    -0.248 NA
ATOM     38  C   UNL A   1      40.042  31.397  30.240  1.00  0.00     0.031 C 
ATOM     39  C   UNL A   1      39.472  26.767  28.343  1.00  0.00     0.029 A 
ATOM     40  N   UNL A   1      41.502  27.325  29.092  1.00  0.00    -0.354 N 
ATOM     41  C   UNL A   1      42.289  31.283  30.654  1.00  0.00     0.074 A 
ATOM     42  C   UNL A   1      41.095  32.099  30.634  1.00  0.00     0.031 C 
ATOM     43  C   UNL A   1      40.272  25.705  28.160  1.00  0.00     0.029 A 
ATOM     44  C   UNL A   1      41.622  26.045  28.600  1.00  0.00     0.049 A 
ATOM     45  H   UNL A   1      42.252  27.818  29.497  1.00  0.00     0.167 HD
ATOM     46  C   UNL A   1      43.492  31.703  31.110  1.00  0.00     0.031 A 
ATOM     47  C   UNL A   1      42.699  25.243  28.495  1.00  0.00     0.031 A 
ATOM     48  C   UNL A   1      44.673  30.882  31.132  1.00  0.00     0.049 A 
ATOM     49  C   UNL A   1      44.033  25.742  28.982  1.00  0.00     0.074 A 
ATOM     50  C   UNL A   1      45.928  31.195  31.623  1.00  0.00     0.029 A 
ATOM     51  N   UNL A   1      44.749  29.588  30.638  1.00  0.00    -0.354 N 
ATOM     52  N   UNL A   1      44.331  26.903  29.518  1.00  0.00    -0.248 NA
ATOM     53  C   UNL A   1      45.173  24.824  28.859  1.00  0.00     0.031 C 
ATOM     54  C   UNL A   1      46.777  30.114  31.371  1.00  0.00     0.029 A 
ATOM     55  C   UNL A   1      46.035  29.100  30.787  1.00  0.00     0.049 A 
ATOM     56  H   UNL A   1      43.998  29.091  30.241  1.00  0.00     0.167 HD
ATOM     57  C   UNL A   1      45.685  26.840  29.825  1.00  0.00     0.074 A 
ATOM     58  C   UNL A   1      46.146  25.526  29.426  1.00  0.00     0.031 C 
ATOM     59  C   UNL A   1      46.476  27.785  30.392  1.00  0.00     0.031 A 
BRANCH  46  60
ATOM     60  C   UNL A   1      43.595  33.121  31.611  1.00  0.00    -0.014 A 
ATOM     61  C   UNL A   1      43.344  33.439  32.958  1.00  0.00     0.010 A 
ATOM     62  C   UNL A   1      43.994  34.145  30.732  1.00  0.00     0.010 A 
ATOM     63  C   UNL A   1      43.447  34.758  33.406  1.00  0.00     0.020 A 
ATOM     64  C   UNL A   1      44.130  35.461  31.183  1.00  0.00     0.020 A 
ATOM     65  C   UNL A   1      43.838  35.761  32.515  1.00  0.00     0.054 A 
BRANCH  65  66
ATOM     66  S   UNL A   1      43.988  37.461  33.133  1.00  0.00     0.124 S 
ATOM     67  O   UNL A   1      42.856  37.546  34.053  1.00  0.00    -0.237 OA
ATOM     68  O   UNL A   1      45.307  37.458  33.760  1.00  0.00    -0.237 OA
ATOM     69  O   UNL A   1      43.874  38.280  31.930  1.00  0.00    -0.744 OA
ENDBRANCH  65  66
ENDBRANCH  46  60
BRANCH  47  70
ATOM     70  C   UNL A   1      42.559  23.882  27.906  1.00  0.00    -0.014 A 
ATOM     71  C   UNL A   1      42.797  23.668  26.537  1.00  0.00     0.010 A 
ATOM     72  C   UNL A   1      42.203  22.787  28.715  1.00  0.00     0.010 A 
ATOM     73  C   UNL A   1      42.663  22.391  25.985  1.00  0.00     0.020 A 
ATOM     74  C   UNL A   1      42.098  21.503  28.173  1.00  0.00     0.020 A 
ATOM     75  C   UNL A   1      42.317  21.315  26.808  1.00  0.00     0.054 A 
BRANCH  75  76
ATOM     76  S   UNL A   1      42.200  19.659  26.077  1.00  0.00     0.124 S 
ATOM     77  O   UNL A   1      42.661  18.810  27.172  1.00  0.00    -0.237 OA
ATOM     78  O   UNL A   1      40.779  19.558  25.753  1.00  0.00    -0.237 OA
ATOM     79  O   UNL A   1      43.091  19.731  24.921  1.00  0.00    -0.744 OA
ENDBRANCH  75  76
ENDBRANCH  47  70
BRANCH  59  80
ATOM     80  C   UNL A   1      47.913  27.427  30.663  1.00  0.00    -0.014 A 
ATOM     81  C   UNL A   1      48.297  26.798  31.860  1.00  0.00     0.010 A 
ATOM     82  C   UNL A   1      48.877  27.647  29.663  1.00  0.00     0.010 A 
ATOM     83  C   UNL A   1      49.626  26.407  32.055  1.00  0.00     0.020 A 
ATOM     84  C   UNL A   1      50.198  27.232  29.842  1.00  0.00     0.020 A 
ATOM     85  C   UNL A   1      50.566  26.621  31.041  1.00  0.00     0.054 A 
BRANCH  85  86
ATOM     86  S   UNL A   1      52.265  26.036  31.291  1.00  0.00     0.124 S 
ATOM     87  O   UNL A   1      52.807  26.089  29.935  1.00  0.00    -0.237 OA
ATOM     88  O   UNL A   1      52.807  27.021  32.223  1.00  0.00    -0.237 OA
ATOM     89  O   UNL A   1      52.093  24.694  31.841  1.00  0.00    -0.744 OA
ENDBRANCH  85  86
ENDBRANCH  59  80
ENDBRANCH  33  34
ENDBRANCH  25  28
ENDBRANCH   1  24
TORSDOF 15
ENDMDL
MODEL 2
REMARK VINA RESULT:     -11.4      1.050      2.734
REMARK SMILES Nc1ccc(N2CC3(CCC3)C2)c(C(=O)NCCCNC(=O)c2ccc(-c3c4nc(c(-c5ccc(S(=O)(=O)[O-])cc5)c5ccc([nH]5)c(-c5ccc(S(=O)(=O)[O-])cc5)c5nc(c(-c6ccc(S(=O)(=O)[O-])cc6)c6ccc3[nH]6)C=C5)C=C4)cc2)c1
REMARK SMILES IDX 19 1 18 2 17 3 16 4 14 5 15 6 13 8 2 9 3 10 83 11 4 12 5 13
REMARK SMILES IDX 1 14 6 17 7 18 12 19 8 20 9 21 11 22 10 23 20 24 21 25 22 27
REMARK SMILES IDX 23 28 24 29 82 30 25 31 81 32 26 33 27 34 28 35 75 36 29 37
REMARK SMILES IDX 80 38 74 39 76 40 30 41 79 42 73 43 72 44 31 46 61 47 42 48
REMARK SMILES IDX 60 49 43 50 46 51 59 52 77 53 44 54 45 55 58 57 78 58 47 59
REMARK SMILES IDX 32 60 33 61 41 62 34 63 40 64 35 65 36 66 37 67 38 68 39 69
REMARK SMILES IDX 62 70 63 71 71 72 64 73 70 74 65 75 66 76 67 77 68 78 69 79
REMARK SMILES IDX 48 80 49 81 57 82 50 83 56 84 51 85 52 86 53 87 54 88 55 89
REMARK H PARENT 16 7 1 15 1 16 20 26 76 45 46 56
REMARK Flexibility Score: inf
ROOT
ATOM      1  C   UNL A   1      33.643  28.367  27.198  1.00  0.00     0.118 C 
ENDROOT
BRANCH   1   2
ATOM      2  C   UNL A   1      33.698  28.089  25.695  1.00  0.00     0.042 C 
BRANCH   2   3
ATOM      3  C   UNL A   1      34.018  26.629  25.376  1.00  0.00     0.118 C 
BRANCH   3   4
ATOM      4  N   UNL A   1      34.011  26.421  23.944  1.00  0.00    -0.352 N 
ATOM      5  C   UNL A   1      33.114  26.597  22.921  1.00  0.00     0.253 C 
ATOM      6  O   UNL A   1      33.542  26.163  21.855  1.00  0.00    -0.269 OA
ATOM      7  H   UNL A   1      34.869  26.063  23.621  1.00  0.00     0.163 HD
BRANCH   5   8
ATOM      8  C   UNL A   1      31.790  27.303  23.038  1.00  0.00     0.065 A 
ATOM      9  C   UNL A   1      30.401  29.206  22.333  1.00  0.00     0.032 A 
ATOM     10  C   UNL A   1      29.267  28.527  22.749  1.00  0.00     0.027 A 
ATOM     11  C   UNL A   1      31.648  28.613  22.547  1.00  0.00     0.041 A 
ATOM     12  C   UNL A   1      29.385  27.273  23.351  1.00  0.00     0.029 A 
ATOM     13  C   UNL A   1      30.635  26.646  23.531  1.00  0.00     0.050 A 
BRANCH   9  14
ATOM     14  N   UNL A   1      30.309  30.473  21.789  1.00  0.00    -0.399 N 
ATOM     15  H   UNL A   1      30.283  30.590  20.812  1.00  0.00     0.156 HD
ATOM     16  H   UNL A   1      30.271  31.261  22.380  1.00  0.00     0.156 HD
ENDBRANCH   9  14
BRANCH  13  17
ATOM     17  N   UNL A   1      30.607  25.418  24.210  1.00  0.00    -0.370 N 
ATOM     18  C   UNL A   1      30.678  24.079  23.703  1.00  0.00     0.125 C 
ATOM     19  C   UNL A   1      30.756  25.037  25.584  1.00  0.00     0.125 C 
ATOM     20  C   UNL A   1      31.213  23.705  25.054  1.00  0.00     0.005 C 
ATOM     21  C   UNL A   1      30.795  22.446  25.765  1.00  0.00     0.011 C 
ATOM     22  C   UNL A   1      32.673  23.309  25.161  1.00  0.00     0.011 C 
ATOM     23  C   UNL A   1      32.239  22.401  26.335  1.00  0.00     0.001 C 
ENDBRANCH  13  17
ENDBRANCH   5   8
ENDBRANCH   3   4
ENDBRANCH   2   3
ENDBRANCH   1   2
BRANCH   1  24
ATOM     24  N   UNL A   1      33.590  29.796  27.484  1.00  0.00    -0.352 N 
ATOM     25  C   UNL A   1      34.500  30.592  28.136  1.00  0.00     0.251 C 
ATOM     26  H   UNL A   1      32.783  30.259  27.163  1.00  0.00     0.163 HD
ATOM     27  O   UNL A   1      34.174  31.710  28.517  1.00  0.00    -0.269 OA
BRANCH  25  28
ATOM     28  C   UNL A   1      35.868  30.089  28.378  1.00  0.00     0.039 A 
ATOM     29  C   UNL A   1      36.800  30.114  27.338  1.00  0.00     0.014 A 
ATOM     30  C   UNL A   1      36.221  29.585  29.632  1.00  0.00     0.014 A 
ATOM     31  C   UNL A   1      38.111  29.698  27.578  1.00  0.00     0.010 A 
ATOM     32  C   UNL A   1      37.544  29.242  29.888  1.00  0.00     0.010 A 
ATOM     33  C   UNL A   1      38.503  29.296  28.866  1.00  0.00    -0.014 A 
BRANCH  33  34
ATOM     34  C   UNL A   1      39.908  28.935  29.179  1.00  0.00     0.031 A 
ATOM     35  C   UNL A   1      40.839  29.971  29.750  1.00  0.00     0.074 A 
ATOM     36  C   UNL A   1      40.368  27.710  28.860  1.00  0.00     0.049 A 
ATOM     37  N   UNL A   1      42.125  29.890  29.970  1.00  0.00    -0.248 NA
ATOM     38  C   UNL A   1      40.251  31.278  30.089  1.00  0.00     0.031 C 
ATOM     39  C   UNL A   1      39.570  26.630  28.274  1.00  0.00     0.029 A 
ATOM     40  N   UNL A   1      41.626  27.169  28.967  1.00  0.00    -0.354 N 
ATOM     41  C   UNL A   1      42.505  31.138  30.452  1.00  0.00     0.074 A 
ATOM     42  C   UNL A   1      41.323  31.971  30.447  1.00  0.00     0.031 C 
ATOM     43  C   UNL A   1      40.351  25.554  28.089  1.00  0.00     0.029 A 
ATOM     44  C   UNL A   1      41.715  25.881  28.491  1.00  0.00     0.049 A 
ATOM     45  H   UNL A   1      42.391  27.658  29.347  1.00  0.00     0.167 HD
ATOM     46  C   UNL A   1      43.724  31.548  30.873  1.00  0.00     0.031 A 
ATOM     47  C   UNL A   1      42.778  25.062  28.373  1.00  0.00     0.031 A 
ATOM     48  C   UNL A   1      44.894  30.710  30.879  1.00  0.00     0.049 A 
ATOM     49  C   UNL A   1      44.130  25.549  28.821  1.00  0.00     0.074 A 
ATOM     50  C   UNL A   1      46.164  31.012  31.336  1.00  0.00     0.029 A 
ATOM     51  N   UNL A   1      44.940  29.408  30.402  1.00  0.00    -0.354 N 
ATOM     52  N   UNL A   1      44.458  26.713  29.332  1.00  0.00    -0.248 NA
ATOM     53  C   UNL A   1      45.254  24.613  28.684  1.00  0.00     0.031 C 
ATOM     54  C   UNL A   1      46.992  29.915  31.079  1.00  0.00     0.029 A 
ATOM     55  C   UNL A   1      46.222  28.903  30.529  1.00  0.00     0.049 A 
ATOM     56  H   UNL A   1      44.172  28.916  30.031  1.00  0.00     0.167 HD
ATOM     57  C   UNL A   1      45.818  26.635  29.609  1.00  0.00     0.074 A 
ATOM     58  C   UNL A   1      46.250  25.309  29.218  1.00  0.00     0.031 C 
ATOM     59  C   UNL A   1      46.634  27.577  30.143  1.00  0.00     0.031 A 
BRANCH  46  60
ATOM     60  C   UNL A   1      43.859  32.971  31.350  1.00  0.00    -0.014 A 
ATOM     61  C   UNL A   1      43.672  33.308  32.703  1.00  0.00     0.010 A 
ATOM     62  C   UNL A   1      44.225  33.981  30.441  1.00  0.00     0.010 A 
ATOM     63  C   UNL A   1      43.803  34.632  33.129  1.00  0.00     0.020 A 
ATOM     64  C   UNL A   1      44.390  35.302  30.869  1.00  0.00     0.020 A 
ATOM     65  C   UNL A   1      44.160  35.621  32.208  1.00  0.00     0.054 A 
BRANCH  65  66
ATOM     66  S   UNL A   1      44.349  37.327  32.797  1.00  0.00     0.124 S 
ATOM     67  O   UNL A   1      44.133  38.092  31.571  1.00  0.00    -0.237 OA
ATOM     68  O   UNL A   1      43.293  37.437  33.800  1.00  0.00    -0.237 OA
ATOM     69  O   UNL A   1      45.711  37.365  33.322  1.00  0.00    -0.744 OA
ENDBRANCH  65  66
ENDBRANCH  46  60
BRANCH  47  70
ATOM     70  C   UNL A   1      42.605  23.695  27.807  1.00  0.00    -0.014 A 
ATOM     71  C   UNL A   1      42.261  22.616  28.640  1.00  0.00     0.010 A 
ATOM     72  C   UNL A   1      42.769  23.467  26.428  1.00  0.00     0.010 A 
ATOM     73  C   UNL A   1      42.101  21.333  28.109  1.00  0.00     0.020 A 
ATOM     74  C   UNL A   1      42.580  22.192  25.888  1.00  0.00     0.020 A 
ATOM     75  C   UNL A   1      42.258  21.129  26.734  1.00  0.00     0.054 A 
BRANCH  75  76
ATOM     76  S   UNL A   1      41.996  19.465  26.062  1.00  0.00     0.124 S 
ATOM     77  O   UNL A   1      42.485  18.619  27.146  1.00  0.00    -0.237 OA
ATOM     78  O   UNL A   1      40.551  19.440  25.841  1.00  0.00    -0.237 OA
ATOM     79  O   UNL A   1      42.804  19.456  24.845  1.00  0.00    -0.744 OA
ENDBRANCH  75  76
ENDBRANCH  47  70
BRANCH  59  80
ATOM     80  C   UNL A   1      48.072  27.202  30.385  1.00  0.00    -0.014 A 
ATOM     81  C   UNL A   1      49.068  27.460  29.427  1.00  0.00     0.010 A 
ATOM     82  C   UNL A   1      48.443  26.664  31.632  1.00  0.00     0.010 A 
ATOM     83  C   UNL A   1      50.407  27.172  29.707  1.00  0.00     0.020 A 
ATOM     84  C   UNL A   1      49.782  26.402  31.926  1.00  0.00     0.020 A 
ATOM     85  C   UNL A   1      50.756  26.652  30.958  1.00  0.00     0.054 A 
BRANCH  85  86
ATOM     86  S   UNL A   1      52.509  26.358  31.322  1.00  0.00     0.124 S 
ATOM     87  O   UNL A   1      52.847  27.516  32.146  1.00  0.00    -0.237 OA
ATOM     88  O   UNL A   1      52.479  25.076  32.021  1.00  0.00    -0.237 OA
ATOM     89  O   UNL A   1      53.137  26.328  30.002  1.00  0.00    -0.744 OA
ENDBRANCH  85  86
ENDBRANCH  59  80
ENDBRANCH  33  34
ENDBRANCH  25  28
ENDBRANCH   1  24
TORSDOF 15
ENDMDL
MODEL 3
REMARK VINA RESULT:     -11.3      2.710      3.306
REMARK SMILES Nc1ccc(N2CC3(CCC3)C2)c(C(=O)NCCCNC(=O)c2ccc(-c3c4nc(c(-c5ccc(S(=O)(=O)[O-])cc5)c5ccc([nH]5)c(-c5ccc(S(=O)(=O)[O-])cc5)c5nc(c(-c6ccc(S(=O)(=O)[O-])cc6)c6ccc3[nH]6)C=C5)C=C4)cc2)c1
REMARK SMILES IDX 19 1 18 2 17 3 16 4 14 5 15 6 13 8 2 9 3 10 83 11 4 12 5 13
REMARK SMILES IDX 1 14 6 17 7 18 12 19 8 20 9 21 11 22 10 23 20 24 21 25 22 27
REMARK SMILES IDX 23 28 24 29 82 30 25 31 81 32 26 33 27 34 28 35 75 36 29 37
REMARK SMILES IDX 80 38 74 39 76 40 30 41 79 42 73 43 72 44 31 46 61 47 42 48
REMARK SMILES IDX 60 49 43 50 46 51 59 52 77 53 44 54 45 55 58 57 78 58 47 59
REMARK SMILES IDX 32 60 33 61 41 62 34 63 40 64 35 65 36 66 37 67 38 68 39 69
REMARK SMILES IDX 62 70 63 71 71 72 64 73 70 74 65 75 66 76 67 77 68 78 69 79
REMARK SMILES IDX 48 80 49 81 57 82 50 83 56 84 51 85 52 86 53 87 54 88 55 89
REMARK H PARENT 16 7 1 15 1 16 20 26 76 45 46 56
REMARK Flexibility Score: inf
ROOT
ATOM      1  C   UNL A   1      35.165  29.283  27.630  1.00  0.00     0.118 C 
ENDROOT
BRANCH   1   2
ATOM      2  C   UNL A   1      33.720  28.961  27.245  1.00  0.00     0.042 C 
BRANCH   2   3
ATOM      3  C   UNL A   1      33.179  29.886  26.156  1.00  0.00     0.118 C 
BRANCH   3   4
ATOM      4  N   UNL A   1      33.656  29.458  24.858  1.00  0.00    -0.352 N 
ATOM      5  C   UNL A   1      33.443  28.388  24.028  1.00  0.00     0.253 C 
ATOM      6  O   UNL A   1      34.183  28.412  23.047  1.00  0.00    -0.269 OA
ATOM      7  H   UNL A   1      34.298  30.098  24.474  1.00  0.00     0.163 HD
BRANCH   5   8
ATOM      8  C   UNL A   1      32.384  27.336  24.221  1.00  0.00     0.065 A 
ATOM      9  C   UNL A   1      31.821  25.126  25.144  1.00  0.00     0.032 A 
ATOM     10  C   UNL A   1      30.475  25.452  25.090  1.00  0.00     0.027 A 
ATOM     11  C   UNL A   1      32.749  26.045  24.645  1.00  0.00     0.041 A 
ATOM     12  C   UNL A   1      30.073  26.681  24.563  1.00  0.00     0.029 A 
ATOM     13  C   UNL A   1      31.004  27.633  24.099  1.00  0.00     0.050 A 
BRANCH   9  14
ATOM     14  N   UNL A   1      32.234  23.891  25.607  1.00  0.00    -0.399 N 
ATOM     15  H   UNL A   1      33.118  23.793  26.028  1.00  0.00     0.156 HD
ATOM     16  H   UNL A   1      31.644  23.108  25.515  1.00  0.00     0.156 HD
ENDBRANCH   9  14
BRANCH  13  17
ATOM     17  N   UNL A   1      30.455  28.795  23.534  1.00  0.00    -0.370 N 
ATOM     18  C   UNL A   1      29.743  28.978  22.303  1.00  0.00     0.125 C 
ATOM     19  C   UNL A   1      30.169  30.106  24.037  1.00  0.00     0.125 C 
ATOM     20  C   UNL A   1      29.121  30.175  22.960  1.00  0.00     0.005 C 
ATOM     21  C   UNL A   1      28.901  31.472  22.227  1.00  0.00     0.011 C 
ATOM     22  C   UNL A   1      27.652  30.107  23.330  1.00  0.00     0.011 C 
ATOM     23  C   UNL A   1      27.622  31.635  23.094  1.00  0.00     0.001 C 
ENDBRANCH  13  17
ENDBRANCH   5   8
ENDBRANCH   3   4
ENDBRANCH   2   3
ENDBRANCH   1   2
BRANCH   1  24
ATOM     24  N   UNL A   1      35.234  30.183  28.775  1.00  0.00    -0.352 N 
ATOM     25  C   UNL A   1      36.250  30.372  29.679  1.00  0.00     0.251 C 
ATOM     26  H   UNL A   1      34.434  30.736  28.923  1.00  0.00     0.163 HD
ATOM     27  O   UNL A   1      36.036  30.972  30.726  1.00  0.00    -0.269 OA
BRANCH  25  28
ATOM     28  C   UNL A   1      37.598  29.843  29.383  1.00  0.00     0.039 A 
ATOM     29  C   UNL A   1      38.048  29.821  28.061  1.00  0.00     0.014 A 
ATOM     30  C   UNL A   1      38.408  29.362  30.414  1.00  0.00     0.014 A 
ATOM     31  C   UNL A   1      39.344  29.380  27.782  1.00  0.00     0.010 A 
ATOM     32  C   UNL A   1      39.722  28.995  30.143  1.00  0.00     0.010 A 
ATOM     33  C   UNL A   1      40.203  29.001  28.826  1.00  0.00    -0.014 A 
BRANCH  33  34
ATOM     34  C   UNL A   1      41.615  28.615  28.576  1.00  0.00     0.031 A 
ATOM     35  C   UNL A   1      42.693  29.666  28.585  1.00  0.00     0.074 A 
ATOM     36  C   UNL A   1      41.909  27.343  28.246  1.00  0.00     0.049 A 
ATOM     37  N   UNL A   1      43.956  29.553  28.266  1.00  0.00    -0.248 NA
ATOM     38  C   UNL A   1      42.290  31.028  28.976  1.00  0.00     0.031 C 
ATOM     39  C   UNL A   1      40.947  26.240  28.174  1.00  0.00     0.029 A 
ATOM     40  N   UNL A   1      43.102  26.762  27.892  1.00  0.00    -0.354 N 
ATOM     41  C   UNL A   1      44.493  30.828  28.395  1.00  0.00     0.074 A 
ATOM     42  C   UNL A   1      43.410  31.708  28.776  1.00  0.00     0.031 C 
ATOM     43  C   UNL A   1      41.588  25.117  27.815  1.00  0.00     0.029 A 
ATOM     44  C   UNL A   1      42.994  25.426  27.580  1.00  0.00     0.049 A 
ATOM     45  H   UNL A   1      43.953  27.255  27.863  1.00  0.00     0.167 HD
ATOM     46  C   UNL A   1      45.775  31.228  28.226  1.00  0.00     0.031 A 
ATOM     47  C   UNL A   1      43.918  24.552  27.135  1.00  0.00     0.031 A 
ATOM     48  C   UNL A   1      46.848  30.345  27.853  1.00  0.00     0.049 A 
ATOM     49  C   UNL A   1      45.332  25.025  26.927  1.00  0.00     0.074 A 
ATOM     50  C   UNL A   1      48.192  30.640  27.708  1.00  0.00     0.029 A 
ATOM     51  N   UNL A   1      46.700  28.998  27.560  1.00  0.00    -0.354 N 
ATOM     52  N   UNL A   1      45.835  26.223  27.115  1.00  0.00    -0.248 NA
ATOM     53  C   UNL A   1      46.305  24.031  26.455  1.00  0.00     0.031 C 
ATOM     54  C   UNL A   1      48.846  29.485  27.269  1.00  0.00     0.029 A 
ATOM     55  C   UNL A   1      47.923  28.453  27.209  1.00  0.00     0.049 A 
ATOM     56  H   UNL A   1      45.850  28.501  27.598  1.00  0.00     0.167 HD
ATOM     57  C   UNL A   1      47.188  26.117  26.816  1.00  0.00     0.074 A 
ATOM     58  C   UNL A   1      47.428  24.737  26.445  1.00  0.00     0.031 C 
ATOM     59  C   UNL A   1      48.147  27.075  26.850  1.00  0.00     0.031 A 
BRANCH  46  60
ATOM     60  C   UNL A   1      46.087  32.688  28.431  1.00  0.00    -0.014 A 
ATOM     61  C   UNL A   1      46.435  33.190  29.698  1.00  0.00     0.010 A 
ATOM     62  C   UNL A   1      46.077  33.566  27.331  1.00  0.00     0.010 A 
ATOM     63  C   UNL A   1      46.724  34.545  29.870  1.00  0.00     0.020 A 
ATOM     64  C   UNL A   1      46.397  34.917  27.492  1.00  0.00     0.020 A 
ATOM     65  C   UNL A   1      46.701  35.401  28.766  1.00  0.00     0.054 A 
BRANCH  65  66
ATOM     66  S   UNL A   1      47.106  37.152  29.016  1.00  0.00     0.124 S 
ATOM     67  O   UNL A   1      46.888  37.308  30.452  1.00  0.00    -0.237 OA
ATOM     68  O   UNL A   1      48.499  37.223  28.582  1.00  0.00    -0.237 OA
ATOM     69  O   UNL A   1      46.153  37.855  28.162  1.00  0.00    -0.744 OA
ENDBRANCH  65  66
ENDBRANCH  46  60
BRANCH  47  70
ATOM     70  C   UNL A   1      43.535  23.139  26.860  1.00  0.00    -0.014 A 
ATOM     71  C   UNL A   1      43.864  22.537  25.633  1.00  0.00     0.010 A 
ATOM     72  C   UNL A   1      42.853  22.383  27.830  1.00  0.00     0.010 A 
ATOM     73  C   UNL A   1      43.502  21.211  25.375  1.00  0.00     0.020 A 
ATOM     74  C   UNL A   1      42.516  21.048  27.588  1.00  0.00     0.020 A 
ATOM     75  C   UNL A   1      42.832  20.474  26.356  1.00  0.00     0.054 A 
BRANCH  75  76
ATOM     76  S   UNL A   1      42.419  18.741  26.016  1.00  0.00     0.124 S 
ATOM     77  O   UNL A   1      41.009  18.831  25.649  1.00  0.00    -0.237 OA
ATOM     78  O   UNL A   1      43.336  18.406  24.929  1.00  0.00    -0.237 OA
ATOM     79  O   UNL A   1      42.695  18.068  27.283  1.00  0.00    -0.744 OA
ENDBRANCH  75  76
ENDBRANCH  47  70
BRANCH  59  80
ATOM     80  C   UNL A   1      49.559  26.666  26.524  1.00  0.00    -0.014 A 
ATOM     81  C   UNL A   1      50.395  26.085  27.493  1.00  0.00     0.010 A 
ATOM     82  C   UNL A   1      50.022  26.787  25.201  1.00  0.00     0.010 A 
ATOM     83  C   UNL A   1      51.676  25.645  27.145  1.00  0.00     0.020 A 
ATOM     84  C   UNL A   1      51.289  26.321  24.844  1.00  0.00     0.020 A 
ATOM     85  C   UNL A   1      52.111  25.759  25.821  1.00  0.00     0.054 A 
BRANCH  85  86
ATOM     86  S   UNL A   1      53.748  25.111  25.382  1.00  0.00     0.124 S 
ATOM     87  O   UNL A   1      53.539  23.668  25.474  1.00  0.00    -0.237 OA
ATOM     88  O   UNL A   1      53.946  25.633  24.033  1.00  0.00    -0.237 OA
ATOM     89  O   UNL A   1      54.630  25.678  26.400  1.00  0.00    -0.744 OA
ENDBRANCH  85  86
ENDBRANCH  59  80
ENDBRANCH  33  34
ENDBRANCH  25  28
ENDBRANCH   1  24
TORSDOF 15
ENDMDL
