MODEL 1
REMARK VINA RESULT:     -10.8      0.000      0.000
REMARK SMILES O=C(NCCCNC(=O)c1cccc(N[C@H]2CCCC[C@@H]2O)c1)c1ccc(-c2c3nc(c(-c4ccc(S(=O)(=O)[O-])cc4)c4ccc([nH]4)c(-c4ccc(S(=O)(=O)[O-])cc4)c4nc(c(-c5ccc(S(=O)(=O)[O-])cc5)c5ccc2[nH]5)C=C4)C=C3)cc1
REMARK SMILES IDX 5 1 4 2 3 3 1 4 2 5 24 7 25 8 83 9 26 10 82 11 27 12 28 13
REMARK SMILES IDX 29 14 76 15 30 16 81 17 75 18 77 19 31 20 80 21 74 22 73 23
REMARK SMILES IDX 32 25 62 26 43 27 61 28 44 29 47 30 60 31 78 32 45 33 46 34
REMARK SMILES IDX 59 36 79 37 48 38 33 39 34 40 42 41 35 42 41 43 36 44 37 45
REMARK SMILES IDX 38 46 39 47 40 48 63 49 64 50 72 51 65 52 71 53 66 54 67 55
REMARK SMILES IDX 68 56 69 57 70 58 49 59 50 60 58 61 51 62 57 63 52 64 53 65
REMARK SMILES IDX 54 66 55 67 56 68 6 69 7 70 8 71 9 73 10 74 11 75 23 76
REMARK SMILES IDX 12 77 14 78 13 79 15 80 16 82 17 83 21 84 18 85 20 86 19 87
REMARK SMILES IDX 22 88
REMARK H PARENT 3 6 77 24 47 35 7 72 15 81 22 89
REMARK Flexibility Score: inf
ROOT
ATOM      1  C   UNL A   1      35.222  33.438  27.964  1.00  0.00     0.042 C 
ENDROOT
BRANCH   1   2
ATOM      2  C   UNL A   1      34.613  32.447  28.940  1.00  0.00     0.118 C 
BRANCH   2   3
ATOM      3  N   UNL A   1      33.960  31.324  28.276  1.00  0.00    -0.352 N 
ATOM      4  O   UNL A   1      33.792  29.393  27.132  1.00  0.00    -0.269 OA
ATOM      5  C   UNL A   1      34.482  30.134  27.828  1.00  0.00     0.251 C 
ATOM      6  H   UNL A   1      32.994  31.437  28.124  1.00  0.00     0.163 HD
BRANCH   5   7
ATOM      7  C   UNL A   1      35.873  29.758  28.163  1.00  0.00     0.039 A 
ATOM      8  C   UNL A   1      36.182  29.236  29.418  1.00  0.00     0.014 A 
ATOM      9  C   UNL A   1      36.882  29.914  27.207  1.00  0.00     0.014 A 
ATOM     10  C   UNL A   1      37.508  29.046  29.779  1.00  0.00     0.010 A 
ATOM     11  C   UNL A   1      38.207  29.609  27.535  1.00  0.00     0.010 A 
ATOM     12  C   UNL A   1      38.537  29.203  28.836  1.00  0.00    -0.014 A 
BRANCH  12  13
ATOM     13  C   UNL A   1      39.921  28.847  29.237  1.00  0.00     0.031 A 
ATOM     14  C   UNL A   1      40.548  27.540  28.841  1.00  0.00     0.074 A 
ATOM     15  C   UNL A   1      40.640  29.770  29.911  1.00  0.00     0.049 A 
ATOM     16  N   UNL A   1      41.772  27.125  29.046  1.00  0.00    -0.248 NA
ATOM     17  C   UNL A   1      39.700  26.568  28.131  1.00  0.00     0.031 C 
ATOM     18  C   UNL A   1      40.129  31.068  30.364  1.00  0.00     0.029 A 
ATOM     19  N   UNL A   1      41.955  29.782  30.293  1.00  0.00    -0.354 N 
ATOM     20  C   UNL A   1      41.841  25.844  28.508  1.00  0.00     0.074 A 
ATOM     21  C   UNL A   1      40.527  25.539  27.985  1.00  0.00     0.031 C 
ATOM     22  C   UNL A   1      41.136  31.779  30.891  1.00  0.00     0.029 A 
ATOM     23  C   UNL A   1      42.343  30.964  30.880  1.00  0.00     0.049 A 
ATOM     24  H   UNL A   1      42.564  29.020  30.160  1.00  0.00     0.167 HD
ATOM     25  C   UNL A   1      42.905  25.007  28.451  1.00  0.00     0.031 A 
ATOM     26  C   UNL A   1      43.536  31.352  31.367  1.00  0.00     0.031 A 
ATOM     27  C   UNL A   1      44.212  25.320  28.970  1.00  0.00     0.049 A 
ATOM     28  C   UNL A   1      44.692  30.401  31.290  1.00  0.00     0.074 A 
ATOM     29  C   UNL A   1      45.355  24.538  28.954  1.00  0.00     0.029 A 
ATOM     30  N   UNL A   1      44.555  26.510  29.593  1.00  0.00    -0.354 N 
ATOM     31  N   UNL A   1      44.733  29.199  30.768  1.00  0.00    -0.248 NA
ATOM     32  C   UNL A   1      45.961  30.857  31.871  1.00  0.00     0.031 C 
ATOM     33  C   UNL A   1      46.378  25.240  29.602  1.00  0.00     0.029 A 
ATOM     34  C   UNL A   1      45.885  26.478  29.978  1.00  0.00     0.049 A 
ATOM     35  H   UNL A   1      43.942  27.268  29.740  1.00  0.00     0.167 HD
ATOM     36  C   UNL A   1      46.034  28.752  30.960  1.00  0.00     0.074 A 
ATOM     37  C   UNL A   1      46.755  29.828  31.610  1.00  0.00     0.031 C 
ATOM     38  C   UNL A   1      46.579  27.553  30.639  1.00  0.00     0.031 A 
BRANCH  25  39
ATOM     39  C   UNL A   1      42.703  23.656  27.815  1.00  0.00    -0.014 A 
ATOM     40  C   UNL A   1      43.194  23.381  26.527  1.00  0.00     0.010 A 
ATOM     41  C   UNL A   1      42.084  22.624  28.547  1.00  0.00     0.010 A 
ATOM     42  C   UNL A   1      43.053  22.104  25.973  1.00  0.00     0.020 A 
ATOM     43  C   UNL A   1      41.960  21.341  28.005  1.00  0.00     0.020 A 
ATOM     44  C   UNL A   1      42.436  21.092  26.717  1.00  0.00     0.054 A 
BRANCH  44  45
ATOM     45  S   UNL A   1      42.310  19.432  25.992  1.00  0.00     0.124 S 
ATOM     46  O   UNL A   1      40.872  19.309  25.770  1.00  0.00    -0.237 OA
ATOM     47  O   UNL A   1      43.124  19.545  24.785  1.00  0.00    -0.237 OA
ATOM     48  O   UNL A   1      42.857  18.559  27.028  1.00  0.00    -0.744 OA
ENDBRANCH  44  45
ENDBRANCH  25  39
BRANCH  26  49
ATOM     49  C   UNL A   1      43.678  32.690  31.999  1.00  0.00    -0.014 A 
ATOM     50  C   UNL A   1      44.039  33.814  31.237  1.00  0.00     0.010 A 
ATOM     51  C   UNL A   1      43.435  32.844  33.377  1.00  0.00     0.010 A 
ATOM     52  C   UNL A   1      44.179  35.065  31.848  1.00  0.00     0.020 A 
ATOM     53  C   UNL A   1      43.544  34.097  33.984  1.00  0.00     0.020 A 
ATOM     54  C   UNL A   1      43.933  35.197  33.218  1.00  0.00     0.054 A 
BRANCH  54  55
ATOM     55  S   UNL A   1      44.080  36.832  33.989  1.00  0.00     0.124 S 
ATOM     56  O   UNL A   1      44.885  36.536  35.170  1.00  0.00    -0.237 OA
ATOM     57  O   UNL A   1      44.743  37.617  32.950  1.00  0.00    -0.237 OA
ATOM     58  O   UNL A   1      42.693  37.208  34.252  1.00  0.00    -0.744 OA
ENDBRANCH  54  55
ENDBRANCH  26  49
BRANCH  38  59
ATOM     59  C   UNL A   1      48.029  27.358  30.988  1.00  0.00    -0.014 A 
ATOM     60  C   UNL A   1      49.043  27.754  30.098  1.00  0.00     0.010 A 
ATOM     61  C   UNL A   1      48.379  26.778  32.219  1.00  0.00     0.010 A 
ATOM     62  C   UNL A   1      50.385  27.526  30.412  1.00  0.00     0.020 A 
ATOM     63  C   UNL A   1      49.721  26.572  32.548  1.00  0.00     0.020 A 
ATOM     64  C   UNL A   1      50.714  26.928  31.632  1.00  0.00     0.054 A 
BRANCH  64  65
ATOM     65  S   UNL A   1      52.462  26.649  32.026  1.00  0.00     0.124 S 
ATOM     66  O   UNL A   1      52.377  25.981  33.322  1.00  0.00    -0.237 OA
ATOM     67  O   UNL A   1      52.915  25.814  30.916  1.00  0.00    -0.237 OA
ATOM     68  O   UNL A   1      53.028  27.996  32.055  1.00  0.00    -0.744 OA
ENDBRANCH  64  65
ENDBRANCH  38  59
ENDBRANCH  12  13
ENDBRANCH   5   7
ENDBRANCH   2   3
ENDBRANCH   1   2
BRANCH   1  69
ATOM     69  C   UNL A   1      35.229  34.869  28.471  1.00  0.00     0.118 C 
BRANCH  69  70
ATOM     70  N   UNL A   1      33.963  35.551  28.233  1.00  0.00    -0.352 N 
ATOM     71  C   UNL A   1      33.041  36.042  29.125  1.00  0.00     0.251 C 
ATOM     72  H   UNL A   1      33.733  35.680  27.285  1.00  0.00     0.163 HD
ATOM     73  O   UNL A   1      31.933  36.395  28.732  1.00  0.00    -0.269 OA
BRANCH  71  74
ATOM     74  C   UNL A   1      33.375  36.141  30.558  1.00  0.00     0.041 A 
ATOM     75  C   UNL A   1      33.509  37.398  31.141  1.00  0.00     0.014 A 
ATOM     76  C   UNL A   1      33.584  34.986  31.320  1.00  0.00     0.039 A 
ATOM     77  C   UNL A   1      33.802  37.484  32.496  1.00  0.00     0.003 A 
ATOM     78  C   UNL A   1      33.784  35.045  32.701  1.00  0.00     0.035 A 
ATOM     79  C   UNL A   1      33.932  36.317  33.263  1.00  0.00     0.026 A 
BRANCH  78  80
ATOM     80  N   UNL A   1      33.866  33.848  33.385  1.00  0.00    -0.380 N 
ATOM     81  H   UNL A   1      33.021  33.517  33.767  1.00  0.00     0.160 HD
BRANCH  80  82
ATOM     82  C   UNL A   1      35.040  33.006  33.619  1.00  0.00     0.107 C 
ATOM     83  C   UNL A   1      35.573  32.451  32.293  1.00  0.00     0.027 C 
ATOM     84  C   UNL A   1      36.094  33.680  34.536  1.00  0.00     0.136 C 
ATOM     85  C   UNL A   1      36.874  31.681  32.467  1.00  0.00     0.002 C 
ATOM     86  C   UNL A   1      37.394  32.876  34.607  1.00  0.00     0.034 C 
ATOM     87  C   UNL A   1      37.907  32.507  33.221  1.00  0.00     0.003 C 
BRANCH  84  88
ATOM     88  O   UNL A   1      35.587  33.840  35.867  1.00  0.00    -0.391 OA
ATOM     89  H   UNL A   1      36.276  33.602  36.507  1.00  0.00     0.211 HD
ENDBRANCH  84  88
ENDBRANCH  80  82
ENDBRANCH  78  80
ENDBRANCH  71  74
ENDBRANCH  69  70
ENDBRANCH   1  69
TORSDOF 16
ENDMDL
MODEL 2
REMARK VINA RESULT:     -10.7      4.046     10.467
REMARK SMILES O=C(NCCCNC(=O)c1cccc(N[C@H]2CCCC[C@@H]2O)c1)c1ccc(-c2c3nc(c(-c4ccc(S(=O)(=O)[O-])cc4)c4ccc([nH]4)c(-c4ccc(S(=O)(=O)[O-])cc4)c4nc(c(-c5ccc(S(=O)(=O)[O-])cc5)c5ccc2[nH]5)C=C4)C=C3)cc1
REMARK SMILES IDX 5 1 4 2 3 3 1 4 2 5 24 7 25 8 83 9 26 10 82 11 27 12 28 13
REMARK SMILES IDX 29 14 76 15 30 16 81 17 75 18 77 19 31 20 80 21 74 22 73 23
REMARK SMILES IDX 32 25 62 26 43 27 61 28 44 29 47 30 60 31 78 32 45 33 46 34
REMARK SMILES IDX 59 36 79 37 48 38 33 39 34 40 42 41 35 42 41 43 36 44 37 45
REMARK SMILES IDX 38 46 39 47 40 48 63 49 64 50 72 51 65 52 71 53 66 54 67 55
REMARK SMILES IDX 68 56 69 57 70 58 49 59 50 60 58 61 51 62 57 63 52 64 53 65
REMARK SMILES IDX 54 66 55 67 56 68 6 69 7 70 8 71 9 73 10 74 11 75 23 76
REMARK SMILES IDX 12 77 14 78 13 79 15 80 16 82 17 83 21 84 18 85 20 86 19 87
REMARK SMILES IDX 22 88
REMARK H PARENT 3 6 77 24 47 35 7 72 15 81 22 89
REMARK Flexibility Score: inf
ROOT
ATOM      1  C   UNL A   1      34.953  30.011  27.183  1.00  0.00     0.042 C 
ENDROOT
BRANCH   1   2
ATOM      2  C   UNL A   1      35.689  31.021  28.045  1.00  0.00     0.118 C 
BRANCH   2   3
ATOM      3  N   UNL A   1      35.613  30.714  29.469  1.00  0.00    -0.352 N 
ATOM      4  O   UNL A   1      36.168  29.743  31.423  1.00  0.00    -0.269 OA
ATOM      5  C   UNL A   1      36.503  30.054  30.282  1.00  0.00     0.251 C 
ATOM      6  H   UNL A   1      34.796  31.029  29.919  1.00  0.00     0.163 HD
BRANCH   5   7
ATOM      7  C   UNL A   1      37.850  29.700  29.780  1.00  0.00     0.039 A 
ATOM      8  C   UNL A   1      38.829  29.233  30.655  1.00  0.00     0.014 A 
ATOM      9  C   UNL A   1      38.134  29.823  28.417  1.00  0.00     0.014 A 
ATOM     10  C   UNL A   1      40.132  29.066  30.206  1.00  0.00     0.010 A 
ATOM     11  C   UNL A   1      39.421  29.540  27.945  1.00  0.00     0.010 A 
ATOM     12  C   UNL A   1      40.441  29.190  28.842  1.00  0.00    -0.014 A 
BRANCH  12  13
ATOM     13  C   UNL A   1      41.819  28.860  28.398  1.00  0.00     0.031 A 
ATOM     14  C   UNL A   1      42.928  29.873  28.446  1.00  0.00     0.074 A 
ATOM     15  C   UNL A   1      42.073  27.590  28.017  1.00  0.00     0.049 A 
ATOM     16  N   UNL A   1      44.197  29.709  28.171  1.00  0.00    -0.248 NA
ATOM     17  C   UNL A   1      42.577  31.246  28.846  1.00  0.00     0.031 C 
ATOM     18  C   UNL A   1      41.069  26.525  27.915  1.00  0.00     0.029 A 
ATOM     19  N   UNL A   1      43.248  26.968  27.688  1.00  0.00    -0.354 N 
ATOM     20  C   UNL A   1      44.794  30.952  28.347  1.00  0.00     0.074 A 
ATOM     21  C   UNL A   1      43.744  31.870  28.733  1.00  0.00     0.031 C 
ATOM     22  C   UNL A   1      41.680  25.368  27.626  1.00  0.00     0.029 A 
ATOM     23  C   UNL A   1      43.105  25.621  27.451  1.00  0.00     0.049 A 
ATOM     24  H   UNL A   1      44.110  27.438  27.629  1.00  0.00     0.167 HD
ATOM     25  C   UNL A   1      46.098  31.292  28.207  1.00  0.00     0.031 A 
ATOM     26  C   UNL A   1      44.014  24.686  27.119  1.00  0.00     0.031 A 
ATOM     27  C   UNL A   1      47.139  30.371  27.827  1.00  0.00     0.049 A 
ATOM     28  C   UNL A   1      45.449  25.095  26.970  1.00  0.00     0.074 A 
ATOM     29  C   UNL A   1      48.493  30.621  27.665  1.00  0.00     0.029 A 
ATOM     30  N   UNL A   1      46.949  29.025  27.556  1.00  0.00    -0.354 N 
ATOM     31  N   UNL A   1      45.989  26.277  27.151  1.00  0.00    -0.248 NA
ATOM     32  C   UNL A   1      46.396  24.047  26.567  1.00  0.00     0.031 C 
ATOM     33  C   UNL A   1      49.112  29.434  27.257  1.00  0.00     0.029 A 
ATOM     34  C   UNL A   1      48.154  28.435  27.213  1.00  0.00     0.049 A 
ATOM     35  H   UNL A   1      46.084  28.557  27.601  1.00  0.00     0.167 HD
ATOM     36  C   UNL A   1      47.341  26.115  26.882  1.00  0.00     0.074 A 
ATOM     37  C   UNL A   1      47.541  24.715  26.565  1.00  0.00     0.031 C 
ATOM     38  C   UNL A   1      48.329  27.044  26.884  1.00  0.00     0.031 A 
BRANCH  25  39
ATOM     39  C   UNL A   1      46.481  32.729  28.451  1.00  0.00    -0.014 A 
ATOM     40  C   UNL A   1      46.968  33.146  29.702  1.00  0.00     0.010 A 
ATOM     41  C   UNL A   1      46.428  33.656  27.393  1.00  0.00     0.010 A 
ATOM     42  C   UNL A   1      47.377  34.470  29.897  1.00  0.00     0.020 A 
ATOM     43  C   UNL A   1      46.856  34.974  27.577  1.00  0.00     0.020 A 
ATOM     44  C   UNL A   1      47.318  35.376  28.832  1.00  0.00     0.054 A 
BRANCH  44  45
ATOM     45  S   UNL A   1      47.901  37.074  29.101  1.00  0.00     0.124 S 
ATOM     46  O   UNL A   1      49.267  37.008  28.590  1.00  0.00    -0.237 OA
ATOM     47  O   UNL A   1      46.970  37.864  28.300  1.00  0.00    -0.237 OA
ATOM     48  O   UNL A   1      47.784  37.256  30.546  1.00  0.00    -0.744 OA
ENDBRANCH  44  45
ENDBRANCH  25  39
BRANCH  26  49
ATOM     49  C   UNL A   1      43.581  23.286  26.873  1.00  0.00    -0.014 A 
ATOM     50  C   UNL A   1      43.764  22.682  25.617  1.00  0.00     0.010 A 
ATOM     51  C   UNL A   1      42.991  22.542  27.913  1.00  0.00     0.010 A 
ATOM     52  C   UNL A   1      43.342  21.367  25.399  1.00  0.00     0.020 A 
ATOM     53  C   UNL A   1      42.596  21.218  27.706  1.00  0.00     0.020 A 
ATOM     54  C   UNL A   1      42.758  20.645  26.445  1.00  0.00     0.054 A 
BRANCH  54  55
ATOM     55  S   UNL A   1      42.251  18.927  26.158  1.00  0.00     0.124 S 
ATOM     56  O   UNL A   1      42.505  18.318  27.460  1.00  0.00    -0.237 OA
ATOM     57  O   UNL A   1      40.845  19.066  25.785  1.00  0.00    -0.237 OA
ATOM     58  O   UNL A   1      43.133  18.490  25.078  1.00  0.00    -0.744 OA
ENDBRANCH  54  55
ENDBRANCH  26  49
BRANCH  38  59
ATOM     59  C   UNL A   1      49.709  26.560  26.536  1.00  0.00    -0.014 A 
ATOM     60  C   UNL A   1      50.554  26.024  27.524  1.00  0.00     0.010 A 
ATOM     61  C   UNL A   1      50.163  26.640  25.208  1.00  0.00     0.010 A 
ATOM     62  C   UNL A   1      51.852  25.620  27.197  1.00  0.00     0.020 A 
ATOM     63  C   UNL A   1      51.450  26.213  24.873  1.00  0.00     0.020 A 
ATOM     64  C   UNL A   1      52.293  25.726  25.875  1.00  0.00     0.054 A 
BRANCH  64  65
ATOM     65  S   UNL A   1      53.977  25.188  25.470  1.00  0.00     0.124 S 
ATOM     66  O   UNL A   1      54.418  26.239  24.556  1.00  0.00    -0.237 OA
ATOM     67  O   UNL A   1      54.634  25.173  26.775  1.00  0.00    -0.237 OA
ATOM     68  O   UNL A   1      53.783  23.874  24.863  1.00  0.00    -0.744 OA
ENDBRANCH  64  65
ENDBRANCH  38  59
ENDBRANCH  12  13
ENDBRANCH   5   7
ENDBRANCH   2   3
ENDBRANCH   1   2
BRANCH   1  69
ATOM     69  C   UNL A   1      33.486  30.341  26.973  1.00  0.00     0.118 C 
BRANCH  69  70
ATOM     70  N   UNL A   1      32.603  29.437  27.700  1.00  0.00    -0.352 N 
ATOM     71  C   UNL A   1      31.923  28.325  27.265  1.00  0.00     0.251 C 
ATOM     72  H   UNL A   1      32.475  29.656  28.650  1.00  0.00     0.163 HD
ATOM     73  O   UNL A   1      31.060  27.816  27.975  1.00  0.00    -0.269 OA
BRANCH  71  74
ATOM     74  C   UNL A   1      32.221  27.743  25.943  1.00  0.00     0.041 A 
ATOM     75  C   UNL A   1      33.451  27.128  25.731  1.00  0.00     0.014 A 
ATOM     76  C   UNL A   1      31.289  27.831  24.903  1.00  0.00     0.039 A 
ATOM     77  C   UNL A   1      33.716  26.562  24.490  1.00  0.00     0.003 A 
ATOM     78  C   UNL A   1      31.493  27.188  23.680  1.00  0.00     0.035 A 
ATOM     79  C   UNL A   1      32.743  26.591  23.481  1.00  0.00     0.026 A 
BRANCH  78  80
ATOM     80  N   UNL A   1      30.468  27.235  22.755  1.00  0.00    -0.380 N 
ATOM     81  H   UNL A   1      30.343  26.421  22.216  1.00  0.00     0.160 HD
BRANCH  80  82
ATOM     82  C   UNL A   1      29.544  28.333  22.469  1.00  0.00     0.107 C 
ATOM     83  C   UNL A   1      28.230  28.141  23.235  1.00  0.00     0.027 C 
ATOM     84  C   UNL A   1      30.203  29.731  22.611  1.00  0.00     0.136 C 
ATOM     85  C   UNL A   1      27.288  29.325  23.079  1.00  0.00     0.002 C 
ATOM     86  C   UNL A   1      29.181  30.863  22.506  1.00  0.00     0.034 C 
ATOM     87  C   UNL A   1      27.986  30.634  23.422  1.00  0.00     0.003 C 
BRANCH  84  88
ATOM     88  O   UNL A   1      31.204  29.929  21.604  1.00  0.00    -0.391 OA
ATOM     89  H   UNL A   1      31.745  30.701  21.831  1.00  0.00     0.211 HD
ENDBRANCH  84  88
ENDBRANCH  80  82
ENDBRANCH  78  80
ENDBRANCH  71  74
ENDBRANCH  69  70
ENDBRANCH   1  69
TORSDOF 16
ENDMDL
MODEL 3
REMARK VINA RESULT:     -10.7      1.716      2.866
REMARK SMILES O=C(NCCCNC(=O)c1cccc(N[C@H]2CCCC[C@@H]2O)c1)c1ccc(-c2c3nc(c(-c4ccc(S(=O)(=O)[O-])cc4)c4ccc([nH]4)c(-c4ccc(S(=O)(=O)[O-])cc4)c4nc(c(-c5ccc(S(=O)(=O)[O-])cc5)c5ccc2[nH]5)C=C4)C=C3)cc1
REMARK SMILES IDX 5 1 4 2 3 3 1 4 2 5 24 7 25 8 83 9 26 10 82 11 27 12 28 13
REMARK SMILES IDX 29 14 76 15 30 16 81 17 75 18 77 19 31 20 80 21 74 22 73 23
REMARK SMILES IDX 32 25 62 26 43 27 61 28 44 29 47 30 60 31 78 32 45 33 46 34
REMARK SMILES IDX 59 36 79 37 48 38 33 39 34 40 42 41 35 42 41 43 36 44 37 45
REMARK SMILES IDX 38 46 39 47 40 48 63 49 64 50 72 51 65 52 71 53 66 54 67 55
REMARK SMILES IDX 68 56 69 57 70 58 49 59 50 60 58 61 51 62 57 63 52 64 53 65
REMARK SMILES IDX 54 66 55 67 56 68 6 69 7 70 8 71 9 73 10 74 11 75 23 76
REMARK SMILES IDX 12 77 14 78 13 79 15 80 16 82 17 83 21 84 18 85 20 86 19 87
REMARK SMILES IDX 22 88
REMARK H PARENT 3 6 77 24 47 35 7 72 15 81 22 89
REMARK Flexibility Score: inf
ROOT
ATOM      1  C   UNL A   1      34.881  32.619  30.133  1.00  0.00     0.042 C 
ENDROOT
BRANCH   1   2
ATOM      2  C   UNL A   1      34.559  32.601  28.649  1.00  0.00     0.118 C 
BRANCH   2   3
ATOM      3  N   UNL A   1      33.901  31.369  28.226  1.00  0.00    -0.352 N 
ATOM      4  O   UNL A   1      33.723  29.267  27.444  1.00  0.00    -0.269 OA
ATOM      5  C   UNL A   1      34.430  30.129  27.961  1.00  0.00     0.251 C 
ATOM      6  H   UNL A   1      32.925  31.438  28.113  1.00  0.00     0.163 HD
BRANCH   5   7
ATOM      7  C   UNL A   1      35.846  29.839  28.276  1.00  0.00     0.039 A 
ATOM      8  C   UNL A   1      36.841  30.061  27.325  1.00  0.00     0.014 A 
ATOM      9  C   UNL A   1      36.188  29.352  29.541  1.00  0.00     0.014 A 
ATOM     10  C   UNL A   1      38.137  29.630  27.569  1.00  0.00     0.010 A 
ATOM     11  C   UNL A   1      37.519  29.027  29.827  1.00  0.00     0.010 A 
ATOM     12  C   UNL A   1      38.501  29.133  28.831  1.00  0.00    -0.014 A 
BRANCH  12  13
ATOM     13  C   UNL A   1      39.930  28.820  29.081  1.00  0.00     0.031 A 
ATOM     14  C   UNL A   1      40.534  27.504  28.677  1.00  0.00     0.074 A 
ATOM     15  C   UNL A   1      40.704  29.788  29.617  1.00  0.00     0.049 A 
ATOM     16  N   UNL A   1      41.783  27.120  28.755  1.00  0.00    -0.248 NA
ATOM     17  C   UNL A   1      39.629  26.484  28.123  1.00  0.00     0.031 C 
ATOM     18  C   UNL A   1      40.222  31.100  30.063  1.00  0.00     0.029 A 
ATOM     19  N   UNL A   1      42.055  29.841  29.837  1.00  0.00    -0.354 N 
ATOM     20  C   UNL A   1      41.815  25.814  28.277  1.00  0.00     0.074 A 
ATOM     21  C   UNL A   1      40.455  25.461  27.931  1.00  0.00     0.031 C 
ATOM     22  C   UNL A   1      41.269  31.853  30.430  1.00  0.00     0.029 A 
ATOM     23  C   UNL A   1      42.484  31.057  30.314  1.00  0.00     0.049 A 
ATOM     24  H   UNL A   1      42.660  29.083  29.670  1.00  0.00     0.167 HD
ATOM     25  C   UNL A   1      42.882  24.992  28.134  1.00  0.00     0.031 A 
ATOM     26  C   UNL A   1      43.717  31.489  30.635  1.00  0.00     0.031 A 
ATOM     27  C   UNL A   1      44.235  25.352  28.477  1.00  0.00     0.049 A 
ATOM     28  C   UNL A   1      44.877  30.554  30.467  1.00  0.00     0.074 A 
ATOM     29  C   UNL A   1      45.385  24.588  28.362  1.00  0.00     0.029 A 
ATOM     30  N   UNL A   1      44.623  26.579  28.994  1.00  0.00    -0.354 N 
ATOM     31  N   UNL A   1      44.881  29.327  30.004  1.00  0.00    -0.248 NA
ATOM     32  C   UNL A   1      46.196  31.059  30.868  1.00  0.00     0.031 C 
ATOM     33  C   UNL A   1      46.462  25.339  28.847  1.00  0.00     0.029 A 
ATOM     34  C   UNL A   1      45.990  26.588  29.218  1.00  0.00     0.049 A 
ATOM     35  H   UNL A   1      44.016  27.333  29.176  1.00  0.00     0.167 HD
ATOM     36  C   UNL A   1      46.205  28.911  30.061  1.00  0.00     0.074 A 
ATOM     37  C   UNL A   1      46.974  30.030  30.565  1.00  0.00     0.031 C 
ATOM     38  C   UNL A   1      46.735  27.706  29.737  1.00  0.00     0.031 A 
BRANCH  25  39
ATOM     39  C   UNL A   1      42.636  23.607  27.595  1.00  0.00    -0.014 A 
ATOM     40  C   UNL A   1      42.773  23.328  26.224  1.00  0.00     0.010 A 
ATOM     41  C   UNL A   1      42.341  22.553  28.482  1.00  0.00     0.010 A 
ATOM     42  C   UNL A   1      42.601  22.025  25.746  1.00  0.00     0.020 A 
ATOM     43  C   UNL A   1      42.189  21.246  28.011  1.00  0.00     0.020 A 
ATOM     44  C   UNL A   1      42.309  20.991  26.644  1.00  0.00     0.054 A 
BRANCH  44  45
ATOM     45  S   UNL A   1      42.139  19.302  26.001  1.00  0.00     0.124 S 
ATOM     46  O   UNL A   1      42.627  18.503  27.122  1.00  0.00    -0.237 OA
ATOM     47  O   UNL A   1      40.707  19.201  25.736  1.00  0.00    -0.237 OA
ATOM     48  O   UNL A   1      42.991  19.295  24.814  1.00  0.00    -0.744 OA
ENDBRANCH  44  45
ENDBRANCH  25  39
BRANCH  26  49
ATOM     49  C   UNL A   1      43.904  32.860  31.178  1.00  0.00    -0.014 A 
ATOM     50  C   UNL A   1      44.144  33.950  30.323  1.00  0.00     0.010 A 
ATOM     51  C   UNL A   1      43.827  33.081  32.566  1.00  0.00     0.010 A 
ATOM     52  C   UNL A   1      44.328  35.232  30.849  1.00  0.00     0.020 A 
ATOM     53  C   UNL A   1      43.981  34.366  33.092  1.00  0.00     0.020 A 
ATOM     54  C   UNL A   1      44.248  35.431  32.231  1.00  0.00     0.054 A 
BRANCH  54  55
ATOM     55  S   UNL A   1      44.450  37.106  32.897  1.00  0.00     0.124 S 
ATOM     56  O   UNL A   1      45.706  36.988  33.631  1.00  0.00    -0.237 OA
ATOM     57  O   UNL A   1      44.495  37.927  31.689  1.00  0.00    -0.237 OA
ATOM     58  O   UNL A   1      43.257  37.289  33.721  1.00  0.00    -0.744 OA
ENDBRANCH  54  55
ENDBRANCH  26  49
BRANCH  38  59
ATOM     59  C   UNL A   1      48.219  27.552  29.919  1.00  0.00    -0.014 A 
ATOM     60  C   UNL A   1      49.110  27.899  28.888  1.00  0.00     0.010 A 
ATOM     61  C   UNL A   1      48.727  27.060  31.133  1.00  0.00     0.010 A 
ATOM     62  C   UNL A   1      50.485  27.709  29.051  1.00  0.00     0.020 A 
ATOM     63  C   UNL A   1      50.103  26.893  31.310  1.00  0.00     0.020 A 
ATOM     64  C   UNL A   1      50.970  27.199  30.258  1.00  0.00     0.054 A 
BRANCH  64  65
ATOM     65  S   UNL A   1      52.759  26.968  30.454  1.00  0.00     0.124 S 
ATOM     66  O   UNL A   1      52.819  25.923  31.472  1.00  0.00    -0.237 OA
ATOM     67  O   UNL A   1      53.181  26.566  29.114  1.00  0.00    -0.237 OA
ATOM     68  O   UNL A   1      53.232  28.283  30.881  1.00  0.00    -0.744 OA
ENDBRANCH  64  65
ENDBRANCH  38  59
ENDBRANCH  12  13
ENDBRANCH   5   7
ENDBRANCH   2   3
ENDBRANCH   1   2
BRANCH   1  69
ATOM     69  C   UNL A   1      36.085  33.473  30.487  1.00  0.00     0.118 C 
BRANCH  69  70
ATOM     70  N   UNL A   1      35.783  34.464  31.513  1.00  0.00    -0.352 N 
ATOM     71  C   UNL A   1      36.406  34.715  32.711  1.00  0.00     0.251 C 
ATOM     72  H   UNL A   1      35.013  35.044  31.315  1.00  0.00     0.163 HD
ATOM     73  O   UNL A   1      35.875  35.452  33.537  1.00  0.00    -0.269 OA
BRANCH  71  74
ATOM     74  C   UNL A   1      37.710  34.096  33.013  1.00  0.00     0.041 A 
ATOM     75  C   UNL A   1      38.878  34.744  32.621  1.00  0.00     0.014 A 
ATOM     76  C   UNL A   1      37.775  32.859  33.662  1.00  0.00     0.039 A 
ATOM     77  C   UNL A   1      40.104  34.166  32.929  1.00  0.00     0.003 A 
ATOM     78  C   UNL A   1      38.992  32.306  34.067  1.00  0.00     0.035 A 
ATOM     79  C   UNL A   1      40.154  32.963  33.648  1.00  0.00     0.026 A 
BRANCH  78  80
ATOM     80  N   UNL A   1      38.950  31.137  34.802  1.00  0.00    -0.380 N 
ATOM     81  H   UNL A   1      38.390  31.163  35.611  1.00  0.00     0.160 HD
BRANCH  80  82
ATOM     82  C   UNL A   1      39.626  29.866  34.540  1.00  0.00     0.107 C 
ATOM     83  C   UNL A   1      39.315  29.378  33.120  1.00  0.00     0.027 C 
ATOM     84  C   UNL A   1      41.128  29.889  34.927  1.00  0.00     0.136 C 
ATOM     85  C   UNL A   1      40.104  28.130  32.749  1.00  0.00     0.002 C 
ATOM     86  C   UNL A   1      41.861  28.629  34.464  1.00  0.00     0.034 C 
ATOM     87  C   UNL A   1      41.593  28.325  32.996  1.00  0.00     0.003 C 
BRANCH  84  88
ATOM     88  O   UNL A   1      41.288  30.011  36.347  1.00  0.00    -0.391 OA
ATOM     89  H   UNL A   1      41.768  30.829  36.550  1.00  0.00     0.211 HD
ENDBRANCH  84  88
ENDBRANCH  80  82
ENDBRANCH  78  80
ENDBRANCH  71  74
ENDBRANCH  69  70
ENDBRANCH   1  69
TORSDOF 16
ENDMDL
