MODEL 1
REMARK VINA RESULT:     -12.5      0.000      0.000
REMARK SMILES Cc1ccc(C(=O)N2C[C@@H](C(=O)NCCCNC(=O)c3ccc(-c4c5nc(c(-c6ccc(S(=O)(=O)[O-])cc6)c6ccc([nH]6)c(-c6ccc(S(=O)(=O)[O-])cc6)c6nc(c(-c7ccc(S(=O)(=O)[O-])cc7)c7ccc4[nH]7)C=C6)C=C5)cc3)C[C@H](C(=O)N3CCOCC3)C2)cc1F
REMARK SMILES IDX 15 1 14 2 13 3 11 4 12 5 10 7 8 8 9 9 90 10 81 11 80 12 6 13
REMARK SMILES IDX 7 14 5 15 1 16 2 17 3 18 92 19 4 20 91 21 93 22 82 23 83 24
REMARK SMILES IDX 84 25 85 26 89 27 86 28 88 29 87 30 16 31 17 32 18 33 19 35
REMARK SMILES IDX 20 36 21 37 79 38 22 39 78 40 23 41 24 42 25 43 72 44 26 45
REMARK SMILES IDX 77 46 71 47 73 48 27 49 76 50 70 51 69 52 28 54 58 55 39 56
REMARK SMILES IDX 57 57 40 58 43 59 56 60 74 61 41 62 42 63 55 65 75 66 44 67
REMARK SMILES IDX 29 68 30 69 38 70 31 71 37 72 32 73 33 74 34 75 35 76 36 77
REMARK SMILES IDX 59 78 60 79 68 80 61 81 67 82 62 83 63 84 64 85 65 86 66 87
REMARK SMILES IDX 45 88 46 89 54 90 47 91 53 92 48 93 49 94 50 95 51 96 52 97
REMARK H PARENT 13 6 17 34 73 53 43 64
REMARK Flexibility Score: inf
ROOT
ATOM      1  C   UNL A   1      35.612  22.328  25.641  1.00  0.00     0.042 C 
ENDROOT
BRANCH   1   2
ATOM      2  C   UNL A   1      34.491  22.327  26.661  1.00  0.00     0.117 C 
BRANCH   2   3
ATOM      3  N   UNL A   1      33.380  21.500  26.224  1.00  0.00    -0.356 N 
ATOM      4  C   UNL A   1      32.315  21.793  25.443  1.00  0.00     0.224 C 
ATOM      5  O   UNL A   1      31.420  20.952  25.342  1.00  0.00    -0.275 OA
ATOM      6  H   UNL A   1      33.408  20.572  26.550  1.00  0.00     0.163 HD
BRANCH   4   7
ATOM      7  C   UNL A   1      32.220  23.107  24.703  1.00  0.00     0.099 C 
ATOM      8  N   UNL A   1      30.626  24.892  24.014  1.00  0.00    -0.337 N 
ATOM      9  C   UNL A   1      30.850  23.739  24.868  1.00  0.00     0.133 C 
ATOM     10  C   UNL A   1      31.016  24.777  22.608  1.00  0.00     0.133 C 
ATOM     11  C   UNL A   1      32.463  24.280  22.426  1.00  0.00     0.099 C 
ATOM     12  C   UNL A   1      32.775  23.050  23.279  1.00  0.00     0.030 C 
BRANCH   8  13
ATOM     13  C   UNL A   1      29.872  25.919  24.565  1.00  0.00     0.254 C 
ATOM     14  O   UNL A   1      29.590  25.960  25.763  1.00  0.00    -0.269 OA
BRANCH  13  15
ATOM     15  C   UNL A   1      29.251  26.948  23.707  1.00  0.00     0.042 A 
ATOM     16  C   UNL A   1      27.699  30.663  22.214  1.00  0.00     0.047 C 
ATOM     17  C   UNL A   1      28.204  29.322  22.651  1.00  0.00    -0.015 A 
ATOM     18  C   UNL A   1      27.354  28.385  23.254  1.00  0.00     0.007 A 
ATOM     19  C   UNL A   1      29.565  29.024  22.535  1.00  0.00     0.126 A 
ATOM     20  C   UNL A   1      27.876  27.203  23.787  1.00  0.00     0.014 A 
ATOM     21  C   UNL A   1      30.096  27.852  23.059  1.00  0.00     0.053 A 
ATOM     22  F   UNL A   1      30.395  29.912  21.969  1.00  0.00    -0.207 F 
ENDBRANCH  13  15
ENDBRANCH   8  13
BRANCH  11  23
ATOM     23  C   UNL A   1      33.418  25.487  22.420  1.00  0.00     0.227 C 
ATOM     24  O   UNL A   1      33.714  25.993  21.331  1.00  0.00    -0.275 OA
ATOM     25  N   UNL A   1      33.687  26.159  23.587  1.00  0.00    -0.338 N 
ATOM     26  C   UNL A   1      34.387  25.633  24.757  1.00  0.00     0.148 C 
ATOM     27  C   UNL A   1      33.637  27.620  23.588  1.00  0.00     0.148 C 
ATOM     28  C   UNL A   1      33.704  26.150  26.033  1.00  0.00     0.181 C 
ATOM     29  C   UNL A   1      32.991  28.100  24.893  1.00  0.00     0.181 C 
ATOM     30  O   UNL A   1      33.693  27.590  26.041  1.00  0.00    -0.378 OA
ENDBRANCH  11  23
ENDBRANCH   4   7
ENDBRANCH   2   3
ENDBRANCH   1   2
BRANCH   1  31
ATOM     31  C   UNL A   1      36.799  23.175  26.067  1.00  0.00     0.118 C 
BRANCH  31  32
ATOM     32  N   UNL A   1      38.033  22.400  26.134  1.00  0.00    -0.352 N 
ATOM     33  C   UNL A   1      39.310  22.822  26.407  1.00  0.00     0.251 C 
ATOM     34  H   UNL A   1      37.936  21.435  25.959  1.00  0.00     0.163 HD
ATOM     35  O   UNL A   1      40.266  22.090  26.163  1.00  0.00    -0.269 OA
BRANCH  33  36
ATOM     36  C   UNL A   1      39.515  24.169  26.970  1.00  0.00     0.039 A 
ATOM     37  C   UNL A   1      39.140  24.428  28.288  1.00  0.00     0.014 A 
ATOM     38  C   UNL A   1      40.122  25.162  26.197  1.00  0.00     0.014 A 
ATOM     39  C   UNL A   1      39.451  25.664  28.855  1.00  0.00     0.010 A 
ATOM     40  C   UNL A   1      40.532  26.342  26.797  1.00  0.00     0.010 A 
ATOM     41  C   UNL A   1      40.192  26.611  28.129  1.00  0.00    -0.014 A 
BRANCH  41  42
ATOM     42  C   UNL A   1      40.626  27.892  28.736  1.00  0.00     0.031 A 
ATOM     43  C   UNL A   1      42.013  28.018  29.307  1.00  0.00     0.074 A 
ATOM     44  C   UNL A   1      39.747  28.908  28.843  1.00  0.00     0.049 A 
ATOM     45  N   UNL A   1      42.552  29.026  29.941  1.00  0.00    -0.248 NA
ATOM     46  C   UNL A   1      42.899  26.848  29.178  1.00  0.00     0.031 C 
ATOM     47  C   UNL A   1      38.360  28.884  28.373  1.00  0.00     0.029 A 
ATOM     48  N   UNL A   1      39.888  30.158  29.390  1.00  0.00    -0.354 N 
ATOM     49  C   UNL A   1      43.827  28.606  30.301  1.00  0.00     0.074 A 
ATOM     50  C   UNL A   1      43.959  27.234  29.870  1.00  0.00     0.031 C 
ATOM     51  C   UNL A   1      37.790  30.074  28.619  1.00  0.00     0.029 A 
ATOM     52  C   UNL A   1      38.752  30.927  29.309  1.00  0.00     0.049 A 
ATOM     53  H   UNL A   1      40.725  30.475  29.800  1.00  0.00     0.167 HD
ATOM     54  C   UNL A   1      44.808  29.308  30.914  1.00  0.00     0.031 A 
ATOM     55  C   UNL A   1      38.507  32.176  29.750  1.00  0.00     0.031 A 
ATOM     56  C   UNL A   1      44.671  30.678  31.330  1.00  0.00     0.049 A 
ATOM     57  C   UNL A   1      39.607  32.932  30.443  1.00  0.00     0.074 A 
ATOM     58  C   UNL A   1      45.624  31.501  31.902  1.00  0.00     0.029 A 
ATOM     59  N   UNL A   1      43.506  31.423  31.224  1.00  0.00    -0.354 N 
ATOM     60  N   UNL A   1      40.833  32.545  30.703  1.00  0.00    -0.248 NA
ATOM     61  C   UNL A   1      39.295  34.294  30.894  1.00  0.00     0.031 C 
ATOM     62  C   UNL A   1      45.016  32.724  32.201  1.00  0.00     0.029 A 
ATOM     63  C   UNL A   1      43.705  32.687  31.753  1.00  0.00     0.049 A 
ATOM     64  H   UNL A   1      42.662  31.101  30.832  1.00  0.00     0.167 HD
ATOM     65  C   UNL A   1      41.446  33.624  31.328  1.00  0.00     0.074 A 
ATOM     66  C   UNL A   1      40.461  34.686  31.388  1.00  0.00     0.031 C 
ATOM     67  C   UNL A   1      42.710  33.728  31.809  1.00  0.00     0.031 A 
BRANCH  54  68
ATOM     68  C   UNL A   1      46.112  28.601  31.177  1.00  0.00    -0.014 A 
ATOM     69  C   UNL A   1      47.161  28.629  30.238  1.00  0.00     0.010 A 
ATOM     70  C   UNL A   1      46.306  27.923  32.395  1.00  0.00     0.010 A 
ATOM     71  C   UNL A   1      48.358  27.956  30.492  1.00  0.00     0.020 A 
ATOM     72  C   UNL A   1      47.515  27.277  32.666  1.00  0.00     0.020 A 
ATOM     73  C   UNL A   1      48.527  27.283  31.705  1.00  0.00     0.054 A 
BRANCH  73  74
ATOM     74  S   UNL A   1      50.101  26.437  32.015  1.00  0.00     0.124 S 
ATOM     75  O   UNL A   1      50.989  27.097  31.062  1.00  0.00    -0.237 OA
ATOM     76  O   UNL A   1      50.353  26.739  33.422  1.00  0.00    -0.237 OA
ATOM     77  O   UNL A   1      49.806  25.036  31.724  1.00  0.00    -0.744 OA
ENDBRANCH  73  74
ENDBRANCH  54  68
BRANCH  55  78
ATOM     78  C   UNL A   1      37.166  32.788  29.538  1.00  0.00    -0.014 A 
ATOM     79  C   UNL A   1      36.270  32.936  30.610  1.00  0.00     0.010 A 
ATOM     80  C   UNL A   1      36.788  33.251  28.263  1.00  0.00     0.010 A 
ATOM     81  C   UNL A   1      35.016  33.523  30.411  1.00  0.00     0.020 A 
ATOM     82  C   UNL A   1      35.548  33.866  28.067  1.00  0.00     0.020 A 
ATOM     83  C   UNL A   1      34.666  33.989  29.141  1.00  0.00     0.054 A 
BRANCH  83  84
ATOM     84  S   UNL A   1      33.060  34.804  28.922  1.00  0.00     0.124 S 
ATOM     85  O   UNL A   1      32.402  33.926  27.961  1.00  0.00    -0.237 OA
ATOM     86  O   UNL A   1      32.514  34.788  30.276  1.00  0.00    -0.237 OA
ATOM     87  O   UNL A   1      33.416  36.130  28.419  1.00  0.00    -0.744 OA
ENDBRANCH  83  84
ENDBRANCH  55  78
BRANCH  67  88
ATOM     88  C   UNL A   1      43.112  35.044  32.423  1.00  0.00    -0.014 A 
ATOM     89  C   UNL A   1      43.635  36.084  31.637  1.00  0.00     0.010 A 
ATOM     90  C   UNL A   1      42.899  35.261  33.797  1.00  0.00     0.010 A 
ATOM     91  C   UNL A   1      43.964  37.311  32.219  1.00  0.00     0.020 A 
ATOM     92  C   UNL A   1      43.195  36.497  34.376  1.00  0.00     0.020 A 
ATOM     93  C   UNL A   1      43.738  37.510  33.585  1.00  0.00     0.054 A 
BRANCH  93  94
ATOM     94  S   UNL A   1      44.121  39.131  34.303  1.00  0.00     0.124 S 
ATOM     95  O   UNL A   1      43.025  39.954  33.797  1.00  0.00    -0.237 OA
ATOM     96  O   UNL A   1      44.092  38.859  35.737  1.00  0.00    -0.237 OA
ATOM     97  O   UNL A   1      45.439  39.448  33.760  1.00  0.00    -0.744 OA
ENDBRANCH  93  94
ENDBRANCH  67  88
ENDBRANCH  41  42
ENDBRANCH  33  36
ENDBRANCH  31  32
ENDBRANCH   1  31
TORSDOF 16
ENDMDL
MODEL 2
REMARK VINA RESULT:     -12.3      3.777      9.285
REMARK SMILES Cc1ccc(C(=O)N2C[C@@H](C(=O)NCCCNC(=O)c3ccc(-c4c5nc(c(-c6ccc(S(=O)(=O)[O-])cc6)c6ccc([nH]6)c(-c6ccc(S(=O)(=O)[O-])cc6)c6nc(c(-c7ccc(S(=O)(=O)[O-])cc7)c7ccc4[nH]7)C=C6)C=C5)cc3)C[C@H](C(=O)N3CCOCC3)C2)cc1F
REMARK SMILES IDX 15 1 14 2 13 3 11 4 12 5 10 7 8 8 9 9 90 10 81 11 80 12 6 13
REMARK SMILES IDX 7 14 5 15 1 16 2 17 3 18 92 19 4 20 91 21 93 22 82 23 83 24
REMARK SMILES IDX 84 25 85 26 89 27 86 28 88 29 87 30 16 31 17 32 18 33 19 35
REMARK SMILES IDX 20 36 21 37 79 38 22 39 78 40 23 41 24 42 25 43 72 44 26 45
REMARK SMILES IDX 77 46 71 47 73 48 27 49 76 50 70 51 69 52 28 54 58 55 39 56
REMARK SMILES IDX 57 57 40 58 43 59 56 60 74 61 41 62 42 63 55 65 75 66 44 67
REMARK SMILES IDX 29 68 30 69 38 70 31 71 37 72 32 73 33 74 34 75 35 76 36 77
REMARK SMILES IDX 59 78 60 79 68 80 61 81 67 82 62 83 63 84 64 85 65 86 66 87
REMARK SMILES IDX 45 88 46 89 54 90 47 91 53 92 48 93 49 94 50 95 51 96 52 97
REMARK H PARENT 13 6 17 34 73 53 43 64
REMARK Flexibility Score: inf
ROOT
ATOM      1  C   UNL A   1      39.115  23.308  26.489  1.00  0.00     0.042 C 
ENDROOT
BRANCH   1   2
ATOM      2  C   UNL A   1      37.698  22.925  26.113  1.00  0.00     0.117 C 
BRANCH   2   3
ATOM      3  N   UNL A   1      37.405  23.269  24.734  1.00  0.00    -0.356 N 
ATOM      4  C   UNL A   1      36.312  23.027  23.976  1.00  0.00     0.224 C 
ATOM      5  O   UNL A   1      36.367  23.291  22.773  1.00  0.00    -0.275 OA
ATOM      6  H   UNL A   1      38.123  23.762  24.274  1.00  0.00     0.163 HD
BRANCH   4   7
ATOM      7  C   UNL A   1      35.047  22.459  24.578  1.00  0.00     0.099 C 
ATOM      8  N   UNL A   1      33.294  22.886  26.294  1.00  0.00    -0.337 N 
ATOM      9  C   UNL A   1      34.391  23.447  25.526  1.00  0.00     0.133 C 
ATOM     10  C   UNL A   1      33.504  21.577  26.916  1.00  0.00     0.133 C 
ATOM     11  C   UNL A   1      34.026  20.519  25.925  1.00  0.00     0.099 C 
ATOM     12  C   UNL A   1      35.202  21.026  25.089  1.00  0.00     0.030 C 
BRANCH   8  13
ATOM     13  C   UNL A   1      32.225  23.738  26.538  1.00  0.00     0.254 C 
ATOM     14  O   UNL A   1      31.536  23.656  27.555  1.00  0.00    -0.269 OA
BRANCH  13  15
ATOM     15  C   UNL A   1      31.777  24.704  25.514  1.00  0.00     0.042 A 
ATOM     16  C   UNL A   1      29.452  27.539  23.280  1.00  0.00     0.047 C 
ATOM     17  C   UNL A   1      30.331  26.551  23.984  1.00  0.00    -0.015 A 
ATOM     18  C   UNL A   1      30.323  25.194  23.639  1.00  0.00     0.007 A 
ATOM     19  C   UNL A   1      31.116  26.970  25.063  1.00  0.00     0.126 A 
ATOM     20  C   UNL A   1      31.038  24.269  24.405  1.00  0.00     0.014 A 
ATOM     21  C   UNL A   1      31.833  26.062  25.831  1.00  0.00     0.053 A 
ATOM     22  F   UNL A   1      31.129  28.264  25.413  1.00  0.00    -0.207 F 
ENDBRANCH  13  15
ENDBRANCH   8  13
BRANCH  11  23
ATOM     23  C   UNL A   1      32.832  19.822  25.250  1.00  0.00     0.227 C 
ATOM     24  O   UNL A   1      31.908  20.525  24.825  1.00  0.00    -0.275 OA
ATOM     25  N   UNL A   1      32.929  18.507  24.865  1.00  0.00    -0.338 N 
ATOM     26  C   UNL A   1      33.088  17.349  25.742  1.00  0.00     0.148 C 
ATOM     27  C   UNL A   1      32.470  18.126  23.530  1.00  0.00     0.148 C 
ATOM     28  C   UNL A   1      34.064  16.353  25.098  1.00  0.00     0.181 C 
ATOM     29  C   UNL A   1      33.444  17.101  22.938  1.00  0.00     0.181 C 
ATOM     30  O   UNL A   1      33.584  15.955  23.799  1.00  0.00    -0.378 OA
ENDBRANCH  11  23
ENDBRANCH   4   7
ENDBRANCH   2   3
ENDBRANCH   1   2
BRANCH   1  31
ATOM     31  C   UNL A   1      39.347  24.808  26.469  1.00  0.00     0.118 C 
BRANCH  31  32
ATOM     32  N   UNL A   1      40.499  25.177  25.654  1.00  0.00    -0.352 N 
ATOM     33  C   UNL A   1      41.388  26.209  25.824  1.00  0.00     0.251 C 
ATOM     34  H   UNL A   1      40.663  24.604  24.870  1.00  0.00     0.163 HD
ATOM     35  O   UNL A   1      42.138  26.534  24.906  1.00  0.00    -0.269 OA
BRANCH  33  36
ATOM     36  C   UNL A   1      41.413  26.931  27.109  1.00  0.00     0.039 A 
ATOM     37  C   UNL A   1      41.883  28.243  27.152  1.00  0.00     0.014 A 
ATOM     38  C   UNL A   1      40.926  26.314  28.264  1.00  0.00     0.014 A 
ATOM     39  C   UNL A   1      41.787  28.964  28.343  1.00  0.00     0.010 A 
ATOM     40  C   UNL A   1      40.724  27.067  29.410  1.00  0.00     0.010 A 
ATOM     41  C   UNL A   1      41.162  28.397  29.466  1.00  0.00    -0.014 A 
BRANCH  41  42
ATOM     42  C   UNL A   1      40.954  29.170  30.713  1.00  0.00     0.031 A 
ATOM     43  C   UNL A   1      39.851  30.193  30.785  1.00  0.00     0.074 A 
ATOM     44  C   UNL A   1      41.803  29.008  31.746  1.00  0.00     0.049 A 
ATOM     45  N   UNL A   1      39.555  31.016  31.756  1.00  0.00    -0.248 NA
ATOM     46  C   UNL A   1      38.988  30.330  29.598  1.00  0.00     0.031 C 
ATOM     47  C   UNL A   1      42.941  28.084  31.773  1.00  0.00     0.029 A 
ATOM     48  N   UNL A   1      41.848  29.621  32.972  1.00  0.00    -0.354 N 
ATOM     49  C   UNL A   1      38.491  31.778  31.292  1.00  0.00     0.074 A 
ATOM     50  C   UNL A   1      38.231  31.363  29.933  1.00  0.00     0.031 C 
ATOM     51  C   UNL A   1      43.547  28.167  32.968  1.00  0.00     0.029 A 
ATOM     52  C   UNL A   1      42.877  29.183  33.771  1.00  0.00     0.049 A 
ATOM     53  H   UNL A   1      41.203  30.310  33.254  1.00  0.00     0.167 HD
ATOM     54  C   UNL A   1      37.776  32.723  31.947  1.00  0.00     0.031 A 
ATOM     55  C   UNL A   1      43.247  29.564  35.010  1.00  0.00     0.031 A 
ATOM     56  C   UNL A   1      38.035  33.123  33.305  1.00  0.00     0.049 A 
ATOM     57  C   UNL A   1      42.449  30.627  35.713  1.00  0.00     0.074 A 
ATOM     58  C   UNL A   1      37.333  34.025  34.083  1.00  0.00     0.029 A 
ATOM     59  N   UNL A   1      39.083  32.650  34.082  1.00  0.00    -0.354 N 
ATOM     60  N   UNL A   1      41.395  31.280  35.286  1.00  0.00    -0.248 NA
ATOM     61  C   UNL A   1      42.884  30.997  37.066  1.00  0.00     0.031 C 
ATOM     62  C   UNL A   1      37.993  34.145  35.309  1.00  0.00     0.029 A 
ATOM     63  C   UNL A   1      39.066  33.267  35.321  1.00  0.00     0.049 A 
ATOM     64  H   UNL A   1      39.740  31.976  33.795  1.00  0.00     0.167 HD
ATOM     65  C   UNL A   1      41.026  32.124  36.328  1.00  0.00     0.074 A 
ATOM     66  C   UNL A   1      41.959  31.882  37.411  1.00  0.00     0.031 C 
ATOM     67  C   UNL A   1      40.008  33.018  36.383  1.00  0.00     0.031 A 
BRANCH  54  68
ATOM     68  C   UNL A   1      36.654  33.393  31.199  1.00  0.00    -0.014 A 
ATOM     69  C   UNL A   1      36.854  33.937  29.915  1.00  0.00     0.010 A 
ATOM     70  C   UNL A   1      35.370  33.453  31.772  1.00  0.00     0.010 A 
ATOM     71  C   UNL A   1      35.806  34.567  29.241  1.00  0.00     0.020 A 
ATOM     72  C   UNL A   1      34.311  34.054  31.086  1.00  0.00     0.020 A 
ATOM     73  C   UNL A   1      34.540  34.623  29.831  1.00  0.00     0.054 A 
BRANCH  73  74
ATOM     74  S   UNL A   1      33.194  35.428  28.922  1.00  0.00     0.124 S 
ATOM     75  O   UNL A   1      32.617  34.307  28.184  1.00  0.00    -0.237 OA
ATOM     76  O   UNL A   1      32.363  35.968  29.996  1.00  0.00    -0.237 OA
ATOM     77  O   UNL A   1      33.876  36.427  28.103  1.00  0.00    -0.744 OA
ENDBRANCH  73  74
ENDBRANCH  54  68
BRANCH  55  78
ATOM     78  C   UNL A   1      44.423  28.924  35.662  1.00  0.00    -0.014 A 
ATOM     79  C   UNL A   1      45.709  29.472  35.511  1.00  0.00     0.010 A 
ATOM     80  C   UNL A   1      44.259  27.776  36.460  1.00  0.00     0.010 A 
ATOM     81  C   UNL A   1      46.810  28.878  36.136  1.00  0.00     0.020 A 
ATOM     82  C   UNL A   1      45.352  27.198  37.110  1.00  0.00     0.020 A 
ATOM     83  C   UNL A   1      46.623  27.747  36.936  1.00  0.00     0.054 A 
BRANCH  83  84
ATOM     84  S   UNL A   1      48.058  27.031  37.786  1.00  0.00     0.124 S 
ATOM     85  O   UNL A   1      47.682  25.625  37.884  1.00  0.00    -0.237 OA
ATOM     86  O   UNL A   1      49.150  27.335  36.865  1.00  0.00    -0.237 OA
ATOM     87  O   UNL A   1      48.101  27.760  39.052  1.00  0.00    -0.744 OA
ENDBRANCH  83  84
ENDBRANCH  55  78
BRANCH  67  88
ATOM     88  C   UNL A   1      39.830  33.788  37.666  1.00  0.00    -0.014 A 
ATOM     89  C   UNL A   1      40.500  35.003  37.884  1.00  0.00     0.010 A 
ATOM     90  C   UNL A   1      38.926  33.317  38.636  1.00  0.00     0.010 A 
ATOM     91  C   UNL A   1      40.290  35.722  39.063  1.00  0.00     0.020 A 
ATOM     92  C   UNL A   1      38.689  34.050  39.802  1.00  0.00     0.020 A 
ATOM     93  C   UNL A   1      39.382  35.242  40.013  1.00  0.00     0.054 A 
BRANCH  93  94
ATOM     94  S   UNL A   1      39.086  36.224  41.509  1.00  0.00     0.124 S 
ATOM     95  O   UNL A   1      37.897  35.583  42.063  1.00  0.00    -0.237 OA
ATOM     96  O   UNL A   1      40.318  36.027  42.268  1.00  0.00    -0.237 OA
ATOM     97  O   UNL A   1      38.884  37.579  41.000  1.00  0.00    -0.744 OA
ENDBRANCH  93  94
ENDBRANCH  67  88
ENDBRANCH  41  42
ENDBRANCH  33  36
ENDBRANCH  31  32
ENDBRANCH   1  31
TORSDOF 16
ENDMDL
MODEL 3
REMARK VINA RESULT:     -12.3      3.645      5.134
REMARK SMILES Cc1ccc(C(=O)N2C[C@@H](C(=O)NCCCNC(=O)c3ccc(-c4c5nc(c(-c6ccc(S(=O)(=O)[O-])cc6)c6ccc([nH]6)c(-c6ccc(S(=O)(=O)[O-])cc6)c6nc(c(-c7ccc(S(=O)(=O)[O-])cc7)c7ccc4[nH]7)C=C6)C=C5)cc3)C[C@H](C(=O)N3CCOCC3)C2)cc1F
REMARK SMILES IDX 15 1 14 2 13 3 11 4 12 5 10 7 8 8 9 9 90 10 81 11 80 12 6 13
REMARK SMILES IDX 7 14 5 15 1 16 2 17 3 18 92 19 4 20 91 21 93 22 82 23 83 24
REMARK SMILES IDX 84 25 85 26 89 27 86 28 88 29 87 30 16 31 17 32 18 33 19 35
REMARK SMILES IDX 20 36 21 37 79 38 22 39 78 40 23 41 24 42 25 43 72 44 26 45
REMARK SMILES IDX 77 46 71 47 73 48 27 49 76 50 70 51 69 52 28 54 58 55 39 56
REMARK SMILES IDX 57 57 40 58 43 59 56 60 74 61 41 62 42 63 55 65 75 66 44 67
REMARK SMILES IDX 29 68 30 69 38 70 31 71 37 72 32 73 33 74 34 75 35 76 36 77
REMARK SMILES IDX 59 78 60 79 68 80 61 81 67 82 62 83 63 84 64 85 65 86 66 87
REMARK SMILES IDX 45 88 46 89 54 90 47 91 53 92 48 93 49 94 50 95 51 96 52 97
REMARK H PARENT 13 6 17 34 73 53 43 64
REMARK Flexibility Score: inf
ROOT
ATOM      1  C   UNL A   1      39.319  22.472  26.320  1.00  0.00     0.042 C 
ENDROOT
BRANCH   1   2
ATOM      2  C   UNL A   1      37.871  22.219  25.950  1.00  0.00     0.117 C 
BRANCH   2   3
ATOM      3  N   UNL A   1      37.536  22.833  24.678  1.00  0.00    -0.356 N 
ATOM      4  C   UNL A   1      36.371  22.864  23.992  1.00  0.00     0.224 C 
ATOM      5  O   UNL A   1      36.381  23.325  22.849  1.00  0.00    -0.275 OA
ATOM      6  H   UNL A   1      38.282  23.305  24.242  1.00  0.00     0.163 HD
BRANCH   4   7
ATOM      7  C   UNL A   1      35.084  22.361  24.604  1.00  0.00     0.099 C 
ATOM      8  N   UNL A   1      33.357  22.888  26.319  1.00  0.00    -0.337 N 
ATOM      9  C   UNL A   1      34.476  23.389  25.541  1.00  0.00     0.133 C 
ATOM     10  C   UNL A   1      33.509  21.579  26.957  1.00  0.00     0.133 C 
ATOM     11  C   UNL A   1      33.980  20.486  25.978  1.00  0.00     0.099 C 
ATOM     12  C   UNL A   1      35.175  20.929  25.133  1.00  0.00     0.030 C 
BRANCH   8  13
ATOM     13  C   UNL A   1      32.328  23.790  26.554  1.00  0.00     0.254 C 
ATOM     14  O   UNL A   1      31.423  23.563  27.359  1.00  0.00    -0.269 OA
BRANCH  13  15
ATOM     15  C   UNL A   1      32.195  25.017  25.742  1.00  0.00     0.042 A 
ATOM     16  C   UNL A   1      30.938  28.844  24.257  1.00  0.00     0.047 C 
ATOM     17  C   UNL A   1      31.434  27.499  24.692  1.00  0.00    -0.015 A 
ATOM     18  C   UNL A   1      30.886  26.319  24.173  1.00  0.00     0.007 A 
ATOM     19  C   UNL A   1      32.404  27.411  25.695  1.00  0.00     0.126 A 
ATOM     20  C   UNL A   1      31.260  25.079  24.701  1.00  0.00     0.014 A 
ATOM     21  C   UNL A   1      32.785  26.186  26.227  1.00  0.00     0.053 A 
ATOM     22  F   UNL A   1      32.932  28.530  26.210  1.00  0.00    -0.207 F 
ENDBRANCH  13  15
ENDBRANCH   8  13
BRANCH  11  23
ATOM     23  C   UNL A   1      32.755  19.835  25.315  1.00  0.00     0.227 C 
ATOM     24  O   UNL A   1      31.804  20.561  25.002  1.00  0.00    -0.275 OA
ATOM     25  N   UNL A   1      32.838  18.557  24.816  1.00  0.00    -0.338 N 
ATOM     26  C   UNL A   1      33.052  17.332  25.584  1.00  0.00     0.148 C 
ATOM     27  C   UNL A   1      32.307  18.284  23.482  1.00  0.00     0.148 C 
ATOM     28  C   UNL A   1      33.997  16.403  24.806  1.00  0.00     0.181 C 
ATOM     29  C   UNL A   1      33.252  17.321  22.753  1.00  0.00     0.181 C 
ATOM     30  O   UNL A   1      33.446  16.110  23.508  1.00  0.00    -0.378 OA
ENDBRANCH  11  23
ENDBRANCH   4   7
ENDBRANCH   2   3
ENDBRANCH   1   2
BRANCH   1  31
ATOM     31  C   UNL A   1      39.611  23.935  26.602  1.00  0.00     0.118 C 
BRANCH  31  32
ATOM     32  N   UNL A   1      40.763  24.422  25.851  1.00  0.00    -0.352 N 
ATOM     33  C   UNL A   1      41.359  25.657  25.881  1.00  0.00     0.251 C 
ATOM     34  H   UNL A   1      41.172  23.770  25.236  1.00  0.00     0.163 HD
ATOM     35  O   UNL A   1      42.150  25.981  24.997  1.00  0.00    -0.269 OA
BRANCH  33  36
ATOM     36  C   UNL A   1      41.019  26.593  26.968  1.00  0.00     0.039 A 
ATOM     37  C   UNL A   1      40.222  26.157  28.026  1.00  0.00     0.014 A 
ATOM     38  C   UNL A   1      41.531  27.893  26.954  1.00  0.00     0.014 A 
ATOM     39  C   UNL A   1      40.008  27.005  29.113  1.00  0.00     0.010 A 
ATOM     40  C   UNL A   1      41.414  28.688  28.083  1.00  0.00     0.010 A 
ATOM     41  C   UNL A   1      40.642  28.257  29.171  1.00  0.00    -0.014 A 
BRANCH  41  42
ATOM     42  C   UNL A   1      40.516  29.139  30.355  1.00  0.00     0.031 A 
ATOM     43  C   UNL A   1      41.388  28.905  31.560  1.00  0.00     0.074 A 
ATOM     44  C   UNL A   1      39.567  30.095  30.375  1.00  0.00     0.049 A 
ATOM     45  N   UNL A   1      41.380  29.519  32.714  1.00  0.00    -0.248 NA
ATOM     46  C   UNL A   1      42.378  27.817  31.467  1.00  0.00     0.031 C 
ATOM     47  C   UNL A   1      38.628  30.382  29.287  1.00  0.00     0.029 A 
ATOM     48  N   UNL A   1      39.228  30.999  31.350  1.00  0.00    -0.354 N 
ATOM     49  C   UNL A   1      42.343  28.882  33.486  1.00  0.00     0.074 A 
ATOM     50  C   UNL A   1      42.874  27.797  32.694  1.00  0.00     0.031 C 
ATOM     51  C   UNL A   1      37.845  31.413  29.641  1.00  0.00     0.029 A 
ATOM     52  C   UNL A   1      38.189  31.827  30.997  1.00  0.00     0.049 A 
ATOM     53  H   UNL A   1      39.686  31.049  32.220  1.00  0.00     0.167 HD
ATOM     54  C   UNL A   1      42.765  29.188  34.735  1.00  0.00     0.031 A 
ATOM     55  C   UNL A   1      37.576  32.806  31.691  1.00  0.00     0.031 A 
ATOM     56  C   UNL A   1      42.238  30.277  35.513  1.00  0.00     0.049 A 
ATOM     57  C   UNL A   1      38.050  33.118  33.083  1.00  0.00     0.074 A 
ATOM     58  C   UNL A   1      42.638  30.713  36.763  1.00  0.00     0.029 A 
ATOM     59  N   UNL A   1      41.191  31.097  35.117  1.00  0.00    -0.354 N 
ATOM     60  N   UNL A   1      39.017  32.556  33.767  1.00  0.00    -0.248 NA
ATOM     61  C   UNL A   1      37.357  34.202  33.793  1.00  0.00     0.031 C 
ATOM     62  C   UNL A   1      41.791  31.756  37.150  1.00  0.00     0.029 A 
ATOM     63  C   UNL A   1      40.909  32.016  36.113  1.00  0.00     0.049 A 
ATOM     64  H   UNL A   1      40.719  31.035  34.255  1.00  0.00     0.167 HD
ATOM     65  C   UNL A   1      39.065  33.233  34.981  1.00  0.00     0.074 A 
ATOM     66  C   UNL A   1      38.042  34.258  34.927  1.00  0.00     0.031 C 
ATOM     67  C   UNL A   1      39.881  33.025  36.044  1.00  0.00     0.031 A 
BRANCH  54  68
ATOM     68  C   UNL A   1      43.844  28.327  35.338  1.00  0.00    -0.014 A 
ATOM     69  C   UNL A   1      43.528  27.172  36.079  1.00  0.00     0.010 A 
ATOM     70  C   UNL A   1      45.197  28.657  35.136  1.00  0.00     0.010 A 
ATOM     71  C   UNL A   1      44.540  26.392  36.643  1.00  0.00     0.020 A 
ATOM     72  C   UNL A   1      46.212  27.860  35.671  1.00  0.00     0.020 A 
ATOM     73  C   UNL A   1      45.876  26.742  36.436  1.00  0.00     0.054 A 
BRANCH  73  74
ATOM     74  S   UNL A   1      47.169  25.698  37.162  1.00  0.00     0.124 S 
ATOM     75  O   UNL A   1      48.377  26.251  36.557  1.00  0.00    -0.237 OA
ATOM     76  O   UNL A   1      47.013  25.946  38.593  1.00  0.00    -0.237 OA
ATOM     77  O   UNL A   1      46.814  24.350  36.724  1.00  0.00    -0.744 OA
ENDBRANCH  73  74
ENDBRANCH  54  68
BRANCH  55  78
ATOM     78  C   UNL A   1      36.453  33.563  31.070  1.00  0.00    -0.014 A 
ATOM     79  C   UNL A   1      36.488  33.902  29.707  1.00  0.00     0.010 A 
ATOM     80  C   UNL A   1      35.329  33.926  31.836  1.00  0.00     0.010 A 
ATOM     81  C   UNL A   1      35.427  34.601  29.123  1.00  0.00     0.020 A 
ATOM     82  C   UNL A   1      34.254  34.598  31.249  1.00  0.00     0.020 A 
ATOM     83  C   UNL A   1      34.313  34.940  29.898  1.00  0.00     0.054 A 
BRANCH  83  84
ATOM     84  S   UNL A   1      32.922  35.791  29.103  1.00  0.00     0.124 S 
ATOM     85  O   UNL A   1      33.586  36.912  28.446  1.00  0.00    -0.237 OA
ATOM     86  O   UNL A   1      32.390  34.759  28.216  1.00  0.00    -0.237 OA
ATOM     87  O   UNL A   1      32.054  36.145  30.224  1.00  0.00    -0.744 OA
ENDBRANCH  83  84
ENDBRANCH  55  78
BRANCH  67  88
ATOM     88  C   UNL A   1      39.721  33.938  37.230  1.00  0.00    -0.014 A 
ATOM     89  C   UNL A   1      40.284  35.225  37.240  1.00  0.00     0.010 A 
ATOM     90  C   UNL A   1      38.937  33.522  38.323  1.00  0.00     0.010 A 
ATOM     91  C   UNL A   1      40.089  36.072  38.334  1.00  0.00     0.020 A 
ATOM     92  C   UNL A   1      38.713  34.379  39.403  1.00  0.00     0.020 A 
ATOM     93  C   UNL A   1      39.300  35.644  39.407  1.00  0.00     0.054 A 
BRANCH  93  94
ATOM     94  S   UNL A   1      39.017  36.785  40.788  1.00  0.00     0.124 S 
ATOM     95  O   UNL A   1      38.389  37.921  40.119  1.00  0.00    -0.237 OA
ATOM     96  O   UNL A   1      38.145  36.011  41.667  1.00  0.00    -0.237 OA
ATOM     97  O   UNL A   1      40.358  37.035  41.312  1.00  0.00    -0.744 OA
ENDBRANCH  93  94
ENDBRANCH  67  88
ENDBRANCH  41  42
ENDBRANCH  33  36
ENDBRANCH  31  32
ENDBRANCH   1  31
TORSDOF 16
ENDMDL
