MODEL 1
REMARK VINA RESULT:     -11.9      0.000      0.000
REMARK SMILES Cc1cc2c(c(C)c1Cl)C=C(C(=O)NCCCNC(=O)c1ccc(-c3c4nc(c(-c5ccc(S(=O)(=O)[O-])cc5)c5ccc([nH]5)c(-c5ccc(S(=O)(=O)[O-])cc5)c5nc(c(-c6ccc(S(=O)(=O)[O-])cc6)c6ccc3[nH]6)C=C5)C=C4)cc1)[C@@H](C(F)(F)F)O2
REMARK SMILES IDX 17 1 16 2 15 3 14 4 12 5 13 6 11 8 1 9 2 10 3 11 8 12 4 13
REMARK SMILES IDX 6 14 9 15 5 16 86 17 7 18 10 19 81 20 82 21 83 22 84 23
REMARK SMILES IDX 85 24 18 25 19 26 20 28 21 29 22 30 80 31 23 32 79 33 24 34
REMARK SMILES IDX 25 35 26 36 73 37 27 38 78 39 72 40 74 41 28 42 77 43 71 44
REMARK SMILES IDX 70 45 29 47 59 48 40 49 58 50 41 51 44 52 57 53 75 54 42 55
REMARK SMILES IDX 43 56 56 58 76 59 45 60 30 61 31 62 39 63 32 64 38 65 33 66
REMARK SMILES IDX 34 67 35 68 36 69 37 70 60 71 61 72 69 73 62 74 68 75 63 76
REMARK SMILES IDX 64 77 65 78 66 79 67 80 46 81 47 82 55 83 48 84 54 85 49 86
REMARK SMILES IDX 50 87 51 88 52 89 53 90
REMARK H PARENT 14 7 18 27 74 46 44 57
REMARK Flexibility Score: inf
ROOT
ATOM      1  C   UNL A   1      33.823  28.530  26.350  1.00  0.00     0.118 C 
ENDROOT
BRANCH   1   2
ATOM      2  C   UNL A   1      33.679  28.472  24.836  1.00  0.00     0.042 C 
BRANCH   2   3
ATOM      3  C   UNL A   1      33.037  27.174  24.372  1.00  0.00     0.118 C 
BRANCH   3   4
ATOM      4  N   UNL A   1      32.127  26.631  25.369  1.00  0.00    -0.352 N 
ATOM      5  C   UNL A   1      31.889  25.432  25.948  1.00  0.00     0.251 C 
ATOM      6  O   UNL A   1      30.985  25.424  26.791  1.00  0.00    -0.270 OA
ATOM      7  H   UNL A   1      31.520  27.324  25.716  1.00  0.00     0.163 HD
BRANCH   5   8
ATOM      8  C   UNL A   1      32.630  24.172  25.647  1.00  0.00     0.067 C 
ATOM      9  C   UNL A   1      36.838  19.291  24.795  1.00  0.00     0.046 C 
ATOM     10  C   UNL A   1      36.145  20.582  25.135  1.00  0.00    -0.028 A 
ATOM     11  C   UNL A   1      34.754  20.633  25.029  1.00  0.00     0.052 A 
ATOM     12  C   UNL A   1      36.842  21.742  25.532  1.00  0.00     0.047 A 
ATOM     13  C   UNL A   1      34.071  21.812  25.299  1.00  0.00     0.128 A 
ATOM     14  C   UNL A   1      36.154  22.944  25.833  1.00  0.00    -0.021 A 
ATOM     15  Cl  UNL A   1      38.576  21.663  25.637  1.00  0.00    -0.084 Cl
ATOM     16  C   UNL A   1      34.744  22.969  25.707  1.00  0.00     0.022 A 
ATOM     17  O   UNL A   1      32.714  21.737  25.177  1.00  0.00    -0.475 OA
ATOM     18  C   UNL A   1      36.882  24.192  26.278  1.00  0.00     0.047 C 
ATOM     19  C   UNL A   1      33.927  24.151  26.006  1.00  0.00     0.026 C 
ATOM     20  C   UNL A   1      32.022  22.991  24.957  1.00  0.00     0.314 C 
BRANCH  20  21
ATOM     21  C   UNL A   1      31.836  23.216  23.443  1.00  0.00     0.429 C 
ATOM     22  F   UNL A   1      32.755  24.098  22.977  1.00  0.00    -0.167 F 
ATOM     23  F   UNL A   1      31.996  22.080  22.722  1.00  0.00    -0.167 F 
ATOM     24  F   UNL A   1      30.613  23.702  23.134  1.00  0.00    -0.167 F 
ENDBRANCH  20  21
ENDBRANCH   5   8
ENDBRANCH   3   4
ENDBRANCH   2   3
ENDBRANCH   1   2
BRANCH   1  25
ATOM     25  N   UNL A   1      33.703  29.898  26.852  1.00  0.00    -0.352 N 
ATOM     26  C   UNL A   1      34.483  30.580  27.751  1.00  0.00     0.251 C 
ATOM     27  H   UNL A   1      32.944  30.409  26.488  1.00  0.00     0.163 HD
ATOM     28  O   UNL A   1      34.055  31.609  28.269  1.00  0.00    -0.269 OA
BRANCH  26  29
ATOM     29  C   UNL A   1      35.826  30.076  28.091  1.00  0.00     0.039 A 
ATOM     30  C   UNL A   1      36.863  30.192  27.163  1.00  0.00     0.014 A 
ATOM     31  C   UNL A   1      36.053  29.466  29.327  1.00  0.00     0.014 A 
ATOM     32  C   UNL A   1      38.142  29.750  27.504  1.00  0.00     0.010 A 
ATOM     33  C   UNL A   1      37.343  29.126  29.703  1.00  0.00     0.010 A 
ATOM     34  C   UNL A   1      38.396  29.244  28.788  1.00  0.00    -0.014 A 
BRANCH  34  35
ATOM     35  C   UNL A   1      39.749  28.797  29.193  1.00  0.00     0.031 A 
ATOM     36  C   UNL A   1      40.633  29.720  29.987  1.00  0.00     0.074 A 
ATOM     37  C   UNL A   1      40.201  27.593  28.795  1.00  0.00     0.049 A 
ATOM     38  N   UNL A   1      41.862  29.538  30.391  1.00  0.00    -0.248 NA
ATOM     39  C   UNL A   1      40.070  31.032  30.351  1.00  0.00     0.031 C 
ATOM     40  C   UNL A   1      39.446  26.630  27.989  1.00  0.00     0.029 A 
ATOM     41  N   UNL A   1      41.404  26.972  29.014  1.00  0.00    -0.354 N 
ATOM     42  C   UNL A   1      42.223  30.713  31.040  1.00  0.00     0.074 A 
ATOM     43  C   UNL A   1      41.110  31.625  30.917  1.00  0.00     0.031 C 
ATOM     44  C   UNL A   1      40.188  25.523  27.822  1.00  0.00     0.029 A 
ATOM     45  C   UNL A   1      41.482  25.714  28.468  1.00  0.00     0.049 A 
ATOM     46  H   UNL A   1      42.141  27.388  29.517  1.00  0.00     0.167 HD
ATOM     47  C   UNL A   1      43.367  30.997  31.706  1.00  0.00     0.031 A 
ATOM     48  C   UNL A   1      42.484  24.814  28.486  1.00  0.00     0.031 A 
ATOM     49  C   UNL A   1      44.466  30.078  31.830  1.00  0.00     0.049 A 
ATOM     50  C   UNL A   1      43.756  25.156  29.210  1.00  0.00     0.074 A 
ATOM     51  C   UNL A   1      45.652  30.246  32.520  1.00  0.00     0.029 A 
ATOM     52  N   UNL A   1      44.512  28.821  31.249  1.00  0.00    -0.354 N 
ATOM     53  N   UNL A   1      44.059  26.252  29.866  1.00  0.00    -0.248 NA
ATOM     54  C   UNL A   1      44.816  24.141  29.204  1.00  0.00     0.031 C 
ATOM     55  C   UNL A   1      46.440  29.110  32.309  1.00  0.00     0.029 A 
ATOM     56  C   UNL A   1      45.719  28.209  31.539  1.00  0.00     0.049 A 
ATOM     57  H   UNL A   1      43.793  28.421  30.708  1.00  0.00     0.167 HD
ATOM     58  C   UNL A   1      45.341  26.053  30.365  1.00  0.00     0.074 A 
ATOM     59  C   UNL A   1      45.747  24.725  29.949  1.00  0.00     0.031 C 
ATOM     60  C   UNL A   1      46.110  26.891  31.102  1.00  0.00     0.031 A 
BRANCH  47  61
ATOM     61  C   UNL A   1      43.476  32.357  32.344  1.00  0.00    -0.014 A 
ATOM     62  C   UNL A   1      43.067  32.571  33.674  1.00  0.00     0.010 A 
ATOM     63  C   UNL A   1      44.003  33.436  31.611  1.00  0.00     0.010 A 
ATOM     64  C   UNL A   1      43.131  33.845  34.240  1.00  0.00     0.020 A 
ATOM     65  C   UNL A   1      44.100  34.707  32.185  1.00  0.00     0.020 A 
ATOM     66  C   UNL A   1      43.643  34.907  33.490  1.00  0.00     0.054 A 
BRANCH  66  67
ATOM     67  S   UNL A   1      43.714  36.551  34.253  1.00  0.00     0.124 S 
ATOM     68  O   UNL A   1      42.536  36.532  35.117  1.00  0.00    -0.237 OA
ATOM     69  O   UNL A   1      45.001  36.526  34.944  1.00  0.00    -0.237 OA
ATOM     70  O   UNL A   1      43.637  37.466  33.116  1.00  0.00    -0.744 OA
ENDBRANCH  66  67
ENDBRANCH  47  61
BRANCH  48  71
ATOM     71  C   UNL A   1      42.290  23.492  27.832  1.00  0.00    -0.014 A 
ATOM     72  C   UNL A   1      42.979  23.182  26.647  1.00  0.00     0.010 A 
ATOM     73  C   UNL A   1      41.476  22.510  28.427  1.00  0.00     0.010 A 
ATOM     74  C   UNL A   1      42.869  21.911  26.076  1.00  0.00     0.020 A 
ATOM     75  C   UNL A   1      41.383  21.230  27.872  1.00  0.00     0.020 A 
ATOM     76  C   UNL A   1      42.081  20.939  26.699  1.00  0.00     0.054 A 
BRANCH  76  77
ATOM     77  S   UNL A   1      42.036  19.270  25.990  1.00  0.00     0.124 S 
ATOM     78  O   UNL A   1      42.611  18.465  27.064  1.00  0.00    -0.237 OA
ATOM     79  O   UNL A   1      40.609  19.072  25.745  1.00  0.00    -0.237 OA
ATOM     80  O   UNL A   1      42.856  19.387  24.785  1.00  0.00    -0.744 OA
ENDBRANCH  76  77
ENDBRANCH  48  71
BRANCH  60  81
ATOM     81  C   UNL A   1      47.473  26.404  31.513  1.00  0.00    -0.014 A 
ATOM     82  C   UNL A   1      47.653  25.676  32.703  1.00  0.00     0.010 A 
ATOM     83  C   UNL A   1      48.571  26.601  30.655  1.00  0.00     0.010 A 
ATOM     84  C   UNL A   1      48.911  25.170  33.036  1.00  0.00     0.020 A 
ATOM     85  C   UNL A   1      49.824  26.072  30.972  1.00  0.00     0.020 A 
ATOM     86  C   UNL A   1      49.988  25.367  32.165  1.00  0.00     0.054 A 
BRANCH  86  87
ATOM     87  S   UNL A   1      51.595  24.646  32.596  1.00  0.00     0.124 S 
ATOM     88  O   UNL A   1      52.503  25.380  31.719  1.00  0.00    -0.237 OA
ATOM     89  O   UNL A   1      51.710  24.954  34.019  1.00  0.00    -0.237 OA
ATOM     90  O   UNL A   1      51.435  23.228  32.281  1.00  0.00    -0.744 OA
ENDBRANCH  86  87
ENDBRANCH  60  81
ENDBRANCH  34  35
ENDBRANCH  26  29
ENDBRANCH   1  25
TORSDOF 14
ENDMDL
MODEL 2
REMARK VINA RESULT:     -11.9      3.003      9.424
REMARK SMILES Cc1cc2c(c(C)c1Cl)C=C(C(=O)NCCCNC(=O)c1ccc(-c3c4nc(c(-c5ccc(S(=O)(=O)[O-])cc5)c5ccc([nH]5)c(-c5ccc(S(=O)(=O)[O-])cc5)c5nc(c(-c6ccc(S(=O)(=O)[O-])cc6)c6ccc3[nH]6)C=C5)C=C4)cc1)[C@@H](C(F)(F)F)O2
REMARK SMILES IDX 17 1 16 2 15 3 14 4 12 5 13 6 11 8 1 9 2 10 3 11 8 12 4 13
REMARK SMILES IDX 6 14 9 15 5 16 86 17 7 18 10 19 81 20 82 21 83 22 84 23
REMARK SMILES IDX 85 24 18 25 19 26 20 28 21 29 22 30 80 31 23 32 79 33 24 34
REMARK SMILES IDX 25 35 26 36 73 37 27 38 78 39 72 40 74 41 28 42 77 43 71 44
REMARK SMILES IDX 70 45 29 47 59 48 40 49 58 50 41 51 44 52 57 53 75 54 42 55
REMARK SMILES IDX 43 56 56 58 76 59 45 60 30 61 31 62 39 63 32 64 38 65 33 66
REMARK SMILES IDX 34 67 35 68 36 69 37 70 60 71 61 72 69 73 62 74 68 75 63 76
REMARK SMILES IDX 64 77 65 78 66 79 67 80 46 81 47 82 55 83 48 84 54 85 49 86
REMARK SMILES IDX 50 87 51 88 52 89 53 90
REMARK H PARENT 14 7 18 27 74 46 44 57
REMARK Flexibility Score: inf
ROOT
ATOM      1  C   UNL A   1      36.306  23.872  25.805  1.00  0.00     0.118 C 
ENDROOT
BRANCH   1   2
ATOM      2  C   UNL A   1      35.073  23.543  26.634  1.00  0.00     0.042 C 
BRANCH   2   3
ATOM      3  C   UNL A   1      33.851  23.288  25.766  1.00  0.00     0.118 C 
BRANCH   3   4
ATOM      4  N   UNL A   1      34.109  23.583  24.364  1.00  0.00    -0.352 N 
ATOM      5  C   UNL A   1      33.852  24.590  23.499  1.00  0.00     0.251 C 
ATOM      6  O   UNL A   1      34.281  24.421  22.352  1.00  0.00    -0.270 OA
ATOM      7  H   UNL A   1      34.603  22.852  23.929  1.00  0.00     0.163 HD
BRANCH   5   8
ATOM      8  C   UNL A   1      33.122  25.846  23.836  1.00  0.00     0.067 C 
ATOM      9  C   UNL A   1      30.931  31.571  26.002  1.00  0.00     0.046 C 
ATOM     10  C   UNL A   1      31.724  30.332  25.690  1.00  0.00    -0.028 A 
ATOM     11  C   UNL A   1      31.252  29.479  24.691  1.00  0.00     0.052 A 
ATOM     12  C   UNL A   1      32.906  29.987  26.378  1.00  0.00     0.047 A 
ATOM     13  C   UNL A   1      31.931  28.305  24.390  1.00  0.00     0.128 A 
ATOM     14  C   UNL A   1      33.621  28.804  26.064  1.00  0.00    -0.021 A 
ATOM     15  Cl  UNL A   1      33.466  31.053  27.634  1.00  0.00    -0.084 Cl
ATOM     16  C   UNL A   1      33.112  27.953  25.053  1.00  0.00     0.022 A 
ATOM     17  O   UNL A   1      31.384  27.560  23.386  1.00  0.00    -0.475 OA
ATOM     18  C   UNL A   1      34.899  28.428  26.777  1.00  0.00     0.047 C 
ATOM     19  C   UNL A   1      33.774  26.713  24.633  1.00  0.00     0.026 C 
ATOM     20  C   UNL A   1      31.731  26.154  23.371  1.00  0.00     0.314 C 
BRANCH  20  21
ATOM     21  C   UNL A   1      30.658  25.352  24.133  1.00  0.00     0.429 C 
ATOM     22  F   UNL A   1      29.418  25.813  23.836  1.00  0.00    -0.167 F 
ATOM     23  F   UNL A   1      30.663  24.035  23.813  1.00  0.00    -0.167 F 
ATOM     24  F   UNL A   1      30.808  25.424  25.476  1.00  0.00    -0.167 F 
ENDBRANCH  20  21
ENDBRANCH   5   8
ENDBRANCH   3   4
ENDBRANCH   2   3
ENDBRANCH   1   2
BRANCH   1  25
ATOM     25  N   UNL A   1      37.329  22.834  25.922  1.00  0.00    -0.352 N 
ATOM     26  C   UNL A   1      38.663  22.940  26.226  1.00  0.00     0.251 C 
ATOM     27  H   UNL A   1      37.011  21.917  25.757  1.00  0.00     0.163 HD
ATOM     28  O   UNL A   1      39.417  21.999  25.985  1.00  0.00    -0.269 OA
BRANCH  26  29
ATOM     29  C   UNL A   1      39.182  24.176  26.837  1.00  0.00     0.039 A 
ATOM     30  C   UNL A   1      39.928  25.069  26.064  1.00  0.00     0.014 A 
ATOM     31  C   UNL A   1      38.947  24.441  28.188  1.00  0.00     0.014 A 
ATOM     32  C   UNL A   1      40.384  26.257  26.637  1.00  0.00     0.010 A 
ATOM     33  C   UNL A   1      39.308  25.667  28.725  1.00  0.00     0.010 A 
ATOM     34  C   UNL A   1      40.048  26.578  27.961  1.00  0.00    -0.014 A 
BRANCH  34  35
ATOM     35  C   UNL A   1      40.488  27.846  28.588  1.00  0.00     0.031 A 
ATOM     36  C   UNL A   1      41.899  27.978  29.094  1.00  0.00     0.074 A 
ATOM     37  C   UNL A   1      39.606  28.849  28.757  1.00  0.00     0.049 A 
ATOM     38  N   UNL A   1      42.460  28.980  29.717  1.00  0.00    -0.248 NA
ATOM     39  C   UNL A   1      42.788  26.818  28.898  1.00  0.00     0.031 C 
ATOM     40  C   UNL A   1      38.201  28.819  28.341  1.00  0.00     0.029 A 
ATOM     41  N   UNL A   1      39.759  30.088  29.321  1.00  0.00    -0.354 N 
ATOM     42  C   UNL A   1      43.757  28.567  30.000  1.00  0.00     0.074 A 
ATOM     43  C   UNL A   1      43.879  27.202  29.542  1.00  0.00     0.031 C 
ATOM     44  C   UNL A   1      37.636  30.003  28.624  1.00  0.00     0.029 A 
ATOM     45  C   UNL A   1      38.620  30.858  29.279  1.00  0.00     0.049 A 
ATOM     46  H   UNL A   1      40.604  30.399  29.718  1.00  0.00     0.167 HD
ATOM     47  C   UNL A   1      44.768  29.273  30.562  1.00  0.00     0.031 A 
ATOM     48  C   UNL A   1      38.396  32.111  29.718  1.00  0.00     0.031 A 
ATOM     49  C   UNL A   1      44.639  30.633  31.005  1.00  0.00     0.049 A 
ATOM     50  C   UNL A   1      39.523  32.870  30.361  1.00  0.00     0.074 A 
ATOM     51  C   UNL A   1      45.610  31.456  31.547  1.00  0.00     0.029 A 
ATOM     52  N   UNL A   1      43.466  31.371  30.960  1.00  0.00    -0.354 N 
ATOM     53  N   UNL A   1      40.759  32.483  30.570  1.00  0.00    -0.248 NA
ATOM     54  C   UNL A   1      39.228  34.232  30.820  1.00  0.00     0.031 C 
ATOM     55  C   UNL A   1      45.008  32.674  31.881  1.00  0.00     0.029 A 
ATOM     56  C   UNL A   1      43.678  32.631  31.490  1.00  0.00     0.049 A 
ATOM     57  H   UNL A   1      42.607  31.045  30.603  1.00  0.00     0.167 HD
ATOM     58  C   UNL A   1      41.397  33.562  31.172  1.00  0.00     0.074 A 
ATOM     59  C   UNL A   1      40.412  34.621  31.276  1.00  0.00     0.031 C 
ATOM     60  C   UNL A   1      42.680  33.666  31.597  1.00  0.00     0.031 A 
BRANCH  47  61
ATOM     61  C   UNL A   1      46.092  28.573  30.725  1.00  0.00    -0.014 A 
ATOM     62  C   UNL A   1      46.346  27.752  31.842  1.00  0.00     0.010 A 
ATOM     63  C   UNL A   1      47.093  28.726  29.750  1.00  0.00     0.010 A 
ATOM     64  C   UNL A   1      47.591  27.145  32.006  1.00  0.00     0.020 A 
ATOM     65  C   UNL A   1      48.331  28.092  29.894  1.00  0.00     0.020 A 
ATOM     66  C   UNL A   1      48.579  27.321  31.033  1.00  0.00     0.054 A 
BRANCH  66  67
ATOM     67  S   UNL A   1      50.187  26.519  31.274  1.00  0.00     0.124 S 
ATOM     68  O   UNL A   1      49.962  25.208  30.669  1.00  0.00    -0.237 OA
ATOM     69  O   UNL A   1      51.095  27.400  30.544  1.00  0.00    -0.237 OA
ATOM     70  O   UNL A   1      50.360  26.513  32.725  1.00  0.00    -0.744 OA
ENDBRANCH  66  67
ENDBRANCH  47  61
BRANCH  48  71
ATOM     71  C   UNL A   1      37.057  32.726  29.514  1.00  0.00    -0.014 A 
ATOM     72  C   UNL A   1      36.136  32.785  30.574  1.00  0.00     0.010 A 
ATOM     73  C   UNL A   1      36.722  33.324  28.284  1.00  0.00     0.010 A 
ATOM     74  C   UNL A   1      34.912  33.440  30.414  1.00  0.00     0.020 A 
ATOM     75  C   UNL A   1      35.509  34.001  28.128  1.00  0.00     0.020 A 
ATOM     76  C   UNL A   1      34.611  34.054  29.195  1.00  0.00     0.054 A 
BRANCH  76  77
ATOM     77  S   UNL A   1      33.059  34.982  29.049  1.00  0.00     0.124 S 
ATOM     78  O   UNL A   1      32.517  34.888  30.401  1.00  0.00    -0.237 OA
ATOM     79  O   UNL A   1      33.524  36.307  28.643  1.00  0.00    -0.237 OA
ATOM     80  O   UNL A   1      32.317  34.250  28.023  1.00  0.00    -0.744 OA
ENDBRANCH  76  77
ENDBRANCH  48  71
BRANCH  60  81
ATOM     81  C   UNL A   1      43.103  34.972  32.214  1.00  0.00    -0.014 A 
ATOM     82  C   UNL A   1      43.683  35.988  31.434  1.00  0.00     0.010 A 
ATOM     83  C   UNL A   1      42.837  35.218  33.575  1.00  0.00     0.010 A 
ATOM     84  C   UNL A   1      44.006  37.219  32.007  1.00  0.00     0.020 A 
ATOM     85  C   UNL A   1      43.133  36.458  34.144  1.00  0.00     0.020 A 
ATOM     86  C   UNL A   1      43.724  37.449  33.358  1.00  0.00     0.054 A 
BRANCH  86  87
ATOM     87  S   UNL A   1      44.100  39.078  34.058  1.00  0.00     0.124 S 
ATOM     88  O   UNL A   1      42.879  39.824  33.766  1.00  0.00    -0.237 OA
ATOM     89  O   UNL A   1      44.328  38.774  35.468  1.00  0.00    -0.237 OA
ATOM     90  O   UNL A   1      45.285  39.509  33.320  1.00  0.00    -0.744 OA
ENDBRANCH  86  87
ENDBRANCH  60  81
ENDBRANCH  34  35
ENDBRANCH  26  29
ENDBRANCH   1  25
TORSDOF 14
ENDMDL
MODEL 3
REMARK VINA RESULT:     -11.5      4.573     11.286
REMARK SMILES Cc1cc2c(c(C)c1Cl)C=C(C(=O)NCCCNC(=O)c1ccc(-c3c4nc(c(-c5ccc(S(=O)(=O)[O-])cc5)c5ccc([nH]5)c(-c5ccc(S(=O)(=O)[O-])cc5)c5nc(c(-c6ccc(S(=O)(=O)[O-])cc6)c6ccc3[nH]6)C=C5)C=C4)cc1)[C@@H](C(F)(F)F)O2
REMARK SMILES IDX 17 1 16 2 15 3 14 4 12 5 13 6 11 8 1 9 2 10 3 11 8 12 4 13
REMARK SMILES IDX 6 14 9 15 5 16 86 17 7 18 10 19 81 20 82 21 83 22 84 23
REMARK SMILES IDX 85 24 18 25 19 26 20 28 21 29 22 30 80 31 23 32 79 33 24 34
REMARK SMILES IDX 25 35 26 36 73 37 27 38 78 39 72 40 74 41 28 42 77 43 71 44
REMARK SMILES IDX 70 45 29 47 59 48 40 49 58 50 41 51 44 52 57 53 75 54 42 55
REMARK SMILES IDX 43 56 56 58 76 59 45 60 30 61 31 62 39 63 32 64 38 65 33 66
REMARK SMILES IDX 34 67 35 68 36 69 37 70 60 71 61 72 69 73 62 74 68 75 63 76
REMARK SMILES IDX 64 77 65 78 66 79 67 80 46 81 47 82 55 83 48 84 54 85 49 86
REMARK SMILES IDX 50 87 51 88 52 89 53 90
REMARK H PARENT 14 7 18 27 74 46 44 57
REMARK Flexibility Score: inf
ROOT
ATOM      1  C   UNL A   1      41.358  21.839  26.522  1.00  0.00     0.118 C 
ENDROOT
BRANCH   1   2
ATOM      2  C   UNL A   1      42.429  22.395  25.595  1.00  0.00     0.042 C 
BRANCH   2   3
ATOM      3  C   UNL A   1      43.828  21.978  26.020  1.00  0.00     0.118 C 
BRANCH   3   4
ATOM      4  N   UNL A   1      44.234  22.623  27.261  1.00  0.00    -0.352 N 
ATOM      5  C   UNL A   1      45.107  23.583  27.640  1.00  0.00     0.251 C 
ATOM      6  O   UNL A   1      45.120  23.835  28.850  1.00  0.00    -0.270 OA
ATOM      7  H   UNL A   1      43.738  22.263  28.031  1.00  0.00     0.163 HD
BRANCH   5   8
ATOM      8  C   UNL A   1      46.013  24.331  26.720  1.00  0.00     0.067 C 
ATOM      9  C   UNL A   1      50.825  27.354  23.563  1.00  0.00     0.046 C 
ATOM     10  C   UNL A   1      49.967  26.578  24.525  1.00  0.00    -0.028 A 
ATOM     11  C   UNL A   1      48.674  26.235  24.130  1.00  0.00     0.052 A 
ATOM     12  C   UNL A   1      50.408  26.207  25.813  1.00  0.00     0.047 A 
ATOM     13  C   UNL A   1      47.832  25.548  24.995  1.00  0.00     0.128 A 
ATOM     14  C   UNL A   1      49.566  25.486  26.696  1.00  0.00    -0.021 A 
ATOM     15  Cl  UNL A   1      52.015  26.663  26.295  1.00  0.00    -0.084 Cl
ATOM     16  C   UNL A   1      48.255  25.160  26.270  1.00  0.00     0.022 A 
ATOM     17  O   UNL A   1      46.598  25.255  24.493  1.00  0.00    -0.475 OA
ATOM     18  C   UNL A   1      50.026  25.063  28.072  1.00  0.00     0.047 C 
ATOM     19  C   UNL A   1      47.304  24.404  27.093  1.00  0.00     0.026 C 
ATOM     20  C   UNL A   1      45.553  25.008  25.465  1.00  0.00     0.314 C 
BRANCH  20  21
ATOM     21  C   UNL A   1      44.789  26.317  25.741  1.00  0.00     0.429 C 
ATOM     22  F   UNL A   1      45.283  26.934  26.843  1.00  0.00    -0.167 F 
ATOM     23  F   UNL A   1      44.892  27.208  24.725  1.00  0.00    -0.167 F 
ATOM     24  F   UNL A   1      43.467  26.117  25.947  1.00  0.00    -0.167 F 
ENDBRANCH  20  21
ENDBRANCH   5   8
ENDBRANCH   3   4
ENDBRANCH   2   3
ENDBRANCH   1   2
BRANCH   1  25
ATOM     25  N   UNL A   1      40.023  21.961  25.940  1.00  0.00    -0.352 N 
ATOM     26  C   UNL A   1      39.046  22.899  26.162  1.00  0.00     0.251 C 
ATOM     27  H   UNL A   1      39.788  21.263  25.287  1.00  0.00     0.163 HD
ATOM     28  O   UNL A   1      37.891  22.668  25.808  1.00  0.00    -0.269 OA
BRANCH  26  29
ATOM     29  C   UNL A   1      39.385  24.173  26.821  1.00  0.00     0.039 A 
ATOM     30  C   UNL A   1      39.049  24.368  28.163  1.00  0.00     0.014 A 
ATOM     31  C   UNL A   1      40.019  25.187  26.099  1.00  0.00     0.014 A 
ATOM     32  C   UNL A   1      39.408  25.560  28.793  1.00  0.00     0.010 A 
ATOM     33  C   UNL A   1      40.468  26.323  26.754  1.00  0.00     0.010 A 
ATOM     34  C   UNL A   1      40.148  26.531  28.102  1.00  0.00    -0.014 A 
BRANCH  34  35
ATOM     35  C   UNL A   1      40.573  27.793  28.752  1.00  0.00     0.031 A 
ATOM     36  C   UNL A   1      41.967  27.913  29.305  1.00  0.00     0.074 A 
ATOM     37  C   UNL A   1      39.690  28.799  28.897  1.00  0.00     0.049 A 
ATOM     38  N   UNL A   1      42.511  28.908  29.954  1.00  0.00    -0.248 NA
ATOM     39  C   UNL A   1      42.856  26.751  29.132  1.00  0.00     0.031 C 
ATOM     40  C   UNL A   1      38.300  28.778  28.434  1.00  0.00     0.029 A 
ATOM     41  N   UNL A   1      39.830  30.033  29.475  1.00  0.00    -0.354 N 
ATOM     42  C   UNL A   1      43.796  28.487  30.278  1.00  0.00     0.074 A 
ATOM     43  C   UNL A   1      43.926  27.125  29.815  1.00  0.00     0.031 C 
ATOM     44  C   UNL A   1      37.731  29.963  28.706  1.00  0.00     0.029 A 
ATOM     45  C   UNL A   1      38.697  30.809  29.400  1.00  0.00     0.049 A 
ATOM     46  H   UNL A   1      40.663  30.337  29.903  1.00  0.00     0.167 HD
ATOM     47  C   UNL A   1      44.790  29.184  30.878  1.00  0.00     0.031 A 
ATOM     48  C   UNL A   1      38.464  32.060  29.840  1.00  0.00     0.031 A 
ATOM     49  C   UNL A   1      44.653  30.542  31.327  1.00  0.00     0.049 A 
ATOM     50  C   UNL A   1      39.572  32.809  30.525  1.00  0.00     0.074 A 
ATOM     51  C   UNL A   1      45.609  31.356  31.906  1.00  0.00     0.029 A 
ATOM     52  N   UNL A   1      43.486  31.286  31.247  1.00  0.00    -0.354 N 
ATOM     53  N   UNL A   1      40.799  32.414  30.774  1.00  0.00    -0.248 NA
ATOM     54  C   UNL A   1      39.269  34.170  30.984  1.00  0.00     0.031 C 
ATOM     55  C   UNL A   1      45.002  32.575  32.228  1.00  0.00     0.029 A 
ATOM     56  C   UNL A   1      43.686  32.541  31.792  1.00  0.00     0.049 A 
ATOM     57  H   UNL A   1      42.638  30.967  30.859  1.00  0.00     0.167 HD
ATOM     58  C   UNL A   1      41.421  33.486  31.404  1.00  0.00     0.074 A 
ATOM     59  C   UNL A   1      40.439  34.549  31.483  1.00  0.00     0.031 C 
ATOM     60  C   UNL A   1      42.690  33.581  31.873  1.00  0.00     0.031 A 
BRANCH  47  61
ATOM     61  C   UNL A   1      46.104  28.476  31.082  1.00  0.00    -0.014 A 
ATOM     62  C   UNL A   1      46.374  27.775  32.273  1.00  0.00     0.010 A 
ATOM     63  C   UNL A   1      47.080  28.501  30.069  1.00  0.00     0.010 A 
ATOM     64  C   UNL A   1      47.612  27.161  32.469  1.00  0.00     0.020 A 
ATOM     65  C   UNL A   1      48.309  27.859  30.248  1.00  0.00     0.020 A 
ATOM     66  C   UNL A   1      48.574  27.210  31.457  1.00  0.00     0.054 A 
BRANCH  66  67
ATOM     67  S   UNL A   1      50.173  26.402  31.741  1.00  0.00     0.124 S 
ATOM     68  O   UNL A   1      51.005  27.012  30.707  1.00  0.00    -0.237 OA
ATOM     69  O   UNL A   1      50.488  26.793  33.113  1.00  0.00    -0.237 OA
ATOM     70  O   UNL A   1      49.884  24.982  31.551  1.00  0.00    -0.744 OA
ENDBRANCH  66  67
ENDBRANCH  47  61
BRANCH  48  71
ATOM     71  C   UNL A   1      37.135  32.684  29.595  1.00  0.00    -0.014 A 
ATOM     72  C   UNL A   1      36.141  32.641  30.587  1.00  0.00     0.010 A 
ATOM     73  C   UNL A   1      36.883  33.388  28.403  1.00  0.00     0.010 A 
ATOM     74  C   UNL A   1      34.923  33.301  30.398  1.00  0.00     0.020 A 
ATOM     75  C   UNL A   1      35.676  34.069  28.220  1.00  0.00     0.020 A 
ATOM     76  C   UNL A   1      34.703  34.021  29.220  1.00  0.00     0.054 A 
BRANCH  76  77
ATOM     77  S   UNL A   1      33.154  34.949  29.044  1.00  0.00     0.124 S 
ATOM     78  O   UNL A   1      32.611  34.897  30.398  1.00  0.00    -0.237 OA
ATOM     79  O   UNL A   1      33.624  36.259  28.600  1.00  0.00    -0.237 OA
ATOM     80  O   UNL A   1      32.411  34.189  28.040  1.00  0.00    -0.744 OA
ENDBRANCH  76  77
ENDBRANCH  48  71
BRANCH  60  81
ATOM     81  C   UNL A   1      43.098  34.880  32.513  1.00  0.00    -0.014 A 
ATOM     82  C   UNL A   1      43.569  35.953  31.737  1.00  0.00     0.010 A 
ATOM     83  C   UNL A   1      42.926  35.058  33.899  1.00  0.00     0.010 A 
ATOM     84  C   UNL A   1      43.878  37.176  32.337  1.00  0.00     0.020 A 
ATOM     85  C   UNL A   1      43.207  36.288  34.498  1.00  0.00     0.020 A 
ATOM     86  C   UNL A   1      43.690  37.337  33.714  1.00  0.00     0.054 A 
BRANCH  86  87
ATOM     87  S   UNL A   1      44.042  38.954  34.455  1.00  0.00     0.124 S 
ATOM     88  O   UNL A   1      45.383  39.236  33.948  1.00  0.00    -0.237 OA
ATOM     89  O   UNL A   1      42.976  39.792  33.911  1.00  0.00    -0.237 OA
ATOM     90  O   UNL A   1      43.960  38.703  35.892  1.00  0.00    -0.744 OA
ENDBRANCH  86  87
ENDBRANCH  60  81
ENDBRANCH  34  35
ENDBRANCH  26  29
ENDBRANCH   1  25
TORSDOF 14
ENDMDL
