MODEL 1
REMARK VINA RESULT:     -11.2      0.000      0.000
REMARK SMILES C[C@@H](C(=O)NCCCNC(=O)c1ccc(-c2c3nc(c(-c4ccc(S(=O)(=O)[O-])cc4)c4ccc([nH]4)c(-c4ccc(S(=O)(=O)[O-])cc4)c4nc(c(-c5ccc(S(=O)(=O)[O-])cc5)c5ccc2[nH]5)C=C4)C=C3)cc1)c1ccc(O[C@H]2CCCC2=O)cc1F
REMARK SMILES IDX 7 1 6 2 5 3 3 4 4 5 2 7 1 8 72 9 73 10 84 11 74 12 83 13
REMARK SMILES IDX 85 14 75 15 76 16 77 17 78 18 81 19 79 20 80 21 82 22 8 23
REMARK SMILES IDX 9 24 10 25 11 27 12 28 13 29 71 30 14 31 70 32 15 33 16 34
REMARK SMILES IDX 17 35 64 36 18 37 69 38 63 39 65 40 19 41 68 42 62 43 61 44
REMARK SMILES IDX 20 46 50 47 31 48 49 49 32 50 35 51 48 52 66 53 33 54 34 55
REMARK SMILES IDX 47 57 67 58 36 59 21 60 22 61 30 62 23 63 29 64 24 65 25 66
REMARK SMILES IDX 26 67 27 68 28 69 51 70 52 71 60 72 53 73 59 74 54 75 55 76
REMARK SMILES IDX 56 77 57 78 58 79 37 80 38 81 46 82 39 83 45 84 40 85 41 86
REMARK SMILES IDX 42 87 43 88 44 89
REMARK H PARENT 5 6 9 26 65 45 35 56
REMARK Flexibility Score: inf
ROOT
ATOM      1  C   UNL A   1      32.877  27.144  26.185  1.00  0.00     0.042 C 
ENDROOT
BRANCH   1   2
ATOM      2  C   UNL A   1      33.207  25.904  25.354  1.00  0.00     0.117 C 
BRANCH   2   3
ATOM      3  N   UNL A   1      33.536  26.252  23.984  1.00  0.00    -0.356 N 
ATOM      4  C   UNL A   1      33.214  25.649  22.803  1.00  0.00     0.227 C 
ATOM      5  O   UNL A   1      33.828  26.068  21.820  1.00  0.00    -0.274 OA
ATOM      6  H   UNL A   1      34.087  27.063  23.891  1.00  0.00     0.163 HD
BRANCH   4   7
ATOM      7  C   UNL A   1      32.162  24.528  22.766  1.00  0.00     0.108 C 
ATOM      8  C   UNL A   1      30.790  25.085  23.163  1.00  0.00     0.023 C 
BRANCH   7   9
ATOM      9  C   UNL A   1      32.449  23.262  23.578  1.00  0.00     0.000 A 
ATOM     10  C   UNL A   1      31.598  22.718  24.545  1.00  0.00     0.011 A 
ATOM     11  C   UNL A   1      33.633  22.555  23.315  1.00  0.00     0.130 A 
ATOM     12  C   UNL A   1      31.929  21.531  25.210  1.00  0.00     0.047 A 
ATOM     13  C   UNL A   1      33.958  21.356  23.956  1.00  0.00     0.086 A 
ATOM     14  F   UNL A   1      34.496  23.029  22.403  1.00  0.00    -0.207 F 
ATOM     15  C   UNL A   1      33.097  20.831  24.908  1.00  0.00     0.123 A 
BRANCH  15  16
ATOM     16  O   UNL A   1      33.264  19.692  25.633  1.00  0.00    -0.483 OA
BRANCH  16  17
ATOM     17  C   UNL A   1      33.285  18.427  25.020  1.00  0.00     0.239 C 
ATOM     18  C   UNL A   1      32.153  18.190  24.011  1.00  0.00     0.054 C 
ATOM     19  C   UNL A   1      34.518  17.850  24.336  1.00  0.00     0.173 C 
ATOM     20  C   UNL A   1      32.796  17.658  22.731  1.00  0.00     0.012 C 
ATOM     21  C   UNL A   1      34.148  17.071  23.107  1.00  0.00     0.080 C 
ATOM     22  O   UNL A   1      35.666  17.949  24.754  1.00  0.00    -0.296 OA
ENDBRANCH  16  17
ENDBRANCH  15  16
ENDBRANCH   7   9
ENDBRANCH   4   7
ENDBRANCH   2   3
ENDBRANCH   1   2
BRANCH   1  23
ATOM     23  C   UNL A   1      34.075  28.032  26.507  1.00  0.00     0.118 C 
BRANCH  23  24
ATOM     24  N   UNL A   1      33.689  29.353  26.976  1.00  0.00    -0.352 N 
ATOM     25  C   UNL A   1      34.375  30.239  27.768  1.00  0.00     0.251 C 
ATOM     26  H   UNL A   1      32.800  29.658  26.681  1.00  0.00     0.163 HD
ATOM     27  O   UNL A   1      33.794  31.232  28.207  1.00  0.00    -0.269 OA
BRANCH  25  28
ATOM     28  C   UNL A   1      35.793  29.998  28.116  1.00  0.00     0.039 A 
ATOM     29  C   UNL A   1      36.109  29.592  29.415  1.00  0.00     0.014 A 
ATOM     30  C   UNL A   1      36.812  30.187  27.178  1.00  0.00     0.014 A 
ATOM     31  C   UNL A   1      37.436  29.314  29.754  1.00  0.00     0.010 A 
ATOM     32  C   UNL A   1      38.123  29.835  27.494  1.00  0.00     0.010 A 
ATOM     33  C   UNL A   1      38.451  29.397  28.786  1.00  0.00    -0.014 A 
BRANCH  33  34
ATOM     34  C   UNL A   1      39.853  29.021  29.106  1.00  0.00     0.031 A 
ATOM     35  C   UNL A   1      40.783  30.020  29.743  1.00  0.00     0.074 A 
ATOM     36  C   UNL A   1      40.308  27.796  28.772  1.00  0.00     0.049 A 
ATOM     37  N   UNL A   1      42.049  29.889  30.048  1.00  0.00    -0.248 NA
ATOM     38  C   UNL A   1      40.223  31.344  30.060  1.00  0.00     0.031 C 
ATOM     39  C   UNL A   1      39.518  26.748  28.121  1.00  0.00     0.029 A 
ATOM     40  N   UNL A   1      41.547  27.225  28.930  1.00  0.00    -0.354 N 
ATOM     41  C   UNL A   1      42.440  31.114  30.578  1.00  0.00     0.074 A 
ATOM     42  C   UNL A   1      41.291  31.991  30.506  1.00  0.00     0.031 C 
ATOM     43  C   UNL A   1      40.281  25.654  27.965  1.00  0.00     0.029 A 
ATOM     44  C   UNL A   1      41.625  25.935  28.459  1.00  0.00     0.049 A 
ATOM     45  H   UNL A   1      42.307  27.696  29.341  1.00  0.00     0.167 HD
ATOM     46  C   UNL A   1      43.640  31.473  31.094  1.00  0.00     0.031 A 
ATOM     47  C   UNL A   1      42.663  25.076  28.418  1.00  0.00     0.031 A 
ATOM     48  C   UNL A   1      44.780  30.597  31.167  1.00  0.00     0.049 A 
ATOM     49  C   UNL A   1      43.994  25.508  28.972  1.00  0.00     0.074 A 
ATOM     50  C   UNL A   1      46.025  30.851  31.718  1.00  0.00     0.029 A 
ATOM     51  N   UNL A   1      44.819  29.301  30.674  1.00  0.00    -0.354 N 
ATOM     52  N   UNL A   1      44.325  26.650  29.524  1.00  0.00    -0.248 NA
ATOM     53  C   UNL A   1      45.088  24.528  28.907  1.00  0.00     0.031 C 
ATOM     54  C   UNL A   1      46.835  29.731  31.504  1.00  0.00     0.029 A 
ATOM     55  C   UNL A   1      46.075  28.754  30.882  1.00  0.00     0.049 A 
ATOM     56  H   UNL A   1      44.066  28.839  30.240  1.00  0.00     0.167 HD
ATOM     57  C   UNL A   1      45.658  26.516  29.901  1.00  0.00     0.074 A 
ATOM     58  C   UNL A   1      46.065  25.177  29.526  1.00  0.00     0.031 C 
ATOM     59  C   UNL A   1      46.469  27.419  30.504  1.00  0.00     0.031 A 
BRANCH  46  60
ATOM     60  C   UNL A   1      43.786  32.879  31.615  1.00  0.00    -0.014 A 
ATOM     61  C   UNL A   1      44.149  33.938  30.763  1.00  0.00     0.010 A 
ATOM     62  C   UNL A   1      43.505  33.157  32.966  1.00  0.00     0.010 A 
ATOM     63  C   UNL A   1      44.269  35.239  31.260  1.00  0.00     0.020 A 
ATOM     64  C   UNL A   1      43.593  34.462  33.460  1.00  0.00     0.020 A 
ATOM     65  C   UNL A   1      43.990  35.493  32.606  1.00  0.00     0.054 A 
BRANCH  65  66
ATOM     66  S   UNL A   1      44.126  37.196  33.215  1.00  0.00     0.124 S 
ATOM     67  O   UNL A   1      45.352  37.136  34.006  1.00  0.00    -0.237 OA
ATOM     68  O   UNL A   1      44.213  37.971  31.980  1.00  0.00    -0.237 OA
ATOM     69  O   UNL A   1      42.899  37.389  33.983  1.00  0.00    -0.744 OA
ENDBRANCH  65  66
ENDBRANCH  46  60
BRANCH  47  70
ATOM     70  C   UNL A   1      42.480  23.715  27.842  1.00  0.00    -0.014 A 
ATOM     71  C   UNL A   1      42.605  23.502  26.458  1.00  0.00     0.010 A 
ATOM     72  C   UNL A   1      42.186  22.621  28.677  1.00  0.00     0.010 A 
ATOM     73  C   UNL A   1      42.421  22.226  25.916  1.00  0.00     0.020 A 
ATOM     74  C   UNL A   1      42.033  21.338  28.143  1.00  0.00     0.020 A 
ATOM     75  C   UNL A   1      42.139  21.151  26.764  1.00  0.00     0.054 A 
BRANCH  75  76
ATOM     76  S   UNL A   1      41.952  19.495  26.044  1.00  0.00     0.124 S 
ATOM     77  O   UNL A   1      42.388  18.637  27.140  1.00  0.00    -0.237 OA
ATOM     78  O   UNL A   1      40.526  19.450  25.731  1.00  0.00    -0.237 OA
ATOM     79  O   UNL A   1      42.837  19.526  24.882  1.00  0.00    -0.744 OA
ENDBRANCH  75  76
ENDBRANCH  47  70
BRANCH  59  80
ATOM     80  C   UNL A   1      47.871  26.982  30.838  1.00  0.00    -0.014 A 
ATOM     81  C   UNL A   1      48.933  27.176  29.937  1.00  0.00     0.010 A 
ATOM     82  C   UNL A   1      48.138  26.417  32.099  1.00  0.00     0.010 A 
ATOM     83  C   UNL A   1      50.230  26.783  30.280  1.00  0.00     0.020 A 
ATOM     84  C   UNL A   1      49.438  26.053  32.457  1.00  0.00     0.020 A 
ATOM     85  C   UNL A   1      50.474  26.225  31.539  1.00  0.00     0.054 A 
BRANCH  85  86
ATOM     86  S   UNL A   1      52.174  25.768  31.975  1.00  0.00     0.124 S 
ATOM     87  O   UNL A   1      52.020  24.373  32.377  1.00  0.00    -0.237 OA
ATOM     88  O   UNL A   1      52.896  25.987  30.724  1.00  0.00    -0.237 OA
ATOM     89  O   UNL A   1      52.517  26.692  33.054  1.00  0.00    -0.744 OA
ENDBRANCH  85  86
ENDBRANCH  59  80
ENDBRANCH  33  34
ENDBRANCH  25  28
ENDBRANCH  23  24
ENDBRANCH   1  23
TORSDOF 16
ENDMDL
MODEL 2
REMARK VINA RESULT:     -11.1      1.271      2.111
REMARK SMILES C[C@@H](C(=O)NCCCNC(=O)c1ccc(-c2c3nc(c(-c4ccc(S(=O)(=O)[O-])cc4)c4ccc([nH]4)c(-c4ccc(S(=O)(=O)[O-])cc4)c4nc(c(-c5ccc(S(=O)(=O)[O-])cc5)c5ccc2[nH]5)C=C4)C=C3)cc1)c1ccc(O[C@H]2CCCC2=O)cc1F
REMARK SMILES IDX 7 1 6 2 5 3 3 4 4 5 2 7 1 8 72 9 73 10 84 11 74 12 83 13
REMARK SMILES IDX 85 14 75 15 76 16 77 17 78 18 81 19 79 20 80 21 82 22 8 23
REMARK SMILES IDX 9 24 10 25 11 27 12 28 13 29 71 30 14 31 70 32 15 33 16 34
REMARK SMILES IDX 17 35 64 36 18 37 69 38 63 39 65 40 19 41 68 42 62 43 61 44
REMARK SMILES IDX 20 46 50 47 31 48 49 49 32 50 35 51 48 52 66 53 33 54 34 55
REMARK SMILES IDX 47 57 67 58 36 59 21 60 22 61 30 62 23 63 29 64 24 65 25 66
REMARK SMILES IDX 26 67 27 68 28 69 51 70 52 71 60 72 53 73 59 74 54 75 55 76
REMARK SMILES IDX 56 77 57 78 58 79 37 80 38 81 46 82 39 83 45 84 40 85 41 86
REMARK SMILES IDX 42 87 43 88 44 89
REMARK H PARENT 5 6 9 26 65 45 35 56
REMARK Flexibility Score: inf
ROOT
ATOM      1  C   UNL A   1      32.520  28.017  25.926  1.00  0.00     0.042 C 
ENDROOT
BRANCH   1   2
ATOM      2  C   UNL A   1      32.704  28.680  24.562  1.00  0.00     0.117 C 
BRANCH   2   3
ATOM      3  N   UNL A   1      31.640  28.319  23.645  1.00  0.00    -0.356 N 
ATOM      4  C   UNL A   1      31.615  27.445  22.598  1.00  0.00     0.227 C 
ATOM      5  O   UNL A   1      30.619  27.521  21.878  1.00  0.00    -0.274 OA
ATOM      6  H   UNL A   1      30.788  28.786  23.806  1.00  0.00     0.163 HD
BRANCH   4   7
ATOM      7  C   UNL A   1      32.780  26.464  22.378  1.00  0.00     0.108 C 
ATOM      8  C   UNL A   1      32.552  25.660  21.094  1.00  0.00     0.023 C 
BRANCH   7   9
ATOM      9  C   UNL A   1      33.121  25.504  23.522  1.00  0.00     0.000 A 
ATOM     10  C   UNL A   1      34.367  25.411  24.148  1.00  0.00     0.011 A 
ATOM     11  C   UNL A   1      32.104  24.676  24.023  1.00  0.00     0.130 A 
ATOM     12  C   UNL A   1      34.573  24.529  25.215  1.00  0.00     0.047 A 
ATOM     13  C   UNL A   1      32.295  23.811  25.105  1.00  0.00     0.086 A 
ATOM     14  F   UNL A   1      30.886  24.713  23.460  1.00  0.00    -0.207 F 
ATOM     15  C   UNL A   1      33.538  23.739  25.715  1.00  0.00     0.123 A 
BRANCH  15  16
ATOM     16  O   UNL A   1      33.899  22.947  26.760  1.00  0.00    -0.483 OA
BRANCH  16  17
ATOM     17  C   UNL A   1      34.408  21.652  26.559  1.00  0.00     0.239 C 
ATOM     18  C   UNL A   1      33.405  20.661  25.951  1.00  0.00     0.054 C 
ATOM     19  C   UNL A   1      35.705  21.370  25.811  1.00  0.00     0.173 C 
ATOM     20  C   UNL A   1      34.101  19.982  24.773  1.00  0.00     0.012 C 
ATOM     21  C   UNL A   1      35.601  20.120  24.985  1.00  0.00     0.080 C 
ATOM     22  O   UNL A   1      36.731  22.033  25.907  1.00  0.00    -0.296 OA
ENDBRANCH  16  17
ENDBRANCH  15  16
ENDBRANCH   7   9
ENDBRANCH   4   7
ENDBRANCH   2   3
ENDBRANCH   1   2
BRANCH   1  23
ATOM     23  C   UNL A   1      33.559  28.412  26.973  1.00  0.00     0.118 C 
BRANCH  23  24
ATOM     24  N   UNL A   1      33.443  29.801  27.386  1.00  0.00    -0.352 N 
ATOM     25  C   UNL A   1      34.327  30.586  28.083  1.00  0.00     0.251 C 
ATOM     26  H   UNL A   1      32.604  30.246  27.127  1.00  0.00     0.163 HD
ATOM     27  O   UNL A   1      33.960  31.686  28.497  1.00  0.00    -0.269 OA
BRANCH  25  28
ATOM     28  C   UNL A   1      35.701  30.112  28.359  1.00  0.00     0.039 A 
ATOM     29  C   UNL A   1      36.641  30.131  27.326  1.00  0.00     0.014 A 
ATOM     30  C   UNL A   1      36.063  29.633  29.622  1.00  0.00     0.014 A 
ATOM     31  C   UNL A   1      37.957  29.731  27.574  1.00  0.00     0.010 A 
ATOM     32  C   UNL A   1      37.392  29.310  29.888  1.00  0.00     0.010 A 
ATOM     33  C   UNL A   1      38.354  29.352  28.868  1.00  0.00    -0.014 A 
BRANCH  33  34
ATOM     34  C   UNL A   1      39.768  29.008  29.169  1.00  0.00     0.031 A 
ATOM     35  C   UNL A   1      40.683  30.027  29.798  1.00  0.00     0.074 A 
ATOM     36  C   UNL A   1      40.248  27.796  28.826  1.00  0.00     0.049 A 
ATOM     37  N   UNL A   1      41.955  29.925  30.086  1.00  0.00    -0.248 NA
ATOM     38  C   UNL A   1      40.097  31.337  30.126  1.00  0.00     0.031 C 
ATOM     39  C   UNL A   1      39.474  26.731  28.182  1.00  0.00     0.029 A 
ATOM     40  N   UNL A   1      41.501  27.253  28.966  1.00  0.00    -0.354 N 
ATOM     41  C   UNL A   1      42.325  31.157  30.615  1.00  0.00     0.074 A 
ATOM     42  C   UNL A   1      41.155  32.007  30.560  1.00  0.00     0.031 C 
ATOM     43  C   UNL A   1      40.260  25.655  28.012  1.00  0.00     0.029 A 
ATOM     44  C   UNL A   1      41.603  25.966  28.490  1.00  0.00     0.049 A 
ATOM     45  H   UNL A   1      42.256  27.740  29.370  1.00  0.00     0.167 HD
ATOM     46  C   UNL A   1      43.523  31.541  31.117  1.00  0.00     0.031 A 
ATOM     47  C   UNL A   1      42.660  25.132  28.434  1.00  0.00     0.031 A 
ATOM     48  C   UNL A   1      44.683  30.692  31.174  1.00  0.00     0.049 A 
ATOM     49  C   UNL A   1      43.987  25.592  28.972  1.00  0.00     0.074 A 
ATOM     50  C   UNL A   1      45.929  30.973  31.710  1.00  0.00     0.029 A 
ATOM     51  N   UNL A   1      44.746  29.399  30.676  1.00  0.00    -0.354 N 
ATOM     52  N   UNL A   1      44.299  26.740  29.524  1.00  0.00    -0.248 NA
ATOM     53  C   UNL A   1      45.103  24.639  28.890  1.00  0.00     0.031 C 
ATOM     54  C   UNL A   1      46.762  29.873  31.481  1.00  0.00     0.029 A 
ATOM     55  C   UNL A   1      46.017  28.880  30.866  1.00  0.00     0.049 A 
ATOM     56  H   UNL A   1      43.998  28.921  30.250  1.00  0.00     0.167 HD
ATOM     57  C   UNL A   1      45.639  26.636  29.883  1.00  0.00     0.074 A 
ATOM     58  C   UNL A   1      46.072  25.308  29.499  1.00  0.00     0.031 C 
ATOM     59  C   UNL A   1      46.437  27.556  30.479  1.00  0.00     0.031 A 
BRANCH  46  60
ATOM     60  C   UNL A   1      43.642  32.950  31.641  1.00  0.00    -0.014 A 
ATOM     61  C   UNL A   1      43.398  33.246  32.994  1.00  0.00     0.010 A 
ATOM     62  C   UNL A   1      44.055  33.983  30.780  1.00  0.00     0.010 A 
ATOM     63  C   UNL A   1      43.525  34.556  33.467  1.00  0.00     0.020 A 
ATOM     64  C   UNL A   1      44.214  35.289  31.256  1.00  0.00     0.020 A 
ATOM     65  C   UNL A   1      43.931  35.569  32.594  1.00  0.00     0.054 A 
BRANCH  65  66
ATOM     66  S   UNL A   1      44.115  37.253  33.244  1.00  0.00     0.124 S 
ATOM     67  O   UNL A   1      42.910  37.394  34.058  1.00  0.00    -0.237 OA
ATOM     68  O   UNL A   1      45.369  37.173  33.988  1.00  0.00    -0.237 OA
ATOM     69  O   UNL A   1      44.156  38.085  32.044  1.00  0.00    -0.744 OA
ENDBRANCH  65  66
ENDBRANCH  46  60
BRANCH  47  70
ATOM     70  C   UNL A   1      42.502  23.768  27.856  1.00  0.00    -0.014 A 
ATOM     71  C   UNL A   1      42.134  22.684  28.673  1.00  0.00     0.010 A 
ATOM     72  C   UNL A   1      42.713  23.546  26.482  1.00  0.00     0.010 A 
ATOM     73  C   UNL A   1      41.998  21.402  28.132  1.00  0.00     0.020 A 
ATOM     74  C   UNL A   1      42.547  22.272  25.932  1.00  0.00     0.020 A 
ATOM     75  C   UNL A   1      42.202  21.205  26.764  1.00  0.00     0.054 A 
BRANCH  75  76
ATOM     76  S   UNL A   1      41.973  19.541  26.076  1.00  0.00     0.124 S 
ATOM     77  O   UNL A   1      42.790  19.597  24.868  1.00  0.00    -0.237 OA
ATOM     78  O   UNL A   1      42.482  18.687  27.146  1.00  0.00    -0.237 OA
ATOM     79  O   UNL A   1      40.532  19.458  25.854  1.00  0.00    -0.744 OA
ENDBRANCH  75  76
ENDBRANCH  47  70
BRANCH  59  80
ATOM     80  C   UNL A   1      47.853  27.150  30.793  1.00  0.00    -0.014 A 
ATOM     81  C   UNL A   1      48.163  26.397  31.940  1.00  0.00     0.010 A 
ATOM     82  C   UNL A   1      48.884  27.483  29.894  1.00  0.00     0.010 A 
ATOM     83  C   UNL A   1      49.482  26.012  32.196  1.00  0.00     0.020 A 
ATOM     84  C   UNL A   1      50.197  27.072  30.131  1.00  0.00     0.020 A 
ATOM     85  C   UNL A   1      50.491  26.351  31.288  1.00  0.00     0.054 A 
BRANCH  85  86
ATOM     86  S   UNL A   1      52.185  25.799  31.622  1.00  0.00     0.124 S 
ATOM     87  O   UNL A   1      52.821  25.963  30.318  1.00  0.00    -0.237 OA
ATOM     88  O   UNL A   1      52.627  26.728  32.659  1.00  0.00    -0.237 OA
ATOM     89  O   UNL A   1      52.019  24.416  32.064  1.00  0.00    -0.744 OA
ENDBRANCH  85  86
ENDBRANCH  59  80
ENDBRANCH  33  34
ENDBRANCH  25  28
ENDBRANCH  23  24
ENDBRANCH   1  23
TORSDOF 16
ENDMDL
MODEL 3
REMARK VINA RESULT:     -10.9      3.511      9.175
REMARK SMILES C[C@@H](C(=O)NCCCNC(=O)c1ccc(-c2c3nc(c(-c4ccc(S(=O)(=O)[O-])cc4)c4ccc([nH]4)c(-c4ccc(S(=O)(=O)[O-])cc4)c4nc(c(-c5ccc(S(=O)(=O)[O-])cc5)c5ccc2[nH]5)C=C4)C=C3)cc1)c1ccc(O[C@H]2CCCC2=O)cc1F
REMARK SMILES IDX 7 1 6 2 5 3 3 4 4 5 2 7 1 8 72 9 73 10 84 11 74 12 83 13
REMARK SMILES IDX 85 14 75 15 76 16 77 17 78 18 81 19 79 20 80 21 82 22 8 23
REMARK SMILES IDX 9 24 10 25 11 27 12 28 13 29 71 30 14 31 70 32 15 33 16 34
REMARK SMILES IDX 17 35 64 36 18 37 69 38 63 39 65 40 19 41 68 42 62 43 61 44
REMARK SMILES IDX 20 46 50 47 31 48 49 49 32 50 35 51 48 52 66 53 33 54 34 55
REMARK SMILES IDX 47 57 67 58 36 59 21 60 22 61 30 62 23 63 29 64 24 65 25 66
REMARK SMILES IDX 26 67 27 68 28 69 51 70 52 71 60 72 53 73 59 74 54 75 55 76
REMARK SMILES IDX 56 77 57 78 58 79 37 80 38 81 46 82 39 83 45 84 40 85 41 86
REMARK SMILES IDX 42 87 43 88 44 89
REMARK H PARENT 5 6 9 26 65 45 35 56
REMARK Flexibility Score: inf
ROOT
ATOM      1  C   UNL A   1      34.318  31.288  27.822  1.00  0.00     0.042 C 
ENDROOT
BRANCH   1   2
ATOM      2  C   UNL A   1      33.743  30.237  26.873  1.00  0.00     0.117 C 
BRANCH   2   3
ATOM      3  N   UNL A   1      32.928  29.269  27.581  1.00  0.00    -0.356 N 
ATOM      4  C   UNL A   1      32.140  28.253  27.123  1.00  0.00     0.227 C 
ATOM      5  O   UNL A   1      31.403  27.742  27.968  1.00  0.00    -0.274 OA
ATOM      6  H   UNL A   1      32.945  29.359  28.561  1.00  0.00     0.163 HD
BRANCH   4   7
ATOM      7  C   UNL A   1      32.204  27.827  25.646  1.00  0.00     0.108 C 
ATOM      8  C   UNL A   1      30.790  27.773  25.056  1.00  0.00     0.023 C 
BRANCH   7   9
ATOM      9  C   UNL A   1      32.940  26.525  25.317  1.00  0.00     0.000 A 
ATOM     10  C   UNL A   1      33.063  25.432  26.180  1.00  0.00     0.011 A 
ATOM     11  C   UNL A   1      33.503  26.382  24.039  1.00  0.00     0.130 A 
ATOM     12  C   UNL A   1      33.722  24.265  25.775  1.00  0.00     0.047 A 
ATOM     13  C   UNL A   1      34.140  25.210  23.619  1.00  0.00     0.086 A 
ATOM     14  F   UNL A   1      33.425  27.398  23.165  1.00  0.00    -0.207 F 
ATOM     15  C   UNL A   1      34.246  24.136  24.489  1.00  0.00     0.123 A 
BRANCH  15  16
ATOM     16  O   UNL A   1      34.843  22.937  24.251  1.00  0.00    -0.483 OA
BRANCH  16  17
ATOM     17  C   UNL A   1      35.724  22.357  25.180  1.00  0.00     0.239 C 
ATOM     18  C   UNL A   1      35.930  20.846  25.004  1.00  0.00     0.054 C 
ATOM     19  C   UNL A   1      37.125  22.892  25.450  1.00  0.00     0.173 C 
ATOM     20  C   UNL A   1      37.437  20.595  25.001  1.00  0.00     0.012 C 
ATOM     21  C   UNL A   1      38.100  21.776  25.692  1.00  0.00     0.080 C 
ATOM     22  O   UNL A   1      37.423  24.078  25.524  1.00  0.00    -0.296 OA
ENDBRANCH  16  17
ENDBRANCH  15  16
ENDBRANCH   7   9
ENDBRANCH   4   7
ENDBRANCH   2   3
ENDBRANCH   1   2
BRANCH   1  23
ATOM     23  C   UNL A   1      35.696  30.952  28.386  1.00  0.00     0.118 C 
BRANCH  23  24
ATOM     24  N   UNL A   1      35.644  30.478  29.759  1.00  0.00    -0.352 N 
ATOM     25  C   UNL A   1      36.589  29.806  30.492  1.00  0.00     0.251 C 
ATOM     26  H   UNL A   1      34.804  30.669  30.236  1.00  0.00     0.163 HD
ATOM     27  O   UNL A   1      36.278  29.328  31.584  1.00  0.00    -0.269 OA
BRANCH  25  28
ATOM     28  C   UNL A   1      37.963  29.631  29.973  1.00  0.00     0.039 A 
ATOM     29  C   UNL A   1      39.000  29.387  30.877  1.00  0.00     0.014 A 
ATOM     30  C   UNL A   1      38.239  29.724  28.605  1.00  0.00     0.014 A 
ATOM     31  C   UNL A   1      40.298  29.174  30.406  1.00  0.00     0.010 A 
ATOM     32  C   UNL A   1      39.517  29.434  28.132  1.00  0.00     0.010 A 
ATOM     33  C   UNL A   1      40.562  29.158  29.026  1.00  0.00    -0.014 A 
BRANCH  33  34
ATOM     34  C   UNL A   1      41.919  28.846  28.505  1.00  0.00     0.031 A 
ATOM     35  C   UNL A   1      42.263  27.447  28.064  1.00  0.00     0.074 A 
ATOM     36  C   UNL A   1      42.862  29.809  28.481  1.00  0.00     0.049 A 
ATOM     37  N   UNL A   1      43.405  26.977  27.631  1.00  0.00    -0.248 NA
ATOM     38  C   UNL A   1      41.190  26.442  28.138  1.00  0.00     0.031 C 
ATOM     39  C   UNL A   1      42.666  31.196  28.912  1.00  0.00     0.029 A 
ATOM     40  N   UNL A   1      44.175  29.771  28.082  1.00  0.00    -0.354 N 
ATOM     41  C   UNL A   1      43.193  25.623  27.395  1.00  0.00     0.074 A 
ATOM     42  C   UNL A   1      41.829  25.336  27.782  1.00  0.00     0.031 C 
ATOM     43  C   UNL A   1      43.806  31.881  28.723  1.00  0.00     0.029 A 
ATOM     44  C   UNL A   1      44.827  30.976  28.205  1.00  0.00     0.049 A 
ATOM     45  H   UNL A   1      44.609  28.956  27.739  1.00  0.00     0.167 HD
ATOM     46  C   UNL A   1      44.050  24.705  26.887  1.00  0.00     0.031 A 
ATOM     47  C   UNL A   1      46.104  31.315  27.941  1.00  0.00     0.031 A 
ATOM     48  C   UNL A   1      45.406  24.995  26.500  1.00  0.00     0.049 A 
ATOM     49  C   UNL A   1      47.044  30.271  27.404  1.00  0.00     0.074 A 
ATOM     50  C   UNL A   1      46.337  24.144  25.929  1.00  0.00     0.029 A 
ATOM     51  N   UNL A   1      46.028  26.226  26.647  1.00  0.00    -0.354 N 
ATOM     52  N   UNL A   1      46.806  29.011  27.131  1.00  0.00    -0.248 NA
ATOM     53  C   UNL A   1      48.423  30.698  27.129  1.00  0.00     0.031 C 
ATOM     54  C   UNL A   1      47.539  24.843  25.786  1.00  0.00     0.029 A 
ATOM     55  C   UNL A   1      47.338  26.149  26.204  1.00  0.00     0.049 A 
ATOM     56  H   UNL A   1      45.601  27.034  27.013  1.00  0.00     0.167 HD
ATOM     57  C   UNL A   1      47.997  28.502  26.622  1.00  0.00     0.074 A 
ATOM     58  C   UNL A   1      48.948  29.595  26.613  1.00  0.00     0.031 C 
ATOM     59  C   UNL A   1      48.276  27.244  26.199  1.00  0.00     0.031 A 
BRANCH  46  60
ATOM     60  C   UNL A   1      43.548  23.293  26.726  1.00  0.00    -0.014 A 
ATOM     61  C   UNL A   1      43.573  22.649  25.475  1.00  0.00     0.010 A 
ATOM     62  C   UNL A   1      43.092  22.580  27.850  1.00  0.00     0.010 A 
ATOM     63  C   UNL A   1      43.113  21.336  25.345  1.00  0.00     0.020 A 
ATOM     64  C   UNL A   1      42.662  21.255  27.730  1.00  0.00     0.020 A 
ATOM     65  C   UNL A   1      42.660  20.647  26.473  1.00  0.00     0.054 A 
BRANCH  65  66
ATOM     66  S   UNL A   1      42.099  18.933  26.277  1.00  0.00     0.124 S 
ATOM     67  O   UNL A   1      42.183  18.431  27.646  1.00  0.00    -0.237 OA
ATOM     68  O   UNL A   1      40.746  19.099  25.751  1.00  0.00    -0.237 OA
ATOM     69  O   UNL A   1      43.062  18.356  25.343  1.00  0.00    -0.744 OA
ENDBRANCH  65  66
ENDBRANCH  46  60
BRANCH  47  70
ATOM     70  C   UNL A   1      46.565  32.713  28.170  1.00  0.00    -0.014 A 
ATOM     71  C   UNL A   1      46.464  33.675  27.149  1.00  0.00     0.010 A 
ATOM     72  C   UNL A   1      47.104  33.093  29.413  1.00  0.00     0.010 A 
ATOM     73  C   UNL A   1      46.909  34.983  27.359  1.00  0.00     0.020 A 
ATOM     74  C   UNL A   1      47.521  34.407  29.638  1.00  0.00     0.020 A 
ATOM     75  C   UNL A   1      47.432  35.342  28.605  1.00  0.00     0.054 A 
BRANCH  75  76
ATOM     76  S   UNL A   1      47.959  37.059  28.871  1.00  0.00     0.124 S 
ATOM     77  O   UNL A   1      49.390  36.982  28.600  1.00  0.00    -0.237 OA
ATOM     78  O   UNL A   1      47.164  37.786  27.884  1.00  0.00    -0.237 OA
ATOM     79  O   UNL A   1      47.597  37.315  30.263  1.00  0.00    -0.744 OA
ENDBRANCH  75  76
ENDBRANCH  47  70
BRANCH  59  80
ATOM     80  C   UNL A   1      49.654  26.985  25.650  1.00  0.00    -0.014 A 
ATOM     81  C   UNL A   1      49.956  27.200  24.294  1.00  0.00     0.010 A 
ATOM     82  C   UNL A   1      50.679  26.571  26.522  1.00  0.00     0.010 A 
ATOM     83  C   UNL A   1      51.250  26.976  23.814  1.00  0.00     0.020 A 
ATOM     84  C   UNL A   1      51.980  26.376  26.052  1.00  0.00     0.020 A 
ATOM     85  C   UNL A   1      52.254  26.566  24.697  1.00  0.00     0.054 A 
BRANCH  85  86
ATOM     86  S   UNL A   1      53.933  26.326  24.057  1.00  0.00     0.124 S 
ATOM     87  O   UNL A   1      53.711  26.325  22.614  1.00  0.00    -0.237 OA
ATOM     88  O   UNL A   1      54.646  27.488  24.583  1.00  0.00    -0.237 OA
ATOM     89  O   UNL A   1      54.342  25.044  24.624  1.00  0.00    -0.744 OA
ENDBRANCH  85  86
ENDBRANCH  59  80
ENDBRANCH  33  34
ENDBRANCH  25  28
ENDBRANCH  23  24
ENDBRANCH   1  23
TORSDOF 16
ENDMDL
