MODEL 1
REMARK VINA RESULT:     -12.1      0.000      0.000
REMARK SMILES Cc1ccc(S(=O)(=O)Nc2cnc(N(C)C)c(C(=O)NCCCNC(=O)c3ccc(-c4c5nc(c(-c6ccc(S(=O)(=O)[O-])cc6)c6ccc([nH]6)c(-c6ccc(S(=O)(=O)[O-])cc6)c6nc(c(-c7ccc(S(=O)(=O)[O-])cc7)c7ccc4[nH]7)C=C6)C=C5)cc3)c2)c(C)c1
REMARK SMILES IDX 22 1 21 2 20 3 18 4 19 5 17 7 10 8 11 9 87 10 12 11 13 12
REMARK SMILES IDX 9 13 6 15 7 16 8 17 5 18 1 19 2 20 3 21 90 22 4 23 88 24
REMARK SMILES IDX 89 25 14 26 15 27 16 28 23 29 24 30 25 31 26 33 27 34 28 35
REMARK SMILES IDX 86 36 29 37 85 38 30 39 31 40 32 41 79 42 33 43 84 44 78 45
REMARK SMILES IDX 80 46 34 47 83 48 77 49 76 50 35 52 65 53 46 54 64 55 47 56
REMARK SMILES IDX 50 57 63 58 81 59 48 60 49 61 62 63 82 64 51 65 36 66 37 67
REMARK SMILES IDX 45 68 38 69 44 70 39 71 40 72 41 73 42 74 43 75 66 76 67 77
REMARK SMILES IDX 75 78 68 79 74 80 69 81 70 82 71 83 72 84 73 85 52 86 53 87
REMARK SMILES IDX 61 88 54 89 60 90 55 91 56 92 57 93 58 94 59 95
REMARK H PARENT 20 6 9 14 24 32 80 51 50 62
REMARK Flexibility Score: inf
ROOT
ATOM      1  C   UNL A   1      34.120  28.609  26.774  1.00  0.00     0.042 C 
ENDROOT
BRANCH   1   2
ATOM      2  C   UNL A   1      33.106  29.562  26.137  1.00  0.00     0.118 C 
BRANCH   2   3
ATOM      3  N   UNL A   1      33.318  29.641  24.701  1.00  0.00    -0.352 N 
ATOM      4  C   UNL A   1      32.803  28.921  23.647  1.00  0.00     0.255 C 
ATOM      5  O   UNL A   1      33.417  28.971  22.584  1.00  0.00    -0.269 OA
ATOM      6  H   UNL A   1      33.950  30.345  24.429  1.00  0.00     0.163 HD
BRANCH   4   7
ATOM      7  C   UNL A   1      31.554  28.123  23.750  1.00  0.00     0.084 A 
ATOM      8  C   UNL A   1      30.521  26.028  24.403  1.00  0.00     0.068 A 
ATOM      9  C   UNL A   1      29.353  26.517  23.860  1.00  0.00     0.140 A 
ATOM     10  C   UNL A   1      31.660  26.793  24.217  1.00  0.00     0.046 A 
ATOM     11  N   UNL A   1      29.229  27.755  23.349  1.00  0.00    -0.236 NA
ATOM     12  C   UNL A   1      30.290  28.614  23.347  1.00  0.00     0.141 A 
BRANCH   8  13
ATOM     13  N   UNL A   1      30.453  24.842  25.183  1.00  0.00    -0.278 N 
ATOM     14  H   UNL A   1      29.759  24.185  24.949  1.00  0.00     0.180 HD
BRANCH  13  15
ATOM     15  S   UNL A   1      31.464  24.478  26.471  1.00  0.00     0.262 S 
ATOM     16  O   UNL A   1      30.847  23.388  27.201  1.00  0.00    -0.201 OA
ATOM     17  O   UNL A   1      31.742  25.753  27.094  1.00  0.00    -0.201 OA
BRANCH  15  18
ATOM     18  C   UNL A   1      33.031  23.854  25.861  1.00  0.00     0.090 A 
ATOM     19  C   UNL A   1      36.468  22.956  23.418  1.00  0.00     0.044 C 
ATOM     20  C   UNL A   1      35.306  23.227  24.327  1.00  0.00    -0.051 A 
ATOM     21  C   UNL A   1      35.335  24.294  25.227  1.00  0.00     0.005 A 
ATOM     22  C   UNL A   1      34.186  22.392  24.308  1.00  0.00     0.008 A 
ATOM     23  C   UNL A   1      34.212  24.592  26.006  1.00  0.00     0.023 A 
ATOM     24  C   UNL A   1      33.037  22.687  25.067  1.00  0.00    -0.030 A 
ATOM     25  C   UNL A   1      31.914  21.685  25.023  1.00  0.00     0.046 C 
ENDBRANCH  15  18
ENDBRANCH  13  15
ENDBRANCH   8  13
BRANCH  12  26
ATOM     26  N   UNL A   1      29.933  29.912  23.029  1.00  0.00    -0.362 N 
ATOM     27  C   UNL A   1      29.868  30.875  24.129  1.00  0.00     0.145 C 
ATOM     28  C   UNL A   1      29.343  30.346  21.776  1.00  0.00     0.145 C 
ENDBRANCH  12  26
ENDBRANCH   4   7
ENDBRANCH   2   3
ENDBRANCH   1   2
BRANCH   1  29
ATOM     29  C   UNL A   1      35.384  29.315  27.258  1.00  0.00     0.118 C 
BRANCH  29  30
ATOM     30  N   UNL A   1      35.286  29.709  28.654  1.00  0.00    -0.352 N 
ATOM     31  C   UNL A   1      36.251  29.681  29.630  1.00  0.00     0.251 C 
ATOM     32  H   UNL A   1      34.405  30.041  28.939  1.00  0.00     0.163 HD
ATOM     33  O   UNL A   1      35.928  29.862  30.800  1.00  0.00    -0.269 OA
BRANCH  31  34
ATOM     34  C   UNL A   1      37.666  29.419  29.280  1.00  0.00     0.039 A 
ATOM     35  C   UNL A   1      38.085  29.642  27.965  1.00  0.00     0.014 A 
ATOM     36  C   UNL A   1      38.567  28.910  30.222  1.00  0.00     0.014 A 
ATOM     37  C   UNL A   1      39.408  29.384  27.601  1.00  0.00     0.010 A 
ATOM     38  C   UNL A   1      39.901  28.704  29.871  1.00  0.00     0.010 A 
ATOM     39  C   UNL A   1      40.330  28.924  28.554  1.00  0.00    -0.014 A 
BRANCH  39  40
ATOM     40  C   UNL A   1      41.737  28.634  28.178  1.00  0.00     0.031 A 
ATOM     41  C   UNL A   1      42.138  27.241  27.776  1.00  0.00     0.074 A 
ATOM     42  C   UNL A   1      42.661  29.611  28.239  1.00  0.00     0.049 A 
ATOM     43  N   UNL A   1      43.321  26.783  27.453  1.00  0.00    -0.248 NA
ATOM     44  C   UNL A   1      41.075  26.223  27.757  1.00  0.00     0.031 C 
ATOM     45  C   UNL A   1      42.410  30.993  28.656  1.00  0.00     0.029 A 
ATOM     46  N   UNL A   1      44.004  29.588  27.957  1.00  0.00    -0.354 N 
ATOM     47  C   UNL A   1      43.151  25.422  27.221  1.00  0.00     0.074 A 
ATOM     48  C   UNL A   1      41.756  25.123  27.471  1.00  0.00     0.031 C 
ATOM     49  C   UNL A   1      43.556  31.689  28.579  1.00  0.00     0.029 A 
ATOM     50  C   UNL A   1      44.626  30.801  28.134  1.00  0.00     0.049 A 
ATOM     51  H   UNL A   1      44.477  28.779  27.656  1.00  0.00     0.167 HD
ATOM     52  C   UNL A   1      44.065  24.507  26.822  1.00  0.00     0.031 A 
ATOM     53  C   UNL A   1      45.912  31.159  27.954  1.00  0.00     0.031 A 
ATOM     54  C   UNL A   1      45.444  24.809  26.546  1.00  0.00     0.049 A 
ATOM     55  C   UNL A   1      46.899  30.139  27.464  1.00  0.00     0.074 A 
ATOM     56  C   UNL A   1      46.438  23.962  26.087  1.00  0.00     0.029 A 
ATOM     57  N   UNL A   1      46.023  26.060  26.696  1.00  0.00    -0.354 N 
ATOM     58  N   UNL A   1      46.707  28.868  27.202  1.00  0.00    -0.248 NA
ATOM     59  C   UNL A   1      48.274  30.604  27.230  1.00  0.00     0.031 C 
ATOM     60  C   UNL A   1      47.625  24.696  25.981  1.00  0.00     0.029 A 
ATOM     61  C   UNL A   1      47.361  26.008  26.343  1.00  0.00     0.049 A 
ATOM     62  H   UNL A   1      45.552  26.865  27.009  1.00  0.00     0.167 HD
ATOM     63  C   UNL A   1      47.931  28.386  26.753  1.00  0.00     0.074 A 
ATOM     64  C   UNL A   1      48.852  29.504  26.767  1.00  0.00     0.031 C 
ATOM     65  C   UNL A   1      48.261  27.131  26.362  1.00  0.00     0.031 A 
BRANCH  52  66
ATOM     66  C   UNL A   1      43.593  23.087  26.665  1.00  0.00    -0.014 A 
ATOM     67  C   UNL A   1      43.083  22.369  27.762  1.00  0.00     0.010 A 
ATOM     68  C   UNL A   1      43.652  22.464  25.405  1.00  0.00     0.010 A 
ATOM     69  C   UNL A   1      42.687  21.038  27.613  1.00  0.00     0.020 A 
ATOM     70  C   UNL A   1      43.236  21.139  25.247  1.00  0.00     0.020 A 
ATOM     71  C   UNL A   1      42.777  20.427  26.358  1.00  0.00     0.054 A 
BRANCH  71  72
ATOM     72  S   UNL A   1      42.260  18.696  26.186  1.00  0.00     0.124 S 
ATOM     73  O   UNL A   1      42.390  18.209  27.557  1.00  0.00    -0.237 OA
ATOM     74  O   UNL A   1      40.892  18.813  25.689  1.00  0.00    -0.237 OA
ATOM     75  O   UNL A   1      43.220  18.143  25.234  1.00  0.00    -0.744 OA
ENDBRANCH  71  72
ENDBRANCH  52  66
BRANCH  53  76
ATOM     76  C   UNL A   1      46.328  32.564  28.205  1.00  0.00    -0.014 A 
ATOM     77  C   UNL A   1      46.817  32.941  29.468  1.00  0.00     0.010 A 
ATOM     78  C   UNL A   1      46.263  33.521  27.178  1.00  0.00     0.010 A 
ATOM     79  C   UNL A   1      47.225  34.256  29.703  1.00  0.00     0.020 A 
ATOM     80  C   UNL A   1      46.688  34.834  27.406  1.00  0.00     0.020 A 
ATOM     81  C   UNL A   1      47.158  35.195  28.670  1.00  0.00     0.054 A 
BRANCH  81  82
ATOM     82  S   UNL A   1      47.752  36.884  28.975  1.00  0.00     0.124 S 
ATOM     83  O   UNL A   1      47.108  37.207  30.243  1.00  0.00    -0.237 OA
ATOM     84  O   UNL A   1      49.202  36.707  29.028  1.00  0.00    -0.237 OA
ATOM     85  O   UNL A   1      47.267  37.627  27.815  1.00  0.00    -0.744 OA
ENDBRANCH  81  82
ENDBRANCH  53  76
BRANCH  65  86
ATOM     86  C   UNL A   1      49.671  26.908  25.890  1.00  0.00    -0.014 A 
ATOM     87  C   UNL A   1      50.018  27.088  24.540  1.00  0.00     0.010 A 
ATOM     88  C   UNL A   1      50.667  26.558  26.818  1.00  0.00     0.010 A 
ATOM     89  C   UNL A   1      51.336  26.891  24.120  1.00  0.00     0.020 A 
ATOM     90  C   UNL A   1      51.989  26.378  26.405  1.00  0.00     0.020 A 
ATOM     91  C   UNL A   1      52.312  26.531  25.055  1.00  0.00     0.054 A 
BRANCH  91  92
ATOM     92  S   UNL A   1      54.026  26.316  24.499  1.00  0.00     0.124 S 
ATOM     93  O   UNL A   1      54.301  24.937  24.891  1.00  0.00    -0.237 OA
ATOM     94  O   UNL A   1      53.934  26.554  23.060  1.00  0.00    -0.237 OA
ATOM     95  O   UNL A   1      54.759  27.336  25.245  1.00  0.00    -0.744 OA
ENDBRANCH  91  92
ENDBRANCH  65  86
ENDBRANCH  39  40
ENDBRANCH  31  34
ENDBRANCH  29  30
ENDBRANCH   1  29
TORSDOF 17
ENDMDL
MODEL 2
REMARK VINA RESULT:     -12.0      1.521      8.261
REMARK SMILES Cc1ccc(S(=O)(=O)Nc2cnc(N(C)C)c(C(=O)NCCCNC(=O)c3ccc(-c4c5nc(c(-c6ccc(S(=O)(=O)[O-])cc6)c6ccc([nH]6)c(-c6ccc(S(=O)(=O)[O-])cc6)c6nc(c(-c7ccc(S(=O)(=O)[O-])cc7)c7ccc4[nH]7)C=C6)C=C5)cc3)c2)c(C)c1
REMARK SMILES IDX 22 1 21 2 20 3 18 4 19 5 17 7 10 8 11 9 87 10 12 11 13 12
REMARK SMILES IDX 9 13 6 15 7 16 8 17 5 18 1 19 2 20 3 21 90 22 4 23 88 24
REMARK SMILES IDX 89 25 14 26 15 27 16 28 23 29 24 30 25 31 26 33 27 34 28 35
REMARK SMILES IDX 86 36 29 37 85 38 30 39 31 40 32 41 79 42 33 43 84 44 78 45
REMARK SMILES IDX 80 46 34 47 83 48 77 49 76 50 35 52 65 53 46 54 64 55 47 56
REMARK SMILES IDX 50 57 63 58 81 59 48 60 49 61 62 63 82 64 51 65 36 66 37 67
REMARK SMILES IDX 45 68 38 69 44 70 39 71 40 72 41 73 42 74 43 75 66 76 67 77
REMARK SMILES IDX 75 78 68 79 74 80 69 81 70 82 71 83 72 84 73 85 52 86 53 87
REMARK SMILES IDX 61 88 54 89 60 90 55 91 56 92 57 93 58 94 59 95
REMARK H PARENT 20 6 9 14 24 32 80 51 50 62
REMARK Flexibility Score: inf
ROOT
ATOM      1  C   UNL A   1      34.443  30.573  27.425  1.00  0.00     0.042 C 
ENDROOT
BRANCH   1   2
ATOM      2  C   UNL A   1      34.254  29.131  26.950  1.00  0.00     0.118 C 
BRANCH   2   3
ATOM      3  N   UNL A   1      33.075  28.545  27.567  1.00  0.00    -0.352 N 
ATOM      4  C   UNL A   1      32.136  27.650  27.107  1.00  0.00     0.255 C 
ATOM      5  O   UNL A   1      31.068  27.602  27.712  1.00  0.00    -0.269 OA
ATOM      6  H   UNL A   1      32.919  28.844  28.492  1.00  0.00     0.163 HD
BRANCH   4   7
ATOM      7  C   UNL A   1      32.377  26.755  25.946  1.00  0.00     0.084 A 
ATOM      8  C   UNL A   1      33.450  24.749  25.106  1.00  0.00     0.068 A 
ATOM      9  C   UNL A   1      32.999  25.116  23.857  1.00  0.00     0.140 A 
ATOM     10  C   UNL A   1      33.247  25.657  26.131  1.00  0.00     0.046 A 
ATOM     11  N   UNL A   1      32.220  26.189  23.631  1.00  0.00    -0.236 NA
ATOM     12  C   UNL A   1      31.825  26.989  24.664  1.00  0.00     0.141 A 
BRANCH   8  13
ATOM     13  N   UNL A   1      33.994  23.446  25.266  1.00  0.00    -0.278 N 
ATOM     14  H   UNL A   1      34.912  23.295  24.943  1.00  0.00     0.180 HD
BRANCH  13  15
ATOM     15  S   UNL A   1      33.193  22.146  25.961  1.00  0.00     0.262 S 
ATOM     16  O   UNL A   1      31.773  22.431  25.884  1.00  0.00    -0.201 OA
ATOM     17  O   UNL A   1      33.862  21.934  27.225  1.00  0.00    -0.201 OA
BRANCH  15  18
ATOM     18  C   UNL A   1      33.464  20.667  24.983  1.00  0.00     0.090 A 
ATOM     19  C   UNL A   1      33.980  16.585  23.695  1.00  0.00     0.044 C 
ATOM     20  C   UNL A   1      33.809  18.028  24.067  1.00  0.00    -0.051 A 
ATOM     21  C   UNL A   1      32.560  18.646  23.982  1.00  0.00     0.005 A 
ATOM     22  C   UNL A   1      34.909  18.786  24.476  1.00  0.00     0.008 A 
ATOM     23  C   UNL A   1      32.393  19.966  24.416  1.00  0.00     0.023 A 
ATOM     24  C   UNL A   1      34.759  20.108  24.938  1.00  0.00    -0.030 A 
ATOM     25  C   UNL A   1      36.018  20.855  25.292  1.00  0.00     0.046 C 
ENDBRANCH  15  18
ENDBRANCH  13  15
ENDBRANCH   8  13
BRANCH  12  26
ATOM     26  N   UNL A   1      30.833  27.884  24.306  1.00  0.00    -0.362 N 
ATOM     27  C   UNL A   1      29.650  27.338  23.640  1.00  0.00     0.145 C 
ATOM     28  C   UNL A   1      30.969  29.329  24.262  1.00  0.00     0.145 C 
ENDBRANCH  12  26
ENDBRANCH   4   7
ENDBRANCH   2   3
ENDBRANCH   1   2
BRANCH   1  29
ATOM     29  C   UNL A   1      35.761  30.794  28.162  1.00  0.00     0.118 C 
BRANCH  29  30
ATOM     30  N   UNL A   1      35.622  30.595  29.596  1.00  0.00    -0.352 N 
ATOM     31  C   UNL A   1      36.496  30.007  30.476  1.00  0.00     0.251 C 
ATOM     32  H   UNL A   1      34.784  30.928  29.990  1.00  0.00     0.163 HD
ATOM     33  O   UNL A   1      36.119  29.749  31.616  1.00  0.00    -0.269 OA
BRANCH  31  34
ATOM     34  C   UNL A   1      37.875  29.672  30.055  1.00  0.00     0.039 A 
ATOM     35  C   UNL A   1      38.184  29.691  28.692  1.00  0.00     0.014 A 
ATOM     36  C   UNL A   1      38.848  29.291  30.985  1.00  0.00     0.014 A 
ATOM     37  C   UNL A   1      39.471  29.360  28.263  1.00  0.00     0.010 A 
ATOM     38  C   UNL A   1      40.147  29.012  30.561  1.00  0.00     0.010 A 
ATOM     39  C   UNL A   1      40.467  29.028  29.195  1.00  0.00    -0.014 A 
BRANCH  39  40
ATOM     40  C   UNL A   1      41.836  28.661  28.752  1.00  0.00     0.031 A 
ATOM     41  C   UNL A   1      42.916  29.707  28.699  1.00  0.00     0.074 A 
ATOM     42  C   UNL A   1      42.097  27.401  28.357  1.00  0.00     0.049 A 
ATOM     43  N   UNL A   1      44.158  29.592  28.304  1.00  0.00    -0.248 NA
ATOM     44  C   UNL A   1      42.546  31.067  29.123  1.00  0.00     0.031 C 
ATOM     45  C   UNL A   1      41.126  26.305  28.319  1.00  0.00     0.029 A 
ATOM     46  N   UNL A   1      43.260  26.831  27.903  1.00  0.00    -0.354 N 
ATOM     47  C   UNL A   1      44.709  30.865  28.405  1.00  0.00     0.074 A 
ATOM     48  C   UNL A   1      43.656  31.744  28.868  1.00  0.00     0.031 C 
ATOM     49  C   UNL A   1      41.740  25.190  27.889  1.00  0.00     0.029 A 
ATOM     50  C   UNL A   1      43.137  25.497  27.598  1.00  0.00     0.049 A 
ATOM     51  H   UNL A   1      44.103  27.331  27.807  1.00  0.00     0.167 HD
ATOM     52  C   UNL A   1      45.977  31.266  28.150  1.00  0.00     0.031 A 
ATOM     53  C   UNL A   1      44.048  24.617  27.138  1.00  0.00     0.031 A 
ATOM     54  C   UNL A   1      47.031  30.388  27.716  1.00  0.00     0.049 A 
ATOM     55  C   UNL A   1      45.461  25.073  26.908  1.00  0.00     0.074 A 
ATOM     56  C   UNL A   1      48.361  30.688  27.481  1.00  0.00     0.029 A 
ATOM     57  N   UNL A   1      46.874  29.035  27.460  1.00  0.00    -0.354 N 
ATOM     58  N   UNL A   1      45.974  26.271  27.058  1.00  0.00    -0.248 NA
ATOM     59  C   UNL A   1      46.423  24.054  26.464  1.00  0.00     0.031 C 
ATOM     60  C   UNL A   1      49.005  29.518  27.059  1.00  0.00     0.029 A 
ATOM     61  C   UNL A   1      48.082  28.485  27.065  1.00  0.00     0.049 A 
ATOM     62  H   UNL A   1      46.029  28.538  27.545  1.00  0.00     0.167 HD
ATOM     63  C   UNL A   1      47.322  26.146  26.745  1.00  0.00     0.074 A 
ATOM     64  C   UNL A   1      47.548  24.754  26.411  1.00  0.00     0.031 C 
ATOM     65  C   UNL A   1      48.287  27.098  26.738  1.00  0.00     0.031 A 
BRANCH  52  66
ATOM     66  C   UNL A   1      46.286  32.727  28.334  1.00  0.00    -0.014 A 
ATOM     67  C   UNL A   1      46.724  33.223  29.574  1.00  0.00     0.010 A 
ATOM     68  C   UNL A   1      46.144  33.614  27.251  1.00  0.00     0.010 A 
ATOM     69  C   UNL A   1      46.967  34.588  29.744  1.00  0.00     0.020 A 
ATOM     70  C   UNL A   1      46.408  34.978  27.411  1.00  0.00     0.020 A 
ATOM     71  C   UNL A   1      46.796  35.459  28.663  1.00  0.00     0.054 A 
BRANCH  71  72
ATOM     72  S   UNL A   1      47.114  37.229  28.905  1.00  0.00     0.124 S 
ATOM     73  O   UNL A   1      47.970  37.219  30.089  1.00  0.00    -0.237 OA
ATOM     74  O   UNL A   1      47.772  37.614  27.659  1.00  0.00    -0.237 OA
ATOM     75  O   UNL A   1      45.782  37.795  29.102  1.00  0.00    -0.744 OA
ENDBRANCH  71  72
ENDBRANCH  52  66
BRANCH  53  76
ATOM     76  C   UNL A   1      43.654  23.204  26.900  1.00  0.00    -0.014 A 
ATOM     77  C   UNL A   1      43.027  22.465  27.918  1.00  0.00     0.010 A 
ATOM     78  C   UNL A   1      43.878  22.602  25.650  1.00  0.00     0.010 A 
ATOM     79  C   UNL A   1      42.639  21.141  27.693  1.00  0.00     0.020 A 
ATOM     80  C   UNL A   1      43.474  21.284  25.416  1.00  0.00     0.020 A 
ATOM     81  C   UNL A   1      42.866  20.559  26.443  1.00  0.00     0.054 A 
BRANCH  81  82
ATOM     82  S   UNL A   1      42.298  18.859  26.147  1.00  0.00     0.124 S 
ATOM     83  O   UNL A   1      43.185  18.427  25.073  1.00  0.00    -0.237 OA
ATOM     84  O   UNL A   1      42.515  18.220  27.443  1.00  0.00    -0.237 OA
ATOM     85  O   UNL A   1      40.896  19.032  25.774  1.00  0.00    -0.744 OA
ENDBRANCH  81  82
ENDBRANCH  53  76
BRANCH  65  86
ATOM     86  C   UNL A   1      49.680  26.659  26.384  1.00  0.00    -0.014 A 
ATOM     87  C   UNL A   1      50.149  26.739  25.061  1.00  0.00     0.010 A 
ATOM     88  C   UNL A   1      50.543  26.203  27.395  1.00  0.00     0.010 A 
ATOM     89  C   UNL A   1      51.452  26.340  24.751  1.00  0.00     0.020 A 
ATOM     90  C   UNL A   1      51.852  25.820  27.092  1.00  0.00     0.020 A 
ATOM     91  C   UNL A   1      52.293  25.877  25.768  1.00  0.00     0.054 A 
BRANCH  91  92
ATOM     92  S   UNL A   1      53.994  25.399  25.353  1.00  0.00     0.124 S 
ATOM     93  O   UNL A   1      54.631  25.381  26.667  1.00  0.00    -0.237 OA
ATOM     94  O   UNL A   1      53.820  24.093  24.721  1.00  0.00    -0.237 OA
ATOM     95  O   UNL A   1      54.440  26.462  24.456  1.00  0.00    -0.744 OA
ENDBRANCH  91  92
ENDBRANCH  65  86
ENDBRANCH  39  40
ENDBRANCH  31  34
ENDBRANCH  29  30
ENDBRANCH   1  29
TORSDOF 17
ENDMDL
MODEL 3
REMARK VINA RESULT:     -11.7      2.272      8.489
REMARK SMILES Cc1ccc(S(=O)(=O)Nc2cnc(N(C)C)c(C(=O)NCCCNC(=O)c3ccc(-c4c5nc(c(-c6ccc(S(=O)(=O)[O-])cc6)c6ccc([nH]6)c(-c6ccc(S(=O)(=O)[O-])cc6)c6nc(c(-c7ccc(S(=O)(=O)[O-])cc7)c7ccc4[nH]7)C=C6)C=C5)cc3)c2)c(C)c1
REMARK SMILES IDX 22 1 21 2 20 3 18 4 19 5 17 7 10 8 11 9 87 10 12 11 13 12
REMARK SMILES IDX 9 13 6 15 7 16 8 17 5 18 1 19 2 20 3 21 90 22 4 23 88 24
REMARK SMILES IDX 89 25 14 26 15 27 16 28 23 29 24 30 25 31 26 33 27 34 28 35
REMARK SMILES IDX 86 36 29 37 85 38 30 39 31 40 32 41 79 42 33 43 84 44 78 45
REMARK SMILES IDX 80 46 34 47 83 48 77 49 76 50 35 52 65 53 46 54 64 55 47 56
REMARK SMILES IDX 50 57 63 58 81 59 48 60 49 61 62 63 82 64 51 65 36 66 37 67
REMARK SMILES IDX 45 68 38 69 44 70 39 71 40 72 41 73 42 74 43 75 66 76 67 77
REMARK SMILES IDX 75 78 68 79 74 80 69 81 70 82 71 83 72 84 73 85 52 86 53 87
REMARK SMILES IDX 61 88 54 89 60 90 55 91 56 92 57 93 58 94 59 95
REMARK H PARENT 20 6 9 14 24 32 80 51 50 62
REMARK Flexibility Score: inf
ROOT
ATOM      1  C   UNL A   1      38.252  20.167  25.039  1.00  0.00     0.042 C 
ENDROOT
BRANCH   1   2
ATOM      2  C   UNL A   1      36.901  20.847  25.270  1.00  0.00     0.118 C 
BRANCH   2   3
ATOM      3  N   UNL A   1      36.655  21.849  24.245  1.00  0.00    -0.352 N 
ATOM      4  C   UNL A   1      35.511  22.494  23.835  1.00  0.00     0.255 C 
ATOM      5  O   UNL A   1      35.536  23.025  22.727  1.00  0.00    -0.269 OA
ATOM      6  H   UNL A   1      37.462  22.117  23.749  1.00  0.00     0.163 HD
BRANCH   4   7
ATOM      7  C   UNL A   1      34.289  22.581  24.675  1.00  0.00     0.084 A 
ATOM      8  C   UNL A   1      32.886  23.957  26.096  1.00  0.00     0.068 A 
ATOM      9  C   UNL A   1      32.151  22.820  26.350  1.00  0.00     0.140 A 
ATOM     10  C   UNL A   1      34.046  23.794  25.358  1.00  0.00     0.046 A 
ATOM     11  N   UNL A   1      32.390  21.631  25.767  1.00  0.00    -0.236 NA
ATOM     12  C   UNL A   1      33.405  21.493  24.865  1.00  0.00     0.141 A 
BRANCH   8  13
ATOM     13  N   UNL A   1      32.358  25.205  26.521  1.00  0.00    -0.278 N 
ATOM     14  H   UNL A   1      32.676  25.564  27.381  1.00  0.00     0.180 HD
BRANCH  13  15
ATOM     15  S   UNL A   1      31.233  26.115  25.671  1.00  0.00     0.262 S 
ATOM     16  O   UNL A   1      29.956  25.942  26.335  1.00  0.00    -0.201 OA
ATOM     17  O   UNL A   1      31.430  25.745  24.287  1.00  0.00    -0.201 OA
BRANCH  15  18
ATOM     18  C   UNL A   1      31.636  27.858  25.798  1.00  0.00     0.090 A 
ATOM     19  C   UNL A   1      31.529  32.089  26.621  1.00  0.00     0.044 C 
ATOM     20  C   UNL A   1      31.639  30.627  26.305  1.00  0.00    -0.051 A 
ATOM     21  C   UNL A   1      32.262  29.747  27.191  1.00  0.00     0.005 A 
ATOM     22  C   UNL A   1      31.145  30.127  25.096  1.00  0.00     0.008 A 
ATOM     23  C   UNL A   1      32.280  28.373  26.929  1.00  0.00     0.023 A 
ATOM     24  C   UNL A   1      31.134  28.746  24.822  1.00  0.00    -0.030 A 
ATOM     25  C   UNL A   1      30.640  28.323  23.464  1.00  0.00     0.046 C 
ENDBRANCH  15  18
ENDBRANCH  13  15
ENDBRANCH   8  13
BRANCH  12  26
ATOM     26  N   UNL A   1      33.355  20.295  24.176  1.00  0.00    -0.362 N 
ATOM     27  C   UNL A   1      32.375  20.186  23.095  1.00  0.00     0.145 C 
ATOM     28  C   UNL A   1      33.969  19.048  24.596  1.00  0.00     0.145 C 
ENDBRANCH  12  26
ENDBRANCH   4   7
ENDBRANCH   2   3
ENDBRANCH   1   2
BRANCH   1  29
ATOM     29  C   UNL A   1      39.283  20.503  26.113  1.00  0.00     0.118 C 
BRANCH  29  30
ATOM     30  N   UNL A   1      40.392  19.562  26.114  1.00  0.00    -0.352 N 
ATOM     31  C   UNL A   1      41.740  19.814  26.177  1.00  0.00     0.251 C 
ATOM     32  H   UNL A   1      40.141  18.612  26.061  1.00  0.00     0.163 HD
ATOM     33  O   UNL A   1      42.534  18.903  25.962  1.00  0.00    -0.269 OA
BRANCH  31  34
ATOM     34  C   UNL A   1      42.236  21.176  26.484  1.00  0.00     0.039 A 
ATOM     35  C   UNL A   1      42.407  22.081  25.433  1.00  0.00     0.014 A 
ATOM     36  C   UNL A   1      42.581  21.548  27.788  1.00  0.00     0.014 A 
ATOM     37  C   UNL A   1      42.893  23.365  25.690  1.00  0.00     0.010 A 
ATOM     38  C   UNL A   1      43.015  22.847  28.051  1.00  0.00     0.010 A 
ATOM     39  C   UNL A   1      43.190  23.762  27.003  1.00  0.00    -0.014 A 
BRANCH  39  40
ATOM     40  C   UNL A   1      43.720  25.120  27.288  1.00  0.00     0.031 A 
ATOM     41  C   UNL A   1      45.169  25.432  27.035  1.00  0.00     0.074 A 
ATOM     42  C   UNL A   1      42.909  26.057  27.816  1.00  0.00     0.049 A 
ATOM     43  N   UNL A   1      45.826  26.542  27.257  1.00  0.00    -0.248 NA
ATOM     44  C   UNL A   1      45.996  24.347  26.481  1.00  0.00     0.031 C 
ATOM     45  C   UNL A   1      41.496  25.867  28.149  1.00  0.00     0.029 A 
ATOM     46  N   UNL A   1      43.163  27.358  28.171  1.00  0.00    -0.354 N 
ATOM     47  C   UNL A   1      47.144  26.282  26.898  1.00  0.00     0.074 A 
ATOM     48  C   UNL A   1      47.200  24.899  26.473  1.00  0.00     0.031 C 
ATOM     49  C   UNL A   1      41.003  27.017  28.638  1.00  0.00     0.029 A 
ATOM     50  C   UNL A   1      42.067  28.015  28.676  1.00  0.00     0.049 A 
ATOM     51  H   UNL A   1      44.047  27.781  28.072  1.00  0.00     0.167 HD
ATOM     52  C   UNL A   1      48.208  27.119  26.906  1.00  0.00     0.031 A 
ATOM     53  C   UNL A   1      41.933  29.281  29.118  1.00  0.00     0.031 A 
ATOM     54  C   UNL A   1      48.148  28.501  27.301  1.00  0.00     0.049 A 
ATOM     55  C   UNL A   1      43.115  30.206  29.073  1.00  0.00     0.074 A 
ATOM     56  C   UNL A   1      49.159  29.445  27.295  1.00  0.00     0.029 A 
ATOM     57  N   UNL A   1      47.007  29.138  27.766  1.00  0.00    -0.354 N 
ATOM     58  N   UNL A   1      44.342  29.955  28.681  1.00  0.00    -0.248 NA
ATOM     59  C   UNL A   1      42.891  31.591  29.512  1.00  0.00     0.031 C 
ATOM     60  C   UNL A   1      48.636  30.651  27.780  1.00  0.00     0.029 A 
ATOM     61  C   UNL A   1      47.290  30.463  28.055  1.00  0.00     0.049 A 
ATOM     62  H   UNL A   1      46.127  28.713  27.876  1.00  0.00     0.167 HD
ATOM     63  C   UNL A   1      45.031  31.155  28.809  1.00  0.00     0.074 A 
ATOM     64  C   UNL A   1      44.083  32.133  29.300  1.00  0.00     0.031 C 
ATOM     65  C   UNL A   1      46.333  31.422  28.541  1.00  0.00     0.031 A 
BRANCH  52  66
ATOM     66  C   UNL A   1      49.533  26.551  26.474  1.00  0.00    -0.014 A 
ATOM     67  C   UNL A   1      50.370  25.890  27.391  1.00  0.00     0.010 A 
ATOM     68  C   UNL A   1      49.943  26.671  25.134  1.00  0.00     0.010 A 
ATOM     69  C   UNL A   1      51.616  25.404  26.988  1.00  0.00     0.020 A 
ATOM     70  C   UNL A   1      51.179  26.166  24.721  1.00  0.00     0.020 A 
ATOM     71  C   UNL A   1      52.018  25.555  25.657  1.00  0.00     0.054 A 
BRANCH  71  72
ATOM     72  S   UNL A   1      53.641  24.919  25.154  1.00  0.00     0.124 S 
ATOM     73  O   UNL A   1      53.848  25.603  23.879  1.00  0.00    -0.237 OA
ATOM     74  O   UNL A   1      54.512  25.350  26.245  1.00  0.00    -0.237 OA
ATOM     75  O   UNL A   1      53.432  23.477  25.062  1.00  0.00    -0.744 OA
ENDBRANCH  71  72
ENDBRANCH  52  66
BRANCH  53  76
ATOM     76  C   UNL A   1      40.612  29.754  29.608  1.00  0.00    -0.014 A 
ATOM     77  C   UNL A   1      39.570  30.005  28.699  1.00  0.00     0.010 A 
ATOM     78  C   UNL A   1      40.382  29.929  30.984  1.00  0.00     0.010 A 
ATOM     79  C   UNL A   1      38.321  30.434  29.157  1.00  0.00     0.020 A 
ATOM     80  C   UNL A   1      39.128  30.339  31.446  1.00  0.00     0.020 A 
ATOM     81  C   UNL A   1      38.108  30.599  30.528  1.00  0.00     0.054 A 
BRANCH  81  82
ATOM     82  S   UNL A   1      36.461  31.094  31.111  1.00  0.00     0.124 S 
ATOM     83  O   UNL A   1      36.072  29.950  31.928  1.00  0.00    -0.237 OA
ATOM     84  O   UNL A   1      36.739  32.328  31.842  1.00  0.00    -0.237 OA
ATOM     85  O   UNL A   1      35.704  31.270  29.874  1.00  0.00    -0.744 OA
ENDBRANCH  81  82
ENDBRANCH  53  76
BRANCH  65  86
ATOM     86  C   UNL A   1      46.799  32.836  28.747  1.00  0.00    -0.014 A 
ATOM     87  C   UNL A   1      46.712  33.784  27.712  1.00  0.00     0.010 A 
ATOM     88  C   UNL A   1      47.288  33.231  30.004  1.00  0.00     0.010 A 
ATOM     89  C   UNL A   1      47.136  35.098  27.923  1.00  0.00     0.020 A 
ATOM     90  C   UNL A   1      47.696  34.548  30.225  1.00  0.00     0.020 A 
ATOM     91  C   UNL A   1      47.631  35.470  29.178  1.00  0.00     0.054 A 
BRANCH  91  92
ATOM     92  S   UNL A   1      48.142  37.191  29.447  1.00  0.00     0.124 S 
ATOM     93  O   UNL A   1      49.215  37.344  28.468  1.00  0.00    -0.237 OA
ATOM     94  O   UNL A   1      46.920  37.941  29.163  1.00  0.00    -0.237 OA
ATOM     95  O   UNL A   1      48.565  37.209  30.845  1.00  0.00    -0.744 OA
ENDBRANCH  91  92
ENDBRANCH  65  86
ENDBRANCH  39  40
ENDBRANCH  31  34
ENDBRANCH  29  30
ENDBRANCH   1  29
TORSDOF 17
ENDMDL
