MODEL 1
REMARK VINA RESULT:     -10.3      0.000      0.000
REMARK SMILES C[C@@](COc1ccccc1)(NC(=O)CN1CSCC1=O)C(=O)NCCCNC(=O)c1ccc(-c2c3nc(c(-c4ccc(S(=O)(=O)[O-])cc4)c4ccc([nH]4)c(-c4ccc(S(=O)(=O)[O-])cc4)c4nc(c(-c5ccc(S(=O)(=O)[O-])cc5)c5ccc2[nH]5)C=C4)C=C3)cc1
REMARK SMILES IDX 25 1 24 2 23 3 21 4 22 5 2 7 1 8 3 9 4 10 5 11 6 12 10 13
REMARK SMILES IDX 7 14 9 15 8 16 11 17 12 18 13 20 14 21 15 22 16 23 19 24
REMARK SMILES IDX 17 25 18 26 20 27 26 28 27 29 28 30 29 32 30 33 31 34 89 35
REMARK SMILES IDX 32 36 88 37 33 38 34 39 35 40 82 41 36 42 87 43 81 44 83 45
REMARK SMILES IDX 37 46 86 47 80 48 79 49 38 51 68 52 49 53 67 54 50 55 53 56
REMARK SMILES IDX 66 57 84 58 51 59 52 60 65 62 85 63 54 64 39 65 40 66 48 67
REMARK SMILES IDX 41 68 47 69 42 70 43 71 44 72 45 73 46 74 69 75 70 76 78 77
REMARK SMILES IDX 71 78 77 79 72 80 73 81 74 82 75 83 76 84 55 85 56 86 64 87
REMARK SMILES IDX 57 88 63 89 58 90 59 91 60 92 61 93 62 94
REMARK H PARENT 23 6 11 19 27 31 83 50 53 61
REMARK Flexibility Score: inf
ROOT
ATOM      1  C   UNL A   1      36.024  23.701  24.221  1.00  0.00     0.042 C 
ENDROOT
BRANCH   1   2
ATOM      2  C   UNL A   1      34.760  24.531  24.026  1.00  0.00     0.117 C 
BRANCH   2   3
ATOM      3  N   UNL A   1      33.647  24.109  24.862  1.00  0.00    -0.354 N 
ATOM      4  C   UNL A   1      32.336  24.470  24.894  1.00  0.00     0.249 C 
ATOM      5  O   UNL A   1      31.614  23.768  25.610  1.00  0.00    -0.272 OA
ATOM      6  H   UNL A   1      33.889  23.432  25.533  1.00  0.00     0.163 HD
BRANCH   4   7
ATOM      7  C   UNL A   1      31.746  25.598  24.009  1.00  0.00     0.150 C 
ATOM      8  C   UNL A   1      32.185  25.367  22.554  1.00  0.00     0.049 C 
BRANCH   7   9
ATOM      9  C   UNL A   1      32.389  26.957  24.464  1.00  0.00     0.267 C 
BRANCH   9  10
ATOM     10  O   UNL A   1      32.785  26.929  25.860  1.00  0.00    -0.491 OA
BRANCH  10  11
ATOM     11  C   UNL A   1      32.983  28.181  26.371  1.00  0.00     0.119 A 
ATOM     12  C   UNL A   1      34.238  28.571  26.832  1.00  0.00     0.046 A 
ATOM     13  C   UNL A   1      31.898  29.054  26.457  1.00  0.00     0.046 A 
ATOM     14  C   UNL A   1      34.427  29.875  27.290  1.00  0.00     0.004 A 
ATOM     15  C   UNL A   1      32.096  30.368  26.881  1.00  0.00     0.004 A 
ATOM     16  C   UNL A   1      33.364  30.780  27.288  1.00  0.00     0.000 A 
ENDBRANCH  10  11
ENDBRANCH   9  10
ENDBRANCH   7   9
BRANCH   7  17
ATOM     17  N   UNL A   1      30.277  25.707  24.173  1.00  0.00    -0.338 N 
ATOM     18  C   UNL A   1      29.314  26.622  23.910  1.00  0.00     0.240 C 
ATOM     19  H   UNL A   1      29.899  24.897  24.583  1.00  0.00     0.164 HD
ATOM     20  O   UNL A   1      28.176  26.299  24.280  1.00  0.00    -0.273 OA
BRANCH  18  21
ATOM     21  C   UNL A   1      29.474  27.816  22.960  1.00  0.00     0.220 C 
BRANCH  21  22
ATOM     22  N   UNL A   1      29.063  29.137  23.382  1.00  0.00    -0.323 N 
ATOM     23  C   UNL A   1      30.054  30.173  23.507  1.00  0.00     0.190 C 
ATOM     24  C   UNL A   1      27.768  29.568  23.134  1.00  0.00     0.233 C 
ATOM     25  S   UNL A   1      29.194  31.703  23.878  1.00  0.00    -0.130 SA
ATOM     26  C   UNL A   1      27.565  31.013  23.529  1.00  0.00     0.171 C 
ATOM     27  O   UNL A   1      26.866  28.846  22.731  1.00  0.00    -0.274 OA
ENDBRANCH  21  22
ENDBRANCH  18  21
ENDBRANCH   7  17
ENDBRANCH   4   7
ENDBRANCH   2   3
ENDBRANCH   1   2
BRANCH   1  28
ATOM     28  C   UNL A   1      36.519  23.594  25.660  1.00  0.00     0.118 C 
BRANCH  28  29
ATOM     29  N   UNL A   1      37.604  22.640  25.816  1.00  0.00    -0.352 N 
ATOM     30  C   UNL A   1      38.889  22.839  26.259  1.00  0.00     0.251 C 
ATOM     31  H   UNL A   1      37.385  21.713  25.567  1.00  0.00     0.163 HD
ATOM     32  O   UNL A   1      39.714  21.939  26.135  1.00  0.00    -0.269 OA
BRANCH  30  33
ATOM     33  C   UNL A   1      39.285  24.133  26.857  1.00  0.00     0.039 A 
ATOM     34  C   UNL A   1      38.915  24.406  28.176  1.00  0.00     0.014 A 
ATOM     35  C   UNL A   1      39.993  25.086  26.119  1.00  0.00     0.014 A 
ATOM     36  C   UNL A   1      39.307  25.607  28.773  1.00  0.00     0.010 A 
ATOM     37  C   UNL A   1      40.448  26.249  26.739  1.00  0.00     0.010 A 
ATOM     38  C   UNL A   1      40.103  26.527  28.071  1.00  0.00    -0.014 A 
BRANCH  38  39
ATOM     39  C   UNL A   1      40.571  27.787  28.707  1.00  0.00     0.031 A 
ATOM     40  C   UNL A   1      41.980  27.892  29.231  1.00  0.00     0.074 A 
ATOM     41  C   UNL A   1      39.720  28.822  28.853  1.00  0.00     0.049 A 
ATOM     42  N   UNL A   1      42.553  28.884  29.863  1.00  0.00    -0.248 NA
ATOM     43  C   UNL A   1      42.852  26.721  29.039  1.00  0.00     0.031 C 
ATOM     44  C   UNL A   1      38.323  28.841  28.411  1.00  0.00     0.029 A 
ATOM     45  N   UNL A   1      39.904  30.059  29.419  1.00  0.00    -0.354 N 
ATOM     46  C   UNL A   1      43.844  28.456  30.151  1.00  0.00     0.074 A 
ATOM     47  C   UNL A   1      43.952  27.094  29.675  1.00  0.00     0.031 C 
ATOM     48  C   UNL A   1      37.788  30.040  28.693  1.00  0.00     0.029 A 
ATOM     49  C   UNL A   1      38.784  30.859  29.376  1.00  0.00     0.049 A 
ATOM     50  H   UNL A   1      40.757  30.348  29.817  1.00  0.00     0.167 HD
ATOM     51  C   UNL A   1      44.858  29.140  30.735  1.00  0.00     0.031 A 
ATOM     52  C   UNL A   1      38.580  32.107  29.841  1.00  0.00     0.031 A 
ATOM     53  C   UNL A   1      44.751  30.496  31.204  1.00  0.00     0.049 A 
ATOM     54  C   UNL A   1      39.710  32.831  30.524  1.00  0.00     0.074 A 
ATOM     55  C   UNL A   1      45.731  31.287  31.780  1.00  0.00     0.029 A 
ATOM     56  N   UNL A   1      43.598  31.264  31.150  1.00  0.00    -0.354 N 
ATOM     57  N   UNL A   1      40.939  32.424  30.741  1.00  0.00    -0.248 NA
ATOM     58  C   UNL A   1      39.428  34.187  31.014  1.00  0.00     0.031 C 
ATOM     59  C   UNL A   1      45.157  32.515  32.121  1.00  0.00     0.029 A 
ATOM     60  C   UNL A   1      43.837  32.513  31.700  1.00  0.00     0.049 A 
ATOM     61  H   UNL A   1      42.738  30.967  30.776  1.00  0.00     0.167 HD
ATOM     62  C   UNL A   1      41.584  33.490  31.361  1.00  0.00     0.074 A 
ATOM     63  C   UNL A   1      40.615  34.560  31.473  1.00  0.00     0.031 C 
ATOM     64  C   UNL A   1      42.866  33.573  31.797  1.00  0.00     0.031 A 
BRANCH  51  65
ATOM     65  C   UNL A   1      46.176  28.427  30.899  1.00  0.00    -0.014 A 
ATOM     66  C   UNL A   1      46.457  27.685  32.061  1.00  0.00     0.010 A 
ATOM     67  C   UNL A   1      47.128  28.462  29.864  1.00  0.00     0.010 A 
ATOM     68  C   UNL A   1      47.682  27.027  32.202  1.00  0.00     0.020 A 
ATOM     69  C   UNL A   1      48.342  27.780  29.989  1.00  0.00     0.020 A 
ATOM     70  C   UNL A   1      48.617  27.081  31.166  1.00  0.00     0.054 A 
BRANCH  70  71
ATOM     71  S   UNL A   1      50.189  26.199  31.370  1.00  0.00     0.124 S 
ATOM     72  O   UNL A   1      50.812  26.390  30.061  1.00  0.00    -0.237 OA
ATOM     73  O   UNL A   1      50.818  26.917  32.474  1.00  0.00    -0.237 OA
ATOM     74  O   UNL A   1      49.784  24.829  31.670  1.00  0.00    -0.744 OA
ENDBRANCH  70  71
ENDBRANCH  51  65
BRANCH  52  75
ATOM     75  C   UNL A   1      37.254  32.764  29.668  1.00  0.00    -0.014 A 
ATOM     76  C   UNL A   1      36.994  33.560  28.538  1.00  0.00     0.010 A 
ATOM     77  C   UNL A   1      36.247  32.609  30.638  1.00  0.00     0.010 A 
ATOM     78  C   UNL A   1      35.766  34.212  28.395  1.00  0.00     0.020 A 
ATOM     79  C   UNL A   1      35.006  33.234  30.484  1.00  0.00     0.020 A 
ATOM     80  C   UNL A   1      34.779  34.045  29.371  1.00  0.00     0.054 A 
BRANCH  80  81
ATOM     81  S   UNL A   1      33.183  34.879  29.150  1.00  0.00     0.124 S 
ATOM     82  O   UNL A   1      32.669  34.915  30.516  1.00  0.00    -0.237 OA
ATOM     83  O   UNL A   1      33.576  36.168  28.587  1.00  0.00    -0.237 OA
ATOM     84  O   UNL A   1      32.462  34.000  28.232  1.00  0.00    -0.744 OA
ENDBRANCH  80  81
ENDBRANCH  52  75
BRANCH  64  85
ATOM     85  C   UNL A   1      43.314  34.883  32.393  1.00  0.00    -0.014 A 
ATOM     86  C   UNL A   1      43.813  35.921  31.590  1.00  0.00     0.010 A 
ATOM     87  C   UNL A   1      43.177  35.092  33.778  1.00  0.00     0.010 A 
ATOM     88  C   UNL A   1      44.197  37.137  32.164  1.00  0.00     0.020 A 
ATOM     89  C   UNL A   1      43.530  36.316  34.352  1.00  0.00     0.020 A 
ATOM     90  C   UNL A   1      44.051  37.327  33.542  1.00  0.00     0.054 A 
BRANCH  90  91
ATOM     91  S   UNL A   1      44.510  38.930  34.256  1.00  0.00     0.124 S 
ATOM     92  O   UNL A   1      43.707  39.856  33.463  1.00  0.00    -0.237 OA
ATOM     93  O   UNL A   1      44.109  38.785  35.653  1.00  0.00    -0.237 OA
ATOM     94  O   UNL A   1      45.952  39.008  34.033  1.00  0.00    -0.744 OA
ENDBRANCH  90  91
ENDBRANCH  64  85
ENDBRANCH  38  39
ENDBRANCH  30  33
ENDBRANCH  28  29
ENDBRANCH   1  28
TORSDOF 19
ENDMDL
MODEL 2
REMARK VINA RESULT:     -10.2      4.003      9.387
REMARK SMILES C[C@@](COc1ccccc1)(NC(=O)CN1CSCC1=O)C(=O)NCCCNC(=O)c1ccc(-c2c3nc(c(-c4ccc(S(=O)(=O)[O-])cc4)c4ccc([nH]4)c(-c4ccc(S(=O)(=O)[O-])cc4)c4nc(c(-c5ccc(S(=O)(=O)[O-])cc5)c5ccc2[nH]5)C=C4)C=C3)cc1
REMARK SMILES IDX 25 1 24 2 23 3 21 4 22 5 2 7 1 8 3 9 4 10 5 11 6 12 10 13
REMARK SMILES IDX 7 14 9 15 8 16 11 17 12 18 13 20 14 21 15 22 16 23 19 24
REMARK SMILES IDX 17 25 18 26 20 27 26 28 27 29 28 30 29 32 30 33 31 34 89 35
REMARK SMILES IDX 32 36 88 37 33 38 34 39 35 40 82 41 36 42 87 43 81 44 83 45
REMARK SMILES IDX 37 46 86 47 80 48 79 49 38 51 68 52 49 53 67 54 50 55 53 56
REMARK SMILES IDX 66 57 84 58 51 59 52 60 65 62 85 63 54 64 39 65 40 66 48 67
REMARK SMILES IDX 41 68 47 69 42 70 43 71 44 72 45 73 46 74 69 75 70 76 78 77
REMARK SMILES IDX 71 78 77 79 72 80 73 81 74 82 75 83 76 84 55 85 56 86 64 87
REMARK SMILES IDX 57 88 63 89 58 90 59 91 60 92 61 93 62 94
REMARK H PARENT 23 6 11 19 27 31 83 50 53 61
REMARK Flexibility Score: inf
ROOT
ATOM      1  C   UNL A   1      38.109  20.333  24.764  1.00  0.00     0.042 C 
ENDROOT
BRANCH   1   2
ATOM      2  C   UNL A   1      36.608  20.245  25.018  1.00  0.00     0.117 C 
BRANCH   2   3
ATOM      3  N   UNL A   1      36.117  21.231  25.966  1.00  0.00    -0.354 N 
ATOM      4  C   UNL A   1      35.417  22.387  25.807  1.00  0.00     0.249 C 
ATOM      5  O   UNL A   1      34.991  22.893  26.852  1.00  0.00    -0.272 OA
ATOM      6  H   UNL A   1      36.331  21.022  26.904  1.00  0.00     0.163 HD
BRANCH   4   7
ATOM      7  C   UNL A   1      35.063  22.979  24.420  1.00  0.00     0.150 C 
ATOM      8  C   UNL A   1      36.357  23.138  23.604  1.00  0.00     0.049 C 
BRANCH   7   9
ATOM      9  C   UNL A   1      34.491  24.426  24.642  1.00  0.00     0.267 C 
BRANCH   9  10
ATOM     10  O   UNL A   1      33.978  24.999  23.410  1.00  0.00    -0.491 OA
BRANCH  10  11
ATOM     11  C   UNL A   1      33.740  26.341  23.521  1.00  0.00     0.119 A 
ATOM     12  C   UNL A   1      33.549  26.928  24.769  1.00  0.00     0.046 A 
ATOM     13  C   UNL A   1      33.655  27.110  22.360  1.00  0.00     0.046 A 
ATOM     14  C   UNL A   1      33.371  28.309  24.859  1.00  0.00     0.004 A 
ATOM     15  C   UNL A   1      33.513  28.494  22.453  1.00  0.00     0.004 A 
ATOM     16  C   UNL A   1      33.380  29.094  23.704  1.00  0.00     0.000 A 
ENDBRANCH  10  11
ENDBRANCH   9  10
ENDBRANCH   7   9
BRANCH   7  17
ATOM     17  N   UNL A   1      34.026  22.176  23.732  1.00  0.00    -0.338 N 
ATOM     18  C   UNL A   1      32.782  21.716  24.005  1.00  0.00     0.240 C 
ATOM     19  H   UNL A   1      34.320  21.902  22.834  1.00  0.00     0.164 HD
ATOM     20  O   UNL A   1      32.284  21.006  23.120  1.00  0.00    -0.273 OA
BRANCH  18  21
ATOM     21  C   UNL A   1      31.878  22.243  25.127  1.00  0.00     0.220 C 
BRANCH  21  22
ATOM     22  N   UNL A   1      31.331  23.579  25.050  1.00  0.00    -0.323 N 
ATOM     23  C   UNL A   1      30.751  24.029  23.812  1.00  0.00     0.190 C 
ATOM     24  C   UNL A   1      30.856  24.197  26.198  1.00  0.00     0.233 C 
ATOM     25  S   UNL A   1      30.027  25.643  24.108  1.00  0.00    -0.130 SA
ATOM     26  C   UNL A   1      30.208  25.530  25.899  1.00  0.00     0.171 C 
ATOM     27  O   UNL A   1      31.021  23.767  27.332  1.00  0.00    -0.274 OA
ENDBRANCH  21  22
ENDBRANCH  18  21
ENDBRANCH   7  17
ENDBRANCH   4   7
ENDBRANCH   2   3
ENDBRANCH   1   2
BRANCH   1  28
ATOM     28  C   UNL A   1      38.975  20.482  26.010  1.00  0.00     0.118 C 
BRANCH  28  29
ATOM     29  N   UNL A   1      40.051  19.508  26.072  1.00  0.00    -0.352 N 
ATOM     30  C   UNL A   1      41.407  19.704  26.181  1.00  0.00     0.251 C 
ATOM     31  H   UNL A   1      39.766  18.566  26.030  1.00  0.00     0.163 HD
ATOM     32  O   UNL A   1      42.166  18.754  26.023  1.00  0.00    -0.269 OA
BRANCH  30  33
ATOM     33  C   UNL A   1      41.949  21.052  26.462  1.00  0.00     0.039 A 
ATOM     34  C   UNL A   1      42.264  21.390  27.780  1.00  0.00     0.014 A 
ATOM     35  C   UNL A   1      42.124  21.989  25.440  1.00  0.00     0.014 A 
ATOM     36  C   UNL A   1      42.809  22.645  28.064  1.00  0.00     0.010 A 
ATOM     37  C   UNL A   1      42.738  23.210  25.713  1.00  0.00     0.010 A 
ATOM     38  C   UNL A   1      43.081  23.556  27.030  1.00  0.00    -0.014 A 
BRANCH  38  39
ATOM     39  C   UNL A   1      43.707  24.875  27.308  1.00  0.00     0.031 A 
ATOM     40  C   UNL A   1      42.869  26.019  27.817  1.00  0.00     0.074 A 
ATOM     41  C   UNL A   1      45.020  25.060  27.064  1.00  0.00     0.049 A 
ATOM     42  N   UNL A   1      43.222  27.254  28.066  1.00  0.00    -0.248 NA
ATOM     43  C   UNL A   1      41.442  25.744  28.059  1.00  0.00     0.031 C 
ATOM     44  C   UNL A   1      45.939  24.042  26.547  1.00  0.00     0.029 A 
ATOM     45  N   UNL A   1      45.811  26.172  27.214  1.00  0.00    -0.354 N 
ATOM     46  C   UNL A   1      42.066  27.904  28.482  1.00  0.00     0.074 A 
ATOM     47  C   UNL A   1      40.988  26.941  28.399  1.00  0.00     0.031 C 
ATOM     48  C   UNL A   1      47.171  24.567  26.454  1.00  0.00     0.029 A 
ATOM     49  C   UNL A   1      47.125  25.968  26.859  1.00  0.00     0.049 A 
ATOM     50  H   UNL A   1      45.470  27.034  27.545  1.00  0.00     0.167 HD
ATOM     51  C   UNL A   1      41.915  29.177  28.919  1.00  0.00     0.031 A 
ATOM     52  C   UNL A   1      48.173  26.816  26.852  1.00  0.00     0.031 A 
ATOM     53  C   UNL A   1      42.987  30.133  29.006  1.00  0.00     0.049 A 
ATOM     54  C   UNL A   1      47.970  28.238  27.302  1.00  0.00     0.074 A 
ATOM     55  C   UNL A   1      42.941  31.438  29.467  1.00  0.00     0.029 A 
ATOM     56  N   UNL A   1      44.298  29.888  28.628  1.00  0.00    -0.354 N 
ATOM     57  N   UNL A   1      46.877  28.818  27.739  1.00  0.00    -0.248 NA
ATOM     58  C   UNL A   1      49.147  29.118  27.269  1.00  0.00     0.031 C 
ATOM     59  C   UNL A   1      44.213  31.998  29.319  1.00  0.00     0.029 A 
ATOM     60  C   UNL A   1      45.066  31.024  28.827  1.00  0.00     0.049 A 
ATOM     61  H   UNL A   1      44.634  29.035  28.272  1.00  0.00     0.167 HD
ATOM     62  C   UNL A   1      47.245  30.119  28.066  1.00  0.00     0.074 A 
ATOM     63  C   UNL A   1      48.661  30.237  27.788  1.00  0.00     0.031 C 
ATOM     64  C   UNL A   1      46.478  31.125  28.554  1.00  0.00     0.031 A 
BRANCH  51  65
ATOM     65  C   UNL A   1      40.533  29.611  29.338  1.00  0.00    -0.014 A 
ATOM     66  C   UNL A   1      40.241  29.893  30.685  1.00  0.00     0.010 A 
ATOM     67  C   UNL A   1      39.526  29.781  28.371  1.00  0.00     0.010 A 
ATOM     68  C   UNL A   1      38.956  30.296  31.062  1.00  0.00     0.020 A 
ATOM     69  C   UNL A   1      38.249  30.214  28.739  1.00  0.00     0.020 A 
ATOM     70  C   UNL A   1      37.968  30.451  30.087  1.00  0.00     0.054 A 
BRANCH  70  71
ATOM     71  S   UNL A   1      36.317  30.995  30.604  1.00  0.00     0.124 S 
ATOM     72  O   UNL A   1      35.960  29.975  31.588  1.00  0.00    -0.237 OA
ATOM     73  O   UNL A   1      36.574  32.326  31.145  1.00  0.00    -0.237 OA
ATOM     74  O   UNL A   1      35.538  30.966  29.369  1.00  0.00    -0.744 OA
ENDBRANCH  70  71
ENDBRANCH  51  65
BRANCH  52  75
ATOM     75  C   UNL A   1      49.517  26.343  26.415  1.00  0.00    -0.014 A 
ATOM     76  C   UNL A   1      50.347  25.634  27.301  1.00  0.00     0.010 A 
ATOM     77  C   UNL A   1      49.980  26.611  25.113  1.00  0.00     0.010 A 
ATOM     78  C   UNL A   1      51.625  25.227  26.906  1.00  0.00     0.020 A 
ATOM     79  C   UNL A   1      51.245  26.179  24.705  1.00  0.00     0.020 A 
ATOM     80  C   UNL A   1      52.066  25.504  25.610  1.00  0.00     0.054 A 
BRANCH  80  81
ATOM     81  S   UNL A   1      53.718  24.942  25.111  1.00  0.00     0.124 S 
ATOM     82  O   UNL A   1      54.551  25.451  26.196  1.00  0.00    -0.237 OA
ATOM     83  O   UNL A   1      53.556  23.491  25.063  1.00  0.00    -0.237 OA
ATOM     84  O   UNL A   1      53.919  25.583  23.813  1.00  0.00    -0.744 OA
ENDBRANCH  80  81
ENDBRANCH  52  75
BRANCH  64  85
ATOM     85  C   UNL A   1      47.160  32.432  28.867  1.00  0.00    -0.014 A 
ATOM     86  C   UNL A   1      47.754  32.668  30.118  1.00  0.00     0.010 A 
ATOM     87  C   UNL A   1      47.256  33.417  27.866  1.00  0.00     0.010 A 
ATOM     88  C   UNL A   1      48.405  33.878  30.375  1.00  0.00     0.020 A 
ATOM     89  C   UNL A   1      47.932  34.615  28.107  1.00  0.00     0.020 A 
ATOM     90  C   UNL A   1      48.491  34.844  29.366  1.00  0.00     0.054 A 
BRANCH  90  91
ATOM     91  S   UNL A   1      49.384  36.385  29.708  1.00  0.00     0.124 S 
ATOM     92  O   UNL A   1      50.546  36.264  28.832  1.00  0.00    -0.237 OA
ATOM     93  O   UNL A   1      48.414  37.409  29.328  1.00  0.00    -0.237 OA
ATOM     94  O   UNL A   1      49.671  36.309  31.138  1.00  0.00    -0.744 OA
ENDBRANCH  90  91
ENDBRANCH  64  85
ENDBRANCH  38  39
ENDBRANCH  30  33
ENDBRANCH  28  29
ENDBRANCH   1  28
TORSDOF 19
ENDMDL
MODEL 3
REMARK VINA RESULT:     -10.0      5.419     11.423
REMARK SMILES C[C@@](COc1ccccc1)(NC(=O)CN1CSCC1=O)C(=O)NCCCNC(=O)c1ccc(-c2c3nc(c(-c4ccc(S(=O)(=O)[O-])cc4)c4ccc([nH]4)c(-c4ccc(S(=O)(=O)[O-])cc4)c4nc(c(-c5ccc(S(=O)(=O)[O-])cc5)c5ccc2[nH]5)C=C4)C=C3)cc1
REMARK SMILES IDX 25 1 24 2 23 3 21 4 22 5 2 7 1 8 3 9 4 10 5 11 6 12 10 13
REMARK SMILES IDX 7 14 9 15 8 16 11 17 12 18 13 20 14 21 15 22 16 23 19 24
REMARK SMILES IDX 17 25 18 26 20 27 26 28 27 29 28 30 29 32 30 33 31 34 89 35
REMARK SMILES IDX 32 36 88 37 33 38 34 39 35 40 82 41 36 42 87 43 81 44 83 45
REMARK SMILES IDX 37 46 86 47 80 48 79 49 38 51 68 52 49 53 67 54 50 55 53 56
REMARK SMILES IDX 66 57 84 58 51 59 52 60 65 62 85 63 54 64 39 65 40 66 48 67
REMARK SMILES IDX 41 68 47 69 42 70 43 71 44 72 45 73 46 74 69 75 70 76 78 77
REMARK SMILES IDX 71 78 77 79 72 80 73 81 74 82 75 83 76 84 55 85 56 86 64 87
REMARK SMILES IDX 57 88 63 89 58 90 59 91 60 92 61 93 62 94
REMARK H PARENT 23 6 11 19 27 31 83 50 53 61
REMARK Flexibility Score: inf
ROOT
ATOM      1  C   UNL A   1      38.123  33.469  30.024  1.00  0.00     0.042 C 
ENDROOT
BRANCH   1   2
ATOM      2  C   UNL A   1      37.449  33.250  31.374  1.00  0.00     0.117 C 
BRANCH   2   3
ATOM      3  N   UNL A   1      37.793  34.252  32.369  1.00  0.00    -0.354 N 
ATOM      4  C   UNL A   1      37.623  34.301  33.719  1.00  0.00     0.249 C 
ATOM      5  O   UNL A   1      38.211  35.227  34.290  1.00  0.00    -0.272 OA
ATOM      6  H   UNL A   1      38.233  35.049  31.996  1.00  0.00     0.163 HD
BRANCH   4   7
ATOM      7  C   UNL A   1      36.856  33.216  34.516  1.00  0.00     0.150 C 
ATOM      8  C   UNL A   1      36.761  33.656  35.986  1.00  0.00     0.049 C 
BRANCH   7   9
ATOM      9  C   UNL A   1      37.715  31.900  34.494  1.00  0.00     0.267 C 
BRANCH   9  10
ATOM     10  O   UNL A   1      37.141  30.894  33.620  1.00  0.00    -0.491 OA
BRANCH  10  11
ATOM     11  C   UNL A   1      38.046  29.931  33.268  1.00  0.00     0.119 A 
ATOM     12  C   UNL A   1      39.410  30.133  33.465  1.00  0.00     0.046 A 
ATOM     13  C   UNL A   1      37.586  28.755  32.676  1.00  0.00     0.046 A 
ATOM     14  C   UNL A   1      40.308  29.111  33.157  1.00  0.00     0.004 A 
ATOM     15  C   UNL A   1      38.480  27.721  32.402  1.00  0.00     0.004 A 
ATOM     16  C   UNL A   1      39.840  27.896  32.652  1.00  0.00     0.000 A 
ENDBRANCH  10  11
ENDBRANCH   9  10
ENDBRANCH   7   9
BRANCH   7  17
ATOM     17  N   UNL A   1      35.541  32.916  33.903  1.00  0.00    -0.338 N 
ATOM     18  C   UNL A   1      34.478  33.615  33.440  1.00  0.00     0.240 C 
ATOM     19  H   UNL A   1      35.402  31.946  33.805  1.00  0.00     0.164 HD
ATOM     20  O   UNL A   1      33.530  32.920  33.047  1.00  0.00    -0.273 OA
BRANCH  18  21
ATOM     21  C   UNL A   1      34.492  35.110  33.098  1.00  0.00     0.220 C 
BRANCH  21  22
ATOM     22  N   UNL A   1      34.056  35.559  31.795  1.00  0.00    -0.323 N 
ATOM     23  C   UNL A   1      34.306  34.729  30.646  1.00  0.00     0.190 C 
ATOM     24  C   UNL A   1      32.975  36.423  31.690  1.00  0.00     0.233 C 
ATOM     25  S   UNL A   1      33.497  35.493  29.239  1.00  0.00    -0.130 SA
ATOM     26  C   UNL A   1      32.588  36.678  30.251  1.00  0.00     0.171 C 
ATOM     27  O   UNL A   1      32.451  36.991  32.639  1.00  0.00    -0.274 OA
ENDBRANCH  21  22
ENDBRANCH  18  21
ENDBRANCH   7  17
ENDBRANCH   4   7
ENDBRANCH   2   3
ENDBRANCH   1   2
BRANCH   1  28
ATOM     28  C   UNL A   1      37.258  33.162  28.806  1.00  0.00     0.118 C 
BRANCH  28  29
ATOM     29  N   UNL A   1      36.350  32.048  29.023  1.00  0.00    -0.352 N 
ATOM     30  C   UNL A   1      36.569  30.699  28.885  1.00  0.00     0.251 C 
ATOM     31  H   UNL A   1      35.443  32.299  29.311  1.00  0.00     0.163 HD
ATOM     32  O   UNL A   1      35.616  29.928  28.929  1.00  0.00    -0.269 OA
BRANCH  30  33
ATOM     33  C   UNL A   1      37.937  30.179  28.662  1.00  0.00     0.039 A 
ATOM     34  C   UNL A   1      38.304  29.779  27.376  1.00  0.00     0.014 A 
ATOM     35  C   UNL A   1      38.847  30.062  29.717  1.00  0.00     0.014 A 
ATOM     36  C   UNL A   1      39.600  29.317  27.135  1.00  0.00     0.010 A 
ATOM     37  C   UNL A   1      40.161  29.674  29.461  1.00  0.00     0.010 A 
ATOM     38  C   UNL A   1      40.551  29.289  28.169  1.00  0.00    -0.014 A 
BRANCH  38  39
ATOM     39  C   UNL A   1      41.949  28.849  27.920  1.00  0.00     0.031 A 
ATOM     40  C   UNL A   1      43.069  29.857  27.903  1.00  0.00     0.074 A 
ATOM     41  C   UNL A   1      42.209  27.550  27.668  1.00  0.00     0.049 A 
ATOM     42  N   UNL A   1      44.340  29.675  27.650  1.00  0.00    -0.248 NA
ATOM     43  C   UNL A   1      42.709  31.257  28.184  1.00  0.00     0.031 C 
ATOM     44  C   UNL A   1      41.213  26.476  27.632  1.00  0.00     0.029 A 
ATOM     45  N   UNL A   1      43.393  26.911  27.390  1.00  0.00    -0.354 N 
ATOM     46  C   UNL A   1      44.928  30.931  27.734  1.00  0.00     0.074 A 
ATOM     47  C   UNL A   1      43.866  31.877  28.004  1.00  0.00     0.031 C 
ATOM     48  C   UNL A   1      41.831  25.311  27.379  1.00  0.00     0.029 A 
ATOM     49  C   UNL A   1      43.256  25.557  27.191  1.00  0.00     0.049 A 
ATOM     50  H   UNL A   1      44.257  27.379  27.338  1.00  0.00     0.167 HD
ATOM     51  C   UNL A   1      46.235  31.268  27.621  1.00  0.00     0.031 A 
ATOM     52  C   UNL A   1      44.174  24.619  26.882  1.00  0.00     0.031 A 
ATOM     53  C   UNL A   1      47.291  30.328  27.358  1.00  0.00     0.049 A 
ATOM     54  C   UNL A   1      45.615  25.026  26.722  1.00  0.00     0.074 A 
ATOM     55  C   UNL A   1      48.652  30.567  27.258  1.00  0.00     0.029 A 
ATOM     56  N   UNL A   1      47.109  28.969  27.154  1.00  0.00    -0.354 N 
ATOM     57  N   UNL A   1      46.157  26.214  26.854  1.00  0.00    -0.248 NA
ATOM     58  C   UNL A   1      46.570  23.962  26.381  1.00  0.00     0.031 C 
ATOM     59  C   UNL A   1      49.285  29.362  26.943  1.00  0.00     0.029 A 
ATOM     60  C   UNL A   1      48.329  28.360  26.909  1.00  0.00     0.049 A 
ATOM     61  H   UNL A   1      46.241  28.505  27.179  1.00  0.00     0.167 HD
ATOM     62  C   UNL A   1      47.520  26.031  26.647  1.00  0.00     0.074 A 
ATOM     63  C   UNL A   1      47.721  24.620  26.394  1.00  0.00     0.031 C 
ATOM     64  C   UNL A   1      48.516  26.952  26.668  1.00  0.00     0.031 A 
BRANCH  51  65
ATOM     65  C   UNL A   1      46.596  32.724  27.785  1.00  0.00    -0.014 A 
ATOM     66  C   UNL A   1      46.672  33.579  26.671  1.00  0.00     0.010 A 
ATOM     67  C   UNL A   1      46.821  33.252  29.068  1.00  0.00     0.010 A 
ATOM     68  C   UNL A   1      47.006  34.927  26.834  1.00  0.00     0.020 A 
ATOM     69  C   UNL A   1      47.125  34.606  29.239  1.00  0.00     0.020 A 
ATOM     70  C   UNL A   1      47.233  35.430  28.117  1.00  0.00     0.054 A 
BRANCH  70  71
ATOM     71  S   UNL A   1      47.644  37.188  28.298  1.00  0.00     0.124 S 
ATOM     72  O   UNL A   1      47.184  37.464  29.657  1.00  0.00    -0.237 OA
ATOM     73  O   UNL A   1      49.092  37.199  28.111  1.00  0.00    -0.237 OA
ATOM     74  O   UNL A   1      46.876  37.837  27.239  1.00  0.00    -0.744 OA
ENDBRANCH  70  71
ENDBRANCH  51  65
BRANCH  52  75
ATOM     75  C   UNL A   1      43.766  23.196  26.716  1.00  0.00    -0.014 A 
ATOM     76  C   UNL A   1      43.909  22.552  25.475  1.00  0.00     0.010 A 
ATOM     77  C   UNL A   1      43.219  22.479  27.797  1.00  0.00     0.010 A 
ATOM     78  C   UNL A   1      43.487  21.230  25.306  1.00  0.00     0.020 A 
ATOM     79  C   UNL A   1      42.824  21.147  27.641  1.00  0.00     0.020 A 
ATOM     80  C   UNL A   1      42.945  20.536  26.392  1.00  0.00     0.054 A 
BRANCH  80  81
ATOM     81  S   UNL A   1      42.429  18.812  26.157  1.00  0.00     0.124 S 
ATOM     82  O   UNL A   1      43.423  18.325  25.206  1.00  0.00    -0.237 OA
ATOM     83  O   UNL A   1      42.524  18.268  27.509  1.00  0.00    -0.237 OA
ATOM     84  O   UNL A   1      41.069  18.931  25.636  1.00  0.00    -0.744 OA
ENDBRANCH  80  81
ENDBRANCH  52  75
BRANCH  64  85
ATOM     85  C   UNL A   1      49.924  26.458  26.458  1.00  0.00    -0.014 A 
ATOM     86  C   UNL A   1      50.513  26.440  25.182  1.00  0.00     0.010 A 
ATOM     87  C   UNL A   1      50.688  26.057  27.571  1.00  0.00     0.010 A 
ATOM     88  C   UNL A   1      51.830  26.002  25.018  1.00  0.00     0.020 A 
ATOM     89  C   UNL A   1      52.014  25.647  27.415  1.00  0.00     0.020 A 
ATOM     90  C   UNL A   1      52.573  25.610  26.136  1.00  0.00     0.054 A 
BRANCH  90  91
ATOM     91  S   UNL A   1      54.296  25.093  25.903  1.00  0.00     0.124 S 
ATOM     92  O   UNL A   1      54.865  25.322  27.227  1.00  0.00    -0.237 OA
ATOM     93  O   UNL A   1      54.160  23.693  25.510  1.00  0.00    -0.237 OA
ATOM     94  O   UNL A   1      54.785  25.983  24.852  1.00  0.00    -0.744 OA
ENDBRANCH  90  91
ENDBRANCH  64  85
ENDBRANCH  38  39
ENDBRANCH  30  33
ENDBRANCH  28  29
ENDBRANCH   1  28
TORSDOF 19
ENDMDL
