MODEL 1
REMARK VINA RESULT:     -13.1      0.000      0.000
REMARK SMILES C[C@H](C(=O)NCCCNC(=O)c1ccc(-c2c3nc(c(-c4ccc(S(=O)(=O)[O-])cc4)c4ccc([nH]4)c(-c4ccc(S(=O)(=O)[O-])cc4)c4nc(c(-c5ccc(S(=O)(=O)[O-])cc5)c5ccc2[nH]5)C=C4)C=C3)cc1)c1ccc2c3cc(Cl)ccc3n(C(=O)c3ccc(Cl)cc3)c2c1
REMARK SMILES IDX 7 1 6 2 5 3 3 4 4 5 2 7 1 8 72 9 73 10 94 11 74 12 93 13
REMARK SMILES IDX 75 14 83 15 76 16 82 17 77 18 81 19 78 20 80 21 79 22 84 23
REMARK SMILES IDX 85 24 86 25 87 26 92 27 88 28 91 29 89 30 90 31 8 32 9 33
REMARK SMILES IDX 10 34 11 36 12 37 13 38 71 39 14 40 70 41 15 42 16 43 17 44
REMARK SMILES IDX 64 45 18 46 69 47 63 48 65 49 19 50 68 51 62 52 61 53 20 55
REMARK SMILES IDX 50 56 31 57 49 58 32 59 35 60 48 61 66 62 33 63 34 64 47 66
REMARK SMILES IDX 67 67 36 68 21 69 22 70 30 71 23 72 29 73 24 74 25 75 26 76
REMARK SMILES IDX 27 77 28 78 51 79 52 80 60 81 53 82 59 83 54 84 55 85 56 86
REMARK SMILES IDX 57 87 58 88 37 89 38 90 46 91 39 92 45 93 40 94 41 95 42 96
REMARK SMILES IDX 43 97 44 98
REMARK H PARENT 5 6 9 35 65 54 35 65
REMARK Flexibility Score: inf
ROOT
ATOM      1  C   UNL A   1      32.992  29.749  25.537  1.00  0.00     0.042 C 
ENDROOT
BRANCH   1   2
ATOM      2  C   UNL A   1      31.502  29.509  25.351  1.00  0.00     0.117 C 
BRANCH   2   3
ATOM      3  N   UNL A   1      31.100  28.968  24.065  1.00  0.00    -0.356 N 
ATOM      4  C   UNL A   1      30.543  27.762  23.748  1.00  0.00     0.227 C 
ATOM      5  O   UNL A   1      29.963  27.712  22.655  1.00  0.00    -0.274 OA
ATOM      6  H   UNL A   1      31.255  29.565  23.298  1.00  0.00     0.163 HD
BRANCH   4   7
ATOM      7  C   UNL A   1      30.737  26.464  24.552  1.00  0.00     0.105 C 
ATOM      8  C   UNL A   1      29.600  25.528  24.105  1.00  0.00     0.023 C 
BRANCH   7   9
ATOM      9  C   UNL A   1      32.117  25.809  24.568  1.00  0.00    -0.034 A 
ATOM     10  C   UNL A   1      33.210  26.429  25.185  1.00  0.00     0.005 A 
ATOM     11  C   UNL A   1      32.316  24.553  23.970  1.00  0.00     0.032 A 
ATOM     12  C   UNL A   1      34.419  25.755  25.378  1.00  0.00     0.011 A 
ATOM     13  C   UNL A   1      33.486  23.824  24.280  1.00  0.00     0.057 A 
ATOM     14  C   UNL A   1      34.529  24.408  24.989  1.00  0.00     0.008 A 
ATOM     15  N   UNL A   1      33.785  22.461  24.119  1.00  0.00    -0.276 N 
ATOM     16  C   UNL A   1      35.543  23.427  25.154  1.00  0.00     0.009 A 
ATOM     17  C   UNL A   1      35.093  22.240  24.566  1.00  0.00     0.057 A 
ATOM     18  C   UNL A   1      36.815  23.468  25.764  1.00  0.00     0.031 A 
ATOM     19  C   UNL A   1      35.939  21.116  24.484  1.00  0.00     0.029 A 
ATOM     20  C   UNL A   1      37.629  22.340  25.724  1.00  0.00     0.041 A 
ATOM     21  C   UNL A   1      37.203  21.183  25.084  1.00  0.00     0.023 A 
ATOM     22  Cl  UNL A   1      39.190  22.397  26.445  1.00  0.00    -0.084 Cl
BRANCH  15  23
ATOM     23  C   UNL A   1      32.848  21.517  23.626  1.00  0.00     0.262 C 
ATOM     24  O   UNL A   1      32.015  21.957  22.831  1.00  0.00    -0.268 OA
BRANCH  23  25
ATOM     25  C   UNL A   1      32.691  20.081  24.027  1.00  0.00     0.040 A 
ATOM     26  C   UNL A   1      32.796  19.787  25.403  1.00  0.00     0.015 A 
ATOM     27  C   UNL A   1      32.570  19.014  23.130  1.00  0.00     0.015 A 
ATOM     28  C   UNL A   1      32.741  18.471  25.871  1.00  0.00     0.021 A 
ATOM     29  C   UNL A   1      32.474  17.696  23.604  1.00  0.00     0.021 A 
ATOM     30  C   UNL A   1      32.560  17.430  24.970  1.00  0.00     0.041 A 
ATOM     31  Cl  UNL A   1      32.459  15.811  25.542  1.00  0.00    -0.084 Cl
ENDBRANCH  23  25
ENDBRANCH  15  23
ENDBRANCH   7   9
ENDBRANCH   4   7
ENDBRANCH   2   3
ENDBRANCH   1   2
BRANCH   1  32
ATOM     32  C   UNL A   1      33.563  29.475  26.921  1.00  0.00     0.118 C 
BRANCH  32  33
ATOM     33  N   UNL A   1      33.623  30.636  27.801  1.00  0.00    -0.352 N 
ATOM     34  C   UNL A   1      34.628  31.102  28.621  1.00  0.00     0.251 C 
ATOM     35  H   UNL A   1      32.804  31.182  27.812  1.00  0.00     0.163 HD
ATOM     36  O   UNL A   1      34.426  32.108  29.299  1.00  0.00    -0.269 OA
BRANCH  34  37
ATOM     37  C   UNL A   1      35.919  30.379  28.752  1.00  0.00     0.039 A 
ATOM     38  C   UNL A   1      36.799  30.382  27.664  1.00  0.00     0.014 A 
ATOM     39  C   UNL A   1      36.286  29.720  29.924  1.00  0.00     0.014 A 
ATOM     40  C   UNL A   1      38.089  29.854  27.803  1.00  0.00     0.010 A 
ATOM     41  C   UNL A   1      37.599  29.277  30.094  1.00  0.00     0.010 A 
ATOM     42  C   UNL A   1      38.527  29.369  29.045  1.00  0.00    -0.014 A 
BRANCH  42  43
ATOM     43  C   UNL A   1      39.958  29.035  29.297  1.00  0.00     0.031 A 
ATOM     44  C   UNL A   1      40.924  30.085  29.781  1.00  0.00     0.074 A 
ATOM     45  C   UNL A   1      40.415  27.805  28.974  1.00  0.00     0.049 A 
ATOM     46  N   UNL A   1      42.224  30.004  29.920  1.00  0.00    -0.248 NA
ATOM     47  C   UNL A   1      40.366  31.402  30.127  1.00  0.00     0.031 C 
ATOM     48  C   UNL A   1      39.600  26.708  28.442  1.00  0.00     0.029 A 
ATOM     49  N   UNL A   1      41.683  27.276  29.021  1.00  0.00    -0.354 N 
ATOM     50  C   UNL A   1      42.641  31.261  30.341  1.00  0.00     0.074 A 
ATOM     51  C   UNL A   1      41.462  32.095  30.409  1.00  0.00     0.031 C 
ATOM     52  C   UNL A   1      40.383  25.639  28.224  1.00  0.00     0.029 A 
ATOM     53  C   UNL A   1      41.762  25.984  28.549  1.00  0.00     0.049 A 
ATOM     54  H   UNL A   1      42.462  27.774  29.359  1.00  0.00     0.167 HD
ATOM     55  C   UNL A   1      43.891  31.679  30.651  1.00  0.00     0.031 A 
ATOM     56  C   UNL A   1      42.823  25.173  28.370  1.00  0.00     0.031 A 
ATOM     57  C   UNL A   1      45.061  30.841  30.619  1.00  0.00     0.049 A 
ATOM     58  C   UNL A   1      44.200  25.670  28.716  1.00  0.00     0.074 A 
ATOM     59  C   UNL A   1      46.349  31.154  31.020  1.00  0.00     0.029 A 
ATOM     60  N   UNL A   1      45.092  29.536  30.155  1.00  0.00    -0.354 N 
ATOM     61  N   UNL A   1      44.556  26.833  29.204  1.00  0.00    -0.248 NA
ATOM     62  C   UNL A   1      45.320  24.746  28.481  1.00  0.00     0.031 C 
ATOM     63  C   UNL A   1      47.172  30.057  30.746  1.00  0.00     0.029 A 
ATOM     64  C   UNL A   1      46.385  29.044  30.222  1.00  0.00     0.049 A 
ATOM     65  H   UNL A   1      44.312  29.034  29.829  1.00  0.00     0.167 HD
ATOM     66  C   UNL A   1      45.938  26.774  29.348  1.00  0.00     0.074 A 
ATOM     67  C   UNL A   1      46.351  25.455  28.918  1.00  0.00     0.031 C 
ATOM     68  C   UNL A   1      46.788  27.732  29.790  1.00  0.00     0.031 A 
BRANCH  55  69
ATOM     69  C   UNL A   1      44.080  33.116  31.060  1.00  0.00    -0.014 A 
ATOM     70  C   UNL A   1      44.378  34.107  30.108  1.00  0.00     0.010 A 
ATOM     71  C   UNL A   1      43.848  33.494  32.394  1.00  0.00     0.010 A 
ATOM     72  C   UNL A   1      44.454  35.449  30.488  1.00  0.00     0.020 A 
ATOM     73  C   UNL A   1      43.902  34.838  32.774  1.00  0.00     0.020 A 
ATOM     74  C   UNL A   1      44.212  35.807  31.818  1.00  0.00     0.054 A 
BRANCH  74  75
ATOM     75  S   UNL A   1      44.249  37.565  32.266  1.00  0.00     0.124 S 
ATOM     76  O   UNL A   1      45.663  37.766  32.578  1.00  0.00    -0.237 OA
ATOM     77  O   UNL A   1      43.778  38.217  31.047  1.00  0.00    -0.237 OA
ATOM     78  O   UNL A   1      43.342  37.652  33.407  1.00  0.00    -0.744 OA
ENDBRANCH  74  75
ENDBRANCH  55  69
BRANCH  56  79
ATOM     79  C   UNL A   1      42.640  23.811  27.799  1.00  0.00    -0.014 A 
ATOM     80  C   UNL A   1      42.302  22.727  28.628  1.00  0.00     0.010 A 
ATOM     81  C   UNL A   1      42.834  23.585  26.423  1.00  0.00     0.010 A 
ATOM     82  C   UNL A   1      42.193  21.438  28.099  1.00  0.00     0.020 A 
ATOM     83  C   UNL A   1      42.698  22.303  25.886  1.00  0.00     0.020 A 
ATOM     84  C   UNL A   1      42.398  21.233  26.732  1.00  0.00     0.054 A 
BRANCH  84  85
ATOM     85  S   UNL A   1      42.233  19.556  26.058  1.00  0.00     0.124 S 
ATOM     86  O   UNL A   1      40.819  19.512  25.702  1.00  0.00    -0.237 OA
ATOM     87  O   UNL A   1      43.169  19.572  24.937  1.00  0.00    -0.237 OA
ATOM     88  O   UNL A   1      42.627  18.702  27.177  1.00  0.00    -0.744 OA
ENDBRANCH  84  85
ENDBRANCH  56  79
BRANCH  68  89
ATOM     89  C   UNL A   1      48.252  27.391  29.843  1.00  0.00    -0.014 A 
ATOM     90  C   UNL A   1      49.064  27.523  28.704  1.00  0.00     0.010 A 
ATOM     91  C   UNL A   1      48.834  26.996  31.061  1.00  0.00     0.010 A 
ATOM     92  C   UNL A   1      50.432  27.249  28.776  1.00  0.00     0.020 A 
ATOM     93  C   UNL A   1      50.207  26.745  31.144  1.00  0.00     0.020 A 
ATOM     94  C   UNL A   1      50.995  26.864  29.997  1.00  0.00     0.054 A 
BRANCH  94  95
ATOM     95  S   UNL A   1      52.783  26.573  30.078  1.00  0.00     0.124 S 
ATOM     96  O   UNL A   1      53.105  26.266  28.687  1.00  0.00    -0.237 OA
ATOM     97  O   UNL A   1      53.295  27.848  30.575  1.00  0.00    -0.237 OA
ATOM     98  O   UNL A   1      52.909  25.453  31.010  1.00  0.00    -0.744 OA
ENDBRANCH  94  95
ENDBRANCH  68  89
ENDBRANCH  42  43
ENDBRANCH  34  37
ENDBRANCH  32  33
ENDBRANCH   1  32
TORSDOF 16
ENDMDL
MODEL 2
REMARK VINA RESULT:     -12.5      1.026      7.890
REMARK SMILES C[C@H](C(=O)NCCCNC(=O)c1ccc(-c2c3nc(c(-c4ccc(S(=O)(=O)[O-])cc4)c4ccc([nH]4)c(-c4ccc(S(=O)(=O)[O-])cc4)c4nc(c(-c5ccc(S(=O)(=O)[O-])cc5)c5ccc2[nH]5)C=C4)C=C3)cc1)c1ccc2c3cc(Cl)ccc3n(C(=O)c3ccc(Cl)cc3)c2c1
REMARK SMILES IDX 7 1 6 2 5 3 3 4 4 5 2 7 1 8 72 9 73 10 94 11 74 12 93 13
REMARK SMILES IDX 75 14 83 15 76 16 82 17 77 18 81 19 78 20 80 21 79 22 84 23
REMARK SMILES IDX 85 24 86 25 87 26 92 27 88 28 91 29 89 30 90 31 8 32 9 33
REMARK SMILES IDX 10 34 11 36 12 37 13 38 71 39 14 40 70 41 15 42 16 43 17 44
REMARK SMILES IDX 64 45 18 46 69 47 63 48 65 49 19 50 68 51 62 52 61 53 20 55
REMARK SMILES IDX 50 56 31 57 49 58 32 59 35 60 48 61 66 62 33 63 34 64 47 66
REMARK SMILES IDX 67 67 36 68 21 69 22 70 30 71 23 72 29 73 24 74 25 75 26 76
REMARK SMILES IDX 27 77 28 78 51 79 52 80 60 81 53 82 59 83 54 84 55 85 56 86
REMARK SMILES IDX 57 87 58 88 37 89 38 90 46 91 39 92 45 93 40 94 41 95 42 96
REMARK SMILES IDX 43 97 44 98
REMARK H PARENT 5 6 9 35 65 54 35 65
REMARK Flexibility Score: inf
ROOT
ATOM      1  C   UNL A   1      32.044  28.533  26.354  1.00  0.00     0.042 C 
ENDROOT
BRANCH   1   2
ATOM      2  C   UNL A   1      31.492  27.115  26.333  1.00  0.00     0.117 C 
BRANCH   2   3
ATOM      3  N   UNL A   1      30.238  26.932  25.624  1.00  0.00    -0.356 N 
ATOM      4  C   UNL A   1      29.982  26.352  24.415  1.00  0.00     0.227 C 
ATOM      5  O   UNL A   1      28.809  25.996  24.231  1.00  0.00    -0.274 OA
ATOM      6  H   UNL A   1      29.445  27.283  26.090  1.00  0.00     0.163 HD
BRANCH   4   7
ATOM      7  C   UNL A   1      30.979  26.278  23.245  1.00  0.00     0.105 C 
ATOM      8  C   UNL A   1      31.089  27.715  22.706  1.00  0.00     0.023 C 
BRANCH   7   9
ATOM      9  C   UNL A   1      32.323  25.588  23.468  1.00  0.00    -0.034 A 
ATOM     10  C   UNL A   1      33.437  26.296  23.934  1.00  0.00     0.005 A 
ATOM     11  C   UNL A   1      32.467  24.212  23.219  1.00  0.00     0.032 A 
ATOM     12  C   UNL A   1      34.607  25.642  24.328  1.00  0.00     0.011 A 
ATOM     13  C   UNL A   1      33.594  23.536  23.739  1.00  0.00     0.057 A 
ATOM     14  C   UNL A   1      34.654  24.237  24.302  1.00  0.00     0.008 A 
ATOM     15  N   UNL A   1      33.826  22.166  23.943  1.00  0.00    -0.276 N 
ATOM     16  C   UNL A   1      35.614  23.287  24.743  1.00  0.00     0.009 A 
ATOM     17  C   UNL A   1      35.113  22.010  24.468  1.00  0.00     0.057 A 
ATOM     18  C   UNL A   1      36.878  23.427  25.356  1.00  0.00     0.031 A 
ATOM     19  C   UNL A   1      35.902  20.866  24.702  1.00  0.00     0.029 A 
ATOM     20  C   UNL A   1      37.633  22.291  25.632  1.00  0.00     0.041 A 
ATOM     21  C   UNL A   1      37.159  21.028  25.300  1.00  0.00     0.023 A 
ATOM     22  Cl  UNL A   1      39.184  22.462  26.356  1.00  0.00    -0.084 Cl
BRANCH  15  23
ATOM     23  C   UNL A   1      32.849  21.170  23.685  1.00  0.00     0.262 C 
ATOM     24  O   UNL A   1      31.852  21.548  23.067  1.00  0.00    -0.268 OA
BRANCH  23  25
ATOM     25  C   UNL A   1      32.841  19.746  24.152  1.00  0.00     0.040 A 
ATOM     26  C   UNL A   1      32.810  18.747  23.157  1.00  0.00     0.015 A 
ATOM     27  C   UNL A   1      32.743  19.348  25.490  1.00  0.00     0.015 A 
ATOM     28  C   UNL A   1      32.724  17.392  23.489  1.00  0.00     0.021 A 
ATOM     29  C   UNL A   1      32.697  17.986  25.825  1.00  0.00     0.021 A 
ATOM     30  C   UNL A   1      32.688  17.015  24.825  1.00  0.00     0.041 A 
ATOM     31  Cl  UNL A   1      32.615  15.348  25.242  1.00  0.00    -0.084 Cl
ENDBRANCH  23  25
ENDBRANCH  15  23
ENDBRANCH   7   9
ENDBRANCH   4   7
ENDBRANCH   2   3
ENDBRANCH   1   2
BRANCH   1  32
ATOM     32  C   UNL A   1      33.322  28.758  27.149  1.00  0.00     0.118 C 
BRANCH  32  33
ATOM     33  N   UNL A   1      33.456  30.087  27.732  1.00  0.00    -0.352 N 
ATOM     34  C   UNL A   1      34.543  30.731  28.283  1.00  0.00     0.251 C 
ATOM     35  H   UNL A   1      32.626  30.617  27.734  1.00  0.00     0.163 HD
ATOM     36  O   UNL A   1      34.396  31.863  28.742  1.00  0.00    -0.269 OA
BRANCH  34  37
ATOM     37  C   UNL A   1      35.865  30.063  28.393  1.00  0.00     0.039 A 
ATOM     38  C   UNL A   1      36.723  30.095  27.289  1.00  0.00     0.014 A 
ATOM     39  C   UNL A   1      36.282  29.428  29.563  1.00  0.00     0.014 A 
ATOM     40  C   UNL A   1      38.036  29.622  27.406  1.00  0.00     0.010 A 
ATOM     41  C   UNL A   1      37.615  29.042  29.709  1.00  0.00     0.010 A 
ATOM     42  C   UNL A   1      38.518  29.165  28.643  1.00  0.00    -0.014 A 
BRANCH  42  43
ATOM     43  C   UNL A   1      39.966  28.892  28.868  1.00  0.00     0.031 A 
ATOM     44  C   UNL A   1      40.570  27.562  28.498  1.00  0.00     0.074 A 
ATOM     45  C   UNL A   1      40.716  29.808  29.520  1.00  0.00     0.049 A 
ATOM     46  N   UNL A   1      41.773  27.108  28.747  1.00  0.00    -0.248 NA
ATOM     47  C   UNL A   1      39.707  26.609  27.781  1.00  0.00     0.031 C 
ATOM     48  C   UNL A   1      40.246  31.116  29.986  1.00  0.00     0.029 A 
ATOM     49  N   UNL A   1      42.029  29.770  29.927  1.00  0.00    -0.354 N 
ATOM     50  C   UNL A   1      41.802  25.812  28.246  1.00  0.00     0.074 A 
ATOM     51  C   UNL A   1      40.490  25.541  27.701  1.00  0.00     0.031 C 
ATOM     52  C   UNL A   1      41.253  31.756  30.601  1.00  0.00     0.029 A 
ATOM     53  C   UNL A   1      42.426  30.890  30.622  1.00  0.00     0.049 A 
ATOM     54  H   UNL A   1      42.630  29.013  29.739  1.00  0.00     0.167 HD
ATOM     55  C   UNL A   1      42.831  24.932  28.231  1.00  0.00     0.031 A 
ATOM     56  C   UNL A   1      43.591  31.183  31.234  1.00  0.00     0.031 A 
ATOM     57  C   UNL A   1      44.149  25.212  28.739  1.00  0.00     0.049 A 
ATOM     58  C   UNL A   1      44.712  30.181  31.208  1.00  0.00     0.074 A 
ATOM     59  C   UNL A   1      45.280  24.416  28.669  1.00  0.00     0.029 A 
ATOM     60  N   UNL A   1      44.511  26.364  29.417  1.00  0.00    -0.354 N 
ATOM     61  N   UNL A   1      44.745  28.999  30.641  1.00  0.00    -0.248 NA
ATOM     62  C   UNL A   1      45.951  30.550  31.909  1.00  0.00     0.031 C 
ATOM     63  C   UNL A   1      46.314  25.063  29.354  1.00  0.00     0.029 A 
ATOM     64  C   UNL A   1      45.838  26.283  29.806  1.00  0.00     0.049 A 
ATOM     65  H   UNL A   1      43.916  27.127  29.594  1.00  0.00     0.167 HD
ATOM     66  C   UNL A   1      46.012  28.491  30.906  1.00  0.00     0.074 A 
ATOM     67  C   UNL A   1      46.723  29.502  31.661  1.00  0.00     0.031 C 
ATOM     68  C   UNL A   1      46.536  27.291  30.559  1.00  0.00     0.031 A 
BRANCH  55  69
ATOM     69  C   UNL A   1      42.591  23.566  27.644  1.00  0.00    -0.014 A 
ATOM     70  C   UNL A   1      42.860  23.303  26.290  1.00  0.00     0.010 A 
ATOM     71  C   UNL A   1      42.198  22.509  28.484  1.00  0.00     0.010 A 
ATOM     72  C   UNL A   1      42.725  22.008  25.783  1.00  0.00     0.020 A 
ATOM     73  C   UNL A   1      42.083  21.208  27.987  1.00  0.00     0.020 A 
ATOM     74  C   UNL A   1      42.340  20.967  26.636  1.00  0.00     0.054 A 
BRANCH  74  75
ATOM     75  S   UNL A   1      42.242  19.285  25.964  1.00  0.00     0.124 S 
ATOM     76  O   UNL A   1      43.108  19.378  24.790  1.00  0.00    -0.237 OA
ATOM     77  O   UNL A   1      42.758  18.471  27.061  1.00  0.00    -0.237 OA
ATOM     78  O   UNL A   1      40.821  19.109  25.675  1.00  0.00    -0.744 OA
ENDBRANCH  74  75
ENDBRANCH  55  69
BRANCH  56  79
ATOM     79  C   UNL A   1      43.754  32.471  31.962  1.00  0.00    -0.014 A 
ATOM     80  C   UNL A   1      44.236  33.613  31.298  1.00  0.00     0.010 A 
ATOM     81  C   UNL A   1      43.456  32.554  33.336  1.00  0.00     0.010 A 
ATOM     82  C   UNL A   1      44.449  34.803  32.000  1.00  0.00     0.020 A 
ATOM     83  C   UNL A   1      43.640  33.750  34.033  1.00  0.00     0.020 A 
ATOM     84  C   UNL A   1      44.154  34.862  33.364  1.00  0.00     0.054 A 
BRANCH  84  85
ATOM     85  S   UNL A   1      44.417  36.421  34.255  1.00  0.00     0.124 S 
ATOM     86  O   UNL A   1      43.639  36.208  35.470  1.00  0.00    -0.237 OA
ATOM     87  O   UNL A   1      45.867  36.448  34.427  1.00  0.00    -0.237 OA
ATOM     88  O   UNL A   1      43.888  37.428  33.338  1.00  0.00    -0.744 OA
ENDBRANCH  84  85
ENDBRANCH  56  79
BRANCH  68  89
ATOM     89  C   UNL A   1      47.950  27.002  30.982  1.00  0.00    -0.014 A 
ATOM     90  C   UNL A   1      49.036  27.396  30.181  1.00  0.00     0.010 A 
ATOM     91  C   UNL A   1      48.199  26.390  32.224  1.00  0.00     0.010 A 
ATOM     92  C   UNL A   1      50.347  27.166  30.605  1.00  0.00     0.020 A 
ATOM     93  C   UNL A   1      49.509  26.181  32.663  1.00  0.00     0.020 A 
ATOM     94  C   UNL A   1      50.575  26.562  31.845  1.00  0.00     0.054 A 
BRANCH  94  95
ATOM     95  S   UNL A   1      52.286  26.329  32.399  1.00  0.00     0.124 S 
ATOM     96  O   UNL A   1      52.507  27.520  33.214  1.00  0.00    -0.237 OA
ATOM     97  O   UNL A   1      52.218  25.068  33.134  1.00  0.00    -0.237 OA
ATOM     98  O   UNL A   1      53.049  26.276  31.153  1.00  0.00    -0.744 OA
ENDBRANCH  94  95
ENDBRANCH  68  89
ENDBRANCH  42  43
ENDBRANCH  34  37
ENDBRANCH  32  33
ENDBRANCH   1  32
TORSDOF 16
ENDMDL
MODEL 3
REMARK VINA RESULT:     -12.2      5.266     10.198
REMARK SMILES C[C@H](C(=O)NCCCNC(=O)c1ccc(-c2c3nc(c(-c4ccc(S(=O)(=O)[O-])cc4)c4ccc([nH]4)c(-c4ccc(S(=O)(=O)[O-])cc4)c4nc(c(-c5ccc(S(=O)(=O)[O-])cc5)c5ccc2[nH]5)C=C4)C=C3)cc1)c1ccc2c3cc(Cl)ccc3n(C(=O)c3ccc(Cl)cc3)c2c1
REMARK SMILES IDX 7 1 6 2 5 3 3 4 4 5 2 7 1 8 72 9 73 10 94 11 74 12 93 13
REMARK SMILES IDX 75 14 83 15 76 16 82 17 77 18 81 19 78 20 80 21 79 22 84 23
REMARK SMILES IDX 85 24 86 25 87 26 92 27 88 28 91 29 89 30 90 31 8 32 9 33
REMARK SMILES IDX 10 34 11 36 12 37 13 38 71 39 14 40 70 41 15 42 16 43 17 44
REMARK SMILES IDX 64 45 18 46 69 47 63 48 65 49 19 50 68 51 62 52 61 53 20 55
REMARK SMILES IDX 50 56 31 57 49 58 32 59 35 60 48 61 66 62 33 63 34 64 47 66
REMARK SMILES IDX 67 67 36 68 21 69 22 70 30 71 23 72 29 73 24 74 25 75 26 76
REMARK SMILES IDX 27 77 28 78 51 79 52 80 60 81 53 82 59 83 54 84 55 85 56 86
REMARK SMILES IDX 57 87 58 88 37 89 38 90 46 91 39 92 45 93 40 94 41 95 42 96
REMARK SMILES IDX 43 97 44 98
REMARK H PARENT 5 6 9 35 65 54 35 65
REMARK Flexibility Score: inf
ROOT
ATOM      1  C   UNL A   1      38.210  22.511  26.053  1.00  0.00     0.042 C 
ENDROOT
BRANCH   1   2
ATOM      2  C   UNL A   1      37.241  22.380  24.888  1.00  0.00     0.117 C 
BRANCH   2   3
ATOM      3  N   UNL A   1      36.049  21.589  25.138  1.00  0.00    -0.356 N 
ATOM      4  C   UNL A   1      34.831  21.605  24.521  1.00  0.00     0.227 C 
ATOM      5  O   UNL A   1      34.140  20.588  24.675  1.00  0.00    -0.274 OA
ATOM      6  H   UNL A   1      36.132  20.936  25.870  1.00  0.00     0.163 HD
BRANCH   4   7
ATOM      7  C   UNL A   1      34.214  22.830  23.823  1.00  0.00     0.105 C 
ATOM      8  C   UNL A   1      32.966  22.304  23.091  1.00  0.00     0.023 C 
BRANCH   7   9
ATOM      9  C   UNL A   1      33.972  24.097  24.640  1.00  0.00    -0.034 A 
ATOM     10  C   UNL A   1      34.963  24.625  25.476  1.00  0.00     0.005 A 
ATOM     11  C   UNL A   1      32.742  24.772  24.560  1.00  0.00     0.032 A 
ATOM     12  C   UNL A   1      34.825  25.882  26.070  1.00  0.00     0.011 A 
ATOM     13  C   UNL A   1      32.653  26.096  25.047  1.00  0.00     0.057 A 
ATOM     14  C   UNL A   1      33.687  26.659  25.786  1.00  0.00     0.008 A 
ATOM     15  N   UNL A   1      31.702  27.100  24.802  1.00  0.00    -0.276 N 
ATOM     16  C   UNL A   1      33.309  27.989  26.113  1.00  0.00     0.009 A 
ATOM     17  C   UNL A   1      32.056  28.233  25.543  1.00  0.00     0.057 A 
ATOM     18  C   UNL A   1      33.949  29.002  26.859  1.00  0.00     0.031 A 
ATOM     19  C   UNL A   1      31.380  29.444  25.792  1.00  0.00     0.029 A 
ATOM     20  C   UNL A   1      33.299  30.216  27.061  1.00  0.00     0.041 A 
ATOM     21  C   UNL A   1      32.028  30.432  26.545  1.00  0.00     0.023 A 
ATOM     22  Cl  UNL A   1      34.068  31.443  27.990  1.00  0.00    -0.084 Cl
BRANCH  15  23
ATOM     23  C   UNL A   1      30.619  26.935  23.901  1.00  0.00     0.262 C 
ATOM     24  O   UNL A   1      30.303  25.770  23.653  1.00  0.00    -0.268 OA
BRANCH  23  25
ATOM     25  C   UNL A   1      29.880  27.999  23.146  1.00  0.00     0.040 A 
ATOM     26  C   UNL A   1      30.654  28.883  22.366  1.00  0.00     0.015 A 
ATOM     27  C   UNL A   1      28.507  28.245  23.258  1.00  0.00     0.015 A 
ATOM     28  C   UNL A   1      30.068  29.955  21.686  1.00  0.00     0.021 A 
ATOM     29  C   UNL A   1      27.914  29.297  22.543  1.00  0.00     0.021 A 
ATOM     30  C   UNL A   1      28.696  30.147  21.762  1.00  0.00     0.041 A 
ATOM     31  Cl  UNL A   1      27.964  31.444  20.902  1.00  0.00    -0.084 Cl
ENDBRANCH  23  25
ENDBRANCH  15  23
ENDBRANCH   7   9
ENDBRANCH   4   7
ENDBRANCH   2   3
ENDBRANCH   1   2
BRANCH   1  32
ATOM     32  C   UNL A   1      38.543  23.924  26.511  1.00  0.00     0.118 C 
BRANCH  32  33
ATOM     33  N   UNL A   1      39.574  24.596  25.730  1.00  0.00    -0.352 N 
ATOM     34  C   UNL A   1      40.483  25.573  26.075  1.00  0.00     0.251 C 
ATOM     35  H   UNL A   1      39.630  24.301  24.792  1.00  0.00     0.163 HD
ATOM     36  O   UNL A   1      41.248  26.006  25.216  1.00  0.00    -0.269 OA
BRANCH  34  37
ATOM     37  C   UNL A   1      40.512  26.155  27.441  1.00  0.00     0.039 A 
ATOM     38  C   UNL A   1      41.566  27.010  27.781  1.00  0.00     0.014 A 
ATOM     39  C   UNL A   1      39.516  25.894  28.381  1.00  0.00     0.014 A 
ATOM     40  C   UNL A   1      41.542  27.706  28.996  1.00  0.00     0.010 A 
ATOM     41  C   UNL A   1      39.443  26.654  29.550  1.00  0.00     0.010 A 
ATOM     42  C   UNL A   1      40.439  27.594  29.856  1.00  0.00    -0.014 A 
BRANCH  42  43
ATOM     43  C   UNL A   1      40.261  28.501  31.026  1.00  0.00     0.031 A 
ATOM     44  C   UNL A   1      39.249  29.616  30.994  1.00  0.00     0.074 A 
ATOM     45  C   UNL A   1      41.101  28.390  32.079  1.00  0.00     0.049 A 
ATOM     46  N   UNL A   1      39.057  30.576  31.864  1.00  0.00    -0.248 NA
ATOM     47  C   UNL A   1      38.355  29.679  29.826  1.00  0.00     0.031 C 
ATOM     48  C   UNL A   1      42.165  27.391  32.218  1.00  0.00     0.029 A 
ATOM     49  N   UNL A   1      41.209  29.143  33.225  1.00  0.00    -0.354 N 
ATOM     50  C   UNL A   1      38.046  31.371  31.337  1.00  0.00     0.074 A 
ATOM     51  C   UNL A   1      37.681  30.797  30.060  1.00  0.00     0.031 C 
ATOM     52  C   UNL A   1      42.807  27.585  33.381  1.00  0.00     0.029 A 
ATOM     53  C   UNL A   1      42.240  28.749  34.050  1.00  0.00     0.049 A 
ATOM     54  H   UNL A   1      40.607  29.892  33.436  1.00  0.00     0.167 HD
ATOM     55  C   UNL A   1      37.467  32.472  31.872  1.00  0.00     0.031 A 
ATOM     56  C   UNL A   1      42.700  29.278  35.201  1.00  0.00     0.031 A 
ATOM     57  C   UNL A   1      37.803  33.024  33.158  1.00  0.00     0.049 A 
ATOM     58  C   UNL A   1      42.042  30.507  35.766  1.00  0.00     0.074 A 
ATOM     59  C   UNL A   1      37.194  34.074  33.824  1.00  0.00     0.029 A 
ATOM     60  N   UNL A   1      38.837  32.584  33.967  1.00  0.00    -0.354 N 
ATOM     61  N   UNL A   1      41.022  31.183  35.295  1.00  0.00    -0.248 NA
ATOM     62  C   UNL A   1      42.600  31.047  37.014  1.00  0.00     0.031 C 
ATOM     63  C   UNL A   1      37.895  34.306  35.012  1.00  0.00     0.029 A 
ATOM     64  C   UNL A   1      38.909  33.367  35.107  1.00  0.00     0.049 A 
ATOM     65  H   UNL A   1      39.431  31.826  33.763  1.00  0.00     0.167 HD
ATOM     66  C   UNL A   1      40.809  32.219  36.198  1.00  0.00     0.074 A 
ATOM     67  C   UNL A   1      41.788  32.067  37.253  1.00  0.00     0.031 C 
ATOM     68  C   UNL A   1      39.888  33.211  36.150  1.00  0.00     0.031 A 
BRANCH  55  69
ATOM     69  C   UNL A   1      36.398  33.173  31.076  1.00  0.00    -0.014 A 
ATOM     70  C   UNL A   1      35.046  33.092  31.451  1.00  0.00     0.010 A 
ATOM     71  C   UNL A   1      36.765  34.009  30.005  1.00  0.00     0.010 A 
ATOM     72  C   UNL A   1      34.078  33.826  30.761  1.00  0.00     0.020 A 
ATOM     73  C   UNL A   1      35.803  34.760  29.326  1.00  0.00     0.020 A 
ATOM     74  C   UNL A   1      34.462  34.658  29.704  1.00  0.00     0.054 A 
BRANCH  74  75
ATOM     75  S   UNL A   1      33.192  35.651  28.873  1.00  0.00     0.124 S 
ATOM     76  O   UNL A   1      32.558  36.333  30.000  1.00  0.00    -0.237 OA
ATOM     77  O   UNL A   1      33.979  36.503  27.986  1.00  0.00    -0.237 OA
ATOM     78  O   UNL A   1      32.359  34.657  28.200  1.00  0.00    -0.744 OA
ENDBRANCH  74  75
ENDBRANCH  55  69
BRANCH  56  79
ATOM     79  C   UNL A   1      43.873  28.674  35.889  1.00  0.00    -0.014 A 
ATOM     80  C   UNL A   1      43.696  27.676  36.865  1.00  0.00     0.010 A 
ATOM     81  C   UNL A   1      45.176  29.117  35.594  1.00  0.00     0.010 A 
ATOM     82  C   UNL A   1      44.795  27.157  37.554  1.00  0.00     0.020 A 
ATOM     83  C   UNL A   1      46.280  28.580  36.261  1.00  0.00     0.020 A 
ATOM     84  C   UNL A   1      46.080  27.616  37.251  1.00  0.00     0.054 A 
BRANCH  84  85
ATOM     85  S   UNL A   1      47.498  26.917  38.142  1.00  0.00     0.124 S 
ATOM     86  O   UNL A   1      47.301  25.485  37.945  1.00  0.00    -0.237 OA
ATOM     87  O   UNL A   1      48.635  27.504  37.439  1.00  0.00    -0.237 OA
ATOM     88  O   UNL A   1      47.307  27.395  39.510  1.00  0.00    -0.744 OA
ENDBRANCH  84  85
ENDBRANCH  56  79
BRANCH  68  89
ATOM     89  C   UNL A   1      39.883  34.209  37.276  1.00  0.00    -0.014 A 
ATOM     90  C   UNL A   1      40.660  35.377  37.205  1.00  0.00     0.010 A 
ATOM     91  C   UNL A   1      39.042  34.008  38.386  1.00  0.00     0.010 A 
ATOM     92  C   UNL A   1      40.612  36.321  38.234  1.00  0.00     0.020 A 
ATOM     93  C   UNL A   1      38.973  34.961  39.406  1.00  0.00     0.020 A 
ATOM     94  C   UNL A   1      39.767  36.108  39.327  1.00  0.00     0.054 A 
BRANCH  94  95
ATOM     95  S   UNL A   1      39.678  37.376  40.621  1.00  0.00     0.124 S 
ATOM     96  O   UNL A   1      38.917  36.694  41.664  1.00  0.00    -0.237 OA
ATOM     97  O   UNL A   1      41.085  37.623  40.927  1.00  0.00    -0.237 OA
ATOM     98  O   UNL A   1      38.985  38.486  39.969  1.00  0.00    -0.744 OA
ENDBRANCH  94  95
ENDBRANCH  68  89
ENDBRANCH  42  43
ENDBRANCH  34  37
ENDBRANCH  32  33
ENDBRANCH   1  32
TORSDOF 16
ENDMDL
