MODEL 1
REMARK VINA RESULT:     -12.7      0.000      0.000
REMARK SMILES O=C(NCCCNC(=O)c1ccc(-c2c3nc(c(-c4ccc(S(=O)(=O)[O-])cc4)c4ccc([nH]4)c(-c4ccc(S(=O)(=O)[O-])cc4)c4nc(c(-c5ccc(S(=O)(=O)[O-])cc5)c5ccc2[nH]5)C=C4)C=C3)cc1)C1=Cc2cc(S(F)(F)(F)(F)F)cc(Br)c2O[C@@H]1C(F)(F)F
REMARK SMILES IDX 6 1 5 2 4 3 3 4 1 5 2 6 70 8 71 9 86 10 72 11 85 12 73 13
REMARK SMILES IDX 84 14 74 15 82 16 81 17 83 18 87 19 88 20 89 21 90 22 75 23
REMARK SMILES IDX 76 24 77 25 78 26 79 27 80 28 7 29 8 30 9 32 10 33 11 34
REMARK SMILES IDX 69 35 12 36 68 37 13 38 14 39 15 40 62 41 16 42 67 43 61 44
REMARK SMILES IDX 63 45 17 46 66 47 60 48 59 49 18 51 48 52 29 53 47 54 30 55
REMARK SMILES IDX 33 56 46 57 64 58 31 59 32 60 45 62 65 63 34 64 19 65 20 66
REMARK SMILES IDX 28 67 21 68 27 69 22 70 23 71 24 72 25 73 26 74 49 75 50 76
REMARK SMILES IDX 58 77 51 78 57 79 52 80 53 81 54 82 55 83 56 84 35 85 36 86
REMARK SMILES IDX 44 87 37 88 43 89 38 90 39 91 40 92 41 93 42 94
REMARK H PARENT 3 7 7 31 63 50 33 61
REMARK Flexibility Score: inf
ROOT
ATOM      1  C   UNL A   1      34.306  28.254  26.576  1.00  0.00     0.118 C 
ENDROOT
BRANCH   1   2
ATOM      2  C   UNL A   1      33.698  27.752  25.276  1.00  0.00     0.042 C 
BRANCH   2   3
ATOM      3  C   UNL A   1      33.292  26.296  25.437  1.00  0.00     0.118 C 
BRANCH   3   4
ATOM      4  N   UNL A   1      33.732  25.532  24.261  1.00  0.00    -0.352 N 
ATOM      5  O   UNL A   1      33.362  23.680  22.820  1.00  0.00    -0.270 OA
ATOM      6  C   UNL A   1      32.982  24.341  23.836  1.00  0.00     0.251 C 
ATOM      7  H   UNL A   1      34.529  25.817  23.759  1.00  0.00     0.163 HD
BRANCH   6   8
ATOM      8  C   UNL A   1      31.752  23.901  24.612  1.00  0.00     0.067 C 
ATOM      9  C   UNL A   1      31.716  22.669  25.191  1.00  0.00     0.025 C 
ATOM     10  C   UNL A   1      30.561  24.836  24.742  1.00  0.00     0.314 C 
ATOM     11  C   UNL A   1      32.906  21.734  25.060  1.00  0.00     0.020 A 
ATOM     12  O   UNL A   1      34.430  23.499  25.516  1.00  0.00    -0.474 OA
ATOM     13  C   UNL A   1      32.615  20.449  24.632  1.00  0.00     0.036 A 
ATOM     14  C   UNL A   1      34.160  22.134  25.233  1.00  0.00     0.142 A 
ATOM     15  C   UNL A   1      33.716  19.563  24.689  1.00  0.00     0.109 A 
ATOM     16  C   UNL A   1      35.200  21.240  25.140  1.00  0.00     0.062 A 
ATOM     17  C   UNL A   1      34.978  19.940  24.778  1.00  0.00     0.044 A 
ATOM     18  Br  UNL A   1      37.026  21.837  25.531  1.00  0.00    -0.047 Br
BRANCH  10  19
ATOM     19  C   UNL A   1      30.304  25.127  26.213  1.00  0.00     0.429 C 
ATOM     20  F   UNL A   1      30.146  26.436  26.383  1.00  0.00    -0.167 F 
ATOM     21  F   UNL A   1      29.202  24.493  26.603  1.00  0.00    -0.167 F 
ATOM     22  F   UNL A   1      31.337  24.706  26.935  1.00  0.00    -0.167 F 
ENDBRANCH  10  19
BRANCH  15  23
ATOM     23  S   UNL A   1      33.370  17.787  24.634  1.00  0.00     0.310 S 
ATOM     24  F   UNL A   1      31.900  18.040  24.096  1.00  0.00    -0.094 F 
ATOM     25  F   UNL A   1      32.778  17.869  26.092  1.00  0.00    -0.094 F 
ATOM     26  F   UNL A   1      33.067  16.263  24.568  1.00  0.00    -0.094 F 
ATOM     27  F   UNL A   1      33.837  17.751  23.126  1.00  0.00    -0.094 F 
ATOM     28  F   UNL A   1      33.579  19.353  24.647  1.00  0.00    -0.094 F 
ENDBRANCH  15  23
ENDBRANCH   6   8
ENDBRANCH   3   4
ENDBRANCH   2   3
ENDBRANCH   1   2
BRANCH   1  29
ATOM     29  N   UNL A   1      33.713  29.552  26.926  1.00  0.00    -0.352 N 
ATOM     30  C   UNL A   1      34.488  30.529  27.706  1.00  0.00     0.251 C 
ATOM     31  H   UNL A   1      32.797  29.768  26.639  1.00  0.00     0.163 HD
ATOM     32  O   UNL A   1      33.974  31.651  28.007  1.00  0.00    -0.269 OA
BRANCH  30  33
ATOM     33  C   UNL A   1      35.902  30.196  28.149  1.00  0.00     0.039 A 
ATOM     34  C   UNL A   1      36.937  30.390  27.250  1.00  0.00     0.014 A 
ATOM     35  C   UNL A   1      36.118  29.645  29.339  1.00  0.00     0.014 A 
ATOM     36  C   UNL A   1      38.126  29.701  27.586  1.00  0.00     0.010 A 
ATOM     37  C   UNL A   1      37.345  29.111  29.651  1.00  0.00     0.010 A 
ATOM     38  C   UNL A   1      38.397  29.215  28.784  1.00  0.00    -0.014 A 
BRANCH  38  39
ATOM     39  C   UNL A   1      39.804  28.793  29.178  1.00  0.00     0.031 A 
ATOM     40  C   UNL A   1      40.295  27.536  28.825  1.00  0.00     0.074 A 
ATOM     41  C   UNL A   1      40.549  29.760  29.833  1.00  0.00     0.049 A 
ATOM     42  N   UNL A   1      41.527  27.062  29.012  1.00  0.00    -0.248 NA
ATOM     43  C   UNL A   1      39.495  26.496  28.160  1.00  0.00     0.031 C 
ATOM     44  C   UNL A   1      40.064  31.035  30.185  1.00  0.00     0.029 A 
ATOM     45  N   UNL A   1      41.857  29.675  30.254  1.00  0.00    -0.354 N 
ATOM     46  C   UNL A   1      41.624  25.823  28.523  1.00  0.00     0.074 A 
ATOM     47  C   UNL A   1      40.316  25.440  27.974  1.00  0.00     0.031 C 
ATOM     48  C   UNL A   1      41.060  31.705  30.820  1.00  0.00     0.029 A 
ATOM     49  C   UNL A   1      42.186  30.861  30.876  1.00  0.00     0.049 A 
ATOM     50  H   UNL A   1      42.454  28.901  30.134  1.00  0.00     0.167 HD
ATOM     51  C   UNL A   1      42.751  25.000  28.513  1.00  0.00     0.031 A 
ATOM     52  C   UNL A   1      43.393  31.204  31.463  1.00  0.00     0.031 A 
ATOM     53  C   UNL A   1      43.971  25.361  29.063  1.00  0.00     0.049 A 
ATOM     54  C   UNL A   1      44.504  30.358  31.505  1.00  0.00     0.074 A 
ATOM     55  C   UNL A   1      45.119  24.546  29.055  1.00  0.00     0.029 A 
ATOM     56  N   UNL A   1      44.292  26.535  29.705  1.00  0.00    -0.354 N 
ATOM     57  N   UNL A   1      44.611  29.135  30.982  1.00  0.00    -0.248 NA
ATOM     58  C   UNL A   1      45.776  30.699  32.154  1.00  0.00     0.031 C 
ATOM     59  C   UNL A   1      46.117  25.216  29.690  1.00  0.00     0.029 A 
ATOM     60  C   UNL A   1      45.607  26.460  30.108  1.00  0.00     0.049 A 
ATOM     61  H   UNL A   1      43.687  27.298  29.851  1.00  0.00     0.167 HD
ATOM     62  C   UNL A   1      45.833  28.646  31.206  1.00  0.00     0.074 A 
ATOM     63  C   UNL A   1      46.597  29.642  31.970  1.00  0.00     0.031 C 
ATOM     64  C   UNL A   1      46.340  27.410  30.802  1.00  0.00     0.031 A 
BRANCH  51  65
ATOM     65  C   UNL A   1      42.634  23.632  27.862  1.00  0.00    -0.014 A 
ATOM     66  C   UNL A   1      42.934  23.457  26.520  1.00  0.00     0.010 A 
ATOM     67  C   UNL A   1      42.286  22.605  28.628  1.00  0.00     0.010 A 
ATOM     68  C   UNL A   1      42.554  22.194  26.007  1.00  0.00     0.020 A 
ATOM     69  C   UNL A   1      42.062  21.365  28.079  1.00  0.00     0.020 A 
ATOM     70  C   UNL A   1      42.282  21.136  26.749  1.00  0.00     0.054 A 
BRANCH  70  71
ATOM     71  S   UNL A   1      42.202  19.471  26.043  1.00  0.00     0.124 S 
ATOM     72  O   UNL A   1      42.691  18.455  27.078  1.00  0.00    -0.237 OA
ATOM     73  O   UNL A   1      40.756  19.151  25.656  1.00  0.00    -0.237 OA
ATOM     74  O   UNL A   1      43.195  19.393  24.654  1.00  0.00    -0.744 OA
ENDBRANCH  70  71
ENDBRANCH  51  65
BRANCH  52  75
ATOM     75  C   UNL A   1      43.514  32.579  32.100  1.00  0.00    -0.014 A 
ATOM     76  C   UNL A   1      43.152  32.777  33.423  1.00  0.00     0.010 A 
ATOM     77  C   UNL A   1      43.925  33.586  31.340  1.00  0.00     0.010 A 
ATOM     78  C   UNL A   1      42.983  34.138  33.773  1.00  0.00     0.020 A 
ATOM     79  C   UNL A   1      43.859  34.880  31.798  1.00  0.00     0.020 A 
ATOM     80  C   UNL A   1      43.455  35.155  33.074  1.00  0.00     0.054 A 
BRANCH  80  81
ATOM     81  S   UNL A   1      43.559  36.822  33.770  1.00  0.00     0.124 S 
ATOM     82  O   UNL A   1      44.833  36.947  34.609  1.00  0.00    -0.237 OA
ATOM     83  O   UNL A   1      43.595  37.848  32.635  1.00  0.00    -0.237 OA
ATOM     84  O   UNL A   1      42.194  37.115  34.759  1.00  0.00    -0.744 OA
ENDBRANCH  80  81
ENDBRANCH  52  75
BRANCH  64  85
ATOM     85  C   UNL A   1      47.786  27.087  31.143  1.00  0.00    -0.014 A 
ATOM     86  C   UNL A   1      48.045  26.434  32.336  1.00  0.00     0.010 A 
ATOM     87  C   UNL A   1      48.772  27.463  30.336  1.00  0.00     0.010 A 
ATOM     88  C   UNL A   1      49.403  26.478  32.732  1.00  0.00     0.020 A 
ATOM     89  C   UNL A   1      50.082  27.353  30.734  1.00  0.00     0.020 A 
ATOM     90  C   UNL A   1      50.408  26.771  31.927  1.00  0.00     0.054 A 
BRANCH  90  91
ATOM     91  S   UNL A   1      52.125  26.420  32.380  1.00  0.00     0.124 S 
ATOM     92  O   UNL A   1      52.158  25.663  33.710  1.00  0.00    -0.237 OA
ATOM     93  O   UNL A   1      52.775  25.566  31.290  1.00  0.00    -0.237 OA
ATOM     94  O   UNL A   1      52.984  27.890  32.540  1.00  0.00    -0.744 OA
ENDBRANCH  90  91
ENDBRANCH  64  85
ENDBRANCH  38  39
ENDBRANCH  30  33
ENDBRANCH   1  29
TORSDOF 15
ENDMDL
MODEL 2
REMARK VINA RESULT:     -12.4      3.486      9.555
REMARK SMILES O=C(NCCCNC(=O)c1ccc(-c2c3nc(c(-c4ccc(S(=O)(=O)[O-])cc4)c4ccc([nH]4)c(-c4ccc(S(=O)(=O)[O-])cc4)c4nc(c(-c5ccc(S(=O)(=O)[O-])cc5)c5ccc2[nH]5)C=C4)C=C3)cc1)C1=Cc2cc(S(F)(F)(F)(F)F)cc(Br)c2O[C@@H]1C(F)(F)F
REMARK SMILES IDX 6 1 5 2 4 3 3 4 1 5 2 6 70 8 71 9 86 10 72 11 85 12 73 13
REMARK SMILES IDX 84 14 74 15 82 16 81 17 83 18 87 19 88 20 89 21 90 22 75 23
REMARK SMILES IDX 76 24 77 25 78 26 79 27 80 28 7 29 8 30 9 32 10 33 11 34
REMARK SMILES IDX 69 35 12 36 68 37 13 38 14 39 15 40 62 41 16 42 67 43 61 44
REMARK SMILES IDX 63 45 17 46 66 47 60 48 59 49 18 51 48 52 29 53 47 54 30 55
REMARK SMILES IDX 33 56 46 57 64 58 31 59 32 60 45 62 65 63 34 64 19 65 20 66
REMARK SMILES IDX 28 67 21 68 27 69 22 70 23 71 24 72 25 73 26 74 49 75 50 76
REMARK SMILES IDX 58 77 51 78 57 79 52 80 53 81 54 82 55 83 56 84 35 85 36 86
REMARK SMILES IDX 44 87 37 88 43 89 38 90 39 91 40 92 41 93 42 94
REMARK H PARENT 3 7 7 31 63 50 33 61
REMARK Flexibility Score: inf
ROOT
ATOM      1  C   UNL A   1      36.611  24.097  25.731  1.00  0.00     0.118 C 
ENDROOT
BRANCH   1   2
ATOM      2  C   UNL A   1      35.248  23.730  26.295  1.00  0.00     0.042 C 
BRANCH   2   3
ATOM      3  C   UNL A   1      34.173  24.055  25.271  1.00  0.00     0.118 C 
BRANCH   3   4
ATOM      4  N   UNL A   1      33.016  24.656  25.949  1.00  0.00    -0.352 N 
ATOM      5  O   UNL A   1      30.841  25.595  25.754  1.00  0.00    -0.270 OA
ATOM      6  C   UNL A   1      31.842  25.075  25.168  1.00  0.00     0.251 C 
ATOM      7  H   UNL A   1      33.026  24.779  26.925  1.00  0.00     0.163 HD
BRANCH   6   8
ATOM      8  C   UNL A   1      31.826  24.886  23.660  1.00  0.00     0.067 C 
ATOM      9  C   UNL A   1      31.578  25.946  22.844  1.00  0.00     0.025 C 
ATOM     10  C   UNL A   1      32.087  23.512  23.064  1.00  0.00     0.314 C 
ATOM     11  C   UNL A   1      31.316  27.319  23.439  1.00  0.00     0.020 A 
ATOM     12  O   UNL A   1      33.112  27.070  24.975  1.00  0.00    -0.474 OA
ATOM     13  C   UNL A   1      30.182  27.966  22.978  1.00  0.00     0.036 A 
ATOM     14  C   UNL A   1      32.053  27.832  24.418  1.00  0.00     0.142 A 
ATOM     15  C   UNL A   1      30.066  29.305  23.422  1.00  0.00     0.109 A 
ATOM     16  C   UNL A   1      31.797  29.095  24.897  1.00  0.00     0.062 A 
ATOM     17  C   UNL A   1      30.727  29.816  24.444  1.00  0.00     0.044 A 
ATOM     18  Br  UNL A   1      32.984  29.873  26.250  1.00  0.00    -0.047 Br
BRANCH  10  19
ATOM     19  C   UNL A   1      33.309  23.575  22.162  1.00  0.00     0.429 C 
ATOM     20  F   UNL A   1      34.117  22.557  22.439  1.00  0.00    -0.167 F 
ATOM     21  F   UNL A   1      32.924  23.503  20.890  1.00  0.00    -0.167 F 
ATOM     22  F   UNL A   1      33.951  24.721  22.365  1.00  0.00    -0.167 F 
ENDBRANCH  10  19
BRANCH  15  23
ATOM     23  S   UNL A   1      28.931  30.393  22.525  1.00  0.00     0.310 S 
ATOM     24  F   UNL A   1      28.079  29.160  22.007  1.00  0.00    -0.094 F 
ATOM     25  F   UNL A   1      29.819  30.234  21.233  1.00  0.00    -0.094 F 
ATOM     26  F   UNL A   1      27.940  31.319  21.763  1.00  0.00    -0.094 F 
ATOM     27  F   UNL A   1      27.981  30.427  23.786  1.00  0.00    -0.094 F 
ATOM     28  F   UNL A   1      29.868  29.365  23.276  1.00  0.00    -0.094 F 
ENDBRANCH  15  23
ENDBRANCH   6   8
ENDBRANCH   3   4
ENDBRANCH   2   3
ENDBRANCH   1   2
BRANCH   1  29
ATOM     29  N   UNL A   1      37.435  22.886  25.612  1.00  0.00    -0.352 N 
ATOM     30  C   UNL A   1      38.799  22.868  26.161  1.00  0.00     0.251 C 
ATOM     31  H   UNL A   1      37.074  22.087  25.164  1.00  0.00     0.163 HD
ATOM     32  O   UNL A   1      39.510  21.819  26.058  1.00  0.00    -0.269 OA
BRANCH  30  33
ATOM     33  C   UNL A   1      39.357  24.100  26.852  1.00  0.00     0.039 A 
ATOM     34  C   UNL A   1      39.051  24.302  28.187  1.00  0.00     0.014 A 
ATOM     35  C   UNL A   1      40.041  25.003  26.158  1.00  0.00     0.014 A 
ATOM     36  C   UNL A   1      39.263  25.628  28.630  1.00  0.00     0.010 A 
ATOM     37  C   UNL A   1      40.331  26.231  26.703  1.00  0.00     0.010 A 
ATOM     38  C   UNL A   1      40.005  26.520  27.999  1.00  0.00    -0.014 A 
BRANCH  38  39
ATOM     39  C   UNL A   1      40.472  27.798  28.676  1.00  0.00     0.031 A 
ATOM     40  C   UNL A   1      39.608  28.883  28.822  1.00  0.00     0.074 A 
ATOM     41  C   UNL A   1      41.763  27.763  29.179  1.00  0.00     0.049 A 
ATOM     42  N   UNL A   1      39.837  30.025  29.471  1.00  0.00    -0.248 NA
ATOM     43  C   UNL A   1      38.249  28.936  28.260  1.00  0.00     0.031 C 
ATOM     44  C   UNL A   1      42.639  26.668  29.044  1.00  0.00     0.029 A 
ATOM     45  N   UNL A   1      42.422  28.747  29.881  1.00  0.00    -0.354 N 
ATOM     46  C   UNL A   1      38.763  30.815  29.408  1.00  0.00     0.074 A 
ATOM     47  C   UNL A   1      37.729  30.128  28.623  1.00  0.00     0.031 C 
ATOM     48  C   UNL A   1      43.813  26.992  29.645  1.00  0.00     0.029 A 
ATOM     49  C   UNL A   1      43.692  28.294  30.167  1.00  0.00     0.049 A 
ATOM     50  H   UNL A   1      42.051  29.623  30.134  1.00  0.00     0.167 HD
ATOM     51  C   UNL A   1      38.605  32.081  29.976  1.00  0.00     0.031 A 
ATOM     52  C   UNL A   1      44.700  28.964  30.842  1.00  0.00     0.031 A 
ATOM     53  C   UNL A   1      39.600  32.733  30.688  1.00  0.00     0.049 A 
ATOM     54  C   UNL A   1      44.562  30.254  31.359  1.00  0.00     0.074 A 
ATOM     55  C   UNL A   1      39.455  34.005  31.273  1.00  0.00     0.029 A 
ATOM     56  N   UNL A   1      40.876  32.290  30.953  1.00  0.00    -0.354 N 
ATOM     57  N   UNL A   1      43.475  31.027  31.329  1.00  0.00    -0.248 NA
ATOM     58  C   UNL A   1      45.634  30.986  32.047  1.00  0.00     0.031 C 
ATOM     59  C   UNL A   1      40.630  34.329  31.875  1.00  0.00     0.029 A 
ATOM     60  C   UNL A   1      41.529  33.265  31.673  1.00  0.00     0.049 A 
ATOM     61  H   UNL A   1      41.257  31.425  30.674  1.00  0.00     0.167 HD
ATOM     62  C   UNL A   1      43.720  32.187  31.944  1.00  0.00     0.074 A 
ATOM     63  C   UNL A   1      45.114  32.179  32.408  1.00  0.00     0.031 C 
ATOM     64  C   UNL A   1      42.835  33.248  32.139  1.00  0.00     0.031 A 
BRANCH  51  65
ATOM     65  C   UNL A   1      37.269  32.783  29.804  1.00  0.00    -0.014 A 
ATOM     66  C   UNL A   1      36.263  32.634  30.746  1.00  0.00     0.010 A 
ATOM     67  C   UNL A   1      37.114  33.579  28.753  1.00  0.00     0.010 A 
ATOM     68  C   UNL A   1      35.011  33.149  30.334  1.00  0.00     0.020 A 
ATOM     69  C   UNL A   1      35.897  34.159  28.486  1.00  0.00     0.020 A 
ATOM     70  C   UNL A   1      34.843  34.005  29.343  1.00  0.00     0.054 A 
BRANCH  70  71
ATOM     71  S   UNL A   1      33.299  34.926  29.129  1.00  0.00     0.124 S 
ATOM     72  O   UNL A   1      32.544  34.970  30.460  1.00  0.00    -0.237 OA
ATOM     73  O   UNL A   1      33.615  36.353  28.674  1.00  0.00    -0.237 OA
ATOM     74  O   UNL A   1      32.332  34.151  27.951  1.00  0.00    -0.744 OA
ENDBRANCH  70  71
ENDBRANCH  51  65
BRANCH  52  75
ATOM     75  C   UNL A   1      46.031  28.254  31.027  1.00  0.00    -0.014 A 
ATOM     76  C   UNL A   1      47.035  28.380  30.080  1.00  0.00     0.010 A 
ATOM     77  C   UNL A   1      46.182  27.476  32.091  1.00  0.00     0.010 A 
ATOM     78  C   UNL A   1      48.059  27.411  30.199  1.00  0.00     0.020 A 
ATOM     79  C   UNL A   1      47.277  26.653  32.207  1.00  0.00     0.020 A 
ATOM     80  C   UNL A   1      48.279  26.682  31.278  1.00  0.00     0.054 A 
BRANCH  80  81
ATOM     81  S   UNL A   1      49.824  25.770  31.514  1.00  0.00     0.124 S 
ATOM     82  O   UNL A   1      49.642  24.735  32.626  1.00  0.00    -0.237 OA
ATOM     83  O   UNL A   1      50.200  25.058  30.212  1.00  0.00    -0.237 OA
ATOM     84  O   UNL A   1      51.070  26.859  31.947  1.00  0.00    -0.744 OA
ENDBRANCH  80  81
ENDBRANCH  52  75
BRANCH  64  85
ATOM     85  C   UNL A   1      43.334  34.460  32.910  1.00  0.00    -0.014 A 
ATOM     86  C   UNL A   1      43.087  34.514  34.271  1.00  0.00     0.010 A 
ATOM     87  C   UNL A   1      43.947  35.456  32.282  1.00  0.00     0.010 A 
ATOM     88  C   UNL A   1      43.272  35.798  34.838  1.00  0.00     0.020 A 
ATOM     89  C   UNL A   1      44.218  36.634  32.934  1.00  0.00     0.020 A 
ATOM     90  C   UNL A   1      43.948  36.778  34.267  1.00  0.00     0.054 A 
BRANCH  90  91
ATOM     91  S   UNL A   1      44.486  38.234  35.197  1.00  0.00     0.124 S 
ATOM     92  O   UNL A   1      45.998  38.412  35.038  1.00  0.00    -0.237 OA
ATOM     93  O   UNL A   1      43.767  39.474  34.663  1.00  0.00    -0.237 OA
ATOM     94  O   UNL A   1      44.108  38.025  36.851  1.00  0.00    -0.744 OA
ENDBRANCH  90  91
ENDBRANCH  64  85
ENDBRANCH  38  39
ENDBRANCH  30  33
ENDBRANCH   1  29
TORSDOF 15
ENDMDL
MODEL 3
REMARK VINA RESULT:     -12.3      0.432      8.002
REMARK SMILES O=C(NCCCNC(=O)c1ccc(-c2c3nc(c(-c4ccc(S(=O)(=O)[O-])cc4)c4ccc([nH]4)c(-c4ccc(S(=O)(=O)[O-])cc4)c4nc(c(-c5ccc(S(=O)(=O)[O-])cc5)c5ccc2[nH]5)C=C4)C=C3)cc1)C1=Cc2cc(S(F)(F)(F)(F)F)cc(Br)c2O[C@@H]1C(F)(F)F
REMARK SMILES IDX 6 1 5 2 4 3 3 4 1 5 2 6 70 8 71 9 86 10 72 11 85 12 73 13
REMARK SMILES IDX 84 14 74 15 82 16 81 17 83 18 87 19 88 20 89 21 90 22 75 23
REMARK SMILES IDX 76 24 77 25 78 26 79 27 80 28 7 29 8 30 9 32 10 33 11 34
REMARK SMILES IDX 69 35 12 36 68 37 13 38 14 39 15 40 62 41 16 42 67 43 61 44
REMARK SMILES IDX 63 45 17 46 66 47 60 48 59 49 18 51 48 52 29 53 47 54 30 55
REMARK SMILES IDX 33 56 46 57 64 58 31 59 32 60 45 62 65 63 34 64 19 65 20 66
REMARK SMILES IDX 28 67 21 68 27 69 22 70 23 71 24 72 25 73 26 74 49 75 50 76
REMARK SMILES IDX 58 77 51 78 57 79 52 80 53 81 54 82 55 83 56 84 35 85 36 86
REMARK SMILES IDX 44 87 37 88 43 89 38 90 39 91 40 92 41 93 42 94
REMARK H PARENT 3 7 7 31 63 50 33 61
REMARK Flexibility Score: inf
ROOT
ATOM      1  C   UNL A   1      34.312  27.973  26.427  1.00  0.00     0.118 C 
ENDROOT
BRANCH   1   2
ATOM      2  C   UNL A   1      33.525  27.228  25.360  1.00  0.00     0.042 C 
BRANCH   2   3
ATOM      3  C   UNL A   1      33.630  25.732  25.608  1.00  0.00     0.118 C 
BRANCH   3   4
ATOM      4  N   UNL A   1      34.000  25.053  24.358  1.00  0.00    -0.352 N 
ATOM      5  O   UNL A   1      33.533  23.316  22.805  1.00  0.00    -0.270 OA
ATOM      6  C   UNL A   1      33.213  23.904  23.886  1.00  0.00     0.251 C 
ATOM      7  H   UNL A   1      34.774  25.366  23.838  1.00  0.00     0.163 HD
BRANCH   6   8
ATOM      8  C   UNL A   1      32.018  23.420  24.689  1.00  0.00     0.067 C 
ATOM      9  C   UNL A   1      32.029  22.177  25.244  1.00  0.00     0.025 C 
ATOM     10  C   UNL A   1      30.810  24.323  24.872  1.00  0.00     0.314 C 
ATOM     11  C   UNL A   1      33.236  21.273  25.061  1.00  0.00     0.020 A 
ATOM     12  O   UNL A   1      34.731  23.067  25.505  1.00  0.00    -0.474 OA
ATOM     13  C   UNL A   1      32.963  19.990  24.616  1.00  0.00     0.036 A 
ATOM     14  C   UNL A   1      34.485  21.701  25.204  1.00  0.00     0.142 A 
ATOM     15  C   UNL A   1      34.086  19.130  24.623  1.00  0.00     0.109 A 
ATOM     16  C   UNL A   1      35.542  20.835  25.063  1.00  0.00     0.062 A 
ATOM     17  C   UNL A   1      35.341  19.536  24.683  1.00  0.00     0.044 A 
ATOM     18  Br  UNL A   1      37.365  21.468  25.411  1.00  0.00    -0.047 Br
BRANCH  10  19
ATOM     19  C   UNL A   1      30.590  24.581  26.355  1.00  0.00     0.429 C 
ATOM     20  F   UNL A   1      31.701  24.291  27.024  1.00  0.00    -0.167 F 
ATOM     21  F   UNL A   1      30.281  25.861  26.541  1.00  0.00    -0.167 F 
ATOM     22  F   UNL A   1      29.595  23.817  26.795  1.00  0.00    -0.167 F 
ENDBRANCH  10  19
BRANCH  15  23
ATOM     23  S   UNL A   1      33.781  17.348  24.544  1.00  0.00     0.310 S 
ATOM     24  F   UNL A   1      32.376  17.569  23.845  1.00  0.00    -0.094 F 
ATOM     25  F   UNL A   1      33.028  17.427  25.926  1.00  0.00    -0.094 F 
ATOM     26  F   UNL A   1      33.515  15.818  24.457  1.00  0.00    -0.094 F 
ATOM     27  F   UNL A   1      34.414  17.312  23.098  1.00  0.00    -0.094 F 
ATOM     28  F   UNL A   1      33.959  18.918  24.568  1.00  0.00    -0.094 F 
ENDBRANCH  15  23
ENDBRANCH   6   8
ENDBRANCH   3   4
ENDBRANCH   2   3
ENDBRANCH   1   2
BRANCH   1  29
ATOM     29  N   UNL A   1      33.569  29.174  26.834  1.00  0.00    -0.352 N 
ATOM     30  C   UNL A   1      34.233  30.212  27.637  1.00  0.00     0.251 C 
ATOM     31  H   UNL A   1      32.627  29.284  26.570  1.00  0.00     0.163 HD
ATOM     32  O   UNL A   1      33.590  31.251  27.988  1.00  0.00    -0.269 OA
BRANCH  30  33
ATOM     33  C   UNL A   1      35.687  30.044  28.045  1.00  0.00     0.039 A 
ATOM     34  C   UNL A   1      36.667  30.244  27.087  1.00  0.00     0.014 A 
ATOM     35  C   UNL A   1      35.994  29.623  29.267  1.00  0.00     0.014 A 
ATOM     36  C   UNL A   1      37.924  29.693  27.428  1.00  0.00     0.010 A 
ATOM     37  C   UNL A   1      37.275  29.227  29.568  1.00  0.00     0.010 A 
ATOM     38  C   UNL A   1      38.281  29.342  28.650  1.00  0.00    -0.014 A 
BRANCH  38  39
ATOM     39  C   UNL A   1      39.733  29.081  29.016  1.00  0.00     0.031 A 
ATOM     40  C   UNL A   1      40.490  30.055  29.667  1.00  0.00     0.074 A 
ATOM     41  C   UNL A   1      40.198  27.810  28.720  1.00  0.00     0.049 A 
ATOM     42  N   UNL A   1      41.734  29.943  30.135  1.00  0.00    -0.248 NA
ATOM     43  C   UNL A   1      40.010  31.416  29.953  1.00  0.00     0.031 C 
ATOM     44  C   UNL A   1      39.438  26.817  28.071  1.00  0.00     0.029 A 
ATOM     45  N   UNL A   1      41.442  27.282  28.986  1.00  0.00    -0.354 N 
ATOM     46  C   UNL A   1      42.114  31.083  30.714  1.00  0.00     0.074 A 
ATOM     47  C   UNL A   1      41.013  32.050  30.599  1.00  0.00     0.031 C 
ATOM     48  C   UNL A   1      40.215  25.711  27.938  1.00  0.00     0.029 A 
ATOM     49  C   UNL A   1      41.474  25.993  28.500  1.00  0.00     0.049 A 
ATOM     50  H   UNL A   1      42.180  27.746  29.444  1.00  0.00     0.167 HD
ATOM     51  C   UNL A   1      43.335  31.356  31.334  1.00  0.00     0.031 A 
ATOM     52  C   UNL A   1      42.533  25.099  28.537  1.00  0.00     0.031 A 
ATOM     53  C   UNL A   1      44.378  30.447  31.408  1.00  0.00     0.049 A 
ATOM     54  C   UNL A   1      43.775  25.391  29.105  1.00  0.00     0.074 A 
ATOM     55  C   UNL A   1      45.613  30.702  32.035  1.00  0.00     0.029 A 
ATOM     56  N   UNL A   1      44.420  29.167  30.901  1.00  0.00    -0.354 N 
ATOM     57  N   UNL A   1      44.141  26.519  29.718  1.00  0.00    -0.248 NA
ATOM     58  C   UNL A   1      44.914  24.464  29.120  1.00  0.00     0.031 C 
ATOM     59  C   UNL A   1      46.391  29.595  31.901  1.00  0.00     0.029 A 
ATOM     60  C   UNL A   1      45.656  28.631  31.186  1.00  0.00     0.049 A 
ATOM     61  H   UNL A   1      43.692  28.713  30.418  1.00  0.00     0.167 HD
ATOM     62  C   UNL A   1      45.400  26.419  30.149  1.00  0.00     0.074 A 
ATOM     63  C   UNL A   1      45.917  25.098  29.764  1.00  0.00     0.031 C 
ATOM     64  C   UNL A   1      46.136  27.374  30.851  1.00  0.00     0.031 A 
BRANCH  51  65
ATOM     65  C   UNL A   1      43.531  32.725  31.963  1.00  0.00    -0.014 A 
ATOM     66  C   UNL A   1      43.149  32.965  33.273  1.00  0.00     0.010 A 
ATOM     67  C   UNL A   1      44.122  33.665  31.236  1.00  0.00     0.010 A 
ATOM     68  C   UNL A   1      43.174  34.332  33.637  1.00  0.00     0.020 A 
ATOM     69  C   UNL A   1      44.234  34.950  31.710  1.00  0.00     0.020 A 
ATOM     70  C   UNL A   1      43.823  35.271  32.974  1.00  0.00     0.054 A 
BRANCH  70  71
ATOM     71  S   UNL A   1      44.151  36.897  33.699  1.00  0.00     0.124 S 
ATOM     72  O   UNL A   1      45.496  36.867  34.430  1.00  0.00    -0.237 OA
ATOM     73  O   UNL A   1      44.197  37.950  32.589  1.00  0.00    -0.237 OA
ATOM     74  O   UNL A   1      42.909  37.288  34.807  1.00  0.00    -0.744 OA
ENDBRANCH  70  71
ENDBRANCH  51  65
BRANCH  52  75
ATOM     75  C   UNL A   1      42.331  23.724  27.921  1.00  0.00    -0.014 A 
ATOM     76  C   UNL A   1      41.944  22.651  28.707  1.00  0.00     0.010 A 
ATOM     77  C   UNL A   1      42.584  23.574  26.627  1.00  0.00     0.010 A 
ATOM     78  C   UNL A   1      42.133  21.391  28.090  1.00  0.00     0.020 A 
ATOM     79  C   UNL A   1      42.619  22.323  26.061  1.00  0.00     0.020 A 
ATOM     80  C   UNL A   1      42.305  21.212  26.793  1.00  0.00     0.054 A 
BRANCH  80  81
ATOM     81  S   UNL A   1      42.136  19.581  26.026  1.00  0.00     0.124 S 
ATOM     82  O   UNL A   1      42.956  19.537  24.735  1.00  0.00    -0.237 OA
ATOM     83  O   UNL A   1      42.646  18.507  26.990  1.00  0.00    -0.237 OA
ATOM     84  O   UNL A   1      40.490  19.287  25.666  1.00  0.00    -0.744 OA
ENDBRANCH  80  81
ENDBRANCH  52  75
BRANCH  64  85
ATOM     85  C   UNL A   1      47.551  27.015  31.274  1.00  0.00    -0.014 A 
ATOM     86  C   UNL A   1      47.731  26.415  32.510  1.00  0.00     0.010 A 
ATOM     87  C   UNL A   1      48.586  27.312  30.497  1.00  0.00     0.010 A 
ATOM     88  C   UNL A   1      49.070  26.429  32.965  1.00  0.00     0.020 A 
ATOM     89  C   UNL A   1      49.872  27.173  30.960  1.00  0.00     0.020 A 
ATOM     90  C   UNL A   1      50.122  26.641  32.195  1.00  0.00     0.054 A 
BRANCH  90  91
ATOM     91  S   UNL A   1      51.801  26.251  32.744  1.00  0.00     0.124 S 
ATOM     92  O   UNL A   1      51.739  25.440  34.041  1.00  0.00    -0.237 OA
ATOM     93  O   UNL A   1      52.512  25.431  31.665  1.00  0.00    -0.237 OA
ATOM     94  O   UNL A   1      52.663  27.701  33.018  1.00  0.00    -0.744 OA
ENDBRANCH  90  91
ENDBRANCH  64  85
ENDBRANCH  38  39
ENDBRANCH  30  33
ENDBRANCH   1  29
TORSDOF 15
ENDMDL
