MODEL 1
REMARK VINA RESULT:     -10.8      0.000      0.000
REMARK SMILES CC(=O)N[C@H](CSCC(=O)Nc1ccc2c(c1)N1CC[NH+]=C1S2)C(=O)NCCCNC(=O)c1ccc(-c2c3nc(c(-c4ccc(S(=O)(=O)[O-])cc4)c4ccc([nH]4)c(-c4ccc(S(=O)(=O)[O-])cc4)c4nc(c(-c5ccc(S(=O)(=O)[O-])cc5)c5ccc2[nH]5)C=C4)C=C3)cc1
REMARK SMILES IDX 27 1 26 2 24 3 25 4 5 6 4 7 1 8 2 9 3 10 6 12 7 13 8 14 9 15
REMARK SMILES IDX 10 16 11 17 12 19 13 20 17 21 14 22 16 23 15 24 18 25 23 26
REMARK SMILES IDX 19 27 22 28 20 29 21 30 28 32 29 33 30 34 31 35 32 37 33 38
REMARK SMILES IDX 34 39 92 40 35 41 91 42 36 43 37 44 38 45 85 46 39 47 90 48
REMARK SMILES IDX 84 49 86 50 40 51 89 52 83 53 82 54 41 56 71 57 52 58 70 59
REMARK SMILES IDX 53 60 56 61 69 62 87 63 54 64 55 65 68 67 88 68 57 69 42 70
REMARK SMILES IDX 43 71 51 72 44 73 50 74 45 75 46 76 47 77 48 78 49 79 72 80
REMARK SMILES IDX 73 81 81 82 74 83 80 84 75 85 76 86 77 87 78 88 79 89 58 90
REMARK SMILES IDX 59 91 67 92 60 93 66 94 61 95 62 96 63 97 64 98 65 99
REMARK H PARENT 26 5 4 11 11 18 21 31 30 36 86 55 56 66
REMARK Flexibility Score: inf
ROOT
ATOM      1  C   UNL A   1      31.393  29.843  25.508  1.00  0.00     0.117 C 
ENDROOT
BRANCH   1   2
ATOM      2  N   UNL A   1      30.866  30.176  24.197  1.00  0.00    -0.354 N 
ATOM      3  C   UNL A   1      30.557  29.390  23.129  1.00  0.00     0.243 C 
ATOM      4  O   UNL A   1      29.776  29.875  22.301  1.00  0.00    -0.273 OA
ATOM      5  H   UNL A   1      30.704  31.137  24.055  1.00  0.00     0.163 HD
BRANCH   3   6
ATOM      6  C   UNL A   1      31.088  27.952  22.949  1.00  0.00     0.181 C 
BRANCH   6   7
ATOM      7  N   UNL A   1      32.319  27.766  22.169  1.00  0.00    -0.344 N 
ATOM      8  C   UNL A   1      33.324  25.748  23.198  1.00  0.00     0.114 C 
ATOM      9  C   UNL A   1      33.380  26.927  22.281  1.00  0.00     0.217 C 
ATOM     10  O   UNL A   1      34.365  27.128  21.568  1.00  0.00    -0.275 OA
ATOM     11  H   UNL A   1      32.389  28.381  21.405  1.00  0.00     0.164 HD
ENDBRANCH   6   7
BRANCH   6  12
ATOM     12  C   UNL A   1      30.008  26.884  22.757  1.00  0.00     0.105 C 
BRANCH  12  13
ATOM     13  S   UNL A   1      29.298  26.296  24.345  1.00  0.00    -0.149 SA
BRANCH  13  14
ATOM     14  C   UNL A   1      30.597  25.221  25.012  1.00  0.00     0.169 C 
BRANCH  14  15
ATOM     15  C   UNL A   1      31.205  25.609  26.350  1.00  0.00     0.234 C 
ATOM     16  O   UNL A   1      30.814  26.613  26.952  1.00  0.00    -0.274 OA
ATOM     17  N   UNL A   1      32.100  24.783  26.975  1.00  0.00    -0.325 N 
ATOM     18  H   UNL A   1      32.206  24.932  27.942  1.00  0.00     0.169 HD
BRANCH  17  19
ATOM     19  C   UNL A   1      32.887  23.757  26.438  1.00  0.00     0.045 A 
ATOM     20  C   UNL A   1      32.319  22.564  25.959  1.00  0.00     0.027 A 
ATOM     21  C   UNL A   1      34.264  23.975  26.335  1.00  0.00     0.079 A 
ATOM     22  C   UNL A   1      33.116  21.534  25.457  1.00  0.00     0.022 A 
ATOM     23  C   UNL A   1      35.069  22.939  25.890  1.00  0.00     0.144 A 
ATOM     24  C   UNL A   1      34.482  21.726  25.457  1.00  0.00     0.067 A 
ATOM     25  N   UNL A   1      36.434  22.894  25.866  1.00  0.00    -0.216 N 
ATOM     26  S   UNL A   1      35.756  20.542  24.999  1.00  0.00     0.002 SA
ATOM     27  C   UNL A   1      37.477  23.822  26.159  1.00  0.00     0.289 C 
ATOM     28  C   UNL A   1      36.970  21.698  25.494  1.00  0.00     0.316 C 
ATOM     29  C   UNL A   1      38.691  22.857  26.171  1.00  0.00     0.280 C 
ATOM     30  N   UNL A   1      38.256  21.535  25.580  1.00  0.00    -0.264 N 
ATOM     31  H   UNL A   1      38.804  20.756  25.327  1.00  0.00     0.305 HD
ENDBRANCH  17  19
ENDBRANCH  14  15
ENDBRANCH  13  14
ENDBRANCH  12  13
ENDBRANCH   6  12
ENDBRANCH   3   6
ENDBRANCH   1   2
BRANCH   1  32
ATOM     32  C   UNL A   1      32.831  29.365  25.486  1.00  0.00     0.042 C 
BRANCH  32  33
ATOM     33  C   UNL A   1      33.443  29.203  26.870  1.00  0.00     0.118 C 
BRANCH  33  34
ATOM     34  N   UNL A   1      33.483  30.443  27.643  1.00  0.00    -0.352 N 
ATOM     35  C   UNL A   1      34.457  30.972  28.463  1.00  0.00     0.251 C 
ATOM     36  H   UNL A   1      32.673  30.998  27.565  1.00  0.00     0.163 HD
ATOM     37  O   UNL A   1      34.215  31.967  29.131  1.00  0.00    -0.269 OA
BRANCH  35  38
ATOM     38  C   UNL A   1      35.772  30.305  28.564  1.00  0.00     0.039 A 
ATOM     39  C   UNL A   1      36.189  29.759  29.773  1.00  0.00     0.014 A 
ATOM     40  C   UNL A   1      36.621  30.274  27.454  1.00  0.00     0.014 A 
ATOM     41  C   UNL A   1      37.525  29.441  29.951  1.00  0.00     0.010 A 
ATOM     42  C   UNL A   1      37.934  29.814  27.600  1.00  0.00     0.010 A 
ATOM     43  C   UNL A   1      38.422  29.467  28.868  1.00  0.00    -0.014 A 
BRANCH  43  44
ATOM     44  C   UNL A   1      39.853  29.148  29.114  1.00  0.00     0.031 A 
ATOM     45  C   UNL A   1      40.437  27.825  28.688  1.00  0.00     0.074 A 
ATOM     46  C   UNL A   1      40.656  30.104  29.626  1.00  0.00     0.049 A 
ATOM     47  N   UNL A   1      41.676  27.409  28.781  1.00  0.00    -0.248 NA
ATOM     48  C   UNL A   1      39.524  26.838  28.087  1.00  0.00     0.031 C 
ATOM     49  C   UNL A   1      40.210  31.435  30.048  1.00  0.00     0.029 A 
ATOM     50  N   UNL A   1      42.013  30.133  29.825  1.00  0.00    -0.354 N 
ATOM     51  C   UNL A   1      41.683  26.110  28.284  1.00  0.00     0.074 A 
ATOM     52  C   UNL A   1      40.324  25.795  27.908  1.00  0.00     0.031 C 
ATOM     53  C   UNL A   1      41.279  32.183  30.348  1.00  0.00     0.029 A 
ATOM     54  C   UNL A   1      42.479  31.359  30.243  1.00  0.00     0.049 A 
ATOM     55  H   UNL A   1      42.597  29.354  29.683  1.00  0.00     0.167 HD
ATOM     56  C   UNL A   1      42.730  25.262  28.147  1.00  0.00     0.031 A 
ATOM     57  C   UNL A   1      43.728  31.782  30.521  1.00  0.00     0.031 A 
ATOM     58  C   UNL A   1      44.086  25.596  28.495  1.00  0.00     0.049 A 
ATOM     59  C   UNL A   1      44.866  30.818  30.389  1.00  0.00     0.074 A 
ATOM     60  C   UNL A   1      45.216  24.805  28.389  1.00  0.00     0.029 A 
ATOM     61  N   UNL A   1      44.500  26.819  29.001  1.00  0.00    -0.354 N 
ATOM     62  N   UNL A   1      44.842  29.581  29.953  1.00  0.00    -0.248 NA
ATOM     63  C   UNL A   1      46.193  31.291  30.802  1.00  0.00     0.031 C 
ATOM     64  C   UNL A   1      46.304  25.531  28.880  1.00  0.00     0.029 A 
ATOM     65  C   UNL A   1      45.865  26.796  29.234  1.00  0.00     0.049 A 
ATOM     66  H   UNL A   1      43.911  27.590  29.171  1.00  0.00     0.167 HD
ATOM     67  C   UNL A   1      46.150  29.123  30.048  1.00  0.00     0.074 A 
ATOM     68  C   UNL A   1      46.945  30.225  30.554  1.00  0.00     0.031 C 
ATOM     69  C   UNL A   1      46.641  27.895  29.753  1.00  0.00     0.031 A 
BRANCH  56  70
ATOM     70  C   UNL A   1      42.464  23.878  27.613  1.00  0.00    -0.014 A 
ATOM     71  C   UNL A   1      42.180  22.830  28.508  1.00  0.00     0.010 A 
ATOM     72  C   UNL A   1      42.591  23.590  26.242  1.00  0.00     0.010 A 
ATOM     73  C   UNL A   1      42.046  21.517  28.048  1.00  0.00     0.020 A 
ATOM     74  C   UNL A   1      42.432  22.281  25.775  1.00  0.00     0.020 A 
ATOM     75  C   UNL A   1      42.180  21.249  26.684  1.00  0.00     0.054 A 
BRANCH  75  76
ATOM     76  S   UNL A   1      41.995  19.542  26.098  1.00  0.00     0.124 S 
ATOM     77  O   UNL A   1      40.554  19.440  25.894  1.00  0.00    -0.237 OA
ATOM     78  O   UNL A   1      42.808  19.527  24.884  1.00  0.00    -0.237 OA
ATOM     79  O   UNL A   1      42.531  18.745  27.200  1.00  0.00    -0.744 OA
ENDBRANCH  75  76
ENDBRANCH  56  70
BRANCH  57  80
ATOM     80  C   UNL A   1      43.928  33.193  30.947  1.00  0.00    -0.014 A 
ATOM     81  C   UNL A   1      44.267  34.178  29.999  1.00  0.00     0.010 A 
ATOM     82  C   UNL A   1      43.913  33.533  32.311  1.00  0.00     0.010 A 
ATOM     83  C   UNL A   1      44.668  35.451  30.410  1.00  0.00     0.020 A 
ATOM     84  C   UNL A   1      44.284  34.818  32.725  1.00  0.00     0.020 A 
ATOM     85  C   UNL A   1      44.695  35.755  31.773  1.00  0.00     0.054 A 
BRANCH  85  86
ATOM     86  S   UNL A   1      45.302  37.384  32.292  1.00  0.00     0.124 S 
ATOM     87  O   UNL A   1      44.737  37.497  33.634  1.00  0.00    -0.237 OA
ATOM     88  O   UNL A   1      46.752  37.221  32.232  1.00  0.00    -0.237 OA
ATOM     89  O   UNL A   1      44.738  38.290  31.296  1.00  0.00    -0.744 OA
ENDBRANCH  85  86
ENDBRANCH  57  80
BRANCH  69  90
ATOM     90  C   UNL A   1      48.105  27.650  29.981  1.00  0.00    -0.014 A 
ATOM     91  C   UNL A   1      49.045  28.087  29.030  1.00  0.00     0.010 A 
ATOM     92  C   UNL A   1      48.538  26.871  31.069  1.00  0.00     0.010 A 
ATOM     93  C   UNL A   1      50.388  27.723  29.143  1.00  0.00     0.020 A 
ATOM     94  C   UNL A   1      49.885  26.524  31.197  1.00  0.00     0.020 A 
ATOM     95  C   UNL A   1      50.797  26.931  30.220  1.00  0.00     0.054 A 
BRANCH  95  96
ATOM     96  S   UNL A   1      52.537  26.434  30.331  1.00  0.00     0.124 S 
ATOM     97  O   UNL A   1      53.184  27.673  30.751  1.00  0.00    -0.237 OA
ATOM     98  O   UNL A   1      52.506  25.369  31.331  1.00  0.00    -0.237 OA
ATOM     99  O   UNL A   1      52.853  25.992  28.975  1.00  0.00    -0.744 OA
ENDBRANCH  95  96
ENDBRANCH  69  90
ENDBRANCH  43  44
ENDBRANCH  35  38
ENDBRANCH  33  34
ENDBRANCH  32  33
ENDBRANCH   1  32
TORSDOF 19
ENDMDL
MODEL 2
REMARK VINA RESULT:     -10.8      4.902     10.073
REMARK SMILES CC(=O)N[C@H](CSCC(=O)Nc1ccc2c(c1)N1CC[NH+]=C1S2)C(=O)NCCCNC(=O)c1ccc(-c2c3nc(c(-c4ccc(S(=O)(=O)[O-])cc4)c4ccc([nH]4)c(-c4ccc(S(=O)(=O)[O-])cc4)c4nc(c(-c5ccc(S(=O)(=O)[O-])cc5)c5ccc2[nH]5)C=C4)C=C3)cc1
REMARK SMILES IDX 27 1 26 2 24 3 25 4 5 6 4 7 1 8 2 9 3 10 6 12 7 13 8 14 9 15
REMARK SMILES IDX 10 16 11 17 12 19 13 20 17 21 14 22 16 23 15 24 18 25 23 26
REMARK SMILES IDX 19 27 22 28 20 29 21 30 28 32 29 33 30 34 31 35 32 37 33 38
REMARK SMILES IDX 34 39 92 40 35 41 91 42 36 43 37 44 38 45 85 46 39 47 90 48
REMARK SMILES IDX 84 49 86 50 40 51 89 52 83 53 82 54 41 56 71 57 52 58 70 59
REMARK SMILES IDX 53 60 56 61 69 62 87 63 54 64 55 65 68 67 88 68 57 69 42 70
REMARK SMILES IDX 43 71 51 72 44 73 50 74 45 75 46 76 47 77 48 78 49 79 72 80
REMARK SMILES IDX 73 81 81 82 74 83 80 84 75 85 76 86 77 87 78 88 79 89 58 90
REMARK SMILES IDX 59 91 67 92 60 93 66 94 61 95 62 96 63 97 64 98 65 99
REMARK H PARENT 26 5 4 11 11 18 21 31 30 36 86 55 56 66
REMARK Flexibility Score: inf
ROOT
ATOM      1  C   UNL A   1      37.946  22.159  25.586  1.00  0.00     0.117 C 
ENDROOT
BRANCH   1   2
ATOM      2  N   UNL A   1      37.112  20.978  25.459  1.00  0.00    -0.354 N 
ATOM      3  C   UNL A   1      35.785  20.843  25.188  1.00  0.00     0.243 C 
ATOM      4  O   UNL A   1      35.423  19.741  24.759  1.00  0.00    -0.273 OA
ATOM      5  H   UNL A   1      37.589  20.127  25.592  1.00  0.00     0.163 HD
BRANCH   3   6
ATOM      6  C   UNL A   1      34.764  21.991  25.345  1.00  0.00     0.181 C 
BRANCH   6   7
ATOM      7  N   UNL A   1      34.765  23.054  24.332  1.00  0.00    -0.344 N 
ATOM      8  C   UNL A   1      32.851  22.435  22.883  1.00  0.00     0.114 C 
ATOM      9  C   UNL A   1      34.062  23.258  23.188  1.00  0.00     0.217 C 
ATOM     10  O   UNL A   1      34.413  24.171  22.439  1.00  0.00    -0.275 OA
ATOM     11  H   UNL A   1      35.412  23.770  24.522  1.00  0.00     0.164 HD
ENDBRANCH   6   7
BRANCH   6  12
ATOM     12  C   UNL A   1      34.516  22.442  26.787  1.00  0.00     0.105 C 
BRANCH  12  13
ATOM     13  S   UNL A   1      32.823  22.044  27.375  1.00  0.00    -0.149 SA
BRANCH  13  14
ATOM     14  C   UNL A   1      31.887  23.555  27.012  1.00  0.00     0.169 C 
BRANCH  14  15
ATOM     15  C   UNL A   1      30.402  23.405  26.732  1.00  0.00     0.234 C 
ATOM     16  O   UNL A   1      29.813  22.355  27.004  1.00  0.00    -0.274 OA
ATOM     17  N   UNL A   1      29.662  24.473  26.299  1.00  0.00    -0.325 N 
ATOM     18  H   UNL A   1      28.691  24.396  26.438  1.00  0.00     0.169 HD
BRANCH  17  19
ATOM     19  C   UNL A   1      30.087  25.658  25.687  1.00  0.00     0.045 A 
ATOM     20  C   UNL A   1      29.684  26.003  24.386  1.00  0.00     0.027 A 
ATOM     21  C   UNL A   1      30.887  26.528  26.433  1.00  0.00     0.079 A 
ATOM     22  C   UNL A   1      30.141  27.170  23.773  1.00  0.00     0.022 A 
ATOM     23  C   UNL A   1      31.390  27.662  25.816  1.00  0.00     0.144 A 
ATOM     24  C   UNL A   1      31.011  27.968  24.487  1.00  0.00     0.067 A 
ATOM     25  N   UNL A   1      32.305  28.546  26.312  1.00  0.00    -0.216 N 
ATOM     26  S   UNL A   1      31.859  29.449  23.919  1.00  0.00     0.002 SA
ATOM     27  C   UNL A   1      32.968  28.711  27.564  1.00  0.00     0.289 C 
ATOM     28  C   UNL A   1      32.719  29.507  25.440  1.00  0.00     0.316 C 
ATOM     29  C   UNL A   1      34.045  29.750  27.155  1.00  0.00     0.280 C 
ATOM     30  N   UNL A   1      33.687  30.298  25.793  1.00  0.00    -0.264 N 
ATOM     31  H   UNL A   1      34.083  31.055  25.303  1.00  0.00     0.305 HD
ENDBRANCH  17  19
ENDBRANCH  14  15
ENDBRANCH  13  14
ENDBRANCH  12  13
ENDBRANCH   6  12
ENDBRANCH   3   6
ENDBRANCH   1   2
BRANCH   1  32
ATOM     32  C   UNL A   1      39.271  21.901  26.277  1.00  0.00     0.042 C 
BRANCH  32  33
ATOM     33  C   UNL A   1      39.856  23.131  26.956  1.00  0.00     0.118 C 
BRANCH  33  34
ATOM     34  N   UNL A   1      40.489  24.068  26.030  1.00  0.00    -0.352 N 
ATOM     35  C   UNL A   1      40.896  25.375  26.197  1.00  0.00     0.251 C 
ATOM     36  H   UNL A   1      40.654  23.703  25.130  1.00  0.00     0.163 HD
ATOM     37  O   UNL A   1      41.276  26.021  25.230  1.00  0.00    -0.269 OA
BRANCH  35  38
ATOM     38  C   UNL A   1      40.826  26.000  27.534  1.00  0.00     0.039 A 
ATOM     39  C   UNL A   1      39.627  26.016  28.237  1.00  0.00     0.014 A 
ATOM     40  C   UNL A   1      41.956  26.626  28.066  1.00  0.00     0.014 A 
ATOM     41  C   UNL A   1      39.482  26.875  29.314  1.00  0.00     0.010 A 
ATOM     42  C   UNL A   1      41.842  27.379  29.240  1.00  0.00     0.010 A 
ATOM     43  C   UNL A   1      40.586  27.574  29.831  1.00  0.00    -0.014 A 
BRANCH  43  44
ATOM     44  C   UNL A   1      40.375  28.509  30.969  1.00  0.00     0.031 A 
ATOM     45  C   UNL A   1      41.328  28.537  32.137  1.00  0.00     0.074 A 
ATOM     46  C   UNL A   1      39.377  29.414  30.893  1.00  0.00     0.049 A 
ATOM     47  N   UNL A   1      41.318  29.325  33.183  1.00  0.00    -0.248 NA
ATOM     48  C   UNL A   1      42.430  27.560  32.141  1.00  0.00     0.031 C 
ATOM     49  C   UNL A   1      38.409  29.504  29.796  1.00  0.00     0.029 A 
ATOM     50  N   UNL A   1      39.045  30.463  31.712  1.00  0.00    -0.354 N 
ATOM     51  C   UNL A   1      42.383  28.920  33.980  1.00  0.00     0.074 A 
ATOM     52  C   UNL A   1      43.009  27.802  33.310  1.00  0.00     0.031 C 
ATOM     53  C   UNL A   1      37.668  30.608  29.952  1.00  0.00     0.029 A 
ATOM     54  C   UNL A   1      38.034  31.250  31.211  1.00  0.00     0.049 A 
ATOM     55  H   UNL A   1      39.486  30.636  32.575  1.00  0.00     0.167 HD
ATOM     56  C   UNL A   1      42.804  29.437  35.158  1.00  0.00     0.031 A 
ATOM     57  C   UNL A   1      37.451  32.361  31.703  1.00  0.00     0.031 A 
ATOM     58  C   UNL A   1      42.193  30.570  35.802  1.00  0.00     0.049 A 
ATOM     59  C   UNL A   1      37.914  32.899  33.022  1.00  0.00     0.074 A 
ATOM     60  C   UNL A   1      42.550  31.170  36.997  1.00  0.00     0.029 A 
ATOM     61  N   UNL A   1      41.112  31.281  35.304  1.00  0.00    -0.354 N 
ATOM     62  N   UNL A   1      38.899  32.474  33.776  1.00  0.00    -0.248 NA
ATOM     63  C   UNL A   1      37.182  34.048  33.569  1.00  0.00     0.031 C 
ATOM     64  C   UNL A   1      41.653  32.212  37.247  1.00  0.00     0.029 A 
ATOM     65  C   UNL A   1      40.775  32.301  36.179  1.00  0.00     0.049 A 
ATOM     66  H   UNL A   1      40.651  31.090  34.455  1.00  0.00     0.167 HD
ATOM     67  C   UNL A   1      38.900  33.298  34.894  1.00  0.00     0.074 A 
ATOM     68  C   UNL A   1      37.838  34.265  34.703  1.00  0.00     0.031 C 
ATOM     69  C   UNL A   1      39.704  33.247  35.984  1.00  0.00     0.031 A 
BRANCH  56  70
ATOM     70  C   UNL A   1      43.972  28.783  35.850  1.00  0.00    -0.014 A 
ATOM     71  C   UNL A   1      43.742  27.745  36.772  1.00  0.00     0.010 A 
ATOM     72  C   UNL A   1      45.284  29.256  35.668  1.00  0.00     0.010 A 
ATOM     73  C   UNL A   1      44.796  27.203  37.512  1.00  0.00     0.020 A 
ATOM     74  C   UNL A   1      46.345  28.698  36.389  1.00  0.00     0.020 A 
ATOM     75  C   UNL A   1      46.091  27.688  37.321  1.00  0.00     0.054 A 
BRANCH  75  76
ATOM     76  S   UNL A   1      47.453  26.971  38.282  1.00  0.00     0.124 S 
ATOM     77  O   UNL A   1      47.207  25.540  38.145  1.00  0.00    -0.237 OA
ATOM     78  O   UNL A   1      48.638  27.479  37.593  1.00  0.00    -0.237 OA
ATOM     79  O   UNL A   1      47.247  27.517  39.623  1.00  0.00    -0.744 OA
ENDBRANCH  75  76
ENDBRANCH  56  70
BRANCH  57  80
ATOM     80  C   UNL A   1      36.370  33.012  30.915  1.00  0.00    -0.014 A 
ATOM     81  C   UNL A   1      36.691  33.855  29.833  1.00  0.00     0.010 A 
ATOM     82  C   UNL A   1      35.029  32.903  31.322  1.00  0.00     0.010 A 
ATOM     83  C   UNL A   1      35.707  34.638  29.227  1.00  0.00     0.020 A 
ATOM     84  C   UNL A   1      34.034  33.663  30.696  1.00  0.00     0.020 A 
ATOM     85  C   UNL A   1      34.388  34.553  29.678  1.00  0.00     0.054 A 
BRANCH  85  86
ATOM     86  S   UNL A   1      33.140  35.643  28.938  1.00  0.00     0.124 S 
ATOM     87  O   UNL A   1      33.974  36.587  28.197  1.00  0.00    -0.237 OA
ATOM     88  O   UNL A   1      32.354  34.723  28.120  1.00  0.00    -0.237 OA
ATOM     89  O   UNL A   1      32.443  36.196  30.095  1.00  0.00    -0.744 OA
ENDBRANCH  85  86
ENDBRANCH  57  80
BRANCH  69  90
ATOM     90  C   UNL A   1      39.468  34.248  37.079  1.00  0.00    -0.014 A 
ATOM     91  C   UNL A   1      40.087  35.510  37.018  1.00  0.00     0.010 A 
ATOM     92  C   UNL A   1      38.744  33.891  38.230  1.00  0.00     0.010 A 
ATOM     93  C   UNL A   1      40.015  36.386  38.104  1.00  0.00     0.020 A 
ATOM     94  C   UNL A   1      38.650  34.775  39.307  1.00  0.00     0.020 A 
ATOM     95  C   UNL A   1      39.307  36.006  39.247  1.00  0.00     0.054 A 
BRANCH  95  96
ATOM     96  S   UNL A   1      39.255  37.139  40.662  1.00  0.00     0.124 S 
ATOM     97  O   UNL A   1      38.695  36.293  41.712  1.00  0.00    -0.237 OA
ATOM     98  O   UNL A   1      40.658  37.509  40.831  1.00  0.00    -0.237 OA
ATOM     99  O   UNL A   1      38.387  38.220  40.201  1.00  0.00    -0.744 OA
ENDBRANCH  95  96
ENDBRANCH  69  90
ENDBRANCH  43  44
ENDBRANCH  35  38
ENDBRANCH  33  34
ENDBRANCH  32  33
ENDBRANCH   1  32
TORSDOF 19
ENDMDL
MODEL 3
REMARK VINA RESULT:     -10.7      2.045      8.274
REMARK SMILES CC(=O)N[C@H](CSCC(=O)Nc1ccc2c(c1)N1CC[NH+]=C1S2)C(=O)NCCCNC(=O)c1ccc(-c2c3nc(c(-c4ccc(S(=O)(=O)[O-])cc4)c4ccc([nH]4)c(-c4ccc(S(=O)(=O)[O-])cc4)c4nc(c(-c5ccc(S(=O)(=O)[O-])cc5)c5ccc2[nH]5)C=C4)C=C3)cc1
REMARK SMILES IDX 27 1 26 2 24 3 25 4 5 6 4 7 1 8 2 9 3 10 6 12 7 13 8 14 9 15
REMARK SMILES IDX 10 16 11 17 12 19 13 20 17 21 14 22 16 23 15 24 18 25 23 26
REMARK SMILES IDX 19 27 22 28 20 29 21 30 28 32 29 33 30 34 31 35 32 37 33 38
REMARK SMILES IDX 34 39 92 40 35 41 91 42 36 43 37 44 38 45 85 46 39 47 90 48
REMARK SMILES IDX 84 49 86 50 40 51 89 52 83 53 82 54 41 56 71 57 52 58 70 59
REMARK SMILES IDX 53 60 56 61 69 62 87 63 54 64 55 65 68 67 88 68 57 69 42 70
REMARK SMILES IDX 43 71 51 72 44 73 50 74 45 75 46 76 47 77 48 78 49 79 72 80
REMARK SMILES IDX 73 81 81 82 74 83 80 84 75 85 76 86 77 87 78 88 79 89 58 90
REMARK SMILES IDX 59 91 67 92 60 93 66 94 61 95 62 96 63 97 64 98 65 99
REMARK H PARENT 26 5 4 11 11 18 21 31 30 36 86 55 56 66
REMARK Flexibility Score: inf
ROOT
ATOM      1  C   UNL A   1      31.467  29.078  25.588  1.00  0.00     0.117 C 
ENDROOT
BRANCH   1   2
ATOM      2  N   UNL A   1      31.609  29.576  24.231  1.00  0.00    -0.354 N 
ATOM      3  C   UNL A   1      30.961  29.241  23.082  1.00  0.00     0.243 C 
ATOM      4  O   UNL A   1      30.999  30.075  22.170  1.00  0.00    -0.273 OA
ATOM      5  H   UNL A   1      32.291  30.278  24.124  1.00  0.00     0.163 HD
BRANCH   3   6
ATOM      6  C   UNL A   1      30.169  27.928  22.903  1.00  0.00     0.181 C 
BRANCH   6   7
ATOM      7  N   UNL A   1      28.738  27.938  23.234  1.00  0.00    -0.344 N 
ATOM      8  C   UNL A   1      27.872  29.819  21.873  1.00  0.00     0.114 C 
ATOM      9  C   UNL A   1      27.714  28.776  22.932  1.00  0.00     0.217 C 
ATOM     10  O   UNL A   1      26.637  28.619  23.510  1.00  0.00    -0.275 OA
ATOM     11  H   UNL A   1      28.464  27.177  23.795  1.00  0.00     0.164 HD
ENDBRANCH   6   7
BRANCH   6  12
ATOM     12  C   UNL A   1      30.933  26.656  23.282  1.00  0.00     0.105 C 
BRANCH  12  13
ATOM     13  S   UNL A   1      29.870  25.159  23.274  1.00  0.00    -0.149 SA
BRANCH  13  14
ATOM     14  C   UNL A   1      30.632  24.098  24.533  1.00  0.00     0.169 C 
BRANCH  14  15
ATOM     15  C   UNL A   1      30.904  24.716  25.894  1.00  0.00     0.234 C 
ATOM     16  O   UNL A   1      30.163  25.593  26.347  1.00  0.00    -0.274 OA
ATOM     17  N   UNL A   1      31.895  24.222  26.698  1.00  0.00    -0.325 N 
ATOM     18  H   UNL A   1      31.813  24.446  27.654  1.00  0.00     0.169 HD
BRANCH  17  19
ATOM     19  C   UNL A   1      33.008  23.443  26.361  1.00  0.00     0.045 A 
ATOM     20  C   UNL A   1      34.286  24.008  26.206  1.00  0.00     0.027 A 
ATOM     21  C   UNL A   1      32.826  22.062  26.236  1.00  0.00     0.079 A 
ATOM     22  C   UNL A   1      35.381  23.227  25.836  1.00  0.00     0.022 A 
ATOM     23  C   UNL A   1      33.895  21.287  25.817  1.00  0.00     0.144 A 
ATOM     24  C   UNL A   1      35.163  21.883  25.619  1.00  0.00     0.067 A 
ATOM     25  N   UNL A   1      33.885  19.962  25.484  1.00  0.00    -0.216 N 
ATOM     26  S   UNL A   1      36.340  20.664  25.014  1.00  0.00     0.002 SA
ATOM     27  C   UNL A   1      32.910  18.922  25.525  1.00  0.00     0.289 C 
ATOM     28  C   UNL A   1      35.055  19.480  24.981  1.00  0.00     0.316 C 
ATOM     29  C   UNL A   1      33.642  17.844  24.685  1.00  0.00     0.280 C 
ATOM     30  N   UNL A   1      35.083  18.267  24.515  1.00  0.00    -0.264 N 
ATOM     31  H   UNL A   1      35.842  17.758  24.148  1.00  0.00     0.305 HD
ENDBRANCH  17  19
ENDBRANCH  14  15
ENDBRANCH  13  14
ENDBRANCH  12  13
ENDBRANCH   6  12
ENDBRANCH   3   6
ENDBRANCH   1   2
BRANCH   1  32
ATOM     32  C   UNL A   1      32.736  28.468  26.151  1.00  0.00     0.042 C 
BRANCH  32  33
ATOM     33  C   UNL A   1      33.082  28.959  27.549  1.00  0.00     0.118 C 
BRANCH  33  34
ATOM     34  N   UNL A   1      33.380  30.389  27.612  1.00  0.00    -0.352 N 
ATOM     35  C   UNL A   1      34.534  31.061  27.954  1.00  0.00     0.251 C 
ATOM     36  H   UNL A   1      32.627  30.973  27.368  1.00  0.00     0.163 HD
ATOM     37  O   UNL A   1      34.514  32.278  28.078  1.00  0.00    -0.269 OA
BRANCH  35  38
ATOM     38  C   UNL A   1      35.776  30.304  28.215  1.00  0.00     0.039 A 
ATOM     39  C   UNL A   1      35.974  29.688  29.446  1.00  0.00     0.014 A 
ATOM     40  C   UNL A   1      36.776  30.256  27.240  1.00  0.00     0.014 A 
ATOM     41  C   UNL A   1      37.247  29.273  29.801  1.00  0.00     0.010 A 
ATOM     42  C   UNL A   1      38.022  29.703  27.555  1.00  0.00     0.010 A 
ATOM     43  C   UNL A   1      38.294  29.278  28.863  1.00  0.00    -0.014 A 
BRANCH  43  44
ATOM     44  C   UNL A   1      39.651  28.853  29.299  1.00  0.00     0.031 A 
ATOM     45  C   UNL A   1      40.415  29.641  30.333  1.00  0.00     0.074 A 
ATOM     46  C   UNL A   1      40.149  27.687  28.838  1.00  0.00     0.049 A 
ATOM     47  N   UNL A   1      41.585  29.380  30.861  1.00  0.00    -0.248 NA
ATOM     48  C   UNL A   1      39.800  30.879  30.840  1.00  0.00     0.031 C 
ATOM     49  C   UNL A   1      39.486  26.822  27.857  1.00  0.00     0.029 A 
ATOM     50  N   UNL A   1      41.288  26.997  29.169  1.00  0.00    -0.354 N 
ATOM     51  C   UNL A   1      41.858  30.430  31.730  1.00  0.00     0.074 A 
ATOM     52  C   UNL A   1      40.743  31.346  31.648  1.00  0.00     0.031 C 
ATOM     53  C   UNL A   1      40.169  25.675  27.750  1.00  0.00     0.029 A 
ATOM     54  C   UNL A   1      41.372  25.761  28.572  1.00  0.00     0.049 A 
ATOM     55  H   UNL A   1      41.978  27.352  29.775  1.00  0.00     0.167 HD
ATOM     56  C   UNL A   1      42.936  30.610  32.529  1.00  0.00     0.031 A 
ATOM     57  C   UNL A   1      42.310  24.797  28.661  1.00  0.00     0.031 A 
ATOM     58  C   UNL A   1      44.027  29.677  32.628  1.00  0.00     0.049 A 
ATOM     59  C   UNL A   1      43.508  25.030  29.529  1.00  0.00     0.074 A 
ATOM     60  C   UNL A   1      45.163  29.769  33.413  1.00  0.00     0.029 A 
ATOM     61  N   UNL A   1      44.116  28.479  31.936  1.00  0.00    -0.354 N 
ATOM     62  N   UNL A   1      43.762  26.051  30.313  1.00  0.00    -0.248 NA
ATOM     63  C   UNL A   1      44.554  24.000  29.515  1.00  0.00     0.031 C 
ATOM     64  C   UNL A   1      45.963  28.653  33.156  1.00  0.00     0.029 A 
ATOM     65  C   UNL A   1      45.298  27.833  32.258  1.00  0.00     0.049 A 
ATOM     66  H   UNL A   1      43.439  28.137  31.308  1.00  0.00     0.167 HD
ATOM     67  C   UNL A   1      45.003  25.791  30.879  1.00  0.00     0.074 A 
ATOM     68  C   UNL A   1      45.435  24.504  30.372  1.00  0.00     0.031 C 
ATOM     69  C   UNL A   1      45.722  26.559  31.733  1.00  0.00     0.031 A 
BRANCH  56  70
ATOM     70  C   UNL A   1      43.012  31.868  33.356  1.00  0.00    -0.014 A 
ATOM     71  C   UNL A   1      42.508  31.867  34.670  1.00  0.00     0.010 A 
ATOM     72  C   UNL A   1      43.487  33.072  32.807  1.00  0.00     0.010 A 
ATOM     73  C   UNL A   1      42.459  33.049  35.415  1.00  0.00     0.020 A 
ATOM     74  C   UNL A   1      43.463  34.252  33.559  1.00  0.00     0.020 A 
ATOM     75  C   UNL A   1      42.931  34.236  34.851  1.00  0.00     0.054 A 
BRANCH  75  76
ATOM     76  S   UNL A   1      42.871  35.762  35.831  1.00  0.00     0.124 S 
ATOM     77  O   UNL A   1      43.831  36.613  35.137  1.00  0.00    -0.237 OA
ATOM     78  O   UNL A   1      41.471  36.165  35.717  1.00  0.00    -0.237 OA
ATOM     79  O   UNL A   1      43.272  35.324  37.167  1.00  0.00    -0.744 OA
ENDBRANCH  75  76
ENDBRANCH  56  70
BRANCH  57  80
ATOM     80  C   UNL A   1      42.119  23.538  27.893  1.00  0.00    -0.014 A 
ATOM     81  C   UNL A   1      41.290  22.518  28.399  1.00  0.00     0.010 A 
ATOM     82  C   UNL A   1      42.865  23.296  26.726  1.00  0.00     0.010 A 
ATOM     83  C   UNL A   1      41.272  21.256  27.804  1.00  0.00     0.020 A 
ATOM     84  C   UNL A   1      42.825  22.041  26.108  1.00  0.00     0.020 A 
ATOM     85  C   UNL A   1      42.058  21.019  26.674  1.00  0.00     0.054 A 
BRANCH  85  86
ATOM     86  S   UNL A   1      42.090  19.349  25.967  1.00  0.00     0.124 S 
ATOM     87  O   UNL A   1      42.653  18.572  27.069  1.00  0.00    -0.237 OA
ATOM     88  O   UNL A   1      40.682  19.096  25.674  1.00  0.00    -0.237 OA
ATOM     89  O   UNL A   1      42.952  19.491  24.797  1.00  0.00    -0.744 OA
ENDBRANCH  85  86
ENDBRANCH  57  80
BRANCH  69  90
ATOM     90  C   UNL A   1      47.067  26.053  32.172  1.00  0.00    -0.014 A 
ATOM     91  C   UNL A   1      48.177  26.187  31.319  1.00  0.00     0.010 A 
ATOM     92  C   UNL A   1      47.202  25.327  33.368  1.00  0.00     0.010 A 
ATOM     93  C   UNL A   1      49.393  25.576  31.637  1.00  0.00     0.020 A 
ATOM     94  C   UNL A   1      48.423  24.735  33.701  1.00  0.00     0.020 A 
ATOM     95  C   UNL A   1      49.502  24.842  32.821  1.00  0.00     0.054 A 
BRANCH  95  96
ATOM     96  S   UNL A   1      51.075  24.023  33.201  1.00  0.00     0.124 S 
ATOM     97  O   UNL A   1      51.335  23.274  31.975  1.00  0.00    -0.237 OA
ATOM     98  O   UNL A   1      51.971  25.148  33.456  1.00  0.00    -0.237 OA
ATOM     99  O   UNL A   1      50.761  23.210  34.374  1.00  0.00    -0.744 OA
ENDBRANCH  95  96
ENDBRANCH  69  90
ENDBRANCH  43  44
ENDBRANCH  35  38
ENDBRANCH  33  34
ENDBRANCH  32  33
ENDBRANCH   1  32
TORSDOF 19
ENDMDL
