MODEL 1
REMARK VINA RESULT:     -10.7      0.000      0.000
REMARK SMILES [NH3+]C[C@@H]1CC[C@H](C(=O)N[C@@H](Cc2ccccc2)C(=O)NCCCNC(=O)c2ccc(-c3c4nc(c(-c5ccc(S(=O)(=O)[O-])cc5)c5ccc([nH]5)c(-c5ccc(S(=O)(=O)[O-])cc5)c5nc(c(-c6ccc(S(=O)(=O)[O-])cc6)c6ccc3[nH]6)C=C5)C=C4)cc2)O1
REMARK SMILES IDX 21 1 20 2 18 3 19 4 10 6 9 7 7 8 8 9 6 11 3 12 4 13 87 14
REMARK SMILES IDX 5 15 2 16 1 17 11 21 12 22 13 23 17 24 14 25 16 26 15 27
REMARK SMILES IDX 22 28 23 29 24 30 25 31 26 33 27 34 28 35 86 36 29 37 85 38
REMARK SMILES IDX 30 39 31 40 32 41 79 42 33 43 84 44 78 45 80 46 34 47 83 48
REMARK SMILES IDX 77 49 76 50 35 52 65 53 46 54 64 55 47 56 50 57 63 58 81 59
REMARK SMILES IDX 48 60 49 61 62 63 82 64 51 65 36 66 37 67 45 68 38 69 44 70
REMARK SMILES IDX 39 71 40 72 41 73 42 74 43 75 66 76 67 77 75 78 68 79 74 80
REMARK SMILES IDX 69 81 70 82 71 83 72 84 73 85 52 86 53 87 61 88 54 89 60 90
REMARK SMILES IDX 55 91 56 92 57 93 58 94 59 95
REMARK H PARENT 20 5 9 10 1 18 1 19 1 20 24 32 80 51 50 62
REMARK Flexibility Score: inf
ROOT
ATOM      1  C   UNL A   1      33.147  26.696  26.071  1.00  0.00     0.117 C 
ENDROOT
BRANCH   1   2
ATOM      2  N   UNL A   1      31.854  26.174  26.464  1.00  0.00    -0.354 N 
ATOM      3  C   UNL A   1      31.274  24.986  26.155  1.00  0.00     0.242 C 
ATOM      4  O   UNL A   1      30.453  24.549  26.971  1.00  0.00    -0.273 OA
ATOM      5  H   UNL A   1      31.319  26.767  27.040  1.00  0.00     0.163 HD
BRANCH   3   6
ATOM      6  C   UNL A   1      31.696  24.122  24.952  1.00  0.00     0.175 C 
BRANCH   6   7
ATOM      7  N   UNL A   1      32.050  22.728  25.224  1.00  0.00    -0.342 N 
ATOM      8  C   UNL A   1      33.277  22.134  25.225  1.00  0.00     0.249 C 
ATOM      9  O   UNL A   1      33.332  20.939  25.534  1.00  0.00    -0.272 OA
ATOM     10  H   UNL A   1      31.294  22.135  25.436  1.00  0.00     0.164 HD
BRANCH   8  11
ATOM     11  C   UNL A   1      34.543  22.892  24.791  1.00  0.00     0.207 C 
ATOM     12  C   UNL A   1      36.851  22.669  24.864  1.00  0.00     0.174 C 
ATOM     13  C   UNL A   1      36.497  23.537  26.059  1.00  0.00     0.041 C 
ATOM     14  O   UNL A   1      35.629  22.020  24.477  1.00  0.00    -0.359 OA
ATOM     15  C   UNL A   1      35.044  23.898  25.824  1.00  0.00     0.045 C 
BRANCH  12  16
ATOM     16  C   UNL A   1      37.930  21.615  25.159  1.00  0.00     0.291 C 
BRANCH  16  17
ATOM     17  N   UNL A   1      38.753  21.974  26.321  1.00  0.00    -0.355 N 
ATOM     18  H   UNL A   1      38.251  21.741  27.178  1.00  0.00     0.344 HD
ATOM     19  H   UNL A   1      38.948  22.975  26.303  1.00  0.00     0.344 HD
ATOM     20  H   UNL A   1      39.631  21.455  26.289  1.00  0.00     0.344 HD
ENDBRANCH  16  17
ENDBRANCH  12  16
ENDBRANCH   8  11
ENDBRANCH   6   7
BRANCH   6  21
ATOM     21  C   UNL A   1      30.794  24.287  23.717  1.00  0.00     0.070 C 
BRANCH  21  22
ATOM     22  C   UNL A   1      30.368  25.693  23.385  1.00  0.00    -0.045 A 
ATOM     23  C   UNL A   1      29.114  26.177  23.781  1.00  0.00     0.004 A 
ATOM     24  C   UNL A   1      31.253  26.552  22.715  1.00  0.00     0.004 A 
ATOM     25  C   UNL A   1      28.770  27.510  23.548  1.00  0.00     0.000 A 
ATOM     26  C   UNL A   1      30.905  27.883  22.483  1.00  0.00     0.000 A 
ATOM     27  C   UNL A   1      29.669  28.363  22.908  1.00  0.00     0.000 A 
ENDBRANCH  21  22
ENDBRANCH   6  21
ENDBRANCH   3   6
ENDBRANCH   1   2
BRANCH   1  28
ATOM     28  C   UNL A   1      33.244  28.202  26.168  1.00  0.00     0.042 C 
BRANCH  28  29
ATOM     29  C   UNL A   1      33.172  28.711  27.599  1.00  0.00     0.118 C 
BRANCH  29  30
ATOM     30  N   UNL A   1      33.349  30.160  27.708  1.00  0.00    -0.352 N 
ATOM     31  C   UNL A   1      34.450  30.888  28.098  1.00  0.00     0.251 C 
ATOM     32  H   UNL A   1      32.560  30.696  27.466  1.00  0.00     0.163 HD
ATOM     33  O   UNL A   1      34.359  32.095  28.301  1.00  0.00    -0.269 OA
BRANCH  31  34
ATOM     34  C   UNL A   1      35.731  30.186  28.303  1.00  0.00     0.039 A 
ATOM     35  C   UNL A   1      36.671  30.143  27.272  1.00  0.00     0.014 A 
ATOM     36  C   UNL A   1      36.030  29.655  29.557  1.00  0.00     0.014 A 
ATOM     37  C   UNL A   1      37.957  29.671  27.541  1.00  0.00     0.010 A 
ATOM     38  C   UNL A   1      37.340  29.318  29.855  1.00  0.00     0.010 A 
ATOM     39  C   UNL A   1      38.319  29.317  28.851  1.00  0.00    -0.014 A 
BRANCH  39  40
ATOM     40  C   UNL A   1      39.707  28.935  29.217  1.00  0.00     0.031 A 
ATOM     41  C   UNL A   1      40.599  29.942  29.894  1.00  0.00     0.074 A 
ATOM     42  C   UNL A   1      40.198  27.735  28.844  1.00  0.00     0.049 A 
ATOM     43  N   UNL A   1      41.877  29.871  30.155  1.00  0.00    -0.248 NA
ATOM     44  C   UNL A   1      39.979  31.222  30.283  1.00  0.00     0.031 C 
ATOM     45  C   UNL A   1      39.457  26.694  28.125  1.00  0.00     0.029 A 
ATOM     46  N   UNL A   1      41.448  27.191  29.009  1.00  0.00    -0.354 N 
ATOM     47  C   UNL A   1      42.220  31.105  30.696  1.00  0.00     0.074 A 
ATOM     48  C   UNL A   1      41.031  31.928  30.665  1.00  0.00     0.031 C 
ATOM     49  C   UNL A   1      40.252  25.625  27.951  1.00  0.00     0.029 A 
ATOM     50  C   UNL A   1      41.571  25.921  28.498  1.00  0.00     0.049 A 
ATOM     51  H   UNL A   1      42.187  27.667  29.452  1.00  0.00     0.167 HD
ATOM     52  C   UNL A   1      43.407  31.512  31.202  1.00  0.00     0.031 A 
ATOM     53  C   UNL A   1      42.629  25.088  28.470  1.00  0.00     0.031 A 
ATOM     54  C   UNL A   1      44.570  30.672  31.276  1.00  0.00     0.049 A 
ATOM     55  C   UNL A   1      43.930  25.544  29.073  1.00  0.00     0.074 A 
ATOM     56  C   UNL A   1      45.803  30.957  31.836  1.00  0.00     0.029 A 
ATOM     57  N   UNL A   1      44.638  29.376  30.789  1.00  0.00    -0.354 N 
ATOM     58  N   UNL A   1      44.218  26.697  29.629  1.00  0.00    -0.248 NA
ATOM     59  C   UNL A   1      45.043  24.586  29.054  1.00  0.00     0.031 C 
ATOM     60  C   UNL A   1      46.628  29.842  31.657  1.00  0.00     0.029 A 
ATOM     61  C   UNL A   1      45.894  28.848  31.027  1.00  0.00     0.049 A 
ATOM     62  H   UNL A   1      43.902  28.901  30.340  1.00  0.00     0.167 HD
ATOM     63  C   UNL A   1      45.540  26.593  30.050  1.00  0.00     0.074 A 
ATOM     64  C   UNL A   1      45.987  25.261  29.696  1.00  0.00     0.031 C 
ATOM     65  C   UNL A   1      46.313  27.516  30.672  1.00  0.00     0.031 A 
BRANCH  52  66
ATOM     66  C   UNL A   1      43.491  32.920  31.727  1.00  0.00    -0.014 A 
ATOM     67  C   UNL A   1      43.500  34.020  30.850  1.00  0.00     0.010 A 
ATOM     68  C   UNL A   1      43.551  33.151  33.113  1.00  0.00     0.010 A 
ATOM     69  C   UNL A   1      43.619  35.321  31.346  1.00  0.00     0.020 A 
ATOM     70  C   UNL A   1      43.638  34.453  33.615  1.00  0.00     0.020 A 
ATOM     71  C   UNL A   1      43.693  35.528  32.725  1.00  0.00     0.054 A 
BRANCH  71  72
ATOM     72  S   UNL A   1      43.832  37.228  33.342  1.00  0.00     0.124 S 
ATOM     73  O   UNL A   1      42.500  37.455  33.898  1.00  0.00    -0.237 OA
ATOM     74  O   UNL A   1      44.911  37.128  34.321  1.00  0.00    -0.237 OA
ATOM     75  O   UNL A   1      44.148  38.006  32.147  1.00  0.00    -0.744 OA
ENDBRANCH  71  72
ENDBRANCH  52  66
BRANCH  53  76
ATOM     76  C   UNL A   1      42.494  23.725  27.885  1.00  0.00    -0.014 A 
ATOM     77  C   UNL A   1      42.288  22.614  28.723  1.00  0.00     0.010 A 
ATOM     78  C   UNL A   1      42.550  23.529  26.493  1.00  0.00     0.010 A 
ATOM     79  C   UNL A   1      42.160  21.331  28.182  1.00  0.00     0.020 A 
ATOM     80  C   UNL A   1      42.396  22.251  25.947  1.00  0.00     0.020 A 
ATOM     81  C   UNL A   1      42.212  21.158  26.797  1.00  0.00     0.054 A 
BRANCH  81  82
ATOM     82  S   UNL A   1      41.988  19.490  26.116  1.00  0.00     0.124 S 
ATOM     83  O   UNL A   1      42.430  18.648  27.223  1.00  0.00    -0.237 OA
ATOM     84  O   UNL A   1      40.556  19.457  25.827  1.00  0.00    -0.237 OA
ATOM     85  O   UNL A   1      42.852  19.484  24.938  1.00  0.00    -0.744 OA
ENDBRANCH  81  82
ENDBRANCH  53  76
BRANCH  65  86
ATOM     86  C   UNL A   1      47.710  27.107  31.046  1.00  0.00    -0.014 A 
ATOM     87  C   UNL A   1      47.977  26.470  32.271  1.00  0.00     0.010 A 
ATOM     88  C   UNL A   1      48.757  27.299  30.127  1.00  0.00     0.010 A 
ATOM     89  C   UNL A   1      49.275  26.055  32.580  1.00  0.00     0.020 A 
ATOM     90  C   UNL A   1      50.050  26.863  30.421  1.00  0.00     0.020 A 
ATOM     91  C   UNL A   1      50.302  26.254  31.652  1.00  0.00     0.054 A 
BRANCH  91  92
ATOM     92  S   UNL A   1      51.967  25.656  32.052  1.00  0.00     0.124 S 
ATOM     93  O   UNL A   1      52.727  26.066  30.875  1.00  0.00    -0.237 OA
ATOM     94  O   UNL A   1      52.279  26.375  33.285  1.00  0.00    -0.237 OA
ATOM     95  O   UNL A   1      51.788  24.214  32.208  1.00  0.00    -0.744 OA
ENDBRANCH  91  92
ENDBRANCH  65  86
ENDBRANCH  39  40
ENDBRANCH  31  34
ENDBRANCH  29  30
ENDBRANCH  28  29
ENDBRANCH   1  28
TORSDOF 19
ENDMDL
MODEL 2
REMARK VINA RESULT:     -10.3      3.227      4.351
REMARK SMILES [NH3+]C[C@@H]1CC[C@H](C(=O)N[C@@H](Cc2ccccc2)C(=O)NCCCNC(=O)c2ccc(-c3c4nc(c(-c5ccc(S(=O)(=O)[O-])cc5)c5ccc([nH]5)c(-c5ccc(S(=O)(=O)[O-])cc5)c5nc(c(-c6ccc(S(=O)(=O)[O-])cc6)c6ccc3[nH]6)C=C5)C=C4)cc2)O1
REMARK SMILES IDX 21 1 20 2 18 3 19 4 10 6 9 7 7 8 8 9 6 11 3 12 4 13 87 14
REMARK SMILES IDX 5 15 2 16 1 17 11 21 12 22 13 23 17 24 14 25 16 26 15 27
REMARK SMILES IDX 22 28 23 29 24 30 25 31 26 33 27 34 28 35 86 36 29 37 85 38
REMARK SMILES IDX 30 39 31 40 32 41 79 42 33 43 84 44 78 45 80 46 34 47 83 48
REMARK SMILES IDX 77 49 76 50 35 52 65 53 46 54 64 55 47 56 50 57 63 58 81 59
REMARK SMILES IDX 48 60 49 61 62 63 82 64 51 65 36 66 37 67 45 68 38 69 44 70
REMARK SMILES IDX 39 71 40 72 41 73 42 74 43 75 66 76 67 77 75 78 68 79 74 80
REMARK SMILES IDX 69 81 70 82 71 83 72 84 73 85 52 86 53 87 61 88 54 89 60 90
REMARK SMILES IDX 55 91 56 92 57 93 58 94 59 95
REMARK H PARENT 20 5 9 10 1 18 1 19 1 20 24 32 80 51 50 62
REMARK Flexibility Score: inf
ROOT
ATOM      1  C   UNL A   1      33.502  29.957  26.549  1.00  0.00     0.117 C 
ENDROOT
BRANCH   1   2
ATOM      2  N   UNL A   1      32.381  29.044  26.638  1.00  0.00    -0.354 N 
ATOM      3  C   UNL A   1      31.597  28.543  25.648  1.00  0.00     0.242 C 
ATOM      4  O   UNL A   1      31.074  27.443  25.868  1.00  0.00    -0.273 OA
ATOM      5  H   UNL A   1      32.156  28.741  27.547  1.00  0.00     0.163 HD
BRANCH   3   6
ATOM      6  C   UNL A   1      31.463  29.194  24.259  1.00  0.00     0.175 C 
BRANCH   6   7
ATOM      7  N   UNL A   1      32.618  29.101  23.366  1.00  0.00    -0.342 N 
ATOM      8  C   UNL A   1      33.044  28.047  22.612  1.00  0.00     0.249 C 
ATOM      9  O   UNL A   1      34.032  28.222  21.893  1.00  0.00    -0.272 OA
ATOM     10  H   UNL A   1      33.168  29.915  23.301  1.00  0.00     0.164 HD
BRANCH   8  11
ATOM     11  C   UNL A   1      32.370  26.667  22.700  1.00  0.00     0.207 C 
ATOM     12  C   UNL A   1      32.921  24.453  23.117  1.00  0.00     0.174 C 
ATOM     13  C   UNL A   1      32.916  24.583  21.603  1.00  0.00     0.041 C 
ATOM     14  O   UNL A   1      33.018  25.793  23.624  1.00  0.00    -0.359 OA
ATOM     15  C   UNL A   1      32.281  25.938  21.362  1.00  0.00     0.045 C 
BRANCH  12  16
ATOM     16  C   UNL A   1      34.081  23.604  23.663  1.00  0.00     0.291 C 
BRANCH  16  17
ATOM     17  N   UNL A   1      33.703  22.195  23.837  1.00  0.00    -0.355 N 
ATOM     18  H   UNL A   1      32.899  22.134  24.461  1.00  0.00     0.344 HD
ATOM     19  H   UNL A   1      34.486  21.681  24.239  1.00  0.00     0.344 HD
ATOM     20  H   UNL A   1      33.460  21.794  22.930  1.00  0.00     0.344 HD
ENDBRANCH  16  17
ENDBRANCH  12  16
ENDBRANCH   8  11
ENDBRANCH   6   7
BRANCH   6  21
ATOM     21  C   UNL A   1      30.128  28.896  23.555  1.00  0.00     0.070 C 
BRANCH  21  22
ATOM     22  C   UNL A   1      29.394  30.082  22.987  1.00  0.00    -0.045 A 
ATOM     23  C   UNL A   1      29.139  31.215  23.772  1.00  0.00     0.004 A 
ATOM     24  C   UNL A   1      29.001  30.081  21.639  1.00  0.00     0.004 A 
ATOM     25  C   UNL A   1      28.541  32.341  23.205  1.00  0.00     0.000 A 
ATOM     26  C   UNL A   1      28.401  31.208  21.077  1.00  0.00     0.000 A 
ATOM     27  C   UNL A   1      28.182  32.341  21.857  1.00  0.00     0.000 A 
ENDBRANCH  21  22
ENDBRANCH   6  21
ENDBRANCH   3   6
ENDBRANCH   1   2
BRANCH   1  28
ATOM     28  C   UNL A   1      34.832  29.311  26.864  1.00  0.00     0.042 C 
BRANCH  28  29
ATOM     29  C   UNL A   1      35.754  30.213  27.670  1.00  0.00     0.118 C 
BRANCH  29  30
ATOM     30  N   UNL A   1      35.516  30.147  29.112  1.00  0.00    -0.352 N 
ATOM     31  C   UNL A   1      36.393  29.893  30.142  1.00  0.00     0.251 C 
ATOM     32  H   UNL A   1      34.585  30.309  29.389  1.00  0.00     0.163 HD
ATOM     33  O   UNL A   1      35.979  29.701  31.280  1.00  0.00    -0.269 OA
BRANCH  31  34
ATOM     34  C   UNL A   1      37.836  29.821  29.844  1.00  0.00     0.039 A 
ATOM     35  C   UNL A   1      38.753  29.680  30.887  1.00  0.00     0.014 A 
ATOM     36  C   UNL A   1      38.262  29.794  28.516  1.00  0.00     0.014 A 
ATOM     37  C   UNL A   1      40.087  29.394  30.587  1.00  0.00     0.010 A 
ATOM     38  C   UNL A   1      39.551  29.376  28.227  1.00  0.00     0.010 A 
ATOM     39  C   UNL A   1      40.480  29.174  29.257  1.00  0.00    -0.014 A 
BRANCH  39  40
ATOM     40  C   UNL A   1      41.854  28.739  28.896  1.00  0.00     0.031 A 
ATOM     41  C   UNL A   1      42.970  29.750  28.880  1.00  0.00     0.074 A 
ATOM     42  C   UNL A   1      42.075  27.476  28.478  1.00  0.00     0.049 A 
ATOM     43  N   UNL A   1      44.197  29.620  28.447  1.00  0.00    -0.248 NA
ATOM     44  C   UNL A   1      42.649  31.104  29.367  1.00  0.00     0.031 C 
ATOM     45  C   UNL A   1      41.064  26.417  28.385  1.00  0.00     0.029 A 
ATOM     46  N   UNL A   1      43.225  26.869  28.039  1.00  0.00    -0.354 N 
ATOM     47  C   UNL A   1      44.774  30.878  28.571  1.00  0.00     0.074 A 
ATOM     48  C   UNL A   1      43.747  31.773  29.057  1.00  0.00     0.031 C 
ATOM     49  C   UNL A   1      41.648  25.284  27.961  1.00  0.00     0.029 A 
ATOM     50  C   UNL A   1      43.059  25.546  27.703  1.00  0.00     0.049 A 
ATOM     51  H   UNL A   1      44.088  27.337  27.970  1.00  0.00     0.167 HD
ATOM     52  C   UNL A   1      46.052  31.255  28.332  1.00  0.00     0.031 A 
ATOM     53  C   UNL A   1      43.945  24.644  27.236  1.00  0.00     0.031 A 
ATOM     54  C   UNL A   1      47.081  30.350  27.899  1.00  0.00     0.049 A 
ATOM     55  C   UNL A   1      45.370  25.073  27.015  1.00  0.00     0.074 A 
ATOM     56  C   UNL A   1      48.425  30.608  27.698  1.00  0.00     0.029 A 
ATOM     57  N   UNL A   1      46.881  29.008  27.616  1.00  0.00    -0.354 N 
ATOM     58  N   UNL A   1      45.909  26.256  27.190  1.00  0.00    -0.248 NA
ATOM     59  C   UNL A   1      46.307  24.044  26.543  1.00  0.00     0.031 C 
ATOM     60  C   UNL A   1      49.032  29.426  27.260  1.00  0.00     0.029 A 
ATOM     61  C   UNL A   1      48.075  28.424  27.233  1.00  0.00     0.049 A 
ATOM     62  H   UNL A   1      46.017  28.539  27.677  1.00  0.00     0.167 HD
ATOM     63  C   UNL A   1      47.256  26.107  26.875  1.00  0.00     0.074 A 
ATOM     64  C   UNL A   1      47.449  24.717  26.512  1.00  0.00     0.031 C 
ATOM     65  C   UNL A   1      48.243  27.036  26.884  1.00  0.00     0.031 A 
BRANCH  52  66
ATOM     66  C   UNL A   1      46.402  32.702  28.555  1.00  0.00    -0.014 A 
ATOM     67  C   UNL A   1      46.266  33.647  27.521  1.00  0.00     0.010 A 
ATOM     68  C   UNL A   1      46.861  33.128  29.814  1.00  0.00     0.010 A 
ATOM     69  C   UNL A   1      46.632  34.979  27.726  1.00  0.00     0.020 A 
ATOM     70  C   UNL A   1      47.198  34.467  30.034  1.00  0.00     0.020 A 
ATOM     71  C   UNL A   1      47.101  35.379  28.980  1.00  0.00     0.054 A 
BRANCH  71  72
ATOM     72  S   UNL A   1      47.554  37.119  29.223  1.00  0.00     0.124 S 
ATOM     73  O   UNL A   1      48.563  37.314  28.184  1.00  0.00    -0.237 OA
ATOM     74  O   UNL A   1      46.288  37.814  29.006  1.00  0.00    -0.237 OA
ATOM     75  O   UNL A   1      48.056  37.158  30.594  1.00  0.00    -0.744 OA
ENDBRANCH  71  72
ENDBRANCH  52  66
BRANCH  53  76
ATOM     76  C   UNL A   1      43.520  23.240  26.984  1.00  0.00    -0.014 A 
ATOM     77  C   UNL A   1      43.675  22.673  25.707  1.00  0.00     0.010 A 
ATOM     78  C   UNL A   1      42.976  22.455  28.018  1.00  0.00     0.010 A 
ATOM     79  C   UNL A   1      43.279  21.354  25.461  1.00  0.00     0.020 A 
ATOM     80  C   UNL A   1      42.603  21.128  27.783  1.00  0.00     0.020 A 
ATOM     81  C   UNL A   1      42.747  20.590  26.502  1.00  0.00     0.054 A 
BRANCH  81  82
ATOM     82  S   UNL A   1      42.290  18.864  26.173  1.00  0.00     0.124 S 
ATOM     83  O   UNL A   1      40.880  18.985  25.819  1.00  0.00    -0.237 OA
ATOM     84  O   UNL A   1      43.189  18.502  25.079  1.00  0.00    -0.237 OA
ATOM     85  O   UNL A   1      42.564  18.191  27.441  1.00  0.00    -0.744 OA
ENDBRANCH  81  82
ENDBRANCH  53  76
BRANCH  65  86
ATOM     86  C   UNL A   1      49.628  26.575  26.529  1.00  0.00    -0.014 A 
ATOM     87  C   UNL A   1      50.526  26.141  27.520  1.00  0.00     0.010 A 
ATOM     88  C   UNL A   1      50.009  26.507  25.176  1.00  0.00     0.010 A 
ATOM     89  C   UNL A   1      51.793  25.671  27.164  1.00  0.00     0.020 A 
ATOM     90  C   UNL A   1      51.264  26.015  24.815  1.00  0.00     0.020 A 
ATOM     91  C   UNL A   1      52.153  25.611  25.814  1.00  0.00     0.054 A 
BRANCH  91  92
ATOM     92  S   UNL A   1      53.782  24.945  25.375  1.00  0.00     0.124 S 
ATOM     93  O   UNL A   1      53.457  23.569  25.008  1.00  0.00    -0.237 OA
ATOM     94  O   UNL A   1      54.196  25.809  24.272  1.00  0.00    -0.237 OA
ATOM     95  O   UNL A   1      54.559  25.095  26.602  1.00  0.00    -0.744 OA
ENDBRANCH  91  92
ENDBRANCH  65  86
ENDBRANCH  39  40
ENDBRANCH  31  34
ENDBRANCH  29  30
ENDBRANCH  28  29
ENDBRANCH   1  28
TORSDOF 19
ENDMDL
MODEL 3
REMARK VINA RESULT:     -10.3      0.658      8.191
REMARK SMILES [NH3+]C[C@@H]1CC[C@H](C(=O)N[C@@H](Cc2ccccc2)C(=O)NCCCNC(=O)c2ccc(-c3c4nc(c(-c5ccc(S(=O)(=O)[O-])cc5)c5ccc([nH]5)c(-c5ccc(S(=O)(=O)[O-])cc5)c5nc(c(-c6ccc(S(=O)(=O)[O-])cc6)c6ccc3[nH]6)C=C5)C=C4)cc2)O1
REMARK SMILES IDX 21 1 20 2 18 3 19 4 10 6 9 7 7 8 8 9 6 11 3 12 4 13 87 14
REMARK SMILES IDX 5 15 2 16 1 17 11 21 12 22 13 23 17 24 14 25 16 26 15 27
REMARK SMILES IDX 22 28 23 29 24 30 25 31 26 33 27 34 28 35 86 36 29 37 85 38
REMARK SMILES IDX 30 39 31 40 32 41 79 42 33 43 84 44 78 45 80 46 34 47 83 48
REMARK SMILES IDX 77 49 76 50 35 52 65 53 46 54 64 55 47 56 50 57 63 58 81 59
REMARK SMILES IDX 48 60 49 61 62 63 82 64 51 65 36 66 37 67 45 68 38 69 44 70
REMARK SMILES IDX 39 71 40 72 41 73 42 74 43 75 66 76 67 77 75 78 68 79 74 80
REMARK SMILES IDX 69 81 70 82 71 83 72 84 73 85 52 86 53 87 61 88 54 89 60 90
REMARK SMILES IDX 55 91 56 92 57 93 58 94 59 95
REMARK H PARENT 20 5 9 10 1 18 1 19 1 20 24 32 80 51 50 62
REMARK Flexibility Score: inf
ROOT
ATOM      1  C   UNL A   1      33.187  26.849  25.500  1.00  0.00     0.117 C 
ENDROOT
BRANCH   1   2
ATOM      2  N   UNL A   1      31.989  26.339  26.133  1.00  0.00    -0.354 N 
ATOM      3  C   UNL A   1      31.367  25.143  25.965  1.00  0.00     0.242 C 
ATOM      4  O   UNL A   1      30.709  24.728  26.927  1.00  0.00    -0.273 OA
ATOM      5  H   UNL A   1      31.564  26.947  26.781  1.00  0.00     0.163 HD
BRANCH   3   6
ATOM      6  C   UNL A   1      31.567  24.248  24.728  1.00  0.00     0.175 C 
BRANCH   6   7
ATOM      7  N   UNL A   1      31.900  22.844  24.969  1.00  0.00    -0.342 N 
ATOM      8  C   UNL A   1      33.123  22.241  25.011  1.00  0.00     0.249 C 
ATOM      9  O   UNL A   1      33.156  21.037  25.280  1.00  0.00    -0.272 OA
ATOM     10  H   UNL A   1      31.131  22.248  25.121  1.00  0.00     0.164 HD
BRANCH   8  11
ATOM     11  C   UNL A   1      34.412  23.006  24.668  1.00  0.00     0.207 C 
ATOM     12  C   UNL A   1      36.712  22.714  24.738  1.00  0.00     0.174 C 
ATOM     13  C   UNL A   1      36.368  23.464  26.013  1.00  0.00     0.041 C 
ATOM     14  O   UNL A   1      35.479  22.142  24.275  1.00  0.00    -0.359 OA
ATOM     15  C   UNL A   1      34.927  23.887  25.803  1.00  0.00     0.045 C 
BRANCH  12  16
ATOM     16  C   UNL A   1      37.761  21.607  24.933  1.00  0.00     0.291 C 
BRANCH  16  17
ATOM     17  N   UNL A   1      38.946  22.086  25.655  1.00  0.00    -0.355 N 
ATOM     18  H   UNL A   1      39.213  21.402  26.361  1.00  0.00     0.344 HD
ATOM     19  H   UNL A   1      38.732  22.976  26.106  1.00  0.00     0.344 HD
ATOM     20  H   UNL A   1      39.716  22.215  24.997  1.00  0.00     0.344 HD
ENDBRANCH  16  17
ENDBRANCH  12  16
ENDBRANCH   8  11
ENDBRANCH   6   7
BRANCH   6  21
ATOM     21  C   UNL A   1      30.497  24.439  23.639  1.00  0.00     0.070 C 
BRANCH  21  22
ATOM     22  C   UNL A   1      30.118  25.860  23.318  1.00  0.00    -0.045 A 
ATOM     23  C   UNL A   1      28.892  26.391  23.742  1.00  0.00     0.004 A 
ATOM     24  C   UNL A   1      31.020  26.686  22.629  1.00  0.00     0.004 A 
ATOM     25  C   UNL A   1      28.595  27.736  23.517  1.00  0.00     0.000 A 
ATOM     26  C   UNL A   1      30.718  28.030  22.404  1.00  0.00     0.000 A 
ATOM     27  C   UNL A   1      29.511  28.556  22.858  1.00  0.00     0.000 A 
ENDBRANCH  21  22
ENDBRANCH   6  21
ENDBRANCH   3   6
ENDBRANCH   1   2
BRANCH   1  28
ATOM     28  C   UNL A   1      33.506  28.279  25.876  1.00  0.00     0.042 C 
BRANCH  28  29
ATOM     29  C   UNL A   1      33.694  28.471  27.372  1.00  0.00     0.118 C 
BRANCH  29  30
ATOM     30  N   UNL A   1      33.687  29.876  27.782  1.00  0.00    -0.352 N 
ATOM     31  C   UNL A   1      34.687  30.637  28.344  1.00  0.00     0.251 C 
ATOM     32  H   UNL A   1      32.837  30.350  27.632  1.00  0.00     0.163 HD
ATOM     33  O   UNL A   1      34.444  31.755  28.788  1.00  0.00    -0.269 OA
BRANCH  31  34
ATOM     34  C   UNL A   1      36.045  30.069  28.437  1.00  0.00     0.039 A 
ATOM     35  C   UNL A   1      36.901  30.136  27.337  1.00  0.00     0.014 A 
ATOM     36  C   UNL A   1      36.494  29.558  29.655  1.00  0.00     0.014 A 
ATOM     37  C   UNL A   1      38.247  29.797  27.499  1.00  0.00     0.010 A 
ATOM     38  C   UNL A   1      37.851  29.356  29.845  1.00  0.00     0.010 A 
ATOM     39  C   UNL A   1      38.744  29.468  28.770  1.00  0.00    -0.014 A 
BRANCH  39  40
ATOM     40  C   UNL A   1      40.188  29.228  29.022  1.00  0.00     0.031 A 
ATOM     41  C   UNL A   1      40.786  27.889  28.679  1.00  0.00     0.074 A 
ATOM     42  C   UNL A   1      40.928  30.161  29.654  1.00  0.00     0.049 A 
ATOM     43  N   UNL A   1      41.974  27.419  28.957  1.00  0.00    -0.248 NA
ATOM     44  C   UNL A   1      39.914  26.932  27.974  1.00  0.00     0.031 C 
ATOM     45  C   UNL A   1      40.450  31.475  30.097  1.00  0.00     0.029 A 
ATOM     46  N   UNL A   1      42.243  30.143  30.046  1.00  0.00    -0.354 N 
ATOM     47  C   UNL A   1      41.973  26.105  28.502  1.00  0.00     0.074 A 
ATOM     48  C   UNL A   1      40.650  25.832  27.989  1.00  0.00     0.031 C 
ATOM     49  C   UNL A   1      41.468  32.149  30.660  1.00  0.00     0.029 A 
ATOM     50  C   UNL A   1      42.654  31.301  30.664  1.00  0.00     0.049 A 
ATOM     51  H   UNL A   1      42.838  29.372  29.899  1.00  0.00     0.167 HD
ATOM     52  C   UNL A   1      42.990  25.212  28.482  1.00  0.00     0.031 A 
ATOM     53  C   UNL A   1      43.851  31.641  31.179  1.00  0.00     0.031 A 
ATOM     54  C   UNL A   1      44.318  25.507  28.946  1.00  0.00     0.049 A 
ATOM     55  C   UNL A   1      44.980  30.648  31.111  1.00  0.00     0.074 A 
ATOM     56  C   UNL A   1      45.442  24.702  28.905  1.00  0.00     0.029 A 
ATOM     57  N   UNL A   1      44.702  26.708  29.522  1.00  0.00    -0.354 N 
ATOM     58  N   UNL A   1      44.974  29.429  30.627  1.00  0.00    -0.248 NA
ATOM     59  C   UNL A   1      46.277  31.079  31.651  1.00  0.00     0.031 C 
ATOM     60  C   UNL A   1      46.500  25.406  29.488  1.00  0.00     0.029 A 
ATOM     61  C   UNL A   1      46.045  26.666  29.848  1.00  0.00     0.049 A 
ATOM     62  H   UNL A   1      44.107  27.478  29.675  1.00  0.00     0.167 HD
ATOM     63  C   UNL A   1      46.273  28.957  30.779  1.00  0.00     0.074 A 
ATOM     64  C   UNL A   1      47.039  30.026  31.388  1.00  0.00     0.031 C 
ATOM     65  C   UNL A   1      46.786  27.747  30.446  1.00  0.00     0.031 A 
BRANCH  52  66
ATOM     66  C   UNL A   1      42.701  23.844  27.924  1.00  0.00    -0.014 A 
ATOM     67  C   UNL A   1      42.217  22.813  28.750  1.00  0.00     0.010 A 
ATOM     68  C   UNL A   1      42.903  23.587  26.557  1.00  0.00     0.010 A 
ATOM     69  C   UNL A   1      41.991  21.536  28.230  1.00  0.00     0.020 A 
ATOM     70  C   UNL A   1      42.646  22.319  26.025  1.00  0.00     0.020 A 
ATOM     71  C   UNL A   1      42.212  21.297  26.872  1.00  0.00     0.054 A 
BRANCH  71  72
ATOM     72  S   UNL A   1      41.895  19.634  26.221  1.00  0.00     0.124 S 
ATOM     73  O   UNL A   1      42.388  18.788  27.305  1.00  0.00    -0.237 OA
ATOM     74  O   UNL A   1      40.447  19.633  26.034  1.00  0.00    -0.237 OA
ATOM     75  O   UNL A   1      42.679  19.588  24.989  1.00  0.00    -0.744 OA
ENDBRANCH  71  72
ENDBRANCH  52  66
BRANCH  53  76
ATOM     76  C   UNL A   1      44.056  32.993  31.767  1.00  0.00    -0.014 A 
ATOM     77  C   UNL A   1      43.840  33.206  33.141  1.00  0.00     0.010 A 
ATOM     78  C   UNL A   1      44.483  34.070  30.968  1.00  0.00     0.010 A 
ATOM     79  C   UNL A   1      44.030  34.473  33.701  1.00  0.00     0.020 A 
ATOM     80  C   UNL A   1      44.699  35.332  31.530  1.00  0.00     0.020 A 
ATOM     81  C   UNL A   1      44.460  35.528  32.893  1.00  0.00     0.054 A 
BRANCH  81  82
ATOM     82  S   UNL A   1      44.752  37.150  33.653  1.00  0.00     0.124 S 
ATOM     83  O   UNL A   1      44.935  36.797  35.058  1.00  0.00    -0.237 OA
ATOM     84  O   UNL A   1      45.949  37.615  32.956  1.00  0.00    -0.237 OA
ATOM     85  O   UNL A   1      43.533  37.895  33.346  1.00  0.00    -0.744 OA
ENDBRANCH  81  82
ENDBRANCH  53  76
BRANCH  65  86
ATOM     86  C   UNL A   1      48.252  27.527  30.696  1.00  0.00    -0.014 A 
ATOM     87  C   UNL A   1      49.213  27.874  29.731  1.00  0.00     0.010 A 
ATOM     88  C   UNL A   1      48.675  27.031  31.943  1.00  0.00     0.010 A 
ATOM     89  C   UNL A   1      50.574  27.706  30.001  1.00  0.00     0.020 A 
ATOM     90  C   UNL A   1      50.034  26.886  32.226  1.00  0.00     0.020 A 
ATOM     91  C   UNL A   1      50.975  27.213  31.247  1.00  0.00     0.054 A 
BRANCH  91  92
ATOM     92  S   UNL A   1      52.748  27.056  31.593  1.00  0.00     0.124 S 
ATOM     93  O   UNL A   1      52.801  25.802  32.339  1.00  0.00    -0.237 OA
ATOM     94  O   UNL A   1      53.335  27.018  30.256  1.00  0.00    -0.237 OA
ATOM     95  O   UNL A   1      53.056  28.256  32.368  1.00  0.00    -0.744 OA
ENDBRANCH  91  92
ENDBRANCH  65  86
ENDBRANCH  39  40
ENDBRANCH  31  34
ENDBRANCH  29  30
ENDBRANCH  28  29
ENDBRANCH   1  28
TORSDOF 19
ENDMDL
