MODEL 1
REMARK VINA RESULT:     -10.2      0.000      0.000
REMARK SMILES C/C(=C/C[NH+]1C[C@@H](C)[C@H](C)C1)C(=O)NCCCNC(=O)c1ccc(-c2c3nc(c(-c4ccc(S(=O)(=O)[O-])cc4)c4ccc([nH]4)c(-c4ccc(S(=O)(=O)[O-])cc4)c4nc(c(-c5ccc(S(=O)(=O)[O-])cc5)c5ccc2[nH]5)C=C4)C=C3)cc1
REMARK SMILES IDX 16 1 15 2 14 3 12 4 13 5 2 7 1 8 3 9 4 10 5 11 6 12 11 13
REMARK SMILES IDX 7 15 9 16 8 17 10 18 17 19 18 20 19 21 20 23 21 24 22 25
REMARK SMILES IDX 80 26 23 27 79 28 24 29 25 30 26 31 73 32 27 33 78 34 72 35
REMARK SMILES IDX 74 36 28 37 77 38 71 39 70 40 29 42 59 43 40 44 58 45 41 46
REMARK SMILES IDX 44 47 57 48 75 49 42 50 43 51 56 53 76 54 45 55 30 56 31 57
REMARK SMILES IDX 39 58 32 59 38 60 33 61 34 62 35 63 36 64 37 65 60 66 61 67
REMARK SMILES IDX 69 68 62 69 68 70 63 71 64 72 65 73 66 74 67 75 46 76 47 77
REMARK SMILES IDX 55 78 48 79 54 80 49 81 50 82 51 83 52 84 53 85
REMARK H PARENT 14 6 5 14 18 22 74 41 44 52
REMARK Flexibility Score: inf
ROOT
ATOM      1  C   UNL A   1      34.029  27.737  25.383  1.00  0.00     0.042 C 
ENDROOT
BRANCH   1   2
ATOM      2  C   UNL A   1      33.284  26.532  24.811  1.00  0.00     0.118 C 
BRANCH   2   3
ATOM      3  N   UNL A   1      32.145  26.192  25.632  1.00  0.00    -0.352 N 
ATOM      4  C   UNL A   1      31.299  25.144  25.682  1.00  0.00     0.246 C 
ATOM      5  O   UNL A   1      30.431  25.219  26.562  1.00  0.00    -0.270 OA
ATOM      6  H   UNL A   1      31.943  26.880  26.307  1.00  0.00     0.163 HD
BRANCH   4   7
ATOM      7  C   UNL A   1      31.372  23.881  24.861  1.00  0.00     0.015 C 
ATOM      8  C   UNL A   1      30.638  24.090  23.541  1.00  0.00     0.050 C 
ATOM      9  C   UNL A   1      31.940  22.669  25.019  1.00  0.00     0.042 C 
BRANCH   9  10
ATOM     10  C   UNL A   1      32.756  21.961  26.058  1.00  0.00     0.291 C 
BRANCH  10  11
ATOM     11  N   UNL A   1      34.194  21.980  25.788  1.00  0.00    -0.331 N 
ATOM     12  C   UNL A   1      34.597  22.006  24.384  1.00  0.00     0.266 C 
ATOM     13  C   UNL A   1      34.939  23.022  26.506  1.00  0.00     0.266 C 
ATOM     14  H   UNL A   1      34.448  21.064  26.156  1.00  0.00     0.348 HD
ATOM     15  C   UNL A   1      36.048  22.453  24.446  1.00  0.00     0.049 C 
ATOM     16  C   UNL A   1      35.975  23.554  25.502  1.00  0.00     0.049 C 
ATOM     17  C   UNL A   1      36.553  22.908  23.086  1.00  0.00     0.014 C 
ATOM     18  C   UNL A   1      37.317  23.888  26.132  1.00  0.00     0.014 C 
ENDBRANCH  10  11
ENDBRANCH   9  10
ENDBRANCH   4   7
ENDBRANCH   2   3
ENDBRANCH   1   2
BRANCH   1  19
ATOM     19  C   UNL A   1      33.694  28.030  26.843  1.00  0.00     0.118 C 
BRANCH  19  20
ATOM     20  N   UNL A   1      33.524  29.455  27.088  1.00  0.00    -0.352 N 
ATOM     21  C   UNL A   1      34.354  30.352  27.715  1.00  0.00     0.251 C 
ATOM     22  H   UNL A   1      32.680  29.835  26.751  1.00  0.00     0.163 HD
ATOM     23  O   UNL A   1      33.920  31.464  28.001  1.00  0.00    -0.269 OA
BRANCH  21  24
ATOM     24  C   UNL A   1      35.751  29.995  28.062  1.00  0.00     0.039 A 
ATOM     25  C   UNL A   1      36.038  29.621  29.380  1.00  0.00     0.014 A 
ATOM     26  C   UNL A   1      36.788  30.080  27.129  1.00  0.00     0.014 A 
ATOM     27  C   UNL A   1      37.346  29.290  29.747  1.00  0.00     0.010 A 
ATOM     28  C   UNL A   1      38.079  29.684  27.478  1.00  0.00     0.010 A 
ATOM     29  C   UNL A   1      38.375  29.294  28.793  1.00  0.00    -0.014 A 
BRANCH  29  30
ATOM     30  C   UNL A   1      39.765  28.903  29.151  1.00  0.00     0.031 A 
ATOM     31  C   UNL A   1      40.694  29.906  29.786  1.00  0.00     0.074 A 
ATOM     32  C   UNL A   1      40.214  27.670  28.841  1.00  0.00     0.049 A 
ATOM     33  N   UNL A   1      41.961  29.779  30.087  1.00  0.00    -0.248 NA
ATOM     34  C   UNL A   1      40.135  31.234  30.095  1.00  0.00     0.031 C 
ATOM     35  C   UNL A   1      39.430  26.624  28.178  1.00  0.00     0.029 A 
ATOM     36  N   UNL A   1      41.446  27.093  29.022  1.00  0.00    -0.354 N 
ATOM     37  C   UNL A   1      42.359  31.016  30.584  1.00  0.00     0.074 A 
ATOM     38  C   UNL A   1      41.208  31.888  30.521  1.00  0.00     0.031 C 
ATOM     39  C   UNL A   1      40.198  25.534  28.017  1.00  0.00     0.029 A 
ATOM     40  C   UNL A   1      41.535  25.811  28.532  1.00  0.00     0.049 A 
ATOM     41  H   UNL A   1      42.197  27.554  29.462  1.00  0.00     0.167 HD
ATOM     42  C   UNL A   1      43.572  31.388  31.060  1.00  0.00     0.031 A 
ATOM     43  C   UNL A   1      42.577  24.958  28.487  1.00  0.00     0.031 A 
ATOM     44  C   UNL A   1      44.703  30.506  31.166  1.00  0.00     0.049 A 
ATOM     45  C   UNL A   1      43.899  25.383  29.065  1.00  0.00     0.074 A 
ATOM     46  C   UNL A   1      45.944  30.764  31.722  1.00  0.00     0.029 A 
ATOM     47  N   UNL A   1      44.734  29.198  30.709  1.00  0.00    -0.354 N 
ATOM     48  N   UNL A   1      44.229  26.530  29.609  1.00  0.00    -0.248 NA
ATOM     49  C   UNL A   1      44.988  24.395  29.036  1.00  0.00     0.031 C 
ATOM     50  C   UNL A   1      46.740  29.624  31.564  1.00  0.00     0.029 A 
ATOM     51  C   UNL A   1      45.977  28.643  30.952  1.00  0.00     0.049 A 
ATOM     52  H   UNL A   1      43.981  28.732  30.276  1.00  0.00     0.167 HD
ATOM     53  C   UNL A   1      45.553  26.392  30.009  1.00  0.00     0.074 A 
ATOM     54  C   UNL A   1      45.958  25.046  29.660  1.00  0.00     0.031 C 
ATOM     55  C   UNL A   1      46.361  27.299  30.608  1.00  0.00     0.031 A 
BRANCH  42  56
ATOM     56  C   UNL A   1      43.749  32.814  31.511  1.00  0.00    -0.014 A 
ATOM     57  C   UNL A   1      43.529  33.187  32.848  1.00  0.00     0.010 A 
ATOM     58  C   UNL A   1      44.226  33.776  30.600  1.00  0.00     0.010 A 
ATOM     59  C   UNL A   1      43.761  34.501  33.262  1.00  0.00     0.020 A 
ATOM     60  C   UNL A   1      44.481  35.085  31.015  1.00  0.00     0.020 A 
ATOM     61  C   UNL A   1      44.238  35.442  32.343  1.00  0.00     0.054 A 
BRANCH  61  62
ATOM     62  S   UNL A   1      44.586  37.126  32.922  1.00  0.00     0.124 S 
ATOM     63  O   UNL A   1      43.241  37.679  33.067  1.00  0.00    -0.237 OA
ATOM     64  O   UNL A   1      45.307  36.894  34.170  1.00  0.00    -0.237 OA
ATOM     65  O   UNL A   1      45.384  37.705  31.844  1.00  0.00    -0.744 OA
ENDBRANCH  61  62
ENDBRANCH  42  56
BRANCH  43  66
ATOM     66  C   UNL A   1      42.420  23.615  27.865  1.00  0.00    -0.014 A 
ATOM     67  C   UNL A   1      41.831  22.558  28.582  1.00  0.00     0.010 A 
ATOM     68  C   UNL A   1      42.875  23.382  26.555  1.00  0.00     0.010 A 
ATOM     69  C   UNL A   1      41.731  21.285  28.012  1.00  0.00     0.020 A 
ATOM     70  C   UNL A   1      42.751  22.118  25.972  1.00  0.00     0.020 A 
ATOM     71  C   UNL A   1      42.196  21.072  26.712  1.00  0.00     0.054 A 
BRANCH  71  72
ATOM     72  S   UNL A   1      42.034  19.421  25.977  1.00  0.00     0.124 S 
ATOM     73  O   UNL A   1      40.595  19.331  25.750  1.00  0.00    -0.237 OA
ATOM     74  O   UNL A   1      42.859  19.523  24.776  1.00  0.00    -0.237 OA
ATOM     75  O   UNL A   1      42.562  18.535  27.012  1.00  0.00    -0.744 OA
ENDBRANCH  71  72
ENDBRANCH  43  66
BRANCH  55  76
ATOM     76  C   UNL A   1      47.756  26.859  30.960  1.00  0.00    -0.014 A 
ATOM     77  C   UNL A   1      48.821  27.030  30.058  1.00  0.00     0.010 A 
ATOM     78  C   UNL A   1      48.013  26.317  32.232  1.00  0.00     0.010 A 
ATOM     79  C   UNL A   1      50.114  26.641  30.414  1.00  0.00     0.020 A 
ATOM     80  C   UNL A   1      49.308  25.950  32.600  1.00  0.00     0.020 A 
ATOM     81  C   UNL A   1      50.350  26.101  31.683  1.00  0.00     0.054 A 
BRANCH  81  82
ATOM     82  S   UNL A   1      52.045  25.645  32.139  1.00  0.00     0.124 S 
ATOM     83  O   UNL A   1      52.764  25.856  30.886  1.00  0.00    -0.237 OA
ATOM     84  O   UNL A   1      52.356  26.589  33.210  1.00  0.00    -0.237 OA
ATOM     85  O   UNL A   1      51.926  24.252  32.562  1.00  0.00    -0.744 OA
ENDBRANCH  81  82
ENDBRANCH  55  76
ENDBRANCH  29  30
ENDBRANCH  21  24
ENDBRANCH  19  20
ENDBRANCH   1  19
TORSDOF 15
ENDMDL
MODEL 2
REMARK VINA RESULT:      -9.9      4.923     10.459
REMARK SMILES C/C(=C/C[NH+]1C[C@@H](C)[C@H](C)C1)C(=O)NCCCNC(=O)c1ccc(-c2c3nc(c(-c4ccc(S(=O)(=O)[O-])cc4)c4ccc([nH]4)c(-c4ccc(S(=O)(=O)[O-])cc4)c4nc(c(-c5ccc(S(=O)(=O)[O-])cc5)c5ccc2[nH]5)C=C4)C=C3)cc1
REMARK SMILES IDX 16 1 15 2 14 3 12 4 13 5 2 7 1 8 3 9 4 10 5 11 6 12 11 13
REMARK SMILES IDX 7 15 9 16 8 17 10 18 17 19 18 20 19 21 20 23 21 24 22 25
REMARK SMILES IDX 80 26 23 27 79 28 24 29 25 30 26 31 73 32 27 33 78 34 72 35
REMARK SMILES IDX 74 36 28 37 77 38 71 39 70 40 29 42 59 43 40 44 58 45 41 46
REMARK SMILES IDX 44 47 57 48 75 49 42 50 43 51 56 53 76 54 45 55 30 56 31 57
REMARK SMILES IDX 39 58 32 59 38 60 33 61 34 62 35 63 36 64 37 65 60 66 61 67
REMARK SMILES IDX 69 68 62 69 68 70 63 71 64 72 65 73 66 74 67 75 46 76 47 77
REMARK SMILES IDX 55 78 48 79 54 80 49 81 50 82 51 83 52 84 53 85
REMARK H PARENT 14 6 5 14 18 22 74 41 44 52
REMARK Flexibility Score: inf
ROOT
ATOM      1  C   UNL A   1      37.948  23.648  26.199  1.00  0.00     0.042 C 
ENDROOT
BRANCH   1   2
ATOM      2  C   UNL A   1      37.785  22.450  25.265  1.00  0.00     0.118 C 
BRANCH   2   3
ATOM      3  N   UNL A   1      36.989  22.799  24.112  1.00  0.00    -0.352 N 
ATOM      4  C   UNL A   1      35.673  22.738  23.822  1.00  0.00     0.246 C 
ATOM      5  O   UNL A   1      35.370  23.156  22.696  1.00  0.00    -0.270 OA
ATOM      6  H   UNL A   1      37.527  23.165  23.373  1.00  0.00     0.163 HD
BRANCH   4   7
ATOM      7  C   UNL A   1      34.560  22.319  24.748  1.00  0.00     0.015 C 
ATOM      8  C   UNL A   1      34.309  23.421  25.772  1.00  0.00     0.050 C 
ATOM      9  C   UNL A   1      33.755  21.242  24.851  1.00  0.00     0.042 C 
BRANCH   9  10
ATOM     10  C   UNL A   1      33.558  19.941  24.136  1.00  0.00     0.291 C 
BRANCH  10  11
ATOM     11  N   UNL A   1      33.784  18.767  24.980  1.00  0.00    -0.331 N 
ATOM     12  C   UNL A   1      32.658  17.851  25.145  1.00  0.00     0.266 C 
ATOM     13  C   UNL A   1      34.976  17.982  24.632  1.00  0.00     0.266 C 
ATOM     14  H   UNL A   1      33.930  19.228  25.878  1.00  0.00     0.348 HD
ATOM     15  C   UNL A   1      33.312  16.585  25.670  1.00  0.00     0.049 C 
ATOM     16  C   UNL A   1      34.561  16.510  24.794  1.00  0.00     0.049 C 
ATOM     17  C   UNL A   1      32.383  15.386  25.557  1.00  0.00     0.014 C 
ATOM     18  C   UNL A   1      35.659  15.629  25.367  1.00  0.00     0.014 C 
ENDBRANCH  10  11
ENDBRANCH   9  10
ENDBRANCH   4   7
ENDBRANCH   2   3
ENDBRANCH   1   2
BRANCH   1  19
ATOM     19  C   UNL A   1      39.266  23.652  26.969  1.00  0.00     0.118 C 
BRANCH  19  20
ATOM     20  N   UNL A   1      40.388  24.037  26.126  1.00  0.00    -0.352 N 
ATOM     21  C   UNL A   1      41.140  25.187  26.122  1.00  0.00     0.251 C 
ATOM     22  H   UNL A   1      40.649  23.368  25.452  1.00  0.00     0.163 HD
ATOM     23  O   UNL A   1      41.905  25.394  25.184  1.00  0.00    -0.269 OA
BRANCH  21  24
ATOM     24  C   UNL A   1      41.033  26.181  27.217  1.00  0.00     0.039 A 
ATOM     25  C   UNL A   1      40.119  25.944  28.250  1.00  0.00     0.014 A 
ATOM     26  C   UNL A   1      41.775  27.366  27.212  1.00  0.00     0.014 A 
ATOM     27  C   UNL A   1      39.983  26.866  29.293  1.00  0.00     0.010 A 
ATOM     28  C   UNL A   1      41.688  28.251  28.287  1.00  0.00     0.010 A 
ATOM     29  C   UNL A   1      40.784  28.016  29.335  1.00  0.00    -0.014 A 
BRANCH  29  30
ATOM     30  C   UNL A   1      40.687  28.988  30.456  1.00  0.00     0.031 A 
ATOM     31  C   UNL A   1      41.565  28.833  31.671  1.00  0.00     0.074 A 
ATOM     32  C   UNL A   1      39.760  29.967  30.414  1.00  0.00     0.049 A 
ATOM     33  N   UNL A   1      41.563  29.525  32.782  1.00  0.00    -0.248 NA
ATOM     34  C   UNL A   1      42.553  27.740  31.648  1.00  0.00     0.031 C 
ATOM     35  C   UNL A   1      38.814  30.192  29.318  1.00  0.00     0.029 A 
ATOM     36  N   UNL A   1      39.446  30.944  31.326  1.00  0.00    -0.354 N 
ATOM     37  C   UNL A   1      42.518  28.931  33.601  1.00  0.00     0.074 A 
ATOM     38  C   UNL A   1      43.062  27.808  32.871  1.00  0.00     0.031 C 
ATOM     39  C   UNL A   1      38.034  31.243  29.619  1.00  0.00     0.029 A 
ATOM     40  C   UNL A   1      38.398  31.746  30.940  1.00  0.00     0.049 A 
ATOM     41  H   UNL A   1      39.926  31.059  32.178  1.00  0.00     0.167 HD
ATOM     42  C   UNL A   1      42.914  29.295  34.844  1.00  0.00     0.031 A 
ATOM     43  C   UNL A   1      37.787  32.762  31.580  1.00  0.00     0.031 A 
ATOM     44  C   UNL A   1      42.405  30.441  35.550  1.00  0.00     0.049 A 
ATOM     45  C   UNL A   1      38.279  33.174  32.941  1.00  0.00     0.074 A 
ATOM     46  C   UNL A   1      42.812  30.946  36.773  1.00  0.00     0.029 A 
ATOM     47  N   UNL A   1      41.384  31.261  35.099  1.00  0.00    -0.354 N 
ATOM     48  N   UNL A   1      39.243  32.651  33.660  1.00  0.00    -0.248 NA
ATOM     49  C   UNL A   1      37.610  34.321  33.572  1.00  0.00     0.031 C 
ATOM     50  C   UNL A   1      42.006  32.047  37.081  1.00  0.00     0.029 A 
ATOM     51  C   UNL A   1      41.131  32.255  36.027  1.00  0.00     0.049 A 
ATOM     52  H   UNL A   1      40.907  31.152  34.243  1.00  0.00     0.167 HD
ATOM     53  C   UNL A   1      39.312  33.421  34.815  1.00  0.00     0.074 A 
ATOM     54  C   UNL A   1      38.306  34.454  34.692  1.00  0.00     0.031 C 
ATOM     55  C   UNL A   1      40.134  33.282  35.884  1.00  0.00     0.031 A 
BRANCH  42  56
ATOM     56  C   UNL A   1      43.954  28.452  35.533  1.00  0.00    -0.014 A 
ATOM     57  C   UNL A   1      45.311  28.537  35.179  1.00  0.00     0.010 A 
ATOM     58  C   UNL A   1      43.577  27.625  36.608  1.00  0.00     0.010 A 
ATOM     59  C   UNL A   1      46.271  27.795  35.872  1.00  0.00     0.020 A 
ATOM     60  C   UNL A   1      44.536  26.899  37.318  1.00  0.00     0.020 A 
ATOM     61  C   UNL A   1      45.877  26.981  36.939  1.00  0.00     0.054 A 
BRANCH  61  62
ATOM     62  S   UNL A   1      47.151  26.074  37.860  1.00  0.00     0.124 S 
ATOM     63  O   UNL A   1      47.424  26.983  38.971  1.00  0.00    -0.237 OA
ATOM     64  O   UNL A   1      46.468  24.834  38.216  1.00  0.00    -0.237 OA
ATOM     65  O   UNL A   1      48.238  25.927  36.895  1.00  0.00    -0.744 OA
ENDBRANCH  61  62
ENDBRANCH  42  56
BRANCH  43  66
ATOM     66  C   UNL A   1      36.636  33.462  30.948  1.00  0.00    -0.014 A 
ATOM     67  C   UNL A   1      35.364  33.435  31.547  1.00  0.00     0.010 A 
ATOM     68  C   UNL A   1      36.804  34.148  29.731  1.00  0.00     0.010 A 
ATOM     69  C   UNL A   1      34.274  34.052  30.924  1.00  0.00     0.020 A 
ATOM     70  C   UNL A   1      35.723  34.789  29.120  1.00  0.00     0.020 A 
ATOM     71  C   UNL A   1      34.461  34.721  29.712  1.00  0.00     0.054 A 
BRANCH  71  72
ATOM     72  S   UNL A   1      33.042  35.539  28.930  1.00  0.00     0.124 S 
ATOM     73  O   UNL A   1      33.692  36.565  28.122  1.00  0.00    -0.237 OA
ATOM     74  O   UNL A   1      32.415  34.450  28.186  1.00  0.00    -0.237 OA
ATOM     75  O   UNL A   1      32.267  36.034  30.066  1.00  0.00    -0.744 OA
ENDBRANCH  71  72
ENDBRANCH  43  66
BRANCH  55  76
ATOM     76  C   UNL A   1      40.006  34.292  36.992  1.00  0.00    -0.014 A 
ATOM     77  C   UNL A   1      40.732  35.496  36.963  1.00  0.00     0.010 A 
ATOM     78  C   UNL A   1      39.107  34.056  38.046  1.00  0.00     0.010 A 
ATOM     79  C   UNL A   1      40.579  36.434  37.987  1.00  0.00     0.020 A 
ATOM     80  C   UNL A   1      38.934  35.001  39.058  1.00  0.00     0.020 A 
ATOM     81  C   UNL A   1      39.682  36.180  39.030  1.00  0.00     0.054 A 
BRANCH  81  82
ATOM     82  S   UNL A   1      39.466  37.432  40.324  1.00  0.00     0.124 S 
ATOM     83  O   UNL A   1      38.903  36.644  41.417  1.00  0.00    -0.237 OA
ATOM     84  O   UNL A   1      40.829  37.916  40.536  1.00  0.00    -0.237 OA
ATOM     85  O   UNL A   1      38.555  38.401  39.720  1.00  0.00    -0.744 OA
ENDBRANCH  81  82
ENDBRANCH  55  76
ENDBRANCH  29  30
ENDBRANCH  21  24
ENDBRANCH  19  20
ENDBRANCH   1  19
TORSDOF 15
ENDMDL
MODEL 3
REMARK VINA RESULT:      -9.9      3.612     10.506
REMARK SMILES C/C(=C/C[NH+]1C[C@@H](C)[C@H](C)C1)C(=O)NCCCNC(=O)c1ccc(-c2c3nc(c(-c4ccc(S(=O)(=O)[O-])cc4)c4ccc([nH]4)c(-c4ccc(S(=O)(=O)[O-])cc4)c4nc(c(-c5ccc(S(=O)(=O)[O-])cc5)c5ccc2[nH]5)C=C4)C=C3)cc1
REMARK SMILES IDX 16 1 15 2 14 3 12 4 13 5 2 7 1 8 3 9 4 10 5 11 6 12 11 13
REMARK SMILES IDX 7 15 9 16 8 17 10 18 17 19 18 20 19 21 20 23 21 24 22 25
REMARK SMILES IDX 80 26 23 27 79 28 24 29 25 30 26 31 73 32 27 33 78 34 72 35
REMARK SMILES IDX 74 36 28 37 77 38 71 39 70 40 29 42 59 43 40 44 58 45 41 46
REMARK SMILES IDX 44 47 57 48 75 49 42 50 43 51 56 53 76 54 45 55 30 56 31 57
REMARK SMILES IDX 39 58 32 59 38 60 33 61 34 62 35 63 36 64 37 65 60 66 61 67
REMARK SMILES IDX 69 68 62 69 68 70 63 71 64 72 65 73 66 74 67 75 46 76 47 77
REMARK SMILES IDX 55 78 48 79 54 80 49 81 50 82 51 83 52 84 53 85
REMARK H PARENT 14 6 5 14 18 22 74 41 44 52
REMARK Flexibility Score: inf
ROOT
ATOM      1  C   UNL A   1      41.763  21.814  26.470  1.00  0.00     0.042 C 
ENDROOT
BRANCH   1   2
ATOM      2  C   UNL A   1      42.715  22.495  27.452  1.00  0.00     0.118 C 
BRANCH   2   3
ATOM      3  N   UNL A   1      44.090  22.183  27.138  1.00  0.00    -0.352 N 
ATOM      4  C   UNL A   1      44.914  22.483  26.114  1.00  0.00     0.246 C 
ATOM      5  O   UNL A   1      46.060  22.025  26.218  1.00  0.00    -0.270 OA
ATOM      6  H   UNL A   1      44.522  21.627  27.827  1.00  0.00     0.163 HD
BRANCH   4   7
ATOM      7  C   UNL A   1      44.612  23.382  24.942  1.00  0.00     0.015 C 
ATOM      8  C   UNL A   1      44.961  22.660  23.644  1.00  0.00     0.050 C 
ATOM      9  C   UNL A   1      44.100  24.620  24.793  1.00  0.00     0.042 C 
BRANCH   9  10
ATOM     10  C   UNL A   1      43.593  25.717  25.679  1.00  0.00     0.291 C 
BRANCH  10  11
ATOM     11  N   UNL A   1      44.524  26.838  25.816  1.00  0.00    -0.331 N 
ATOM     12  C   UNL A   1      44.009  28.042  26.464  1.00  0.00     0.266 C 
ATOM     13  C   UNL A   1      45.813  26.493  26.430  1.00  0.00     0.266 C 
ATOM     14  H   UNL A   1      44.665  27.064  24.831  1.00  0.00     0.348 HD
ATOM     15  C   UNL A   1      45.270  28.804  26.837  1.00  0.00     0.049 C 
ATOM     16  C   UNL A   1      46.158  27.674  27.353  1.00  0.00     0.049 C 
ATOM     17  C   UNL A   1      44.983  29.901  27.849  1.00  0.00     0.014 C 
ATOM     18  C   UNL A   1      47.638  28.018  27.372  1.00  0.00     0.014 C 
ENDBRANCH  10  11
ENDBRANCH   9  10
ENDBRANCH   4   7
ENDBRANCH   2   3
ENDBRANCH   1   2
BRANCH   1  19
ATOM     19  C   UNL A   1      40.403  21.471  27.071  1.00  0.00     0.118 C 
BRANCH  19  20
ATOM     20  N   UNL A   1      39.307  21.855  26.194  1.00  0.00    -0.352 N 
ATOM     21  C   UNL A   1      38.625  23.043  26.095  1.00  0.00     0.251 C 
ATOM     22  H   UNL A   1      39.006  21.151  25.574  1.00  0.00     0.163 HD
ATOM     23  O   UNL A   1      37.592  23.083  25.433  1.00  0.00    -0.269 OA
BRANCH  21  24
ATOM     24  C   UNL A   1      39.106  24.267  26.782  1.00  0.00     0.039 A 
ATOM     25  C   UNL A   1      38.690  24.503  28.097  1.00  0.00     0.014 A 
ATOM     26  C   UNL A   1      39.909  25.209  26.133  1.00  0.00     0.014 A 
ATOM     27  C   UNL A   1      39.113  25.652  28.772  1.00  0.00     0.010 A 
ATOM     28  C   UNL A   1      40.387  26.320  26.829  1.00  0.00     0.010 A 
ATOM     29  C   UNL A   1      39.987  26.559  28.154  1.00  0.00    -0.014 A 
BRANCH  29  30
ATOM     30  C   UNL A   1      40.484  27.765  28.867  1.00  0.00     0.031 A 
ATOM     31  C   UNL A   1      41.842  27.752  29.523  1.00  0.00     0.074 A 
ATOM     32  C   UNL A   1      39.688  28.847  28.988  1.00  0.00     0.049 A 
ATOM     33  N   UNL A   1      42.409  28.671  30.262  1.00  0.00    -0.248 NA
ATOM     34  C   UNL A   1      42.656  26.536  29.351  1.00  0.00     0.031 C 
ATOM     35  C   UNL A   1      38.332  28.967  28.444  1.00  0.00     0.029 A 
ATOM     36  N   UNL A   1      39.895  30.046  29.625  1.00  0.00    -0.354 N 
ATOM     37  C   UNL A   1      43.624  28.132  30.672  1.00  0.00     0.074 A 
ATOM     38  C   UNL A   1      43.703  26.798  30.122  1.00  0.00     0.031 C 
ATOM     39  C   UNL A   1      37.835  30.173  28.764  1.00  0.00     0.029 A 
ATOM     40  C   UNL A   1      38.818  30.899  29.563  1.00  0.00     0.049 A 
ATOM     41  H   UNL A   1      40.735  30.273  30.084  1.00  0.00     0.167 HD
ATOM     42  C   UNL A   1      44.592  28.703  31.429  1.00  0.00     0.031 A 
ATOM     43  C   UNL A   1      38.633  32.121  30.098  1.00  0.00     0.031 A 
ATOM     44  C   UNL A   1      44.532  30.048  31.936  1.00  0.00     0.049 A 
ATOM     45  C   UNL A   1      39.744  32.749  30.896  1.00  0.00     0.074 A 
ATOM     46  C   UNL A   1      45.503  30.747  32.632  1.00  0.00     0.029 A 
ATOM     47  N   UNL A   1      43.447  30.899  31.802  1.00  0.00    -0.354 N 
ATOM     48  N   UNL A   1      40.920  32.254  31.199  1.00  0.00    -0.248 NA
ATOM     49  C   UNL A   1      39.508  34.104  31.414  1.00  0.00     0.031 C 
ATOM     50  C   UNL A   1      44.989  32.006  32.955  1.00  0.00     0.029 A 
ATOM     51  C   UNL A   1      43.715  32.107  32.419  1.00  0.00     0.049 A 
ATOM     52  H   UNL A   1      42.607  30.676  31.335  1.00  0.00     0.167 HD
ATOM     53  C   UNL A   1      41.573  33.246  31.920  1.00  0.00     0.074 A 
ATOM     54  C   UNL A   1      40.669  34.375  31.994  1.00  0.00     0.031 C 
ATOM     55  C   UNL A   1      42.809  33.224  32.474  1.00  0.00     0.031 A 
BRANCH  42  56
ATOM     56  C   UNL A   1      45.808  27.881  31.761  1.00  0.00    -0.014 A 
ATOM     57  C   UNL A   1      46.975  27.960  30.981  1.00  0.00     0.010 A 
ATOM     58  C   UNL A   1      45.813  27.083  32.920  1.00  0.00     0.010 A 
ATOM     59  C   UNL A   1      48.116  27.239  31.340  1.00  0.00     0.020 A 
ATOM     60  C   UNL A   1      46.959  26.379  33.297  1.00  0.00     0.020 A 
ATOM     61  C   UNL A   1      48.102  26.454  32.498  1.00  0.00     0.054 A 
BRANCH  61  62
ATOM     62  S   UNL A   1      49.617  25.575  32.974  1.00  0.00     0.124 S 
ATOM     63  O   UNL A   1      50.329  25.492  31.700  1.00  0.00    -0.237 OA
ATOM     64  O   UNL A   1      50.208  26.469  33.966  1.00  0.00    -0.237 OA
ATOM     65  O   UNL A   1      49.129  24.303  33.498  1.00  0.00    -0.744 OA
ENDBRANCH  61  62
ENDBRANCH  42  56
BRANCH  43  66
ATOM     66  C   UNL A   1      37.342  32.837  29.906  1.00  0.00    -0.014 A 
ATOM     67  C   UNL A   1      36.331  32.767  30.881  1.00  0.00     0.010 A 
ATOM     68  C   UNL A   1      37.111  33.581  28.735  1.00  0.00     0.010 A 
ATOM     69  C   UNL A   1      35.102  33.400  30.674  1.00  0.00     0.020 A 
ATOM     70  C   UNL A   1      35.894  34.238  28.537  1.00  0.00     0.020 A 
ATOM     71  C   UNL A   1      34.890  34.128  29.500  1.00  0.00     0.054 A 
BRANCH  71  72
ATOM     72  S   UNL A   1      33.298  34.965  29.259  1.00  0.00     0.124 S 
ATOM     73  O   UNL A   1      32.747  34.961  30.610  1.00  0.00    -0.237 OA
ATOM     74  O   UNL A   1      33.699  36.272  28.743  1.00  0.00    -0.237 OA
ATOM     75  O   UNL A   1      32.607  34.111  28.296  1.00  0.00    -0.744 OA
ENDBRANCH  71  72
ENDBRANCH  43  66
BRANCH  55  76
ATOM     76  C   UNL A   1      43.275  34.468  33.179  1.00  0.00    -0.014 A 
ATOM     77  C   UNL A   1      43.899  35.512  32.474  1.00  0.00     0.010 A 
ATOM     78  C   UNL A   1      43.035  34.616  34.557  1.00  0.00     0.010 A 
ATOM     79  C   UNL A   1      44.300  36.672  33.142  1.00  0.00     0.020 A 
ATOM     80  C   UNL A   1      43.412  35.784  35.223  1.00  0.00     0.020 A 
ATOM     81  C   UNL A   1      44.055  36.800  34.513  1.00  0.00     0.054 A 
BRANCH  81  82
ATOM     82  S   UNL A   1      44.543  38.333  35.350  1.00  0.00     0.124 S 
ATOM     83  O   UNL A   1      46.000  38.236  35.336  1.00  0.00    -0.237 OA
ATOM     84  O   UNL A   1      43.974  39.367  34.489  1.00  0.00    -0.237 OA
ATOM     85  O   UNL A   1      43.925  38.219  36.669  1.00  0.00    -0.744 OA
ENDBRANCH  81  82
ENDBRANCH  55  76
ENDBRANCH  29  30
ENDBRANCH  21  24
ENDBRANCH  19  20
ENDBRANCH   1  19
TORSDOF 15
ENDMDL
