MODEL 1
REMARK VINA RESULT:      -9.1      0.000      0.000
REMARK SMILES COc1ccc(-c2ccc(/C=C3\SC(=S)N([C@H](Cc4ccccc4)C(=O)NCCCNC(=O)c4ccc(-c5c6nc(c(-c7ccc(S(=O)(=O)[O-])cc7)c7ccc([nH]7)c(-c7ccc(S(=O)(=O)[O-])cc7)c7nc(c(-c8ccc(S(=O)(=O)[O-])cc8)c8ccc5[nH]8)C=C7)C=C6)cc4)C3=O)o2)cc1
REMARK SMILES IDX 28 1 27 2 25 3 26 4 17 6 16 7 11 8 12 9 13 10 94 11 14 12
REMARK SMILES IDX 95 13 15 14 10 15 7 16 8 17 96 18 9 19 6 20 3 21 4 22 98 23
REMARK SMILES IDX 5 24 97 25 2 26 1 27 18 28 19 29 20 30 24 31 21 32 23 33
REMARK SMILES IDX 22 34 29 35 30 36 31 37 32 38 33 40 34 41 35 42 93 43 36 44
REMARK SMILES IDX 92 45 37 46 38 47 39 48 86 49 40 50 91 51 85 52 87 53 41 54
REMARK SMILES IDX 90 55 84 56 83 57 42 59 72 60 53 61 71 62 54 63 57 64 70 65
REMARK SMILES IDX 88 66 55 67 56 68 69 70 89 71 58 72 43 73 44 74 52 75 45 76
REMARK SMILES IDX 51 77 46 78 47 79 48 80 49 81 50 82 73 83 74 84 82 85 75 86
REMARK SMILES IDX 81 87 76 88 77 89 78 90 79 91 80 92 59 93 60 94 68 95 61 96
REMARK SMILES IDX 67 97 62 98 63 99 64 100 65 101 66 102
REMARK H PARENT 27 5 31 39 87 58 57 69
REMARK Flexibility Score: inf
ROOT
ATOM      1  C   UNL A   1      46.443  37.804  29.804  1.00  0.00     0.117 C 
ENDROOT
BRANCH   1   2
ATOM      2  N   UNL A   1      45.222  38.533  30.035  1.00  0.00    -0.354 N 
ATOM      3  C   UNL A   1      44.176  38.761  29.200  1.00  0.00     0.243 C 
ATOM      4  O   UNL A   1      43.155  39.213  29.731  1.00  0.00    -0.273 OA
ATOM      5  H   UNL A   1      45.134  38.925  30.934  1.00  0.00     0.163 HD
BRANCH   3   6
ATOM      6  C   UNL A   1      44.194  38.428  27.686  1.00  0.00     0.185 C 
BRANCH   6   7
ATOM      7  N   UNL A   1      44.265  39.646  26.828  1.00  0.00    -0.280 N 
ATOM      8  C   UNL A   1      46.268  41.321  24.371  1.00  0.00     0.068 C 
ATOM      9  C   UNL A   1      45.427  41.122  25.393  1.00  0.00     0.084 C 
ATOM     10  S   UNL A   1      43.993  41.976  25.760  1.00  0.00    -0.054 SA
ATOM     11  C   UNL A   1      45.517  39.924  26.267  1.00  0.00     0.267 C 
ATOM     12  C   UNL A   1      43.269  40.533  26.459  1.00  0.00     0.149 C 
ATOM     13  O   UNL A   1      46.537  39.273  26.375  1.00  0.00    -0.268 OA
ATOM     14  S   UNL A   1      41.606  40.421  26.447  1.00  0.00    -0.052 S 
BRANCH   8  15
ATOM     15  C   UNL A   1      46.089  42.368  23.428  1.00  0.00     0.128 A 
ATOM     16  C   UNL A   1      45.135  43.531  21.798  1.00  0.00     0.134 A 
ATOM     17  C   UNL A   1      46.227  44.265  22.196  1.00  0.00     0.051 A 
ATOM     18  O   UNL A   1      45.049  42.385  22.525  1.00  0.00    -0.457 OA
ATOM     19  C   UNL A   1      46.840  43.522  23.226  1.00  0.00     0.051 A 
BRANCH  16  20
ATOM     20  C   UNL A   1      44.142  43.722  20.760  1.00  0.00     0.017 A 
ATOM     21  C   UNL A   1      42.225  44.199  18.766  1.00  0.00     0.118 A 
ATOM     22  C   UNL A   1      41.956  43.302  19.801  1.00  0.00     0.047 A 
ATOM     23  C   UNL A   1      43.442  44.879  18.740  1.00  0.00     0.047 A 
ATOM     24  C   UNL A   1      42.917  43.049  20.787  1.00  0.00     0.016 A 
ATOM     25  C   UNL A   1      44.393  44.641  19.734  1.00  0.00     0.016 A 
BRANCH  21  26
ATOM     26  O   UNL A   1      41.218  44.388  17.859  1.00  0.00    -0.497 OA
ATOM     27  C   UNL A   1      41.614  45.063  16.668  1.00  0.00     0.278 C 
ENDBRANCH  21  26
ENDBRANCH  16  20
ENDBRANCH   8  15
ENDBRANCH   6   7
BRANCH   6  28
ATOM     28  C   UNL A   1      43.268  37.265  27.277  1.00  0.00     0.071 C 
BRANCH  28  29
ATOM     29  C   UNL A   1      44.027  35.978  27.000  1.00  0.00    -0.045 A 
ATOM     30  C   UNL A   1      45.363  36.037  26.577  1.00  0.00     0.004 A 
ATOM     31  C   UNL A   1      43.426  34.718  27.140  1.00  0.00     0.004 A 
ATOM     32  C   UNL A   1      46.057  34.872  26.246  1.00  0.00     0.000 A 
ATOM     33  C   UNL A   1      44.115  33.556  26.793  1.00  0.00     0.000 A 
ATOM     34  C   UNL A   1      45.428  33.633  26.339  1.00  0.00     0.000 A 
ENDBRANCH  28  29
ENDBRANCH   6  28
ENDBRANCH   3   6
ENDBRANCH   1   2
BRANCH   1  35
ATOM     35  C   UNL A   1      47.701  38.643  29.902  1.00  0.00     0.042 C 
BRANCH  35  36
ATOM     36  C   UNL A   1      48.695  38.151  30.940  1.00  0.00     0.118 C 
BRANCH  36  37
ATOM     37  N   UNL A   1      50.058  38.069  30.428  1.00  0.00    -0.352 N 
ATOM     38  C   UNL A   1      50.775  37.001  29.945  1.00  0.00     0.251 C 
ATOM     39  H   UNL A   1      50.547  38.923  30.430  1.00  0.00     0.163 HD
ATOM     40  O   UNL A   1      51.980  37.136  29.742  1.00  0.00    -0.269 OA
BRANCH  38  41
ATOM     41  C   UNL A   1      50.122  35.698  29.688  1.00  0.00     0.039 A 
ATOM     42  C   UNL A   1      50.101  34.740  30.706  1.00  0.00     0.014 A 
ATOM     43  C   UNL A   1      49.550  35.406  28.449  1.00  0.00     0.014 A 
ATOM     44  C   UNL A   1      49.440  33.526  30.502  1.00  0.00     0.010 A 
ATOM     45  C   UNL A   1      48.801  34.245  28.284  1.00  0.00     0.010 A 
ATOM     46  C   UNL A   1      48.744  33.287  29.305  1.00  0.00    -0.014 A 
BRANCH  46  47
ATOM     47  C   UNL A   1      47.950  32.047  29.110  1.00  0.00     0.031 A 
ATOM     48  C   UNL A   1      46.493  32.006  29.489  1.00  0.00     0.074 A 
ATOM     49  C   UNL A   1      48.560  30.936  28.651  1.00  0.00     0.049 A 
ATOM     50  N   UNL A   1      45.650  31.007  29.413  1.00  0.00    -0.248 NA
ATOM     51  C   UNL A   1      45.914  33.233  30.059  1.00  0.00     0.031 C 
ATOM     52  C   UNL A   1      49.983  30.828  28.314  1.00  0.00     0.029 A 
ATOM     53  N   UNL A   1      48.063  29.685  28.388  1.00  0.00    -0.354 N 
ATOM     54  C   UNL A   1      44.454  31.478  29.942  1.00  0.00     0.074 A 
ATOM     55  C   UNL A   1      44.694  32.832  30.388  1.00  0.00     0.031 C 
ATOM     56  C   UNL A   1      50.233  29.593  27.853  1.00  0.00     0.029 A 
ATOM     57  C   UNL A   1      49.003  28.810  27.894  1.00  0.00     0.049 A 
ATOM     58  H   UNL A   1      47.123  29.436  28.539  1.00  0.00     0.167 HD
ATOM     59  C   UNL A   1      43.257  30.850  30.030  1.00  0.00     0.031 A 
ATOM     60  C   UNL A   1      48.888  27.524  27.512  1.00  0.00     0.031 A 
ATOM     61  C   UNL A   1      43.017  29.509  29.567  1.00  0.00     0.049 A 
ATOM     62  C   UNL A   1      47.543  26.859  27.584  1.00  0.00     0.074 A 
ATOM     63  C   UNL A   1      41.825  28.805  29.544  1.00  0.00     0.029 A 
ATOM     64  N   UNL A   1      43.988  28.667  29.047  1.00  0.00    -0.354 N 
ATOM     65  N   UNL A   1      46.405  27.349  28.014  1.00  0.00    -0.248 NA
ATOM     66  C   UNL A   1      47.463  25.475  27.101  1.00  0.00     0.031 C 
ATOM     67  C   UNL A   1      42.086  27.521  29.053  1.00  0.00     0.029 A 
ATOM     68  C   UNL A   1      43.428  27.443  28.717  1.00  0.00     0.049 A 
ATOM     69  H   UNL A   1      44.936  28.904  28.928  1.00  0.00     0.167 HD
ATOM     70  C   UNL A   1      45.467  26.339  27.835  1.00  0.00     0.074 A 
ATOM     71  C   UNL A   1      46.168  25.221  27.237  1.00  0.00     0.031 C 
ATOM     72  C   UNL A   1      44.144  26.337  28.136  1.00  0.00     0.031 A 
BRANCH  59  73
ATOM     73  C   UNL A   1      42.116  31.614  30.653  1.00  0.00    -0.014 A 
ATOM     74  C   UNL A   1      41.262  32.414  29.870  1.00  0.00     0.010 A 
ATOM     75  C   UNL A   1      41.879  31.512  32.035  1.00  0.00     0.010 A 
ATOM     76  C   UNL A   1      40.226  33.136  30.466  1.00  0.00     0.020 A 
ATOM     77  C   UNL A   1      40.824  32.210  32.631  1.00  0.00     0.020 A 
ATOM     78  C   UNL A   1      40.016  33.034  31.844  1.00  0.00     0.054 A 
BRANCH  78  79
ATOM     79  S   UNL A   1      38.656  33.974  32.590  1.00  0.00     0.124 S 
ATOM     80  O   UNL A   1      39.351  34.742  33.620  1.00  0.00    -0.237 OA
ATOM     81  O   UNL A   1      38.149  34.754  31.463  1.00  0.00    -0.237 OA
ATOM     82  O   UNL A   1      37.750  32.941  33.086  1.00  0.00    -0.744 OA
ENDBRANCH  78  79
ENDBRANCH  59  73
BRANCH  60  83
ATOM     83  C   UNL A   1      50.080  26.799  26.994  1.00  0.00    -0.014 A 
ATOM     84  C   UNL A   1      50.313  26.709  25.611  1.00  0.00     0.010 A 
ATOM     85  C   UNL A   1      51.005  26.224  27.883  1.00  0.00     0.010 A 
ATOM     86  C   UNL A   1      51.444  26.047  25.125  1.00  0.00     0.020 A 
ATOM     87  C   UNL A   1      52.151  25.583  27.402  1.00  0.00     0.020 A 
ATOM     88  C   UNL A   1      52.358  25.491  26.024  1.00  0.00     0.054 A 
BRANCH  88  89
ATOM     89  S   UNL A   1      53.853  24.695  25.374  1.00  0.00     0.124 S 
ATOM     90  O   UNL A   1      53.342  23.397  24.940  1.00  0.00    -0.237 OA
ATOM     91  O   UNL A   1      54.257  25.605  24.305  1.00  0.00    -0.237 OA
ATOM     92  O   UNL A   1      54.751  24.662  26.525  1.00  0.00    -0.744 OA
ENDBRANCH  88  89
ENDBRANCH  60  83
BRANCH  72  93
ATOM     93  C   UNL A   1      43.368  25.091  27.800  1.00  0.00    -0.014 A 
ATOM     94  C   UNL A   1      43.125  24.102  28.769  1.00  0.00     0.010 A 
ATOM     95  C   UNL A   1      42.854  24.924  26.502  1.00  0.00     0.010 A 
ATOM     96  C   UNL A   1      42.421  22.942  28.430  1.00  0.00     0.020 A 
ATOM     97  C   UNL A   1      42.126  23.780  26.168  1.00  0.00     0.020 A 
ATOM     98  C   UNL A   1      41.932  22.786  27.130  1.00  0.00     0.054 A 
BRANCH  98  99
ATOM     99  S   UNL A   1      41.010  21.280  26.717  1.00  0.00     0.124 S 
ATOM    100  O   UNL A   1      40.866  20.646  28.024  1.00  0.00    -0.237 OA
ATOM    101  O   UNL A   1      39.778  21.805  26.134  1.00  0.00    -0.237 OA
ATOM    102  O   UNL A   1      41.889  20.584  25.780  1.00  0.00    -0.744 OA
ENDBRANCH  98  99
ENDBRANCH  72  93
ENDBRANCH  46  47
ENDBRANCH  38  41
ENDBRANCH  36  37
ENDBRANCH  35  36
ENDBRANCH   1  35
TORSDOF 19
ENDMDL
MODEL 2
REMARK VINA RESULT:      -9.1      4.920     11.223
REMARK SMILES COc1ccc(-c2ccc(/C=C3\SC(=S)N([C@H](Cc4ccccc4)C(=O)NCCCNC(=O)c4ccc(-c5c6nc(c(-c7ccc(S(=O)(=O)[O-])cc7)c7ccc([nH]7)c(-c7ccc(S(=O)(=O)[O-])cc7)c7nc(c(-c8ccc(S(=O)(=O)[O-])cc8)c8ccc5[nH]8)C=C7)C=C6)cc4)C3=O)o2)cc1
REMARK SMILES IDX 28 1 27 2 25 3 26 4 17 6 16 7 11 8 12 9 13 10 94 11 14 12
REMARK SMILES IDX 95 13 15 14 10 15 7 16 8 17 96 18 9 19 6 20 3 21 4 22 98 23
REMARK SMILES IDX 5 24 97 25 2 26 1 27 18 28 19 29 20 30 24 31 21 32 23 33
REMARK SMILES IDX 22 34 29 35 30 36 31 37 32 38 33 40 34 41 35 42 93 43 36 44
REMARK SMILES IDX 92 45 37 46 38 47 39 48 86 49 40 50 91 51 85 52 87 53 41 54
REMARK SMILES IDX 90 55 84 56 83 57 42 59 72 60 53 61 71 62 54 63 57 64 70 65
REMARK SMILES IDX 88 66 55 67 56 68 69 70 89 71 58 72 43 73 44 74 52 75 45 76
REMARK SMILES IDX 51 77 46 78 47 79 48 80 49 81 50 82 73 83 74 84 82 85 75 86
REMARK SMILES IDX 81 87 76 88 77 89 78 90 79 91 80 92 59 93 60 94 68 95 61 96
REMARK SMILES IDX 67 97 62 98 63 99 64 100 65 101 66 102
REMARK H PARENT 27 5 31 39 87 58 57 69
REMARK Flexibility Score: inf
ROOT
ATOM      1  C   UNL A   1      36.434  34.274  33.911  1.00  0.00     0.117 C 
ENDROOT
BRANCH   1   2
ATOM      2  N   UNL A   1      35.355  33.988  33.002  1.00  0.00    -0.354 N 
ATOM      3  C   UNL A   1      35.224  32.981  32.099  1.00  0.00     0.243 C 
ATOM      4  O   UNL A   1      34.095  32.836  31.618  1.00  0.00    -0.273 OA
ATOM      5  H   UNL A   1      34.599  34.616  33.039  1.00  0.00     0.163 HD
BRANCH   3   6
ATOM      6  C   UNL A   1      36.373  32.011  31.718  1.00  0.00     0.185 C 
BRANCH   6   7
ATOM      7  N   UNL A   1      37.478  32.687  30.980  1.00  0.00    -0.280 N 
ATOM      8  C   UNL A   1      41.039  33.088  30.869  1.00  0.00     0.068 C 
ATOM      9  C   UNL A   1      39.733  33.361  30.759  1.00  0.00     0.084 C 
ATOM     10  S   UNL A   1      38.939  34.234  29.525  1.00  0.00    -0.054 SA
ATOM     11  C   UNL A   1      38.717  32.716  31.630  1.00  0.00     0.267 C 
ATOM     12  C   UNL A   1      37.486  33.261  29.721  1.00  0.00     0.149 C 
ATOM     13  O   UNL A   1      39.000  32.228  32.707  1.00  0.00    -0.268 OA
ATOM     14  S   UNL A   1      36.484  33.096  28.400  1.00  0.00    -0.052 S 
BRANCH   8  15
ATOM     15  C   UNL A   1      41.999  33.565  29.936  1.00  0.00     0.128 A 
ATOM     16  C   UNL A   1      43.269  35.026  28.852  1.00  0.00     0.134 A 
ATOM     17  C   UNL A   1      43.622  33.788  28.371  1.00  0.00     0.051 A 
ATOM     18  O   UNL A   1      42.287  34.905  29.786  1.00  0.00    -0.457 OA
ATOM     19  C   UNL A   1      42.809  32.859  29.052  1.00  0.00     0.051 A 
BRANCH  16  20
ATOM     20  C   UNL A   1      43.692  36.372  28.522  1.00  0.00     0.017 A 
ATOM     21  C   UNL A   1      44.408  39.005  27.862  1.00  0.00     0.118 A 
ATOM     22  C   UNL A   1      45.051  37.926  27.253  1.00  0.00     0.047 A 
ATOM     23  C   UNL A   1      43.388  38.770  28.783  1.00  0.00     0.047 A 
ATOM     24  C   UNL A   1      44.708  36.612  27.593  1.00  0.00     0.016 A 
ATOM     25  C   UNL A   1      43.033  37.459  29.109  1.00  0.00     0.016 A 
BRANCH  21  26
ATOM     26  O   UNL A   1      44.805  40.249  27.454  1.00  0.00    -0.497 OA
ATOM     27  C   UNL A   1      43.742  41.183  27.286  1.00  0.00     0.278 C 
ENDBRANCH  21  26
ENDBRANCH  16  20
ENDBRANCH   8  15
ENDBRANCH   6   7
BRANCH   6  28
ATOM     28  C   UNL A   1      35.905  30.612  31.269  1.00  0.00     0.071 C 
BRANCH  28  29
ATOM     29  C   UNL A   1      37.056  29.638  31.084  1.00  0.00    -0.045 A 
ATOM     30  C   UNL A   1      37.650  29.043  32.206  1.00  0.00     0.004 A 
ATOM     31  C   UNL A   1      37.560  29.320  29.814  1.00  0.00     0.004 A 
ATOM     32  C   UNL A   1      38.755  28.203  32.064  1.00  0.00     0.000 A 
ATOM     33  C   UNL A   1      38.675  28.494  29.675  1.00  0.00     0.000 A 
ATOM     34  C   UNL A   1      39.277  27.940  30.800  1.00  0.00     0.000 A 
ENDBRANCH  28  29
ENDBRANCH   6  28
ENDBRANCH   3   6
ENDBRANCH   1   2
BRANCH   1  35
ATOM     35  C   UNL A   1      36.234  33.728  35.311  1.00  0.00     0.042 C 
BRANCH  35  36
ATOM     36  C   UNL A   1      37.290  32.725  35.743  1.00  0.00     0.118 C 
BRANCH  36  37
ATOM     37  N   UNL A   1      37.766  32.950  37.102  1.00  0.00    -0.352 N 
ATOM     38  C   UNL A   1      38.993  33.351  37.572  1.00  0.00     0.251 C 
ATOM     39  H   UNL A   1      37.094  32.786  37.803  1.00  0.00     0.163 HD
ATOM     40  O   UNL A   1      39.218  33.291  38.778  1.00  0.00    -0.269 OA
BRANCH  38  41
ATOM     41  C   UNL A   1      40.043  33.830  36.645  1.00  0.00     0.039 A 
ATOM     42  C   UNL A   1      41.385  33.678  37.007  1.00  0.00     0.014 A 
ATOM     43  C   UNL A   1      39.717  34.445  35.436  1.00  0.00     0.014 A 
ATOM     44  C   UNL A   1      42.391  34.073  36.122  1.00  0.00     0.010 A 
ATOM     45  C   UNL A   1      40.715  34.737  34.511  1.00  0.00     0.010 A 
ATOM     46  C   UNL A   1      42.064  34.563  34.846  1.00  0.00    -0.014 A 
BRANCH  46  47
ATOM     47  C   UNL A   1      43.119  34.890  33.853  1.00  0.00     0.031 A 
ATOM     48  C   UNL A   1      43.465  36.325  33.550  1.00  0.00     0.074 A 
ATOM     49  C   UNL A   1      43.720  33.893  33.174  1.00  0.00     0.049 A 
ATOM     50  N   UNL A   1      44.339  36.799  32.698  1.00  0.00    -0.248 NA
ATOM     51  C   UNL A   1      42.712  37.362  34.273  1.00  0.00     0.031 C 
ATOM     52  C   UNL A   1      43.423  32.465  33.325  1.00  0.00     0.029 A 
ATOM     53  N   UNL A   1      44.705  33.925  32.220  1.00  0.00    -0.354 N 
ATOM     54  C   UNL A   1      44.223  38.183  32.767  1.00  0.00     0.074 A 
ATOM     55  C   UNL A   1      43.158  38.471  33.701  1.00  0.00     0.031 C 
ATOM     56  C   UNL A   1      44.236  31.759  32.524  1.00  0.00     0.029 A 
ATOM     57  C   UNL A   1      45.085  32.680  31.776  1.00  0.00     0.049 A 
ATOM     58  H   UNL A   1      45.103  34.760  31.885  1.00  0.00     0.167 HD
ATOM     59  C   UNL A   1      44.952  39.129  32.129  1.00  0.00     0.031 A 
ATOM     60  C   UNL A   1      46.016  32.318  30.873  1.00  0.00     0.031 A 
ATOM     61  C   UNL A   1      46.024  38.838  31.215  1.00  0.00     0.049 A 
ATOM     62  C   UNL A   1      46.837  33.383  30.204  1.00  0.00     0.074 A 
ATOM     63  C   UNL A   1      46.872  39.722  30.570  1.00  0.00     0.029 A 
ATOM     64  N   UNL A   1      46.397  37.563  30.814  1.00  0.00    -0.354 N 
ATOM     65  N   UNL A   1      46.766  34.686  30.343  1.00  0.00    -0.248 NA
ATOM     66  C   UNL A   1      47.876  32.929  29.272  1.00  0.00     0.031 C 
ATOM     67  C   UNL A   1      47.726  38.985  29.743  1.00  0.00     0.029 A 
ATOM     68  C   UNL A   1      47.449  37.637  29.916  1.00  0.00     0.049 A 
ATOM     69  H   UNL A   1      45.976  36.729  31.123  1.00  0.00     0.167 HD
ATOM     70  C   UNL A   1      47.766  35.207  29.531  1.00  0.00     0.074 A 
ATOM     71  C   UNL A   1      48.440  34.078  28.923  1.00  0.00     0.031 C 
ATOM     72  C   UNL A   1      48.098  36.504  29.309  1.00  0.00     0.031 A 
BRANCH  59  73
ATOM     73  C   UNL A   1      44.607  40.571  32.401  1.00  0.00    -0.014 A 
ATOM     74  C   UNL A   1      45.278  41.305  33.398  1.00  0.00     0.010 A 
ATOM     75  C   UNL A   1      43.617  41.211  31.634  1.00  0.00     0.010 A 
ATOM     76  C   UNL A   1      44.929  42.633  33.656  1.00  0.00     0.020 A 
ATOM     77  C   UNL A   1      43.285  42.549  31.870  1.00  0.00     0.020 A 
ATOM     78  C   UNL A   1      43.931  43.245  32.894  1.00  0.00     0.054 A 
BRANCH  78  79
ATOM     79  S   UNL A   1      43.506  44.973  33.243  1.00  0.00     0.124 S 
ATOM     80  O   UNL A   1      43.377  45.528  31.899  1.00  0.00    -0.237 OA
ATOM     81  O   UNL A   1      42.258  44.851  33.993  1.00  0.00    -0.237 OA
ATOM     82  O   UNL A   1      44.646  45.463  34.013  1.00  0.00    -0.744 OA
ENDBRANCH  78  79
ENDBRANCH  59  73
BRANCH  60  83
ATOM     83  C   UNL A   1      46.240  30.875  30.581  1.00  0.00    -0.014 A 
ATOM     84  C   UNL A   1      45.686  30.287  29.431  1.00  0.00     0.010 A 
ATOM     85  C   UNL A   1      47.036  30.092  31.436  1.00  0.00     0.010 A 
ATOM     86  C   UNL A   1      45.915  28.938  29.146  1.00  0.00     0.020 A 
ATOM     87  C   UNL A   1      47.289  28.749  31.140  1.00  0.00     0.020 A 
ATOM     88  C   UNL A   1      46.718  28.178  30.001  1.00  0.00     0.054 A 
BRANCH  88  89
ATOM     89  S   UNL A   1      47.056  26.447  29.577  1.00  0.00     0.124 S 
ATOM     90  O   UNL A   1      46.604  25.746  30.775  1.00  0.00    -0.237 OA
ATOM     91  O   UNL A   1      46.239  26.248  28.382  1.00  0.00    -0.237 OA
ATOM     92  O   UNL A   1      48.498  26.427  29.344  1.00  0.00    -0.744 OA
ENDBRANCH  88  89
ENDBRANCH  60  83
BRANCH  72  93
ATOM     93  C   UNL A   1      49.257  36.764  28.385  1.00  0.00    -0.014 A 
ATOM     94  C   UNL A   1      50.579  36.797  28.865  1.00  0.00     0.010 A 
ATOM     95  C   UNL A   1      49.020  36.952  27.012  1.00  0.00     0.010 A 
ATOM     96  C   UNL A   1      51.639  37.063  27.993  1.00  0.00     0.020 A 
ATOM     97  C   UNL A   1      50.079  37.188  26.132  1.00  0.00     0.020 A 
ATOM     98  C   UNL A   1      51.380  37.263  26.633  1.00  0.00     0.054 A 
BRANCH  98  99
ATOM     99  S   UNL A   1      52.773  37.592  25.519  1.00  0.00     0.124 S 
ATOM    100  O   UNL A   1      52.260  37.106  24.242  1.00  0.00    -0.237 OA
ATOM    101  O   UNL A   1      52.932  39.041  25.621  1.00  0.00    -0.237 OA
ATOM    102  O   UNL A   1      53.866  36.810  26.092  1.00  0.00    -0.744 OA
ENDBRANCH  98  99
ENDBRANCH  72  93
ENDBRANCH  46  47
ENDBRANCH  38  41
ENDBRANCH  36  37
ENDBRANCH  35  36
ENDBRANCH   1  35
TORSDOF 19
ENDMDL
MODEL 3
REMARK VINA RESULT:      -8.5      7.783     13.654
REMARK SMILES COc1ccc(-c2ccc(/C=C3\SC(=S)N([C@H](Cc4ccccc4)C(=O)NCCCNC(=O)c4ccc(-c5c6nc(c(-c7ccc(S(=O)(=O)[O-])cc7)c7ccc([nH]7)c(-c7ccc(S(=O)(=O)[O-])cc7)c7nc(c(-c8ccc(S(=O)(=O)[O-])cc8)c8ccc5[nH]8)C=C7)C=C6)cc4)C3=O)o2)cc1
REMARK SMILES IDX 28 1 27 2 25 3 26 4 17 6 16 7 11 8 12 9 13 10 94 11 14 12
REMARK SMILES IDX 95 13 15 14 10 15 7 16 8 17 96 18 9 19 6 20 3 21 4 22 98 23
REMARK SMILES IDX 5 24 97 25 2 26 1 27 18 28 19 29 20 30 24 31 21 32 23 33
REMARK SMILES IDX 22 34 29 35 30 36 31 37 32 38 33 40 34 41 35 42 93 43 36 44
REMARK SMILES IDX 92 45 37 46 38 47 39 48 86 49 40 50 91 51 85 52 87 53 41 54
REMARK SMILES IDX 90 55 84 56 83 57 42 59 72 60 53 61 71 62 54 63 57 64 70 65
REMARK SMILES IDX 88 66 55 67 56 68 69 70 89 71 58 72 43 73 44 74 52 75 45 76
REMARK SMILES IDX 51 77 46 78 47 79 48 80 49 81 50 82 73 83 74 84 82 85 75 86
REMARK SMILES IDX 81 87 76 88 77 89 78 90 79 91 80 92 59 93 60 94 68 95 61 96
REMARK SMILES IDX 67 97 62 98 63 99 64 100 65 101 66 102
REMARK H PARENT 27 5 31 39 87 58 57 69
REMARK Flexibility Score: inf
ROOT
ATOM      1  C   UNL A   1      44.448  27.601  25.271  1.00  0.00     0.117 C 
ENDROOT
BRANCH   1   2
ATOM      2  N   UNL A   1      43.238  26.897  24.935  1.00  0.00    -0.354 N 
ATOM      3  C   UNL A   1      42.278  26.384  25.747  1.00  0.00     0.243 C 
ATOM      4  O   UNL A   1      41.231  26.039  25.189  1.00  0.00    -0.273 OA
ATOM      5  H   UNL A   1      43.083  26.767  23.972  1.00  0.00     0.163 HD
BRANCH   3   6
ATOM      6  C   UNL A   1      42.419  26.280  27.288  1.00  0.00     0.185 C 
BRANCH   6   7
ATOM      7  N   UNL A   1      41.548  27.249  28.014  1.00  0.00    -0.280 N 
ATOM      8  C   UNL A   1      38.924  27.495  30.445  1.00  0.00     0.068 C 
ATOM      9  C   UNL A   1      39.689  27.765  29.380  1.00  0.00     0.084 C 
ATOM     10  S   UNL A   1      40.188  29.292  28.800  1.00  0.00    -0.054 SA
ATOM     11  C   UNL A   1      40.427  26.702  28.650  1.00  0.00     0.267 C 
ATOM     12  C   UNL A   1      41.695  28.612  28.198  1.00  0.00     0.149 C 
ATOM     13  O   UNL A   1      40.103  25.532  28.703  1.00  0.00    -0.268 OA
ATOM     14  S   UNL A   1      43.007  29.631  28.075  1.00  0.00    -0.052 S 
BRANCH   8  15
ATOM     15  C   UNL A   1      38.353  28.516  31.251  1.00  0.00     0.128 A 
ATOM     16  C   UNL A   1      37.082  30.257  31.777  1.00  0.00     0.134 A 
ATOM     17  C   UNL A   1      37.699  29.875  32.944  1.00  0.00     0.051 A 
ATOM     18  O   UNL A   1      37.475  29.454  30.752  1.00  0.00    -0.457 OA
ATOM     19  C   UNL A   1      38.515  28.774  32.609  1.00  0.00     0.051 A 
BRANCH  16  20
ATOM     20  C   UNL A   1      36.176  31.339  31.447  1.00  0.00     0.017 A 
ATOM     21  C   UNL A   1      34.346  33.388  30.871  1.00  0.00     0.118 A 
ATOM     22  C   UNL A   1      34.992  32.709  29.836  1.00  0.00     0.047 A 
ATOM     23  C   UNL A   1      34.594  33.027  32.194  1.00  0.00     0.047 A 
ATOM     24  C   UNL A   1      35.919  31.699  30.121  1.00  0.00     0.016 A 
ATOM     25  C   UNL A   1      35.504  32.006  32.478  1.00  0.00     0.016 A 
BRANCH  21  26
ATOM     26  O   UNL A   1      33.450  34.349  30.490  1.00  0.00    -0.497 OA
ATOM     27  C   UNL A   1      33.884  35.163  29.403  1.00  0.00     0.278 C 
ENDBRANCH  21  26
ENDBRANCH  16  20
ENDBRANCH   8  15
ENDBRANCH   6   7
BRANCH   6  28
ATOM     28  C   UNL A   1      43.859  26.036  27.782  1.00  0.00     0.071 C 
BRANCH  28  29
ATOM     29  C   UNL A   1      43.914  25.188  29.042  1.00  0.00    -0.045 A 
ATOM     30  C   UNL A   1      44.561  25.682  30.184  1.00  0.00     0.004 A 
ATOM     31  C   UNL A   1      43.345  23.907  29.098  1.00  0.00     0.004 A 
ATOM     32  C   UNL A   1      44.688  24.891  31.327  1.00  0.00     0.000 A 
ATOM     33  C   UNL A   1      43.486  23.112  30.235  1.00  0.00     0.000 A 
ATOM     34  C   UNL A   1      44.164  23.601  31.347  1.00  0.00     0.000 A 
ENDBRANCH  28  29
ENDBRANCH   6  28
ENDBRANCH   3   6
ENDBRANCH   1   2
BRANCH   1  35
ATOM     35  C   UNL A   1      45.714  26.961  24.737  1.00  0.00     0.042 C 
BRANCH  35  36
ATOM     36  C   UNL A   1      46.742  27.954  24.222  1.00  0.00     0.118 C 
BRANCH  36  37
ATOM     37  N   UNL A   1      48.026  27.335  23.915  1.00  0.00    -0.352 N 
ATOM     38  C   UNL A   1      49.051  26.933  24.736  1.00  0.00     0.251 C 
ATOM     39  H   UNL A   1      48.185  27.179  22.956  1.00  0.00     0.163 HD
ATOM     40  O   UNL A   1      50.124  26.605  24.233  1.00  0.00    -0.269 OA
BRANCH  38  41
ATOM     41  C   UNL A   1      48.885  26.912  26.207  1.00  0.00     0.039 A 
ATOM     42  C   UNL A   1      49.473  27.926  26.968  1.00  0.00     0.014 A 
ATOM     43  C   UNL A   1      48.175  25.892  26.841  1.00  0.00     0.014 A 
ATOM     44  C   UNL A   1      49.281  27.954  28.352  1.00  0.00     0.010 A 
ATOM     45  C   UNL A   1      47.893  25.980  28.201  1.00  0.00     0.010 A 
ATOM     46  C   UNL A   1      48.450  27.007  28.974  1.00  0.00    -0.014 A 
BRANCH  46  47
ATOM     47  C   UNL A   1      48.150  27.082  30.427  1.00  0.00     0.031 A 
ATOM     48  C   UNL A   1      48.845  26.165  31.399  1.00  0.00     0.074 A 
ATOM     49  C   UNL A   1      47.200  27.932  30.863  1.00  0.00     0.049 A 
ATOM     50  N   UNL A   1      48.693  26.071  32.696  1.00  0.00    -0.248 NA
ATOM     51  C   UNL A   1      49.813  25.206  30.841  1.00  0.00     0.031 C 
ATOM     52  C   UNL A   1      46.404  28.823  30.012  1.00  0.00     0.029 A 
ATOM     53  N   UNL A   1      46.739  28.189  32.130  1.00  0.00    -0.354 N 
ATOM     54  C   UNL A   1      49.525  25.034  33.102  1.00  0.00     0.074 A 
ATOM     55  C   UNL A   1      50.137  24.493  31.909  1.00  0.00     0.031 C 
ATOM     56  C   UNL A   1      45.585  29.554  30.785  1.00  0.00     0.029 A 
ATOM     57  C   UNL A   1      45.768  29.161  32.178  1.00  0.00     0.049 A 
ATOM     58  H   UNL A   1      47.072  27.721  32.929  1.00  0.00     0.167 HD
ATOM     59  C   UNL A   1      49.776  24.586  34.356  1.00  0.00     0.031 A 
ATOM     60  C   UNL A   1      45.102  29.684  33.225  1.00  0.00     0.031 A 
ATOM     61  C   UNL A   1      49.179  25.141  35.541  1.00  0.00     0.049 A 
ATOM     62  C   UNL A   1      45.423  29.198  34.610  1.00  0.00     0.074 A 
ATOM     63  C   UNL A   1      49.419  24.808  36.864  1.00  0.00     0.029 A 
ATOM     64  N   UNL A   1      48.222  26.145  35.550  1.00  0.00    -0.354 N 
ATOM     65  N   UNL A   1      46.273  28.270  34.980  1.00  0.00    -0.248 NA
ATOM     66  C   UNL A   1      44.708  29.842  35.718  1.00  0.00     0.031 C 
ATOM     67  C   UNL A   1      48.573  25.578  37.669  1.00  0.00     0.029 A 
ATOM     68  C   UNL A   1      47.846  26.431  36.852  1.00  0.00     0.049 A 
ATOM     69  H   UNL A   1      47.863  26.589  34.748  1.00  0.00     0.167 HD
ATOM     70  C   UNL A   1      46.211  28.233  36.368  1.00  0.00     0.074 A 
ATOM     71  C   UNL A   1      45.257  29.247  36.769  1.00  0.00     0.031 C 
ATOM     72  C   UNL A   1      46.885  27.433  37.233  1.00  0.00     0.031 A 
BRANCH  59  73
ATOM     73  C   UNL A   1      50.739  23.436  34.502  1.00  0.00    -0.014 A 
ATOM     74  C   UNL A   1      52.094  23.657  34.813  1.00  0.00     0.010 A 
ATOM     75  C   UNL A   1      50.280  22.116  34.352  1.00  0.00     0.010 A 
ATOM     76  C   UNL A   1      52.981  22.582  34.919  1.00  0.00     0.020 A 
ATOM     77  C   UNL A   1      51.158  21.035  34.487  1.00  0.00     0.020 A 
ATOM     78  C   UNL A   1      52.508  21.278  34.751  1.00  0.00     0.054 A 
BRANCH  78  79
ATOM     79  S   UNL A   1      53.678  19.901  34.905  1.00  0.00     0.124 S 
ATOM     80  O   UNL A   1      54.844  20.561  35.486  1.00  0.00    -0.237 OA
ATOM     81  O   UNL A   1      52.974  18.979  35.793  1.00  0.00    -0.237 OA
ATOM     82  O   UNL A   1      53.846  19.432  33.532  1.00  0.00    -0.744 OA
ENDBRANCH  78  79
ENDBRANCH  59  73
BRANCH  60  83
ATOM     83  C   UNL A   1      44.092  30.754  32.998  1.00  0.00    -0.014 A 
ATOM     84  C   UNL A   1      42.750  30.424  32.740  1.00  0.00     0.010 A 
ATOM     85  C   UNL A   1      44.462  32.108  33.072  1.00  0.00     0.010 A 
ATOM     86  C   UNL A   1      41.798  31.429  32.550  1.00  0.00     0.020 A 
ATOM     87  C   UNL A   1      43.507  33.117  32.908  1.00  0.00     0.020 A 
ATOM     88  C   UNL A   1      42.182  32.770  32.639  1.00  0.00     0.054 A 
BRANCH  88  89
ATOM     89  S   UNL A   1      40.917  34.057  32.453  1.00  0.00     0.124 S 
ATOM     90  O   UNL A   1      40.962  34.324  31.019  1.00  0.00    -0.237 OA
ATOM     91  O   UNL A   1      39.711  33.388  32.935  1.00  0.00    -0.237 OA
ATOM     92  O   UNL A   1      41.403  35.138  33.308  1.00  0.00    -0.744 OA
ENDBRANCH  88  89
ENDBRANCH  60  83
BRANCH  72  93
ATOM     93  C   UNL A   1      46.625  27.643  38.700  1.00  0.00    -0.014 A 
ATOM     94  C   UNL A   1      45.633  26.911  39.377  1.00  0.00     0.010 A 
ATOM     95  C   UNL A   1      47.405  28.568  39.417  1.00  0.00     0.010 A 
ATOM     96  C   UNL A   1      45.394  27.137  40.736  1.00  0.00     0.020 A 
ATOM     97  C   UNL A   1      47.189  28.776  40.781  1.00  0.00     0.020 A 
ATOM     98  C   UNL A   1      46.169  28.073  41.426  1.00  0.00     0.054 A 
BRANCH  98  99
ATOM     99  S   UNL A   1      45.849  28.339  43.192  1.00  0.00     0.124 S 
ATOM    100  O   UNL A   1      46.951  27.610  43.812  1.00  0.00    -0.237 OA
ATOM    101  O   UNL A   1      45.909  29.794  43.315  1.00  0.00    -0.237 OA
ATOM    102  O   UNL A   1      44.524  27.758  43.394  1.00  0.00    -0.744 OA
ENDBRANCH  98  99
ENDBRANCH  72  93
ENDBRANCH  46  47
ENDBRANCH  38  41
ENDBRANCH  36  37
ENDBRANCH  35  36
ENDBRANCH   1  35
TORSDOF 19
ENDMDL
