MODEL 1
REMARK VINA RESULT:     -11.5      0.000      0.000
REMARK SMILES O=C(NCCCNC(=O)[C@H]1CS[C@]2(c3ccccc3)CCC(=O)N12)c1ccc(-c2c3nc(c(-c4ccc(S(=O)(=O)[O-])cc4)c4ccc([nH]4)c(-c4ccc(S(=O)(=O)[O-])cc4)c4nc(c(-c5ccc(S(=O)(=O)[O-])cc5)c5ccc2[nH]5)C=C4)C=C3)cc1
REMARK SMILES IDX 4 1 3 2 1 3 2 4 25 6 26 7 84 8 27 9 83 10 28 11 29 12 30 13
REMARK SMILES IDX 77 14 31 15 82 16 76 17 78 18 32 19 81 20 75 21 74 22 33 24
REMARK SMILES IDX 63 25 44 26 62 27 45 28 48 29 61 30 79 31 46 32 47 33 60 35
REMARK SMILES IDX 80 36 49 37 34 38 35 39 43 40 36 41 42 42 37 43 38 44 39 45
REMARK SMILES IDX 40 46 41 47 64 48 65 49 73 50 66 51 72 52 67 53 68 54 69 55
REMARK SMILES IDX 70 56 71 57 50 58 51 59 59 60 52 61 58 62 53 63 54 64 55 65
REMARK SMILES IDX 56 66 57 67 5 68 6 69 7 70 8 71 9 73 10 74 11 75 24 76 12 77
REMARK SMILES IDX 13 78 22 79 20 80 21 81 23 82 14 83 15 84 19 85 16 86 18 87
REMARK SMILES IDX 17 88
REMARK H PARENT 3 5 78 23 48 34 7 72
REMARK Flexibility Score: inf
ROOT
ATOM      1  C   UNL A   1      34.117  27.741  26.499  1.00  0.00     0.118 C 
ENDROOT
BRANCH   1   2
ATOM      2  N   UNL A   1      33.662  29.098  26.812  1.00  0.00    -0.352 N 
ATOM      3  O   UNL A   1      33.592  31.073  27.894  1.00  0.00    -0.269 OA
ATOM      4  C   UNL A   1      34.249  30.090  27.567  1.00  0.00     0.251 C 
ATOM      5  H   UNL A   1      32.794  29.342  26.417  1.00  0.00     0.163 HD
BRANCH   4   6
ATOM      6  C   UNL A   1      35.655  29.948  27.998  1.00  0.00     0.039 A 
ATOM      7  C   UNL A   1      36.684  30.272  27.119  1.00  0.00     0.014 A 
ATOM      8  C   UNL A   1      35.953  29.470  29.276  1.00  0.00     0.014 A 
ATOM      9  C   UNL A   1      37.979  29.883  27.409  1.00  0.00     0.010 A 
ATOM     10  C   UNL A   1      37.285  29.226  29.627  1.00  0.00     0.010 A 
ATOM     11  C   UNL A   1      38.304  29.375  28.676  1.00  0.00    -0.014 A 
BRANCH  11  12
ATOM     12  C   UNL A   1      39.725  29.056  28.969  1.00  0.00     0.031 A 
ATOM     13  C   UNL A   1      40.605  30.018  29.719  1.00  0.00     0.074 A 
ATOM     14  C   UNL A   1      40.199  27.846  28.602  1.00  0.00     0.049 A 
ATOM     15  N   UNL A   1      41.850  29.869  30.095  1.00  0.00    -0.248 NA
ATOM     16  C   UNL A   1      40.023  31.318  30.090  1.00  0.00     0.031 C 
ATOM     17  C   UNL A   1      39.435  26.825  27.876  1.00  0.00     0.029 A 
ATOM     18  N   UNL A   1      41.412  27.250  28.824  1.00  0.00    -0.354 N 
ATOM     19  C   UNL A   1      42.214  31.065  30.705  1.00  0.00     0.074 A 
ATOM     20  C   UNL A   1      41.061  31.937  30.636  1.00  0.00     0.031 C 
ATOM     21  C   UNL A   1      40.163  25.705  27.791  1.00  0.00     0.029 A 
ATOM     22  C   UNL A   1      41.476  25.954  28.369  1.00  0.00     0.049 A 
ATOM     23  H   UNL A   1      42.165  27.706  29.265  1.00  0.00     0.167 HD
ATOM     24  C   UNL A   1      43.399  31.403  31.269  1.00  0.00     0.031 A 
ATOM     25  C   UNL A   1      42.483  25.063  28.398  1.00  0.00     0.031 A 
ATOM     26  C   UNL A   1      44.535  30.519  31.344  1.00  0.00     0.049 A 
ATOM     27  C   UNL A   1      43.788  25.470  29.011  1.00  0.00     0.074 A 
ATOM     28  C   UNL A   1      45.770  30.755  31.923  1.00  0.00     0.029 A 
ATOM     29  N   UNL A   1      44.577  29.233  30.826  1.00  0.00    -0.354 N 
ATOM     30  N   UNL A   1      44.106  26.603  29.592  1.00  0.00    -0.248 NA
ATOM     31  C   UNL A   1      44.871  24.479  28.974  1.00  0.00     0.031 C 
ATOM     32  C   UNL A   1      46.576  29.631  31.706  1.00  0.00     0.029 A 
ATOM     33  C   UNL A   1      45.822  28.672  31.049  1.00  0.00     0.049 A 
ATOM     34  H   UNL A   1      43.830  28.786  30.366  1.00  0.00     0.167 HD
ATOM     35  C   UNL A   1      45.421  26.452  30.013  1.00  0.00     0.074 A 
ATOM     36  C   UNL A   1      45.831  25.114  29.633  1.00  0.00     0.031 C 
ATOM     37  C   UNL A   1      46.215  27.340  30.660  1.00  0.00     0.031 A 
BRANCH  24  38
ATOM     38  C   UNL A   1      43.544  32.806  31.803  1.00  0.00    -0.014 A 
ATOM     39  C   UNL A   1      43.953  33.872  30.983  1.00  0.00     0.010 A 
ATOM     40  C   UNL A   1      43.237  33.064  33.153  1.00  0.00     0.010 A 
ATOM     41  C   UNL A   1      44.103  35.158  31.514  1.00  0.00     0.020 A 
ATOM     42  C   UNL A   1      43.358  34.353  33.681  1.00  0.00     0.020 A 
ATOM     43  C   UNL A   1      43.811  35.388  32.862  1.00  0.00     0.054 A 
BRANCH  43  44
ATOM     44  S   UNL A   1      44.018  37.063  33.527  1.00  0.00     0.124 S 
ATOM     45  O   UNL A   1      42.733  37.285  34.187  1.00  0.00    -0.237 OA
ATOM     46  O   UNL A   1      45.164  36.916  34.420  1.00  0.00    -0.237 OA
ATOM     47  O   UNL A   1      44.258  37.881  32.340  1.00  0.00    -0.744 OA
ENDBRANCH  43  44
ENDBRANCH  24  38
BRANCH  25  48
ATOM     48  C   UNL A   1      42.283  23.707  27.821  1.00  0.00    -0.014 A 
ATOM     49  C   UNL A   1      42.476  23.479  26.448  1.00  0.00     0.010 A 
ATOM     50  C   UNL A   1      41.940  22.625  28.653  1.00  0.00     0.010 A 
ATOM     51  C   UNL A   1      42.322  22.196  25.916  1.00  0.00     0.020 A 
ATOM     52  C   UNL A   1      41.814  21.335  28.130  1.00  0.00     0.020 A 
ATOM     53  C   UNL A   1      41.996  21.132  26.761  1.00  0.00     0.054 A 
BRANCH  53  54
ATOM     54  S   UNL A   1      41.862  19.466  26.059  1.00  0.00     0.124 S 
ATOM     55  O   UNL A   1      40.435  19.375  25.764  1.00  0.00    -0.237 OA
ATOM     56  O   UNL A   1      42.746  19.540  24.898  1.00  0.00    -0.237 OA
ATOM     57  O   UNL A   1      42.336  18.600  27.137  1.00  0.00    -0.744 OA
ENDBRANCH  53  54
ENDBRANCH  25  48
BRANCH  37  58
ATOM     58  C   UNL A   1      47.593  26.871  31.040  1.00  0.00    -0.014 A 
ATOM     59  C   UNL A   1      48.693  27.055  30.185  1.00  0.00     0.010 A 
ATOM     60  C   UNL A   1      47.789  26.257  32.291  1.00  0.00     0.010 A 
ATOM     61  C   UNL A   1      49.959  26.593  30.557  1.00  0.00     0.020 A 
ATOM     62  C   UNL A   1      49.058  25.821  32.678  1.00  0.00     0.020 A 
ATOM     63  C   UNL A   1      50.132  25.975  31.799  1.00  0.00     0.054 A 
BRANCH  63  64
ATOM     64  S   UNL A   1      51.787  25.407  32.271  1.00  0.00     0.124 S 
ATOM     65  O   UNL A   1      51.632  23.955  32.230  1.00  0.00    -0.237 OA
ATOM     66  O   UNL A   1      52.633  25.978  31.227  1.00  0.00    -0.237 OA
ATOM     67  O   UNL A   1      51.982  25.975  33.603  1.00  0.00    -0.744 OA
ENDBRANCH  63  64
ENDBRANCH  37  58
ENDBRANCH  11  12
ENDBRANCH   4   6
ENDBRANCH   1   2
BRANCH   1  68
ATOM     68  C   UNL A   1      32.993  26.874  25.974  1.00  0.00     0.042 C 
BRANCH  68  69
ATOM     69  C   UNL A   1      33.402  26.158  24.706  1.00  0.00     0.117 C 
BRANCH  69  70
ATOM     70  N   UNL A   1      32.367  25.268  24.190  1.00  0.00    -0.354 N 
ATOM     71  C   UNL A   1      32.325  23.892  24.295  1.00  0.00     0.243 C 
ATOM     72  H   UNL A   1      31.618  25.695  23.714  1.00  0.00     0.163 HD
ATOM     73  O   UNL A   1      31.326  23.278  23.927  1.00  0.00    -0.273 OA
BRANCH  71  74
ATOM     74  C   UNL A   1      33.522  23.236  24.991  1.00  0.00     0.186 C 
ATOM     75  C   UNL A   1      33.195  22.936  26.447  1.00  0.00     0.107 C 
ATOM     76  N   UNL A   1      34.237  22.142  24.353  1.00  0.00    -0.311 N 
ATOM     77  S   UNL A   1      33.716  21.254  26.798  1.00  0.00    -0.126 SA
ATOM     78  C   UNL A   1      34.553  20.998  25.187  1.00  0.00     0.115 C 
ATOM     79  C   UNL A   1      35.381  22.593  23.676  1.00  0.00     0.224 C 
ATOM     80  C   UNL A   1      36.090  21.079  25.351  1.00  0.00     0.055 C 
ATOM     81  C   UNL A   1      36.531  22.324  24.603  1.00  0.00     0.104 C 
ATOM     82  O   UNL A   1      35.406  23.373  22.743  1.00  0.00    -0.275 OA
BRANCH  78  83
ATOM     83  C   UNL A   1      34.060  19.667  24.607  1.00  0.00    -0.012 A 
ATOM     84  C   UNL A   1      34.890  18.529  24.586  1.00  0.00     0.007 A 
ATOM     85  C   UNL A   1      32.804  19.559  23.975  1.00  0.00     0.007 A 
ATOM     86  C   UNL A   1      34.476  17.343  23.968  1.00  0.00     0.000 A 
ATOM     87  C   UNL A   1      32.380  18.366  23.385  1.00  0.00     0.000 A 
ATOM     88  C   UNL A   1      33.220  17.261  23.374  1.00  0.00     0.000 A 
ENDBRANCH  78  83
ENDBRANCH  71  74
ENDBRANCH  69  70
ENDBRANCH  68  69
ENDBRANCH   1  68
TORSDOF 14
ENDMDL
MODEL 2
REMARK VINA RESULT:     -11.3      4.438      6.207
REMARK SMILES O=C(NCCCNC(=O)[C@H]1CS[C@]2(c3ccccc3)CCC(=O)N12)c1ccc(-c2c3nc(c(-c4ccc(S(=O)(=O)[O-])cc4)c4ccc([nH]4)c(-c4ccc(S(=O)(=O)[O-])cc4)c4nc(c(-c5ccc(S(=O)(=O)[O-])cc5)c5ccc2[nH]5)C=C4)C=C3)cc1
REMARK SMILES IDX 4 1 3 2 1 3 2 4 25 6 26 7 84 8 27 9 83 10 28 11 29 12 30 13
REMARK SMILES IDX 77 14 31 15 82 16 76 17 78 18 32 19 81 20 75 21 74 22 33 24
REMARK SMILES IDX 63 25 44 26 62 27 45 28 48 29 61 30 79 31 46 32 47 33 60 35
REMARK SMILES IDX 80 36 49 37 34 38 35 39 43 40 36 41 42 42 37 43 38 44 39 45
REMARK SMILES IDX 40 46 41 47 64 48 65 49 73 50 66 51 72 52 67 53 68 54 69 55
REMARK SMILES IDX 70 56 71 57 50 58 51 59 59 60 52 61 58 62 53 63 54 64 55 65
REMARK SMILES IDX 56 66 57 67 5 68 6 69 7 70 8 71 9 73 10 74 11 75 24 76 12 77
REMARK SMILES IDX 13 78 22 79 20 80 21 81 23 82 14 83 15 84 19 85 16 86 18 87
REMARK SMILES IDX 17 88
REMARK H PARENT 3 5 78 23 48 34 7 72
REMARK Flexibility Score: inf
ROOT
ATOM      1  C   UNL A   1      32.943  32.758  27.477  1.00  0.00     0.118 C 
ENDROOT
BRANCH   1   2
ATOM      2  N   UNL A   1      32.683  34.171  27.767  1.00  0.00    -0.352 N 
ATOM      3  O   UNL A   1      32.645  36.077  28.967  1.00  0.00    -0.269 OA
ATOM      4  C   UNL A   1      33.170  34.986  28.764  1.00  0.00     0.251 C 
ATOM      5  H   UNL A   1      32.058  34.610  27.146  1.00  0.00     0.163 HD
BRANCH   4   6
ATOM      6  C   UNL A   1      34.299  34.530  29.599  1.00  0.00     0.039 A 
ATOM      7  C   UNL A   1      35.601  34.631  29.118  1.00  0.00     0.014 A 
ATOM      8  C   UNL A   1      34.063  33.978  30.860  1.00  0.00     0.014 A 
ATOM      9  C   UNL A   1      36.623  33.959  29.762  1.00  0.00     0.010 A 
ATOM     10  C   UNL A   1      35.129  33.439  31.588  1.00  0.00     0.010 A 
ATOM     11  C   UNL A   1      36.409  33.373  31.019  1.00  0.00    -0.014 A 
BRANCH  11  12
ATOM     12  C   UNL A   1      37.562  32.741  31.712  1.00  0.00     0.031 A 
ATOM     13  C   UNL A   1      38.010  33.210  33.070  1.00  0.00     0.074 A 
ATOM     14  C   UNL A   1      38.163  31.687  31.124  1.00  0.00     0.049 A 
ATOM     15  N   UNL A   1      38.966  32.733  33.828  1.00  0.00    -0.248 NA
ATOM     16  C   UNL A   1      37.308  34.364  33.654  1.00  0.00     0.031 C 
ATOM     17  C   UNL A   1      37.809  31.136  29.811  1.00  0.00     0.029 A 
ATOM     18  N   UNL A   1      39.163  30.861  31.565  1.00  0.00    -0.354 N 
ATOM     19  C   UNL A   1      39.009  33.551  34.952  1.00  0.00     0.074 A 
ATOM     20  C   UNL A   1      37.993  34.565  34.771  1.00  0.00     0.031 C 
ATOM     21  C   UNL A   1      38.515  30.020  29.594  1.00  0.00     0.029 A 
ATOM     22  C   UNL A   1      39.438  29.824  30.704  1.00  0.00     0.049 A 
ATOM     23  H   UNL A   1      39.640  30.996  32.416  1.00  0.00     0.167 HD
ATOM     24  C   UNL A   1      39.822  33.464  36.033  1.00  0.00     0.031 A 
ATOM     25  C   UNL A   1      40.341  28.832  30.785  1.00  0.00     0.031 A 
ATOM     26  C   UNL A   1      40.821  32.440  36.208  1.00  0.00     0.049 A 
ATOM     27  C   UNL A   1      41.239  28.769  31.983  1.00  0.00     0.074 A 
ATOM     28  C   UNL A   1      41.673  32.245  37.281  1.00  0.00     0.029 A 
ATOM     29  N   UNL A   1      41.102  31.440  35.289  1.00  0.00    -0.354 N 
ATOM     30  N   UNL A   1      41.255  29.548  33.039  1.00  0.00    -0.248 NA
ATOM     31  C   UNL A   1      42.240  27.697  32.001  1.00  0.00     0.031 C 
ATOM     32  C   UNL A   1      42.507  31.161  36.985  1.00  0.00     0.029 A 
ATOM     33  C   UNL A   1      42.130  30.640  35.758  1.00  0.00     0.049 A 
ATOM     34  H   UNL A   1      40.639  31.317  34.429  1.00  0.00     0.167 HD
ATOM     35  C   UNL A   1      42.254  29.042  33.861  1.00  0.00     0.074 A 
ATOM     36  C   UNL A   1      42.805  27.884  33.185  1.00  0.00     0.031 C 
ATOM     37  C   UNL A   1      42.670  29.494  35.070  1.00  0.00     0.031 A 
BRANCH  24  38
ATOM     38  C   UNL A   1      39.699  34.535  37.088  1.00  0.00    -0.014 A 
ATOM     39  C   UNL A   1      38.886  34.368  38.222  1.00  0.00     0.010 A 
ATOM     40  C   UNL A   1      40.438  35.726  36.949  1.00  0.00     0.010 A 
ATOM     41  C   UNL A   1      38.772  35.390  39.170  1.00  0.00     0.020 A 
ATOM     42  C   UNL A   1      40.351  36.739  37.909  1.00  0.00     0.020 A 
ATOM     43  C   UNL A   1      39.500  36.573  39.003  1.00  0.00     0.054 A 
BRANCH  43  44
ATOM     44  S   UNL A   1      39.332  37.885  40.245  1.00  0.00     0.124 S 
ATOM     45  O   UNL A   1      40.656  38.504  40.207  1.00  0.00    -0.237 OA
ATOM     46  O   UNL A   1      38.244  38.698  39.709  1.00  0.00    -0.237 OA
ATOM     47  O   UNL A   1      39.018  37.161  41.475  1.00  0.00    -0.744 OA
ENDBRANCH  43  44
ENDBRANCH  24  38
BRANCH  25  48
ATOM     48  C   UNL A   1      40.432  27.828  29.691  1.00  0.00    -0.014 A 
ATOM     49  C   UNL A   1      39.499  26.781  29.603  1.00  0.00     0.010 A 
ATOM     50  C   UNL A   1      41.428  27.941  28.704  1.00  0.00     0.010 A 
ATOM     51  C   UNL A   1      39.566  25.861  28.554  1.00  0.00     0.020 A 
ATOM     52  C   UNL A   1      41.480  27.042  27.636  1.00  0.00     0.020 A 
ATOM     53  C   UNL A   1      40.554  26.000  27.575  1.00  0.00     0.054 A 
BRANCH  53  54
ATOM     54  S   UNL A   1      40.584  24.831  26.189  1.00  0.00     0.124 S 
ATOM     55  O   UNL A   1      41.099  25.661  25.104  1.00  0.00    -0.237 OA
ATOM     56  O   UNL A   1      41.487  23.790  26.673  1.00  0.00    -0.237 OA
ATOM     57  O   UNL A   1      39.188  24.420  26.056  1.00  0.00    -0.744 OA
ENDBRANCH  53  54
ENDBRANCH  25  48
BRANCH  37  58
ATOM     58  C   UNL A   1      43.748  28.701  35.758  1.00  0.00    -0.014 A 
ATOM     59  C   UNL A   1      45.109  29.006  35.586  1.00  0.00     0.010 A 
ATOM     60  C   UNL A   1      43.383  27.645  36.614  1.00  0.00     0.010 A 
ATOM     61  C   UNL A   1      46.089  28.240  36.224  1.00  0.00     0.020 A 
ATOM     62  C   UNL A   1      44.359  26.898  37.277  1.00  0.00     0.020 A 
ATOM     63  C   UNL A   1      45.707  27.189  37.062  1.00  0.00     0.054 A 
BRANCH  63  64
ATOM     64  S   UNL A   1      46.994  26.226  37.900  1.00  0.00     0.124 S 
ATOM     65  O   UNL A   1      48.130  27.145  37.867  1.00  0.00    -0.237 OA
ATOM     66  O   UNL A   1      46.414  25.992  39.220  1.00  0.00    -0.237 OA
ATOM     67  O   UNL A   1      47.133  25.034  37.067  1.00  0.00    -0.744 OA
ENDBRANCH  63  64
ENDBRANCH  37  58
ENDBRANCH  11  12
ENDBRANCH   4   6
ENDBRANCH   1   2
BRANCH   1  68
ATOM     68  C   UNL A   1      31.771  32.097  26.785  1.00  0.00     0.042 C 
BRANCH  68  69
ATOM     69  C   UNL A   1      31.753  30.607  27.042  1.00  0.00     0.117 C 
BRANCH  69  70
ATOM     70  N   UNL A   1      33.077  30.054  27.309  1.00  0.00    -0.354 N 
ATOM     71  C   UNL A   1      33.710  29.040  26.619  1.00  0.00     0.243 C 
ATOM     72  H   UNL A   1      33.573  30.448  28.064  1.00  0.00     0.163 HD
ATOM     73  O   UNL A   1      34.880  28.762  26.871  1.00  0.00    -0.273 OA
BRANCH  71  74
ATOM     74  C   UNL A   1      32.907  28.401  25.481  1.00  0.00     0.186 C 
ATOM     75  C   UNL A   1      33.372  28.936  24.134  1.00  0.00     0.107 C 
ATOM     76  N   UNL A   1      32.684  26.964  25.452  1.00  0.00    -0.311 N 
ATOM     77  S   UNL A   1      33.595  27.539  23.028  1.00  0.00    -0.126 SA
ATOM     78  C   UNL A   1      32.889  26.299  24.180  1.00  0.00     0.115 C 
ATOM     79  C   UNL A   1      31.436  26.622  25.996  1.00  0.00     0.224 C 
ATOM     80  C   UNL A   1      31.458  25.901  23.741  1.00  0.00     0.055 C 
ATOM     81  C   UNL A   1      30.525  26.422  24.818  1.00  0.00     0.104 C 
ATOM     82  O   UNL A   1      31.065  26.824  27.137  1.00  0.00    -0.275 OA
BRANCH  78  83
ATOM     83  C   UNL A   1      33.865  25.120  24.258  1.00  0.00    -0.012 A 
ATOM     84  C   UNL A   1      34.739  24.968  25.352  1.00  0.00     0.007 A 
ATOM     85  C   UNL A   1      34.003  24.206  23.192  1.00  0.00     0.007 A 
ATOM     86  C   UNL A   1      35.697  23.948  25.375  1.00  0.00     0.000 A 
ATOM     87  C   UNL A   1      34.939  23.171  23.231  1.00  0.00     0.000 A 
ATOM     88  C   UNL A   1      35.792  23.047  24.318  1.00  0.00     0.000 A 
ENDBRANCH  78  83
ENDBRANCH  71  74
ENDBRANCH  69  70
ENDBRANCH  68  69
ENDBRANCH   1  68
TORSDOF 14
ENDMDL
MODEL 3
REMARK VINA RESULT:     -11.3      0.678      8.328
REMARK SMILES O=C(NCCCNC(=O)[C@H]1CS[C@]2(c3ccccc3)CCC(=O)N12)c1ccc(-c2c3nc(c(-c4ccc(S(=O)(=O)[O-])cc4)c4ccc([nH]4)c(-c4ccc(S(=O)(=O)[O-])cc4)c4nc(c(-c5ccc(S(=O)(=O)[O-])cc5)c5ccc2[nH]5)C=C4)C=C3)cc1
REMARK SMILES IDX 4 1 3 2 1 3 2 4 25 6 26 7 84 8 27 9 83 10 28 11 29 12 30 13
REMARK SMILES IDX 77 14 31 15 82 16 76 17 78 18 32 19 81 20 75 21 74 22 33 24
REMARK SMILES IDX 63 25 44 26 62 27 45 28 48 29 61 30 79 31 46 32 47 33 60 35
REMARK SMILES IDX 80 36 49 37 34 38 35 39 43 40 36 41 42 42 37 43 38 44 39 45
REMARK SMILES IDX 40 46 41 47 64 48 65 49 73 50 66 51 72 52 67 53 68 54 69 55
REMARK SMILES IDX 70 56 71 57 50 58 51 59 59 60 52 61 58 62 53 63 54 64 55 65
REMARK SMILES IDX 56 66 57 67 5 68 6 69 7 70 8 71 9 73 10 74 11 75 24 76 12 77
REMARK SMILES IDX 13 78 22 79 20 80 21 81 23 82 14 83 15 84 19 85 16 86 18 87
REMARK SMILES IDX 17 88
REMARK H PARENT 3 5 78 23 48 34 7 72
REMARK Flexibility Score: inf
ROOT
ATOM      1  C   UNL A   1      33.514  28.185  27.200  1.00  0.00     0.118 C 
ENDROOT
BRANCH   1   2
ATOM      2  N   UNL A   1      33.485  29.627  27.456  1.00  0.00    -0.352 N 
ATOM      3  O   UNL A   1      34.117  31.596  28.350  1.00  0.00    -0.269 OA
ATOM      4  C   UNL A   1      34.431  30.459  28.013  1.00  0.00     0.251 C 
ATOM      5  H   UNL A   1      32.652  30.076  27.185  1.00  0.00     0.163 HD
BRANCH   4   6
ATOM      6  C   UNL A   1      35.808  29.967  28.223  1.00  0.00     0.039 A 
ATOM      7  C   UNL A   1      36.181  29.465  29.466  1.00  0.00     0.014 A 
ATOM      8  C   UNL A   1      36.741  30.025  27.186  1.00  0.00     0.014 A 
ATOM      9  C   UNL A   1      37.519  29.268  29.752  1.00  0.00     0.010 A 
ATOM     10  C   UNL A   1      38.071  29.670  27.434  1.00  0.00     0.010 A 
ATOM     11  C   UNL A   1      38.483  29.344  28.735  1.00  0.00    -0.014 A 
BRANCH  11  12
ATOM     12  C   UNL A   1      39.897  29.036  29.073  1.00  0.00     0.031 A 
ATOM     13  C   UNL A   1      40.527  27.726  28.682  1.00  0.00     0.074 A 
ATOM     14  C   UNL A   1      40.631  29.987  29.685  1.00  0.00     0.049 A 
ATOM     15  N   UNL A   1      41.760  27.324  28.861  1.00  0.00    -0.248 NA
ATOM     16  C   UNL A   1      39.668  26.735  28.015  1.00  0.00     0.031 C 
ATOM     17  C   UNL A   1      40.131  31.301  30.105  1.00  0.00     0.029 A 
ATOM     18  N   UNL A   1      41.959  30.021  30.022  1.00  0.00    -0.354 N 
ATOM     19  C   UNL A   1      41.814  26.023  28.371  1.00  0.00     0.074 A 
ATOM     20  C   UNL A   1      40.486  25.697  27.900  1.00  0.00     0.031 C 
ATOM     21  C   UNL A   1      41.151  32.039  30.559  1.00  0.00     0.029 A 
ATOM     22  C   UNL A   1      42.358  31.225  30.553  1.00  0.00     0.049 A 
ATOM     23  H   UNL A   1      42.567  29.258  29.896  1.00  0.00     0.167 HD
ATOM     24  C   UNL A   1      42.875  25.181  28.319  1.00  0.00     0.031 A 
ATOM     25  C   UNL A   1      43.559  31.631  31.001  1.00  0.00     0.031 A 
ATOM     26  C   UNL A   1      44.197  25.523  28.778  1.00  0.00     0.049 A 
ATOM     27  C   UNL A   1      44.710  30.673  30.949  1.00  0.00     0.074 A 
ATOM     28  C   UNL A   1      45.346  24.752  28.740  1.00  0.00     0.029 A 
ATOM     29  N   UNL A   1      44.548  26.734  29.356  1.00  0.00    -0.354 N 
ATOM     30  N   UNL A   1      44.741  29.451  30.472  1.00  0.00    -0.248 NA
ATOM     31  C   UNL A   1      45.987  31.146  31.495  1.00  0.00     0.031 C 
ATOM     32  C   UNL A   1      46.379  25.477  29.347  1.00  0.00     0.029 A 
ATOM     33  C   UNL A   1      45.889  26.723  29.703  1.00  0.00     0.049 A 
ATOM     34  H   UNL A   1      43.934  27.490  29.501  1.00  0.00     0.167 HD
ATOM     35  C   UNL A   1      46.050  29.018  30.638  1.00  0.00     0.074 A 
ATOM     36  C   UNL A   1      46.780  30.114  31.245  1.00  0.00     0.031 C 
ATOM     37  C   UNL A   1      46.598  27.821  30.311  1.00  0.00     0.031 A 
BRANCH  24  38
ATOM     38  C   UNL A   1      42.635  23.787  27.794  1.00  0.00    -0.014 A 
ATOM     39  C   UNL A   1      42.242  22.735  28.639  1.00  0.00     0.010 A 
ATOM     40  C   UNL A   1      42.784  23.535  26.416  1.00  0.00     0.010 A 
ATOM     41  C   UNL A   1      42.053  21.447  28.127  1.00  0.00     0.020 A 
ATOM     42  C   UNL A   1      42.567  22.257  25.895  1.00  0.00     0.020 A 
ATOM     43  C   UNL A   1      42.224  21.214  26.758  1.00  0.00     0.054 A 
BRANCH  43  44
ATOM     44  S   UNL A   1      41.976  19.535  26.119  1.00  0.00     0.124 S 
ATOM     45  O   UNL A   1      40.534  19.513  25.884  1.00  0.00    -0.237 OA
ATOM     46  O   UNL A   1      42.808  19.521  24.918  1.00  0.00    -0.237 OA
ATOM     47  O   UNL A   1      42.443  18.677  27.206  1.00  0.00    -0.744 OA
ENDBRANCH  43  44
ENDBRANCH  24  38
BRANCH  25  48
ATOM     48  C   UNL A   1      43.717  33.009  31.540  1.00  0.00    -0.014 A 
ATOM     49  C   UNL A   1      44.168  34.051  30.712  1.00  0.00     0.010 A 
ATOM     50  C   UNL A   1      43.373  33.294  32.874  1.00  0.00     0.010 A 
ATOM     51  C   UNL A   1      44.281  35.351  31.212  1.00  0.00     0.020 A 
ATOM     52  C   UNL A   1      43.455  34.598  33.369  1.00  0.00     0.020 A 
ATOM     53  C   UNL A   1      43.920  35.617  32.536  1.00  0.00     0.054 A 
BRANCH  53  54
ATOM     54  S   UNL A   1      44.015  37.322  33.145  1.00  0.00     0.124 S 
ATOM     55  O   UNL A   1      43.799  38.092  31.924  1.00  0.00    -0.237 OA
ATOM     56  O   UNL A   1      42.932  37.369  34.124  1.00  0.00    -0.237 OA
ATOM     57  O   UNL A   1      45.359  37.409  33.712  1.00  0.00    -0.744 OA
ENDBRANCH  53  54
ENDBRANCH  25  48
BRANCH  37  58
ATOM     58  C   UNL A   1      48.072  27.656  30.563  1.00  0.00    -0.014 A 
ATOM     59  C   UNL A   1      49.027  28.008  29.594  1.00  0.00     0.010 A 
ATOM     60  C   UNL A   1      48.505  27.160  31.806  1.00  0.00     0.010 A 
ATOM     61  C   UNL A   1      50.389  27.827  29.848  1.00  0.00     0.020 A 
ATOM     62  C   UNL A   1      49.867  27.006  32.075  1.00  0.00     0.020 A 
ATOM     63  C   UNL A   1      50.800  27.323  31.086  1.00  0.00     0.054 A 
BRANCH  63  64
ATOM     64  S   UNL A   1      52.573  27.120  31.404  1.00  0.00     0.124 S 
ATOM     65  O   UNL A   1      52.778  25.709  31.087  1.00  0.00    -0.237 OA
ATOM     66  O   UNL A   1      53.177  28.068  30.472  1.00  0.00    -0.237 OA
ATOM     67  O   UNL A   1      52.714  27.468  32.816  1.00  0.00    -0.744 OA
ENDBRANCH  63  64
ENDBRANCH  37  58
ENDBRANCH  11  12
ENDBRANCH   4   6
ENDBRANCH   1   2
BRANCH   1  68
ATOM     68  C   UNL A   1      33.021  27.846  25.809  1.00  0.00     0.042 C 
BRANCH  68  69
ATOM     69  C   UNL A   1      33.480  26.469  25.387  1.00  0.00     0.117 C 
BRANCH  69  70
ATOM     70  N   UNL A   1      32.396  25.630  24.885  1.00  0.00    -0.354 N 
ATOM     71  C   UNL A   1      32.370  24.251  24.827  1.00  0.00     0.243 C 
ATOM     72  H   UNL A   1      31.597  26.099  24.552  1.00  0.00     0.163 HD
ATOM     73  O   UNL A   1      31.338  23.670  24.501  1.00  0.00    -0.273 OA
BRANCH  71  74
ATOM     74  C   UNL A   1      33.640  23.535  25.300  1.00  0.00     0.186 C 
ATOM     75  C   UNL A   1      33.523  23.155  26.769  1.00  0.00     0.107 C 
ATOM     76  N   UNL A   1      34.226  22.470  24.503  1.00  0.00    -0.311 N 
ATOM     77  S   UNL A   1      34.048  21.447  26.944  1.00  0.00    -0.126 SA
ATOM     78  C   UNL A   1      34.632  21.273  25.215  1.00  0.00     0.115 C 
ATOM     79  C   UNL A   1      35.268  22.941  23.690  1.00  0.00     0.224 C 
ATOM     80  C   UNL A   1      36.179  21.320  25.154  1.00  0.00     0.055 C 
ATOM     81  C   UNL A   1      36.536  22.600  24.420  1.00  0.00     0.104 C 
ATOM     82  O   UNL A   1      35.176  23.775  22.809  1.00  0.00    -0.275 OA
BRANCH  78  83
ATOM     83  C   UNL A   1      34.027  19.987  24.641  1.00  0.00    -0.012 A 
ATOM     84  C   UNL A   1      34.762  18.785  24.612  1.00  0.00     0.007 A 
ATOM     85  C   UNL A   1      32.760  19.982  24.021  1.00  0.00     0.007 A 
ATOM     86  C   UNL A   1      34.246  17.638  23.999  1.00  0.00     0.000 A 
ATOM     87  C   UNL A   1      32.234  18.828  23.436  1.00  0.00     0.000 A 
ATOM     88  C   UNL A   1      32.981  17.658  23.417  1.00  0.00     0.000 A 
ENDBRANCH  78  83
ENDBRANCH  71  74
ENDBRANCH  69  70
ENDBRANCH  68  69
ENDBRANCH   1  68
TORSDOF 14
ENDMDL
