MODEL 1
REMARK VINA RESULT:     -12.6      0.000      0.000
REMARK SMILES C[NH+]1CCC2(CC1)OC[C@H](C(=O)NCCCNC(=O)c1ccc(-c3c4nc(c(-c5ccc(S(=O)(=O)[O-])cc5)c5ccc([nH]5)c(-c5ccc(S(=O)(=O)[O-])cc5)c5nc(c(-c6ccc(S(=O)(=O)[O-])cc6)c6ccc3[nH]6)C=C5)C=C4)cc1)N2C(=O)c1cc(C(F)(F)F)cc(C(F)(F)F)c1
REMARK SMILES IDX 15 1 14 2 13 3 11 4 12 5 10 7 1 8 2 9 3 10 7 11 4 13 6 14
REMARK SMILES IDX 5 15 8 16 80 17 9 18 81 19 82 20 83 21 84 22 96 23 85 24
REMARK SMILES IDX 91 25 90 26 86 27 87 28 88 29 89 30 92 31 93 32 94 33 95 34
REMARK SMILES IDX 16 35 17 36 18 37 19 39 20 40 21 41 79 42 22 43 78 44 23 45
REMARK SMILES IDX 24 46 25 47 72 48 26 49 77 50 71 51 73 52 27 53 76 54 70 55
REMARK SMILES IDX 69 56 28 58 58 59 39 60 57 61 40 62 43 63 56 64 74 65 41 66
REMARK SMILES IDX 42 67 55 69 75 70 44 71 29 72 30 73 38 74 31 75 37 76 32 77
REMARK SMILES IDX 33 78 34 79 35 80 36 81 59 82 60 83 68 84 61 85 67 86 62 87
REMARK SMILES IDX 63 88 64 89 65 90 66 91 45 92 46 93 54 94 47 95 53 96 48 97
REMARK SMILES IDX 49 98 50 99 51 100 52 101
REMARK H PARENT 13 6 2 12 17 38 73 57 43 68
REMARK Flexibility Score: inf
ROOT
ATOM      1  C   UNL A   1      40.082  21.822  26.688  1.00  0.00     0.042 C 
ENDROOT
BRANCH   1   2
ATOM      2  C   UNL A   1      38.785  21.955  25.898  1.00  0.00     0.117 C 
BRANCH   2   3
ATOM      3  N   UNL A   1      37.905  22.949  26.481  1.00  0.00    -0.354 N 
ATOM      4  C   UNL A   1      36.694  23.408  26.058  1.00  0.00     0.245 C 
ATOM      5  O   UNL A   1      36.273  24.419  26.624  1.00  0.00    -0.273 OA
ATOM      6  H   UNL A   1      38.235  23.356  27.315  1.00  0.00     0.163 HD
BRANCH   4   7
ATOM      7  C   UNL A   1      35.881  22.638  25.001  1.00  0.00     0.203 C 
ATOM      8  C   UNL A   1      29.818  22.928  27.023  1.00  0.00     0.332 C 
ATOM      9  N   UNL A   1      30.863  23.470  26.166  1.00  0.00    -0.337 N 
ATOM     10  C   UNL A   1      32.013  23.937  26.934  1.00  0.00     0.267 C 
ATOM     11  C   UNL A   1      31.136  22.626  25.003  1.00  0.00     0.267 C 
ATOM     12  H   UNL A   1      30.514  24.324  25.732  1.00  0.00     0.347 HD
ATOM     13  C   UNL A   1      33.177  22.984  27.026  1.00  0.00     0.120 C 
ATOM     14  C   UNL A   1      32.374  21.741  25.029  1.00  0.00     0.120 C 
ATOM     15  C   UNL A   1      33.600  22.369  25.688  1.00  0.00     0.155 C 
ATOM     16  O   UNL A   1      34.394  21.205  26.113  1.00  0.00    -0.352 OA
ATOM     17  N   UNL A   1      34.528  23.145  24.822  1.00  0.00    -0.295 N 
ATOM     18  C   UNL A   1      35.667  21.225  25.468  1.00  0.00     0.198 C 
BRANCH  17  19
ATOM     19  C   UNL A   1      34.417  24.146  23.858  1.00  0.00     0.256 C 
ATOM     20  O   UNL A   1      34.897  24.018  22.729  1.00  0.00    -0.269 OA
BRANCH  19  21
ATOM     21  C   UNL A   1      33.682  25.401  24.061  1.00  0.00     0.041 A 
ATOM     22  C   UNL A   1      34.075  26.297  25.067  1.00  0.00     0.027 A 
ATOM     23  C   UNL A   1      32.513  25.639  23.347  1.00  0.00     0.027 A 
ATOM     24  C   UNL A   1      33.377  27.506  25.251  1.00  0.00     0.057 A 
ATOM     25  C   UNL A   1      31.886  26.892  23.412  1.00  0.00     0.057 A 
ATOM     26  C   UNL A   1      32.315  27.813  24.381  1.00  0.00     0.026 A 
BRANCH  24  27
ATOM     27  C   UNL A   1      33.778  28.469  26.345  1.00  0.00     0.416 C 
ATOM     28  F   UNL A   1      33.504  27.994  27.588  1.00  0.00    -0.166 F 
ATOM     29  F   UNL A   1      35.112  28.745  26.328  1.00  0.00    -0.166 F 
ATOM     30  F   UNL A   1      33.152  29.677  26.258  1.00  0.00    -0.166 F 
ENDBRANCH  24  27
BRANCH  25  31
ATOM     31  C   UNL A   1      30.832  27.285  22.402  1.00  0.00     0.416 C 
ATOM     32  F   UNL A   1      29.567  27.086  22.859  1.00  0.00    -0.166 F 
ATOM     33  F   UNL A   1      30.903  28.608  22.074  1.00  0.00    -0.166 F 
ATOM     34  F   UNL A   1      30.922  26.606  21.226  1.00  0.00    -0.166 F 
ENDBRANCH  25  31
ENDBRANCH  19  21
ENDBRANCH  17  19
ENDBRANCH   4   7
ENDBRANCH   2   3
ENDBRANCH   1   2
BRANCH   1  35
ATOM     35  C   UNL A   1      40.646  23.150  27.191  1.00  0.00     0.118 C 
BRANCH  35  36
ATOM     36  N   UNL A   1      41.198  23.970  26.121  1.00  0.00    -0.352 N 
ATOM     37  C   UNL A   1      41.421  25.324  26.065  1.00  0.00     0.251 C 
ATOM     38  H   UNL A   1      41.451  23.475  25.309  1.00  0.00     0.163 HD
ATOM     39  O   UNL A   1      41.710  25.841  24.991  1.00  0.00    -0.269 OA
BRANCH  37  40
ATOM     40  C   UNL A   1      41.299  26.157  27.282  1.00  0.00     0.039 A 
ATOM     41  C   UNL A   1      42.329  27.046  27.595  1.00  0.00     0.014 A 
ATOM     42  C   UNL A   1      40.192  26.045  28.126  1.00  0.00     0.014 A 
ATOM     43  C   UNL A   1      42.216  27.872  28.716  1.00  0.00     0.010 A 
ATOM     44  C   UNL A   1      40.042  26.927  29.195  1.00  0.00     0.010 A 
ATOM     45  C   UNL A   1      41.053  27.847  29.505  1.00  0.00    -0.014 A 
BRANCH  45  46
ATOM     46  C   UNL A   1      40.878  28.777  30.650  1.00  0.00     0.031 A 
ATOM     47  C   UNL A   1      41.738  28.642  31.879  1.00  0.00     0.074 A 
ATOM     48  C   UNL A   1      39.905  29.710  30.607  1.00  0.00     0.049 A 
ATOM     49  N   UNL A   1      41.698  29.330  32.992  1.00  0.00    -0.248 NA
ATOM     50  C   UNL A   1      42.760  27.583  31.866  1.00  0.00     0.031 C 
ATOM     51  C   UNL A   1      38.979  29.918  29.490  1.00  0.00     0.029 A 
ATOM     52  N   UNL A   1      39.528  30.657  31.528  1.00  0.00    -0.354 N 
ATOM     53  C   UNL A   1      42.676  28.780  33.813  1.00  0.00     0.074 A 
ATOM     54  C   UNL A   1      43.254  27.667  33.092  1.00  0.00     0.031 C 
ATOM     55  C   UNL A   1      38.166  30.947  29.778  1.00  0.00     0.029 A 
ATOM     56  C   UNL A   1      38.477  31.442  31.115  1.00  0.00     0.049 A 
ATOM     57  H   UNL A   1      39.969  30.763  32.402  1.00  0.00     0.167 HD
ATOM     58  C   UNL A   1      43.072  29.176  35.047  1.00  0.00     0.031 A 
ATOM     59  C   UNL A   1      37.830  32.442  31.743  1.00  0.00     0.031 A 
ATOM     60  C   UNL A   1      42.496  30.286  35.760  1.00  0.00     0.049 A 
ATOM     61  C   UNL A   1      38.272  32.849  33.122  1.00  0.00     0.074 A 
ATOM     62  C   UNL A   1      42.860  30.796  36.994  1.00  0.00     0.029 A 
ATOM     63  N   UNL A   1      41.434  31.054  35.308  1.00  0.00    -0.354 N 
ATOM     64  N   UNL A   1      39.243  32.356  33.856  1.00  0.00    -0.248 NA
ATOM     65  C   UNL A   1      37.540  33.955  33.755  1.00  0.00     0.031 C 
ATOM     66  C   UNL A   1      41.979  31.835  37.314  1.00  0.00     0.029 A 
ATOM     67  C   UNL A   1      41.112  32.018  36.249  1.00  0.00     0.049 A 
ATOM     68  H   UNL A   1      40.976  30.933  34.444  1.00  0.00     0.167 HD
ATOM     69  C   UNL A   1      39.257  33.114  35.022  1.00  0.00     0.074 A 
ATOM     70  C   UNL A   1      38.210  34.107  34.888  1.00  0.00     0.031 C 
ATOM     71  C   UNL A   1      40.066  33.000  36.105  1.00  0.00     0.031 A 
BRANCH  58  72
ATOM     72  C   UNL A   1      44.181  28.397  35.708  1.00  0.00    -0.014 A 
ATOM     73  C   UNL A   1      45.530  28.760  35.534  1.00  0.00     0.010 A 
ATOM     74  C   UNL A   1      43.870  27.313  36.550  1.00  0.00     0.010 A 
ATOM     75  C   UNL A   1      46.546  28.029  36.153  1.00  0.00     0.020 A 
ATOM     76  C   UNL A   1      44.883  26.600  37.198  1.00  0.00     0.020 A 
ATOM     77  C   UNL A   1      46.216  26.952  36.981  1.00  0.00     0.054 A 
BRANCH  77  78
ATOM     78  S   UNL A   1      47.558  26.037  37.790  1.00  0.00     0.124 S 
ATOM     79  O   UNL A   1      47.547  24.774  37.054  1.00  0.00    -0.237 OA
ATOM     80  O   UNL A   1      48.716  26.892  37.552  1.00  0.00    -0.237 OA
ATOM     81  O   UNL A   1      47.127  25.948  39.183  1.00  0.00    -0.744 OA
ENDBRANCH  77  78
ENDBRANCH  58  72
BRANCH  59  82
ATOM     82  C   UNL A   1      36.702  33.141  31.066  1.00  0.00    -0.014 A 
ATOM     83  C   UNL A   1      35.410  33.121  31.623  1.00  0.00     0.010 A 
ATOM     84  C   UNL A   1      36.913  33.835  29.861  1.00  0.00     0.010 A 
ATOM     85  C   UNL A   1      34.349  33.762  30.977  1.00  0.00     0.020 A 
ATOM     86  C   UNL A   1      35.861  34.504  29.228  1.00  0.00     0.020 A 
ATOM     87  C   UNL A   1      34.582  34.452  29.784  1.00  0.00     0.054 A 
BRANCH  87  88
ATOM     88  S   UNL A   1      33.197  35.313  28.988  1.00  0.00     0.124 S 
ATOM     89  O   UNL A   1      32.373  35.687  30.133  1.00  0.00    -0.237 OA
ATOM     90  O   UNL A   1      33.866  36.415  28.300  1.00  0.00    -0.237 OA
ATOM     91  O   UNL A   1      32.623  34.297  28.108  1.00  0.00    -0.744 OA
ENDBRANCH  87  88
ENDBRANCH  59  82
BRANCH  71  92
ATOM     92  C   UNL A   1      39.883  34.000  37.217  1.00  0.00    -0.014 A 
ATOM     93  C   UNL A   1      40.565  35.231  37.218  1.00  0.00     0.010 A 
ATOM     94  C   UNL A   1      38.976  33.720  38.256  1.00  0.00     0.010 A 
ATOM     95  C   UNL A   1      40.370  36.146  38.256  1.00  0.00     0.020 A 
ATOM     96  C   UNL A   1      38.754  34.646  39.277  1.00  0.00     0.020 A 
ATOM     97  C   UNL A   1      39.465  35.848  39.279  1.00  0.00     0.054 A 
BRANCH  97  98
ATOM     98  S   UNL A   1      39.202  37.068  40.594  1.00  0.00     0.124 S 
ATOM     99  O   UNL A   1      38.667  36.243  41.673  1.00  0.00    -0.237 OA
ATOM    100  O   UNL A   1      40.546  37.597  40.813  1.00  0.00    -0.237 OA
ATOM    101  O   UNL A   1      38.255  38.013  40.007  1.00  0.00    -0.744 OA
ENDBRANCH  97  98
ENDBRANCH  71  92
ENDBRANCH  45  46
ENDBRANCH  37  40
ENDBRANCH  35  36
ENDBRANCH   1  35
TORSDOF 17
ENDMDL
MODEL 2
REMARK VINA RESULT:     -12.5      6.105     11.532
REMARK SMILES C[NH+]1CCC2(CC1)OC[C@H](C(=O)NCCCNC(=O)c1ccc(-c3c4nc(c(-c5ccc(S(=O)(=O)[O-])cc5)c5ccc([nH]5)c(-c5ccc(S(=O)(=O)[O-])cc5)c5nc(c(-c6ccc(S(=O)(=O)[O-])cc6)c6ccc3[nH]6)C=C5)C=C4)cc1)N2C(=O)c1cc(C(F)(F)F)cc(C(F)(F)F)c1
REMARK SMILES IDX 15 1 14 2 13 3 11 4 12 5 10 7 1 8 2 9 3 10 7 11 4 13 6 14
REMARK SMILES IDX 5 15 8 16 80 17 9 18 81 19 82 20 83 21 84 22 96 23 85 24
REMARK SMILES IDX 91 25 90 26 86 27 87 28 88 29 89 30 92 31 93 32 94 33 95 34
REMARK SMILES IDX 16 35 17 36 18 37 19 39 20 40 21 41 79 42 22 43 78 44 23 45
REMARK SMILES IDX 24 46 25 47 72 48 26 49 77 50 71 51 73 52 27 53 76 54 70 55
REMARK SMILES IDX 69 56 28 58 58 59 39 60 57 61 40 62 43 63 56 64 74 65 41 66
REMARK SMILES IDX 42 67 55 69 75 70 44 71 29 72 30 73 38 74 31 75 37 76 32 77
REMARK SMILES IDX 33 78 34 79 35 80 36 81 59 82 60 83 68 84 61 85 67 86 62 87
REMARK SMILES IDX 63 88 64 89 65 90 66 91 45 92 46 93 54 94 47 95 53 96 48 97
REMARK SMILES IDX 49 98 50 99 51 100 52 101
REMARK H PARENT 13 6 2 12 17 38 73 57 43 68
REMARK Flexibility Score: inf
ROOT
ATOM      1  C   UNL A   1      34.186  32.194  27.987  1.00  0.00     0.042 C 
ENDROOT
BRANCH   1   2
ATOM      2  C   UNL A   1      33.394  31.004  27.457  1.00  0.00     0.117 C 
BRANCH   2   3
ATOM      3  N   UNL A   1      34.248  30.062  26.761  1.00  0.00    -0.354 N 
ATOM      4  C   UNL A   1      33.963  28.836  26.240  1.00  0.00     0.245 C 
ATOM      5  O   UNL A   1      34.933  28.155  25.902  1.00  0.00    -0.273 OA
ATOM      6  H   UNL A   1      35.181  30.355  26.647  1.00  0.00     0.163 HD
BRANCH   4   7
ATOM      7  C   UNL A   1      32.505  28.393  26.010  1.00  0.00     0.203 C 
ATOM      8  C   UNL A   1      32.531  25.451  20.328  1.00  0.00     0.332 C 
ATOM      9  N   UNL A   1      32.585  25.339  21.780  1.00  0.00    -0.337 N 
ATOM     10  C   UNL A   1      33.723  26.059  22.342  1.00  0.00     0.267 C 
ATOM     11  C   UNL A   1      31.283  25.551  22.412  1.00  0.00     0.267 C 
ATOM     12  H   UNL A   1      32.785  24.369  22.021  1.00  0.00     0.347 HD
ATOM     13  C   UNL A   1      33.432  27.433  22.888  1.00  0.00     0.120 C 
ATOM     14  C   UNL A   1      31.013  26.895  23.072  1.00  0.00     0.120 C 
ATOM     15  C   UNL A   1      32.206  27.505  23.804  1.00  0.00     0.155 C 
ATOM     16  O   UNL A   1      31.903  28.945  23.813  1.00  0.00    -0.352 OA
ATOM     17  N   UNL A   1      32.384  27.163  25.240  1.00  0.00    -0.295 N 
ATOM     18  C   UNL A   1      31.802  29.412  25.157  1.00  0.00     0.198 C 
BRANCH  17  19
ATOM     19  C   UNL A   1      32.383  26.003  26.014  1.00  0.00     0.256 C 
ATOM     20  O   UNL A   1      31.712  25.910  27.044  1.00  0.00    -0.269 OA
BRANCH  19  21
ATOM     21  C   UNL A   1      33.115  24.781  25.659  1.00  0.00     0.041 A 
ATOM     22  C   UNL A   1      32.434  23.677  25.123  1.00  0.00     0.027 A 
ATOM     23  C   UNL A   1      34.463  24.664  25.983  1.00  0.00     0.027 A 
ATOM     24  C   UNL A   1      33.139  22.511  24.772  1.00  0.00     0.057 A 
ATOM     25  C   UNL A   1      35.211  23.574  25.516  1.00  0.00     0.057 A 
ATOM     26  C   UNL A   1      34.537  22.492  24.928  1.00  0.00     0.026 A 
BRANCH  24  27
ATOM     27  C   UNL A   1      32.412  21.308  24.214  1.00  0.00     0.416 C 
ATOM     28  F   UNL A   1      31.436  20.854  25.042  1.00  0.00    -0.166 F 
ATOM     29  F   UNL A   1      31.807  21.577  23.023  1.00  0.00    -0.166 F 
ATOM     30  F   UNL A   1      33.231  20.244  23.977  1.00  0.00    -0.166 F 
ENDBRANCH  24  27
BRANCH  25  31
ATOM     31  C   UNL A   1      36.722  23.596  25.559  1.00  0.00     0.416 C 
ATOM     32  F   UNL A   1      37.274  24.005  24.386  1.00  0.00    -0.166 F 
ATOM     33  F   UNL A   1      37.197  24.453  26.509  1.00  0.00    -0.166 F 
ATOM     34  F   UNL A   1      37.280  22.386  25.839  1.00  0.00    -0.166 F 
ENDBRANCH  25  31
ENDBRANCH  19  21
ENDBRANCH  17  19
ENDBRANCH   4   7
ENDBRANCH   2   3
ENDBRANCH   1   2
BRANCH   1  35
ATOM     35  C   UNL A   1      35.535  31.823  28.600  1.00  0.00     0.118 C 
BRANCH  35  36
ATOM     36  N   UNL A   1      35.426  31.389  29.987  1.00  0.00    -0.352 N 
ATOM     37  C   UNL A   1      36.293  30.656  30.759  1.00  0.00     0.251 C 
ATOM     38  H   UNL A   1      34.598  31.665  30.442  1.00  0.00     0.163 HD
ATOM     39  O   UNL A   1      35.916  30.231  31.846  1.00  0.00    -0.269 OA
BRANCH  37  40
ATOM     40  C   UNL A   1      37.663  30.366  30.282  1.00  0.00     0.039 A 
ATOM     41  C   UNL A   1      38.704  30.319  31.213  1.00  0.00     0.014 A 
ATOM     42  C   UNL A   1      37.929  30.168  28.926  1.00  0.00     0.014 A 
ATOM     43  C   UNL A   1      39.998  30.006  30.790  1.00  0.00     0.010 A 
ATOM     44  C   UNL A   1      39.202  29.774  28.518  1.00  0.00     0.010 A 
ATOM     45  C   UNL A   1      40.251  29.692  29.444  1.00  0.00    -0.014 A 
BRANCH  45  46
ATOM     46  C   UNL A   1      41.603  29.274  28.991  1.00  0.00     0.031 A 
ATOM     47  C   UNL A   1      42.725  30.276  28.916  1.00  0.00     0.074 A 
ATOM     48  C   UNL A   1      41.808  28.002  28.593  1.00  0.00     0.049 A 
ATOM     49  N   UNL A   1      43.956  30.105  28.502  1.00  0.00    -0.248 NA
ATOM     50  C   UNL A   1      42.421  31.652  29.340  1.00  0.00     0.031 C 
ATOM     51  C   UNL A   1      40.793  26.945  28.580  1.00  0.00     0.029 A 
ATOM     52  N   UNL A   1      42.936  27.381  28.117  1.00  0.00    -0.354 N 
ATOM     53  C   UNL A   1      44.565  31.351  28.602  1.00  0.00     0.074 A 
ATOM     54  C   UNL A   1      43.555  32.278  29.063  1.00  0.00     0.031 C 
ATOM     55  C   UNL A   1      41.354  25.802  28.152  1.00  0.00     0.029 A 
ATOM     56  C   UNL A   1      42.750  26.052  27.814  1.00  0.00     0.049 A 
ATOM     57  H   UNL A   1      43.798  27.844  28.003  1.00  0.00     0.167 HD
ATOM     58  C   UNL A   1      45.853  31.691  28.353  1.00  0.00     0.031 A 
ATOM     59  C   UNL A   1      43.604  25.138  27.314  1.00  0.00     0.031 A 
ATOM     60  C   UNL A   1      46.856  30.764  27.897  1.00  0.00     0.049 A 
ATOM     61  C   UNL A   1      45.023  25.544  27.023  1.00  0.00     0.074 A 
ATOM     62  C   UNL A   1      48.200  30.999  27.662  1.00  0.00     0.029 A 
ATOM     63  N   UNL A   1      46.627  29.428  27.602  1.00  0.00    -0.354 N 
ATOM     64  N   UNL A   1      45.596  26.714  27.185  1.00  0.00    -0.248 NA
ATOM     65  C   UNL A   1      45.915  24.504  26.491  1.00  0.00     0.031 C 
ATOM     66  C   UNL A   1      48.769  29.820  27.168  1.00  0.00     0.029 A 
ATOM     67  C   UNL A   1      47.797  28.833  27.163  1.00  0.00     0.049 A 
ATOM     68  H   UNL A   1      45.760  28.971  27.693  1.00  0.00     0.167 HD
ATOM     69  C   UNL A   1      46.923  26.540  26.807  1.00  0.00     0.074 A 
ATOM     70  C   UNL A   1      47.070  25.150  26.423  1.00  0.00     0.031 C 
ATOM     71  C   UNL A   1      47.930  27.448  26.782  1.00  0.00     0.031 A 
BRANCH  58  72
ATOM     72  C   UNL A   1      46.250  33.130  28.564  1.00  0.00    -0.014 A 
ATOM     73  C   UNL A   1      46.691  33.587  29.820  1.00  0.00     0.010 A 
ATOM     74  C   UNL A   1      46.223  34.029  27.482  1.00  0.00     0.010 A 
ATOM     75  C   UNL A   1      47.056  34.923  30.001  1.00  0.00     0.020 A 
ATOM     76  C   UNL A   1      46.619  35.360  27.651  1.00  0.00     0.020 A 
ATOM     77  C   UNL A   1      47.016  35.802  28.914  1.00  0.00     0.054 A 
BRANCH  77  78
ATOM     78  S   UNL A   1      47.519  37.526  29.174  1.00  0.00     0.124 S 
ATOM     79  O   UNL A   1      46.963  38.182  27.992  1.00  0.00    -0.237 OA
ATOM     80  O   UNL A   1      46.872  37.859  30.439  1.00  0.00    -0.237 OA
ATOM     81  O   UNL A   1      48.977  37.461  29.220  1.00  0.00    -0.744 OA
ENDBRANCH  77  78
ENDBRANCH  58  72
BRANCH  59  82
ATOM     82  C   UNL A   1      43.143  23.743  27.070  1.00  0.00    -0.014 A 
ATOM     83  C   UNL A   1      42.892  23.291  25.762  1.00  0.00     0.010 A 
ATOM     84  C   UNL A   1      42.957  22.855  28.145  1.00  0.00     0.010 A 
ATOM     85  C   UNL A   1      42.443  21.986  25.536  1.00  0.00     0.020 A 
ATOM     86  C   UNL A   1      42.538  21.540  27.921  1.00  0.00     0.020 A 
ATOM     87  C   UNL A   1      42.271  21.118  26.618  1.00  0.00     0.054 A 
BRANCH  87  88
ATOM     88  S   UNL A   1      41.730  19.416  26.295  1.00  0.00     0.124 S 
ATOM     89  O   UNL A   1      42.090  18.742  27.539  1.00  0.00    -0.237 OA
ATOM     90  O   UNL A   1      40.298  19.583  26.055  1.00  0.00    -0.237 OA
ATOM     91  O   UNL A   1      42.509  19.026  25.122  1.00  0.00    -0.744 OA
ENDBRANCH  87  88
ENDBRANCH  59  82
BRANCH  71  92
ATOM     92  C   UNL A   1      49.295  26.962  26.365  1.00  0.00    -0.014 A 
ATOM     93  C   UNL A   1      50.175  26.366  27.287  1.00  0.00     0.010 A 
ATOM     94  C   UNL A   1      49.682  27.063  25.016  1.00  0.00     0.010 A 
ATOM     95  C   UNL A   1      51.431  25.914  26.873  1.00  0.00     0.020 A 
ATOM     96  C   UNL A   1      50.923  26.582  24.592  1.00  0.00     0.020 A 
ATOM     97  C   UNL A   1      51.796  26.024  25.528  1.00  0.00     0.054 A 
BRANCH  97  98
ATOM     98  S   UNL A   1      53.417  25.395  25.010  1.00  0.00     0.124 S 
ATOM     99  O   UNL A   1      53.320  23.981  25.358  1.00  0.00    -0.237 OA
ATOM    100  O   UNL A   1      53.432  25.692  23.580  1.00  0.00    -0.237 OA
ATOM    101  O   UNL A   1      54.362  26.169  25.810  1.00  0.00    -0.744 OA
ENDBRANCH  97  98
ENDBRANCH  71  92
ENDBRANCH  45  46
ENDBRANCH  37  40
ENDBRANCH  35  36
ENDBRANCH   1  35
TORSDOF 17
ENDMDL
MODEL 3
REMARK VINA RESULT:     -12.4      6.201     11.598
REMARK SMILES C[NH+]1CCC2(CC1)OC[C@H](C(=O)NCCCNC(=O)c1ccc(-c3c4nc(c(-c5ccc(S(=O)(=O)[O-])cc5)c5ccc([nH]5)c(-c5ccc(S(=O)(=O)[O-])cc5)c5nc(c(-c6ccc(S(=O)(=O)[O-])cc6)c6ccc3[nH]6)C=C5)C=C4)cc1)N2C(=O)c1cc(C(F)(F)F)cc(C(F)(F)F)c1
REMARK SMILES IDX 15 1 14 2 13 3 11 4 12 5 10 7 1 8 2 9 3 10 7 11 4 13 6 14
REMARK SMILES IDX 5 15 8 16 80 17 9 18 81 19 82 20 83 21 84 22 96 23 85 24
REMARK SMILES IDX 91 25 90 26 86 27 87 28 88 29 89 30 92 31 93 32 94 33 95 34
REMARK SMILES IDX 16 35 17 36 18 37 19 39 20 40 21 41 79 42 22 43 78 44 23 45
REMARK SMILES IDX 24 46 25 47 72 48 26 49 77 50 71 51 73 52 27 53 76 54 70 55
REMARK SMILES IDX 69 56 28 58 58 59 39 60 57 61 40 62 43 63 56 64 74 65 41 66
REMARK SMILES IDX 42 67 55 69 75 70 44 71 29 72 30 73 38 74 31 75 37 76 32 77
REMARK SMILES IDX 33 78 34 79 35 80 36 81 59 82 60 83 68 84 61 85 67 86 62 87
REMARK SMILES IDX 63 88 64 89 65 90 66 91 45 92 46 93 54 94 47 95 53 96 48 97
REMARK SMILES IDX 49 98 50 99 51 100 52 101
REMARK H PARENT 13 6 2 12 17 38 73 57 43 68
REMARK Flexibility Score: inf
ROOT
ATOM      1  C   UNL A   1      34.372  31.913  27.988  1.00  0.00     0.042 C 
ENDROOT
BRANCH   1   2
ATOM      2  C   UNL A   1      33.519  30.841  27.320  1.00  0.00     0.117 C 
BRANCH   2   3
ATOM      3  N   UNL A   1      34.336  29.790  26.745  1.00  0.00    -0.354 N 
ATOM      4  C   UNL A   1      33.993  28.543  26.318  1.00  0.00     0.245 C 
ATOM      5  O   UNL A   1      34.929  27.777  26.082  1.00  0.00    -0.273 OA
ATOM      6  H   UNL A   1      35.290  30.014  26.647  1.00  0.00     0.163 HD
BRANCH   4   7
ATOM      7  C   UNL A   1      32.520  28.172  26.063  1.00  0.00     0.203 C 
ATOM      8  C   UNL A   1      32.441  25.578  20.214  1.00  0.00     0.332 C 
ATOM      9  N   UNL A   1      32.488  25.378  21.656  1.00  0.00    -0.337 N 
ATOM     10  C   UNL A   1      33.652  26.017  22.260  1.00  0.00     0.267 C 
ATOM     11  C   UNL A   1      31.194  25.601  22.301  1.00  0.00     0.267 C 
ATOM     12  H   UNL A   1      32.649  24.387  21.839  1.00  0.00     0.347 HD
ATOM     13  C   UNL A   1      33.414  27.367  22.888  1.00  0.00     0.120 C 
ATOM     14  C   UNL A   1      30.975  26.913  23.040  1.00  0.00     0.120 C 
ATOM     15  C   UNL A   1      32.190  27.430  23.807  1.00  0.00     0.155 C 
ATOM     16  O   UNL A   1      31.943  28.878  23.903  1.00  0.00    -0.352 OA
ATOM     17  N   UNL A   1      32.352  26.996  25.220  1.00  0.00    -0.295 N 
ATOM     18  C   UNL A   1      31.858  29.266  25.273  1.00  0.00     0.198 C 
BRANCH  17  19
ATOM     19  C   UNL A   1      32.305  25.793  25.923  1.00  0.00     0.256 C 
ATOM     20  O   UNL A   1      31.540  25.626  26.876  1.00  0.00    -0.269 OA
BRANCH  19  21
ATOM     21  C   UNL A   1      33.097  24.607  25.572  1.00  0.00     0.041 A 
ATOM     22  C   UNL A   1      34.492  24.617  25.724  1.00  0.00     0.027 A 
ATOM     23  C   UNL A   1      32.480  23.521  24.959  1.00  0.00     0.027 A 
ATOM     24  C   UNL A   1      35.249  23.474  25.400  1.00  0.00     0.057 A 
ATOM     25  C   UNL A   1      33.186  22.326  24.760  1.00  0.00     0.057 A 
ATOM     26  C   UNL A   1      34.575  22.318  24.966  1.00  0.00     0.026 A 
BRANCH  24  27
ATOM     27  C   UNL A   1      36.754  23.480  25.539  1.00  0.00     0.416 C 
ATOM     28  F   UNL A   1      37.241  22.307  26.019  1.00  0.00    -0.166 F 
ATOM     29  F   UNL A   1      37.382  23.695  24.349  1.00  0.00    -0.166 F 
ATOM     30  F   UNL A   1      37.215  24.451  26.378  1.00  0.00    -0.166 F 
ENDBRANCH  24  27
BRANCH  25  31
ATOM     31  C   UNL A   1      32.460  21.045  24.420  1.00  0.00     0.416 C 
ATOM     32  F   UNL A   1      33.254  19.946  24.532  1.00  0.00    -0.166 F 
ATOM     33  F   UNL A   1      31.400  20.820  25.249  1.00  0.00    -0.166 F 
ATOM     34  F   UNL A   1      31.954  21.021  23.156  1.00  0.00    -0.166 F 
ENDBRANCH  25  31
ENDBRANCH  19  21
ENDBRANCH  17  19
ENDBRANCH   4   7
ENDBRANCH   2   3
ENDBRANCH   1   2
BRANCH   1  35
ATOM     35  C   UNL A   1      35.685  31.393  28.572  1.00  0.00     0.118 C 
BRANCH  35  36
ATOM     36  N   UNL A   1      35.593  31.102  29.997  1.00  0.00    -0.352 N 
ATOM     37  C   UNL A   1      36.418  30.361  30.807  1.00  0.00     0.251 C 
ATOM     38  H   UNL A   1      34.816  31.501  30.451  1.00  0.00     0.163 HD
ATOM     39  O   UNL A   1      36.049  30.078  31.942  1.00  0.00    -0.269 OA
BRANCH  37  40
ATOM     40  C   UNL A   1      37.733  29.893  30.314  1.00  0.00     0.039 A 
ATOM     41  C   UNL A   1      37.994  29.943  28.943  1.00  0.00     0.014 A 
ATOM     42  C   UNL A   1      38.694  29.384  31.190  1.00  0.00     0.014 A 
ATOM     43  C   UNL A   1      39.244  29.546  28.460  1.00  0.00     0.010 A 
ATOM     44  C   UNL A   1      39.966  29.069  30.718  1.00  0.00     0.010 A 
ATOM     45  C   UNL A   1      40.255  29.142  29.348  1.00  0.00    -0.014 A 
BRANCH  45  46
ATOM     46  C   UNL A   1      41.616  28.798  28.862  1.00  0.00     0.031 A 
ATOM     47  C   UNL A   1      42.682  29.858  28.767  1.00  0.00     0.074 A 
ATOM     48  C   UNL A   1      41.877  27.540  28.451  1.00  0.00     0.049 A 
ATOM     49  N   UNL A   1      43.909  29.755  28.323  1.00  0.00    -0.248 NA
ATOM     50  C   UNL A   1      42.315  31.214  29.207  1.00  0.00     0.031 C 
ATOM     51  C   UNL A   1      40.920  26.431  28.455  1.00  0.00     0.029 A 
ATOM     52  N   UNL A   1      43.026  26.982  27.945  1.00  0.00    -0.354 N 
ATOM     53  C   UNL A   1      44.455  31.030  28.418  1.00  0.00     0.074 A 
ATOM     54  C   UNL A   1      43.408  31.901  28.908  1.00  0.00     0.031 C 
ATOM     55  C   UNL A   1      41.529  25.322  28.007  1.00  0.00     0.029 A 
ATOM     56  C   UNL A   1      42.903  25.647  27.638  1.00  0.00     0.049 A 
ATOM     57  H   UNL A   1      43.859  27.490  27.814  1.00  0.00     0.167 HD
ATOM     58  C   UNL A   1      45.716  31.438  28.141  1.00  0.00     0.031 A 
ATOM     59  C   UNL A   1      43.792  24.782  27.113  1.00  0.00     0.031 A 
ATOM     60  C   UNL A   1      46.755  30.568  27.655  1.00  0.00     0.049 A 
ATOM     61  C   UNL A   1      45.180  25.264  26.791  1.00  0.00     0.074 A 
ATOM     62  C   UNL A   1      48.079  30.875  27.391  1.00  0.00     0.029 A 
ATOM     63  N   UNL A   1      46.590  29.224  27.358  1.00  0.00    -0.354 N 
ATOM     64  N   UNL A   1      45.694  26.461  26.948  1.00  0.00    -0.248 NA
ATOM     65  C   UNL A   1      46.112  24.275  26.233  1.00  0.00     0.031 C 
ATOM     66  C   UNL A   1      48.698  29.730  26.876  1.00  0.00     0.029 A 
ATOM     67  C   UNL A   1      47.780  28.693  26.888  1.00  0.00     0.049 A 
ATOM     68  H   UNL A   1      45.751  28.721  27.465  1.00  0.00     0.167 HD
ATOM     69  C   UNL A   1      47.020  26.359  26.538  1.00  0.00     0.074 A 
ATOM     70  C   UNL A   1      47.230  24.981  26.142  1.00  0.00     0.031 C 
ATOM     71  C   UNL A   1      47.977  27.320  26.495  1.00  0.00     0.031 A 
BRANCH  58  72
ATOM     72  C   UNL A   1      46.042  32.895  28.351  1.00  0.00    -0.014 A 
ATOM     73  C   UNL A   1      46.480  33.370  29.602  1.00  0.00     0.010 A 
ATOM     74  C   UNL A   1      45.951  33.796  27.274  1.00  0.00     0.010 A 
ATOM     75  C   UNL A   1      46.778  34.723  29.782  1.00  0.00     0.020 A 
ATOM     76  C   UNL A   1      46.280  35.145  27.442  1.00  0.00     0.020 A 
ATOM     77  C   UNL A   1      46.675  35.602  28.700  1.00  0.00     0.054 A 
BRANCH  77  78
ATOM     78  S   UNL A   1      47.092  37.349  28.959  1.00  0.00     0.124 S 
ATOM     79  O   UNL A   1      45.947  38.025  28.351  1.00  0.00    -0.237 OA
ATOM     80  O   UNL A   1      47.176  37.445  30.413  1.00  0.00    -0.237 OA
ATOM     81  O   UNL A   1      48.358  37.513  28.251  1.00  0.00    -0.744 OA
ENDBRANCH  77  78
ENDBRANCH  58  72
BRANCH  59  82
ATOM     82  C   UNL A   1      43.399  23.365  26.871  1.00  0.00    -0.014 A 
ATOM     83  C   UNL A   1      43.407  22.833  25.569  1.00  0.00     0.010 A 
ATOM     84  C   UNL A   1      43.019  22.538  27.943  1.00  0.00     0.010 A 
ATOM     85  C   UNL A   1      43.022  21.509  25.341  1.00  0.00     0.020 A 
ATOM     86  C   UNL A   1      42.663  21.204  27.724  1.00  0.00     0.020 A 
ATOM     87  C   UNL A   1      42.654  20.701  26.421  1.00  0.00     0.054 A 
BRANCH  87  88
ATOM     88  S   UNL A   1      42.201  18.973  26.106  1.00  0.00     0.124 S 
ATOM     89  O   UNL A   1      43.099  18.618  25.011  1.00  0.00    -0.237 OA
ATOM     90  O   UNL A   1      42.482  18.335  27.390  1.00  0.00    -0.237 OA
ATOM     91  O   UNL A   1      40.784  19.050  25.754  1.00  0.00    -0.744 OA
ENDBRANCH  87  88
ENDBRANCH  59  82
BRANCH  71  92
ATOM     92  C   UNL A   1      49.354  26.908  26.044  1.00  0.00    -0.014 A 
ATOM     93  C   UNL A   1      50.243  26.245  26.909  1.00  0.00     0.010 A 
ATOM     94  C   UNL A   1      49.747  27.150  24.714  1.00  0.00     0.010 A 
ATOM     95  C   UNL A   1      51.511  25.864  26.464  1.00  0.00     0.020 A 
ATOM     96  C   UNL A   1      51.001  26.742  24.255  1.00  0.00     0.020 A 
ATOM     97  C   UNL A   1      51.882  26.115  25.138  1.00  0.00     0.054 A 
BRANCH  97  98
ATOM     98  S   UNL A   1      53.520  25.577  24.574  1.00  0.00     0.124 S 
ATOM     99  O   UNL A   1      53.491  25.945  23.162  1.00  0.00    -0.237 OA
ATOM    100  O   UNL A   1      54.421  26.365  25.411  1.00  0.00    -0.237 OA
ATOM    101  O   UNL A   1      53.526  24.141  24.843  1.00  0.00    -0.744 OA
ENDBRANCH  97  98
ENDBRANCH  71  92
ENDBRANCH  45  46
ENDBRANCH  37  40
ENDBRANCH  35  36
ENDBRANCH   1  35
TORSDOF 17
ENDMDL
