MODEL 1
REMARK VINA RESULT:     -10.1      0.000      0.000
REMARK SMILES C[C@@H](CC(=O)NCCCNC(=O)c1ccc(-c2c3nc(c(-c4ccc(S(=O)(=O)[O-])cc4)c4ccc([nH]4)c(-c4ccc(S(=O)(=O)[O-])cc4)c4nc(c(-c5ccc(S(=O)(=O)[O-])cc5)c5ccc2[nH]5)C=C4)C=C3)cc1)CC(=O)N1C[C@H](C)[C@@H](C)C1
REMARK SMILES IDX 8 1 7 2 6 3 4 4 5 5 3 7 2 8 1 9 73 10 74 11 75 12 76 13
REMARK SMILES IDX 77 14 82 15 78 16 80 17 79 18 81 19 9 20 10 21 11 22 12 24
REMARK SMILES IDX 13 25 14 26 72 27 15 28 71 29 16 30 17 31 18 32 65 33 19 34
REMARK SMILES IDX 70 35 64 36 66 37 20 38 69 39 63 40 62 41 21 43 51 44 32 45
REMARK SMILES IDX 50 46 33 47 36 48 49 49 67 50 34 51 35 52 48 54 68 55 37 56
REMARK SMILES IDX 22 57 23 58 31 59 24 60 30 61 25 62 26 63 27 64 28 65 29 66
REMARK SMILES IDX 52 67 53 68 61 69 54 70 60 71 55 72 56 73 57 74 58 75 59 76
REMARK SMILES IDX 38 77 39 78 47 79 40 80 46 81 41 82 42 83 43 84 44 85 45 86
REMARK H PARENT 6 6 10 23 66 42 36 53
REMARK Flexibility Score: inf
ROOT
ATOM      1  C   UNL A   1      35.744  23.677  25.726  1.00  0.00     0.042 C 
ENDROOT
BRANCH   1   2
ATOM      2  C   UNL A   1      35.401  22.253  26.155  1.00  0.00     0.117 C 
BRANCH   2   3
ATOM      3  N   UNL A   1      34.532  22.232  27.318  1.00  0.00    -0.356 N 
ATOM      4  C   UNL A   1      33.176  22.294  27.418  1.00  0.00     0.220 C 
ATOM      5  O   UNL A   1      32.682  22.295  28.548  1.00  0.00    -0.275 OA
ATOM      6  H   UNL A   1      35.003  22.161  28.180  1.00  0.00     0.163 HD
BRANCH   4   7
ATOM      7  C   UNL A   1      32.289  22.335  26.184  1.00  0.00     0.103 C 
BRANCH   7   8
ATOM      8  C   UNL A   1      31.894  23.722  25.611  1.00  0.00     0.004 C 
ATOM      9  C   UNL A   1      32.369  23.835  24.163  1.00  0.00     0.009 C 
BRANCH   8  10
ATOM     10  C   UNL A   1      32.305  24.886  26.521  1.00  0.00     0.104 C 
BRANCH  10  11
ATOM     11  C   UNL A   1      31.556  26.210  26.426  1.00  0.00     0.222 C 
ATOM     12  O   UNL A   1      30.342  26.231  26.233  1.00  0.00    -0.275 OA
ATOM     13  N   UNL A   1      32.284  27.341  26.752  1.00  0.00    -0.342 N 
ATOM     14  C   UNL A   1      31.678  28.462  27.455  1.00  0.00     0.123 C 
ATOM     15  C   UNL A   1      33.476  27.768  26.040  1.00  0.00     0.123 C 
ATOM     16  C   UNL A   1      32.346  29.714  26.882  1.00  0.00     0.010 C 
ATOM     17  C   UNL A   1      33.737  29.214  26.456  1.00  0.00     0.010 C 
ATOM     18  C   UNL A   1      31.544  30.242  25.692  1.00  0.00     0.010 C 
ATOM     19  C   UNL A   1      34.768  29.291  27.581  1.00  0.00     0.010 C 
ENDBRANCH  10  11
ENDBRANCH   8  10
ENDBRANCH   7   8
ENDBRANCH   4   7
ENDBRANCH   2   3
ENDBRANCH   1   2
BRANCH   1  20
ATOM     20  C   UNL A   1      37.086  23.839  25.023  1.00  0.00     0.118 C 
BRANCH  20  21
ATOM     21  N   UNL A   1      38.026  22.802  25.405  1.00  0.00    -0.352 N 
ATOM     22  C   UNL A   1      39.220  22.889  26.083  1.00  0.00     0.251 C 
ATOM     23  H   UNL A   1      37.769  21.890  25.137  1.00  0.00     0.163 HD
ATOM     24  O   UNL A   1      39.958  21.907  26.098  1.00  0.00    -0.269 OA
BRANCH  22  25
ATOM     25  C   UNL A   1      39.639  24.136  26.773  1.00  0.00     0.039 A 
ATOM     26  C   UNL A   1      39.169  24.368  28.071  1.00  0.00     0.014 A 
ATOM     27  C   UNL A   1      40.420  25.110  26.145  1.00  0.00     0.014 A 
ATOM     28  C   UNL A   1      39.515  25.543  28.749  1.00  0.00     0.010 A 
ATOM     29  C   UNL A   1      40.824  26.248  26.848  1.00  0.00     0.010 A 
ATOM     30  C   UNL A   1      40.368  26.484  28.154  1.00  0.00    -0.014 A 
BRANCH  30  31
ATOM     31  C   UNL A   1      40.783  27.719  28.876  1.00  0.00     0.031 A 
ATOM     32  C   UNL A   1      42.126  27.792  29.555  1.00  0.00     0.074 A 
ATOM     33  C   UNL A   1      39.930  28.759  28.973  1.00  0.00     0.049 A 
ATOM     34  N   UNL A   1      42.628  28.752  30.292  1.00  0.00    -0.248 NA
ATOM     35  C   UNL A   1      43.013  26.627  29.406  1.00  0.00     0.031 C 
ATOM     36  C   UNL A   1      38.591  28.812  28.383  1.00  0.00     0.029 A 
ATOM     37  N   UNL A   1      40.057  29.968  29.613  1.00  0.00    -0.354 N 
ATOM     38  C   UNL A   1      43.875  28.300  30.710  1.00  0.00     0.074 A 
ATOM     39  C   UNL A   1      44.037  26.964  30.178  1.00  0.00     0.031 C 
ATOM     40  C   UNL A   1      38.026  29.994  28.679  1.00  0.00     0.029 A 
ATOM     41  C   UNL A   1      38.944  30.769  29.507  1.00  0.00     0.049 A 
ATOM     42  H   UNL A   1      40.869  30.235  30.102  1.00  0.00     0.167 HD
ATOM     43  C   UNL A   1      44.807  28.942  31.455  1.00  0.00     0.031 A 
ATOM     44  C   UNL A   1      38.683  31.986  30.024  1.00  0.00     0.031 A 
ATOM     45  C   UNL A   1      44.656  30.278  31.969  1.00  0.00     0.049 A 
ATOM     46  C   UNL A   1      39.731  32.677  30.853  1.00  0.00     0.074 A 
ATOM     47  C   UNL A   1      45.571  31.032  32.683  1.00  0.00     0.029 A 
ATOM     48  N   UNL A   1      43.519  31.059  31.825  1.00  0.00    -0.354 N 
ATOM     49  N   UNL A   1      40.927  32.254  31.187  1.00  0.00    -0.248 NA
ATOM     50  C   UNL A   1      39.400  34.015  31.363  1.00  0.00     0.031 C 
ATOM     51  C   UNL A   1      44.969  32.251  33.014  1.00  0.00     0.029 A 
ATOM     52  C   UNL A   1      43.700  32.277  32.457  1.00  0.00     0.049 A 
ATOM     53  H   UNL A   1      42.704  30.787  31.345  1.00  0.00     0.167 HD
ATOM     54  C   UNL A   1      41.500  33.284  31.924  1.00  0.00     0.074 A 
ATOM     55  C   UNL A   1      40.526  34.354  31.977  1.00  0.00     0.031 C 
ATOM     56  C   UNL A   1      42.724  33.336  32.503  1.00  0.00     0.031 A 
BRANCH  43  57
ATOM     57  C   UNL A   1      46.081  28.200  31.768  1.00  0.00    -0.014 A 
ATOM     58  C   UNL A   1      47.212  28.316  30.941  1.00  0.00     0.010 A 
ATOM     59  C   UNL A   1      46.161  27.409  32.930  1.00  0.00     0.010 A 
ATOM     60  C   UNL A   1      48.386  27.622  31.246  1.00  0.00     0.020 A 
ATOM     61  C   UNL A   1      47.343  26.735  33.253  1.00  0.00     0.020 A 
ATOM     62  C   UNL A   1      48.442  26.831  32.398  1.00  0.00     0.054 A 
BRANCH  62  63
ATOM     63  S   UNL A   1      49.985  25.955  32.778  1.00  0.00     0.124 S 
ATOM     64  O   UNL A   1      49.514  24.584  32.957  1.00  0.00    -0.237 OA
ATOM     65  O   UNL A   1      50.792  26.191  31.584  1.00  0.00    -0.237 OA
ATOM     66  O   UNL A   1      50.466  26.611  33.991  1.00  0.00    -0.744 OA
ENDBRANCH  62  63
ENDBRANCH  43  57
BRANCH  44  67
ATOM     67  C   UNL A   1      37.371  32.634  29.760  1.00  0.00    -0.014 A 
ATOM     68  C   UNL A   1      36.240  32.296  30.525  1.00  0.00     0.010 A 
ATOM     69  C   UNL A   1      37.249  33.610  28.753  1.00  0.00     0.010 A 
ATOM     70  C   UNL A   1      35.010  32.914  30.281  1.00  0.00     0.020 A 
ATOM     71  C   UNL A   1      36.028  34.247  28.524  1.00  0.00     0.020 A 
ATOM     72  C   UNL A   1      34.913  33.888  29.283  1.00  0.00     0.054 A 
BRANCH  72  73
ATOM     73  S   UNL A   1      33.323  34.724  29.028  1.00  0.00     0.124 S 
ATOM     74  O   UNL A   1      32.646  33.815  28.107  1.00  0.00    -0.237 OA
ATOM     75  O   UNL A   1      32.775  34.781  30.380  1.00  0.00    -0.237 OA
ATOM     76  O   UNL A   1      33.706  36.017  28.465  1.00  0.00    -0.744 OA
ENDBRANCH  72  73
ENDBRANCH  44  67
BRANCH  56  77
ATOM     77  C   UNL A   1      43.101  34.605  33.220  1.00  0.00    -0.014 A 
ATOM     78  C   UNL A   1      42.845  34.771  34.592  1.00  0.00     0.010 A 
ATOM     79  C   UNL A   1      43.778  35.621  32.520  1.00  0.00     0.010 A 
ATOM     80  C   UNL A   1      43.237  35.941  35.247  1.00  0.00     0.020 A 
ATOM     81  C   UNL A   1      44.194  36.782  33.177  1.00  0.00     0.020 A 
ATOM     82  C   UNL A   1      43.910  36.940  34.535  1.00  0.00     0.054 A 
BRANCH  82  83
ATOM     83  S   UNL A   1      44.456  38.427  35.419  1.00  0.00     0.124 S 
ATOM     84  O   UNL A   1      43.786  39.488  34.671  1.00  0.00    -0.237 OA
ATOM     85  O   UNL A   1      43.955  38.199  36.772  1.00  0.00    -0.237 OA
ATOM     86  O   UNL A   1      45.911  38.395  35.286  1.00  0.00    -0.744 OA
ENDBRANCH  82  83
ENDBRANCH  56  77
ENDBRANCH  30  31
ENDBRANCH  22  25
ENDBRANCH  20  21
ENDBRANCH   1  20
TORSDOF 16
ENDMDL
MODEL 2
REMARK VINA RESULT:     -10.1      3.573     10.529
REMARK SMILES C[C@@H](CC(=O)NCCCNC(=O)c1ccc(-c2c3nc(c(-c4ccc(S(=O)(=O)[O-])cc4)c4ccc([nH]4)c(-c4ccc(S(=O)(=O)[O-])cc4)c4nc(c(-c5ccc(S(=O)(=O)[O-])cc5)c5ccc2[nH]5)C=C4)C=C3)cc1)CC(=O)N1C[C@H](C)[C@@H](C)C1
REMARK SMILES IDX 8 1 7 2 6 3 4 4 5 5 3 7 2 8 1 9 73 10 74 11 75 12 76 13
REMARK SMILES IDX 77 14 82 15 78 16 80 17 79 18 81 19 9 20 10 21 11 22 12 24
REMARK SMILES IDX 13 25 14 26 72 27 15 28 71 29 16 30 17 31 18 32 65 33 19 34
REMARK SMILES IDX 70 35 64 36 66 37 20 38 69 39 63 40 62 41 21 43 51 44 32 45
REMARK SMILES IDX 50 46 33 47 36 48 49 49 67 50 34 51 35 52 48 54 68 55 37 56
REMARK SMILES IDX 22 57 23 58 31 59 24 60 30 61 25 62 26 63 27 64 28 65 29 66
REMARK SMILES IDX 52 67 53 68 61 69 54 70 60 71 55 72 56 73 57 74 58 75 59 76
REMARK SMILES IDX 38 77 39 78 47 79 40 80 46 81 41 82 42 83 43 84 44 85 45 86
REMARK H PARENT 6 6 10 23 66 42 36 53
REMARK Flexibility Score: inf
ROOT
ATOM      1  C   UNL A   1      33.717  33.730  28.130  1.00  0.00     0.042 C 
ENDROOT
BRANCH   1   2
ATOM      2  C   UNL A   1      34.320  34.895  28.911  1.00  0.00     0.117 C 
BRANCH   2   3
ATOM      3  N   UNL A   1      33.300  35.800  29.408  1.00  0.00    -0.356 N 
ATOM      4  C   UNL A   1      32.841  36.017  30.671  1.00  0.00     0.220 C 
ATOM      5  O   UNL A   1      31.924  36.829  30.818  1.00  0.00    -0.275 OA
ATOM      6  H   UNL A   1      32.866  36.349  28.715  1.00  0.00     0.163 HD
BRANCH   4   7
ATOM      7  C   UNL A   1      33.447  35.307  31.871  1.00  0.00     0.103 C 
BRANCH   7   8
ATOM      8  C   UNL A   1      33.820  36.155  33.115  1.00  0.00     0.004 C 
ATOM      9  C   UNL A   1      34.180  37.575  32.682  1.00  0.00     0.009 C 
BRANCH   8  10
ATOM     10  C   UNL A   1      34.853  35.471  34.019  1.00  0.00     0.104 C 
BRANCH  10  11
ATOM     11  C   UNL A   1      35.287  34.042  33.712  1.00  0.00     0.222 C 
ATOM     12  O   UNL A   1      34.649  33.087  34.149  1.00  0.00    -0.275 OA
ATOM     13  N   UNL A   1      36.304  33.906  32.783  1.00  0.00    -0.342 N 
ATOM     14  C   UNL A   1      36.322  32.806  31.830  1.00  0.00     0.123 C 
ATOM     15  C   UNL A   1      37.637  34.455  32.957  1.00  0.00     0.123 C 
ATOM     16  C   UNL A   1      37.799  32.445  31.652  1.00  0.00     0.010 C 
ATOM     17  C   UNL A   1      38.527  33.773  31.922  1.00  0.00     0.010 C 
ATOM     18  C   UNL A   1      38.201  31.363  32.655  1.00  0.00     0.010 C 
ATOM     19  C   UNL A   1      38.682  34.632  30.668  1.00  0.00     0.010 C 
ENDBRANCH  10  11
ENDBRANCH   8  10
ENDBRANCH   7   8
ENDBRANCH   4   7
ENDBRANCH   2   3
ENDBRANCH   1   2
BRANCH   1  20
ATOM     20  C   UNL A   1      34.655  32.554  27.891  1.00  0.00     0.118 C 
BRANCH  20  21
ATOM     21  N   UNL A   1      33.948  31.287  27.900  1.00  0.00    -0.352 N 
ATOM     22  C   UNL A   1      34.430  29.998  27.904  1.00  0.00     0.251 C 
ATOM     23  H   UNL A   1      32.967  31.360  27.902  1.00  0.00     0.163 HD
ATOM     24  O   UNL A   1      33.646  29.078  27.684  1.00  0.00    -0.269 OA
BRANCH  22  25
ATOM     25  C   UNL A   1      35.865  29.701  28.149  1.00  0.00     0.039 A 
ATOM     26  C   UNL A   1      36.263  29.367  29.449  1.00  0.00     0.014 A 
ATOM     27  C   UNL A   1      36.832  29.814  27.147  1.00  0.00     0.014 A 
ATOM     28  C   UNL A   1      37.609  29.107  29.732  1.00  0.00     0.010 A 
ATOM     29  C   UNL A   1      38.164  29.484  27.414  1.00  0.00     0.010 A 
ATOM     30  C   UNL A   1      38.570  29.137  28.711  1.00  0.00    -0.014 A 
BRANCH  30  31
ATOM     31  C   UNL A   1      40.000  28.820  28.984  1.00  0.00     0.031 A 
ATOM     32  C   UNL A   1      40.922  29.873  29.543  1.00  0.00     0.074 A 
ATOM     33  C   UNL A   1      40.489  27.602  28.675  1.00  0.00     0.049 A 
ATOM     34  N   UNL A   1      42.209  29.804  29.774  1.00  0.00    -0.248 NA
ATOM     35  C   UNL A   1      40.325  31.179  29.865  1.00  0.00     0.031 C 
ATOM     36  C   UNL A   1      39.713  26.498  28.107  1.00  0.00     0.029 A 
ATOM     37  N   UNL A   1      41.759  27.091  28.785  1.00  0.00    -0.354 N 
ATOM     38  C   UNL A   1      42.579  31.060  30.246  1.00  0.00     0.074 A 
ATOM     39  C   UNL A   1      41.389  31.881  30.231  1.00  0.00     0.031 C 
ATOM     40  C   UNL A   1      40.519  25.439  27.928  1.00  0.00     0.029 A 
ATOM     41  C   UNL A   1      41.874  25.796  28.335  1.00  0.00     0.049 A 
ATOM     42  H   UNL A   1      42.516  27.603  29.152  1.00  0.00     0.167 HD
ATOM     43  C   UNL A   1      43.795  31.486  30.668  1.00  0.00     0.031 A 
ATOM     44  C   UNL A   1      42.949  24.987  28.248  1.00  0.00     0.031 A 
ATOM     45  C   UNL A   1      44.976  30.665  30.702  1.00  0.00     0.049 A 
ATOM     46  C   UNL A   1      44.289  25.483  28.718  1.00  0.00     0.074 A 
ATOM     47  C   UNL A   1      46.237  30.993  31.169  1.00  0.00     0.029 A 
ATOM     48  N   UNL A   1      45.044  29.355  30.251  1.00  0.00    -0.354 N 
ATOM     49  N   UNL A   1      44.603  26.656  29.215  1.00  0.00    -0.248 NA
ATOM     50  C   UNL A   1      45.415  24.545  28.627  1.00  0.00     0.031 C 
ATOM     51  C   UNL A   1      47.081  29.897  30.956  1.00  0.00     0.029 A 
ATOM     52  C   UNL A   1      46.331  28.868  30.409  1.00  0.00     0.049 A 
ATOM     53  H   UNL A   1      44.290  28.847  29.876  1.00  0.00     0.167 HD
ATOM     54  C   UNL A   1      45.957  26.586  29.520  1.00  0.00     0.074 A 
ATOM     55  C   UNL A   1      46.399  25.253  29.164  1.00  0.00     0.031 C 
ATOM     56  C   UNL A   1      46.761  27.541  30.050  1.00  0.00     0.031 A 
BRANCH  43  57
ATOM     57  C   UNL A   1      43.911  32.918  31.125  1.00  0.00    -0.014 A 
ATOM     58  C   UNL A   1      43.685  33.274  32.466  1.00  0.00     0.010 A 
ATOM     59  C   UNL A   1      44.293  33.914  30.207  1.00  0.00     0.010 A 
ATOM     60  C   UNL A   1      43.798  34.606  32.873  1.00  0.00     0.020 A 
ATOM     61  C   UNL A   1      44.434  35.244  30.617  1.00  0.00     0.020 A 
ATOM     62  C   UNL A   1      44.167  35.584  31.944  1.00  0.00     0.054 A 
BRANCH  62  63
ATOM     63  S   UNL A   1      44.323  37.302  32.504  1.00  0.00     0.124 S 
ATOM     64  O   UNL A   1      43.278  37.381  33.523  1.00  0.00    -0.237 OA
ATOM     65  O   UNL A   1      45.694  37.354  33.007  1.00  0.00    -0.237 OA
ATOM     66  O   UNL A   1      44.075  38.085  31.297  1.00  0.00    -0.744 OA
ENDBRANCH  62  63
ENDBRANCH  43  57
BRANCH  44  67
ATOM     67  C   UNL A   1      42.794  23.611  27.703  1.00  0.00    -0.014 A 
ATOM     68  C   UNL A   1      42.356  22.561  28.528  1.00  0.00     0.010 A 
ATOM     69  C   UNL A   1      43.067  23.349  26.347  1.00  0.00     0.010 A 
ATOM     70  C   UNL A   1      42.202  21.271  28.010  1.00  0.00     0.020 A 
ATOM     71  C   UNL A   1      42.890  22.068  25.821  1.00  0.00     0.020 A 
ATOM     72  C   UNL A   1      42.468  21.034  26.658  1.00  0.00     0.054 A 
BRANCH  72  73
ATOM     73  S   UNL A   1      42.199  19.367  25.993  1.00  0.00     0.124 S 
ATOM     74  O   UNL A   1      40.749  19.339  25.823  1.00  0.00    -0.237 OA
ATOM     75  O   UNL A   1      42.982  19.389  24.760  1.00  0.00    -0.237 OA
ATOM     76  O   UNL A   1      42.726  18.495  27.039  1.00  0.00    -0.744 OA
ENDBRANCH  72  73
ENDBRANCH  44  67
BRANCH  56  77
ATOM     77  C   UNL A   1      48.198  27.175  30.310  1.00  0.00    -0.014 A 
ATOM     78  C   UNL A   1      49.192  27.392  29.341  1.00  0.00     0.010 A 
ATOM     79  C   UNL A   1      48.565  26.664  31.569  1.00  0.00     0.010 A 
ATOM     80  C   UNL A   1      50.526  27.082  29.617  1.00  0.00     0.020 A 
ATOM     81  C   UNL A   1      49.902  26.375  31.857  1.00  0.00     0.020 A 
ATOM     82  C   UNL A   1      50.872  26.576  30.875  1.00  0.00     0.054 A 
BRANCH  82  83
ATOM     83  S   UNL A   1      52.619  26.229  31.226  1.00  0.00     0.124 S 
ATOM     84  O   UNL A   1      52.985  27.357  32.080  1.00  0.00    -0.237 OA
ATOM     85  O   UNL A   1      52.562  24.930  31.890  1.00  0.00    -0.237 OA
ATOM     86  O   UNL A   1      53.242  26.220  29.905  1.00  0.00    -0.744 OA
ENDBRANCH  82  83
ENDBRANCH  56  77
ENDBRANCH  30  31
ENDBRANCH  22  25
ENDBRANCH  20  21
ENDBRANCH   1  20
TORSDOF 16
ENDMDL
MODEL 3
REMARK VINA RESULT:     -10.0      3.576     10.492
REMARK SMILES C[C@@H](CC(=O)NCCCNC(=O)c1ccc(-c2c3nc(c(-c4ccc(S(=O)(=O)[O-])cc4)c4ccc([nH]4)c(-c4ccc(S(=O)(=O)[O-])cc4)c4nc(c(-c5ccc(S(=O)(=O)[O-])cc5)c5ccc2[nH]5)C=C4)C=C3)cc1)CC(=O)N1C[C@H](C)[C@@H](C)C1
REMARK SMILES IDX 8 1 7 2 6 3 4 4 5 5 3 7 2 8 1 9 73 10 74 11 75 12 76 13
REMARK SMILES IDX 77 14 82 15 78 16 80 17 79 18 81 19 9 20 10 21 11 22 12 24
REMARK SMILES IDX 13 25 14 26 72 27 15 28 71 29 16 30 17 31 18 32 65 33 19 34
REMARK SMILES IDX 70 35 64 36 66 37 20 38 69 39 63 40 62 41 21 43 51 44 32 45
REMARK SMILES IDX 50 46 33 47 36 48 49 49 67 50 34 51 35 52 48 54 68 55 37 56
REMARK SMILES IDX 22 57 23 58 31 59 24 60 30 61 25 62 26 63 27 64 28 65 29 66
REMARK SMILES IDX 52 67 53 68 61 69 54 70 60 71 55 72 56 73 57 74 58 75 59 76
REMARK SMILES IDX 38 77 39 78 47 79 40 80 46 81 41 82 42 83 43 84 44 85 45 86
REMARK H PARENT 6 6 10 23 66 42 36 53
REMARK Flexibility Score: inf
ROOT
ATOM      1  C   UNL A   1      33.652  33.899  28.605  1.00  0.00     0.042 C 
ENDROOT
BRANCH   1   2
ATOM      2  C   UNL A   1      34.083  34.446  29.962  1.00  0.00     0.117 C 
BRANCH   2   3
ATOM      3  N   UNL A   1      35.527  34.437  30.116  1.00  0.00    -0.356 N 
ATOM      4  C   UNL A   1      36.335  33.668  30.896  1.00  0.00     0.220 C 
ATOM      5  O   UNL A   1      37.547  33.893  30.867  1.00  0.00    -0.275 OA
ATOM      6  H   UNL A   1      36.003  35.098  29.562  1.00  0.00     0.163 HD
BRANCH   4   7
ATOM      7  C   UNL A   1      35.775  32.550  31.761  1.00  0.00     0.103 C 
BRANCH   7   8
ATOM      8  C   UNL A   1      35.402  32.877  33.231  1.00  0.00     0.004 C 
ATOM      9  C   UNL A   1      33.935  33.293  33.311  1.00  0.00     0.009 C 
BRANCH   8  10
ATOM     10  C   UNL A   1      36.388  33.844  33.899  1.00  0.00     0.104 C 
BRANCH  10  11
ATOM     11  C   UNL A   1      37.326  33.326  34.983  1.00  0.00     0.222 C 
ATOM     12  O   UNL A   1      37.343  33.845  36.097  1.00  0.00    -0.275 OA
ATOM     13  N   UNL A   1      37.997  32.151  34.691  1.00  0.00    -0.342 N 
ATOM     14  C   UNL A   1      38.258  31.149  35.713  1.00  0.00     0.123 C 
ATOM     15  C   UNL A   1      38.921  32.002  33.580  1.00  0.00     0.123 C 
ATOM     16  C   UNL A   1      39.624  30.555  35.364  1.00  0.00     0.010 C 
ATOM     17  C   UNL A   1      39.705  30.718  33.836  1.00  0.00     0.010 C 
ATOM     18  C   UNL A   1      40.733  31.330  36.077  1.00  0.00     0.010 C 
ATOM     19  C   UNL A   1      39.102  29.536  33.079  1.00  0.00     0.010 C 
ENDBRANCH  10  11
ENDBRANCH   8  10
ENDBRANCH   7   8
ENDBRANCH   4   7
ENDBRANCH   2   3
ENDBRANCH   1   2
BRANCH   1  20
ATOM     20  C   UNL A   1      34.557  32.819  28.023  1.00  0.00     0.118 C 
BRANCH  20  21
ATOM     21  N   UNL A   1      33.848  31.569  27.822  1.00  0.00    -0.352 N 
ATOM     22  C   UNL A   1      34.324  30.283  27.719  1.00  0.00     0.251 C 
ATOM     23  H   UNL A   1      32.870  31.654  27.746  1.00  0.00     0.163 HD
ATOM     24  O   UNL A   1      33.560  29.404  27.325  1.00  0.00    -0.269 OA
BRANCH  22  25
ATOM     25  C   UNL A   1      35.731  29.939  28.054  1.00  0.00     0.039 A 
ATOM     26  C   UNL A   1      36.028  29.559  29.368  1.00  0.00     0.014 A 
ATOM     27  C   UNL A   1      36.768  30.055  27.125  1.00  0.00     0.014 A 
ATOM     28  C   UNL A   1      37.343  29.254  29.735  1.00  0.00     0.010 A 
ATOM     29  C   UNL A   1      38.069  29.682  27.473  1.00  0.00     0.010 A 
ATOM     30  C   UNL A   1      38.374  29.287  28.785  1.00  0.00    -0.014 A 
BRANCH  30  31
ATOM     31  C   UNL A   1      39.773  28.924  29.146  1.00  0.00     0.031 A 
ATOM     32  C   UNL A   1      40.677  29.933  29.807  1.00  0.00     0.074 A 
ATOM     33  C   UNL A   1      40.255  27.706  28.828  1.00  0.00     0.049 A 
ATOM     34  N   UNL A   1      41.943  29.823  30.126  1.00  0.00    -0.248 NA
ATOM     35  C   UNL A   1      40.089  31.242  30.135  1.00  0.00     0.031 C 
ATOM     36  C   UNL A   1      39.497  26.643  28.166  1.00  0.00     0.029 A 
ATOM     37  N   UNL A   1      41.502  27.159  29.008  1.00  0.00    -0.354 N 
ATOM     38  C   UNL A   1      42.306  31.051  30.669  1.00  0.00     0.074 A 
ATOM     39  C   UNL A   1      41.139  31.903  30.601  1.00  0.00     0.031 C 
ATOM     40  C   UNL A   1      40.289  25.570  28.006  1.00  0.00     0.029 A 
ATOM     41  C   UNL A   1      41.619  25.878  28.520  1.00  0.00     0.049 A 
ATOM     42  H   UNL A   1      42.242  27.638  29.446  1.00  0.00     0.167 HD
ATOM     43  C   UNL A   1      43.498  31.431  31.191  1.00  0.00     0.031 A 
ATOM     44  C   UNL A   1      42.678  25.045  28.480  1.00  0.00     0.031 A 
ATOM     45  C   UNL A   1      44.655  30.579  31.278  1.00  0.00     0.049 A 
ATOM     46  C   UNL A   1      43.992  25.490  29.062  1.00  0.00     0.074 A 
ATOM     47  C   UNL A   1      45.887  30.858  31.846  1.00  0.00     0.029 A 
ATOM     48  N   UNL A   1      44.725  29.285  30.786  1.00  0.00    -0.354 N 
ATOM     49  N   UNL A   1      44.296  26.636  29.622  1.00  0.00    -0.248 NA
ATOM     50  C   UNL A   1      45.100  24.527  29.016  1.00  0.00     0.031 C 
ATOM     51  C   UNL A   1      46.718  29.749  31.653  1.00  0.00     0.029 A 
ATOM     52  C   UNL A   1      45.985  28.760  31.016  1.00  0.00     0.049 A 
ATOM     53  H   UNL A   1      43.988  28.809  30.339  1.00  0.00     0.167 HD
ATOM     54  C   UNL A   1      45.624  26.520  30.020  1.00  0.00     0.074 A 
ATOM     55  C   UNL A   1      46.059  25.190  29.647  1.00  0.00     0.031 C 
ATOM     56  C   UNL A   1      46.409  27.435  30.640  1.00  0.00     0.031 A 
BRANCH  43  57
ATOM     57  C   UNL A   1      43.614  32.843  31.708  1.00  0.00    -0.014 A 
ATOM     58  C   UNL A   1      44.175  33.862  30.920  1.00  0.00     0.010 A 
ATOM     59  C   UNL A   1      43.115  33.161  32.985  1.00  0.00     0.010 A 
ATOM     60  C   UNL A   1      44.273  35.166  31.414  1.00  0.00     0.020 A 
ATOM     61  C   UNL A   1      43.187  34.470  33.473  1.00  0.00     0.020 A 
ATOM     62  C   UNL A   1      43.783  35.460  32.690  1.00  0.00     0.054 A 
BRANCH  62  63
ATOM     63  S   UNL A   1      43.909  37.164  33.299  1.00  0.00     0.124 S 
ATOM     64  O   UNL A   1      43.740  37.935  32.070  1.00  0.00    -0.237 OA
ATOM     65  O   UNL A   1      42.803  37.249  34.250  1.00  0.00    -0.237 OA
ATOM     66  O   UNL A   1      45.242  37.223  33.892  1.00  0.00    -0.744 OA
ENDBRANCH  62  63
ENDBRANCH  43  57
BRANCH  44  67
ATOM     67  C   UNL A   1      42.531  23.694  27.874  1.00  0.00    -0.014 A 
ATOM     68  C   UNL A   1      42.739  23.503  26.497  1.00  0.00     0.010 A 
ATOM     69  C   UNL A   1      42.203  22.586  28.677  1.00  0.00     0.010 A 
ATOM     70  C   UNL A   1      42.609  22.230  25.931  1.00  0.00     0.020 A 
ATOM     71  C   UNL A   1      42.099  21.309  28.120  1.00  0.00     0.020 A 
ATOM     72  C   UNL A   1      42.293  21.141  26.748  1.00  0.00     0.054 A 
BRANCH  72  73
ATOM     73  S   UNL A   1      42.196  19.489  26.005  1.00  0.00     0.124 S 
ATOM     74  O   UNL A   1      43.105  19.613  24.870  1.00  0.00    -0.237 OA
ATOM     75  O   UNL A   1      42.652  18.626  27.091  1.00  0.00    -0.237 OA
ATOM     76  O   UNL A   1      40.782  19.353  25.665  1.00  0.00    -0.744 OA
ENDBRANCH  72  73
ENDBRANCH  44  67
BRANCH  56  77
ATOM     77  C   UNL A   1      47.815  27.024  30.988  1.00  0.00    -0.014 A 
ATOM     78  C   UNL A   1      48.097  26.323  32.173  1.00  0.00     0.010 A 
ATOM     79  C   UNL A   1      48.858  27.289  30.081  1.00  0.00     0.010 A 
ATOM     80  C   UNL A   1      49.403  25.917  32.458  1.00  0.00     0.020 A 
ATOM     81  C   UNL A   1      50.161  26.862  30.352  1.00  0.00     0.020 A 
ATOM     82  C   UNL A   1      50.427  26.188  31.545  1.00  0.00     0.054 A 
BRANCH  82  83
ATOM     83  S   UNL A   1      52.105  25.604  31.913  1.00  0.00     0.124 S 
ATOM     84  O   UNL A   1      51.879  24.187  32.188  1.00  0.00    -0.237 OA
ATOM     85  O   UNL A   1      52.827  25.898  30.678  1.00  0.00    -0.237 OA
ATOM     86  O   UNL A   1      52.504  26.406  33.068  1.00  0.00    -0.744 OA
ENDBRANCH  82  83
ENDBRANCH  56  77
ENDBRANCH  30  31
ENDBRANCH  22  25
ENDBRANCH  20  21
ENDBRANCH   1  20
TORSDOF 16
ENDMDL
