MODEL 1
REMARK VINA RESULT:     -13.2      0.000      0.000
REMARK SMILES Cc1ccccc1NC(=O)NC[C@@H]1CC[C@@H](C(=O)NCCCNC(=O)c2ccc(-c3c4nc(c(-c5ccc(S(=O)(=O)[O-])cc5)c5ccc([nH]5)c(-c5ccc(S(=O)(=O)[O-])cc5)c5nc(c(-c6ccc(S(=O)(=O)[O-])cc6)c6ccc3[nH]6)C=C5)C=C4)cc2)O1
REMARK SMILES IDX 21 1 20 2 19 3 17 4 18 5 16 7 13 8 14 9 86 10 15 11 12 12
REMARK SMILES IDX 11 13 8 14 9 15 10 17 7 19 1 20 2 21 3 22 4 23 6 24 5 25
REMARK SMILES IDX 22 26 23 27 24 28 25 30 26 31 27 32 85 33 28 34 84 35 29 36
REMARK SMILES IDX 30 37 31 38 78 39 32 40 83 41 77 42 79 43 33 44 82 45 76 46
REMARK SMILES IDX 75 47 34 49 64 50 45 51 63 52 46 53 49 54 62 55 80 56 47 57
REMARK SMILES IDX 48 58 61 60 81 61 50 62 35 63 36 64 44 65 37 66 43 67 38 68
REMARK SMILES IDX 39 69 40 70 41 71 42 72 65 73 66 74 74 75 67 76 73 77 68 78
REMARK SMILES IDX 69 79 70 80 71 81 72 82 51 83 52 84 60 85 53 86 59 87 54 88
REMARK SMILES IDX 55 89 56 90 57 91 58 92
REMARK H PARENT 19 6 8 16 11 18 23 29 79 48 49 59
REMARK Flexibility Score: inf
ROOT
ATOM      1  C   UNL A   1      37.514  22.211  25.375  1.00  0.00     0.042 C 
ENDROOT
BRANCH   1   2
ATOM      2  C   UNL A   1      36.145  21.932  26.001  1.00  0.00     0.117 C 
BRANCH   2   3
ATOM      3  N   UNL A   1      35.105  21.684  25.009  1.00  0.00    -0.354 N 
ATOM      4  C   UNL A   1      34.508  22.529  24.107  1.00  0.00     0.249 C 
ATOM      5  O   UNL A   1      33.684  22.049  23.327  1.00  0.00    -0.272 OA
ATOM      6  H   UNL A   1      34.776  20.757  24.980  1.00  0.00     0.163 HD
BRANCH   4   7
ATOM      7  C   UNL A   1      34.901  24.028  24.044  1.00  0.00     0.207 C 
ATOM      8  C   UNL A   1      33.509  25.779  23.324  1.00  0.00     0.138 C 
ATOM      9  C   UNL A   1      34.147  26.192  24.632  1.00  0.00     0.037 C 
ATOM     10  O   UNL A   1      34.381  24.721  22.868  1.00  0.00    -0.363 OA
ATOM     11  C   UNL A   1      34.405  24.841  25.231  1.00  0.00     0.045 C 
BRANCH   8  12
ATOM     12  C   UNL A   1      33.361  26.936  22.317  1.00  0.00     0.149 C 
BRANCH  12  13
ATOM     13  N   UNL A   1      31.955  27.250  22.067  1.00  0.00    -0.335 N 
ATOM     14  N   UNL A   1      31.048  28.730  23.737  1.00  0.00    -0.308 N 
ATOM     15  C   UNL A   1      31.025  28.060  22.576  1.00  0.00     0.319 C 
ATOM     16  H   UNL A   1      30.370  29.443  23.735  1.00  0.00     0.171 HD
ATOM     17  O   UNL A   1      30.034  28.266  21.861  1.00  0.00    -0.249 OA
ATOM     18  H   UNL A   1      31.597  26.719  21.320  1.00  0.00     0.165 HD
BRANCH  14  19
ATOM     19  C   UNL A   1      31.746  28.721  24.959  1.00  0.00     0.045 A 
ATOM     20  C   UNL A   1      30.555  26.557  25.715  1.00  0.00     0.046 C 
ATOM     21  C   UNL A   1      31.449  27.749  25.942  1.00  0.00    -0.027 A 
ATOM     22  C   UNL A   1      32.103  27.801  27.193  1.00  0.00     0.005 A 
ATOM     23  C   UNL A   1      33.055  28.775  27.468  1.00  0.00     0.000 A 
ATOM     24  C   UNL A   1      32.793  29.593  25.216  1.00  0.00     0.026 A 
ATOM     25  C   UNL A   1      33.420  29.657  26.465  1.00  0.00     0.002 A 
ENDBRANCH  14  19
ENDBRANCH  12  13
ENDBRANCH   8  12
ENDBRANCH   4   7
ENDBRANCH   2   3
ENDBRANCH   1   2
BRANCH   1  26
ATOM     26  C   UNL A   1      38.185  23.468  25.915  1.00  0.00     0.118 C 
BRANCH  26  27
ATOM     27  N   UNL A   1      39.490  23.199  26.526  1.00  0.00    -0.352 N 
ATOM     28  C   UNL A   1      40.290  24.096  27.208  1.00  0.00     0.251 C 
ATOM     29  H   UNL A   1      39.833  22.279  26.443  1.00  0.00     0.163 HD
ATOM     30  O   UNL A   1      41.399  23.813  27.643  1.00  0.00    -0.269 OA
BRANCH  28  31
ATOM     31  C   UNL A   1      39.702  25.425  27.443  1.00  0.00     0.039 A 
ATOM     32  C   UNL A   1      40.185  26.482  26.664  1.00  0.00     0.014 A 
ATOM     33  C   UNL A   1      39.035  25.642  28.646  1.00  0.00     0.014 A 
ATOM     34  C   UNL A   1      40.168  27.768  27.188  1.00  0.00     0.010 A 
ATOM     35  C   UNL A   1      39.092  26.908  29.195  1.00  0.00     0.010 A 
ATOM     36  C   UNL A   1      39.715  27.954  28.495  1.00  0.00    -0.014 A 
BRANCH  36  37
ATOM     37  C   UNL A   1      39.933  29.185  29.247  1.00  0.00     0.031 A 
ATOM     38  C   UNL A   1      38.923  30.264  29.193  1.00  0.00     0.074 A 
ATOM     39  C   UNL A   1      41.017  29.331  30.044  1.00  0.00     0.049 A 
ATOM     40  N   UNL A   1      39.148  31.499  29.499  1.00  0.00    -0.248 NA
ATOM     41  C   UNL A   1      37.571  30.034  28.695  1.00  0.00     0.031 C 
ATOM     42  C   UNL A   1      41.210  30.352  31.070  1.00  0.00     0.029 A 
ATOM     43  N   UNL A   1      42.273  28.730  29.927  1.00  0.00    -0.354 N 
ATOM     44  C   UNL A   1      37.928  32.133  29.567  1.00  0.00     0.074 A 
ATOM     45  C   UNL A   1      37.006  31.220  28.931  1.00  0.00     0.031 C 
ATOM     46  C   UNL A   1      42.527  30.523  31.259  1.00  0.00     0.029 A 
ATOM     47  C   UNL A   1      43.211  29.729  30.254  1.00  0.00     0.049 A 
ATOM     48  H   UNL A   1      42.464  27.799  29.670  1.00  0.00     0.167 HD
ATOM     49  C   UNL A   1      37.809  33.286  30.286  1.00  0.00     0.031 A 
ATOM     50  C   UNL A   1      44.155  30.198  29.385  1.00  0.00     0.031 A 
ATOM     51  C   UNL A   1      39.113  33.816  30.698  1.00  0.00     0.049 A 
ATOM     52  C   UNL A   1      44.061  31.692  29.118  1.00  0.00     0.074 A 
ATOM     53  C   UNL A   1      39.789  33.934  31.902  1.00  0.00     0.029 A 
ATOM     54  N   UNL A   1      40.041  34.119  29.713  1.00  0.00    -0.354 N 
ATOM     55  N   UNL A   1      43.170  32.482  29.648  1.00  0.00    -0.248 NA
ATOM     56  C   UNL A   1      44.902  32.389  28.142  1.00  0.00     0.031 C 
ATOM     57  C   UNL A   1      41.140  34.299  31.621  1.00  0.00     0.029 A 
ATOM     58  C   UNL A   1      41.278  34.416  30.250  1.00  0.00     0.049 A 
ATOM     59  H   UNL A   1      39.843  34.122  28.749  1.00  0.00     0.167 HD
ATOM     60  C   UNL A   1      43.253  33.721  29.073  1.00  0.00     0.074 A 
ATOM     61  C   UNL A   1      44.367  33.622  28.148  1.00  0.00     0.031 C 
ATOM     62  C   UNL A   1      42.374  34.726  29.347  1.00  0.00     0.031 A 
BRANCH  49  63
ATOM     63  C   UNL A   1      36.484  33.811  30.817  1.00  0.00    -0.014 A 
ATOM     64  C   UNL A   1      35.424  34.074  29.925  1.00  0.00     0.010 A 
ATOM     65  C   UNL A   1      36.240  34.147  32.162  1.00  0.00     0.010 A 
ATOM     66  C   UNL A   1      34.243  34.720  30.332  1.00  0.00     0.020 A 
ATOM     67  C   UNL A   1      35.080  34.811  32.583  1.00  0.00     0.020 A 
ATOM     68  C   UNL A   1      34.091  35.112  31.660  1.00  0.00     0.054 A 
BRANCH  68  69
ATOM     69  S   UNL A   1      32.612  36.023  32.168  1.00  0.00     0.124 S 
ATOM     70  O   UNL A   1      31.712  34.952  32.590  1.00  0.00    -0.237 OA
ATOM     71  O   UNL A   1      33.121  36.879  33.235  1.00  0.00    -0.237 OA
ATOM     72  O   UNL A   1      32.203  36.726  30.953  1.00  0.00    -0.744 OA
ENDBRANCH  68  69
ENDBRANCH  49  63
BRANCH  50  73
ATOM     73  C   UNL A   1      44.631  29.185  28.404  1.00  0.00    -0.014 A 
ATOM     74  C   UNL A   1      45.761  28.419  28.763  1.00  0.00     0.010 A 
ATOM     75  C   UNL A   1      43.776  28.709  27.395  1.00  0.00     0.010 A 
ATOM     76  C   UNL A   1      45.933  27.131  28.255  1.00  0.00     0.020 A 
ATOM     77  C   UNL A   1      43.953  27.418  26.879  1.00  0.00     0.020 A 
ATOM     78  C   UNL A   1      44.992  26.616  27.365  1.00  0.00     0.054 A 
BRANCH  78  79
ATOM     79  S   UNL A   1      45.023  24.828  27.039  1.00  0.00     0.124 S 
ATOM     80  O   UNL A   1      46.434  24.586  26.762  1.00  0.00    -0.237 OA
ATOM     81  O   UNL A   1      44.527  24.283  28.304  1.00  0.00    -0.237 OA
ATOM     82  O   UNL A   1      44.119  24.679  25.903  1.00  0.00    -0.744 OA
ENDBRANCH  78  79
ENDBRANCH  50  73
BRANCH  62  83
ATOM     83  C   UNL A   1      42.459  36.094  28.733  1.00  0.00    -0.014 A 
ATOM     84  C   UNL A   1      41.978  36.366  27.442  1.00  0.00     0.010 A 
ATOM     85  C   UNL A   1      43.157  37.124  29.401  1.00  0.00     0.010 A 
ATOM     86  C   UNL A   1      42.142  37.632  26.863  1.00  0.00     0.020 A 
ATOM     87  C   UNL A   1      43.341  38.384  28.825  1.00  0.00     0.020 A 
ATOM     88  C   UNL A   1      42.817  38.636  27.563  1.00  0.00     0.054 A 
BRANCH  88  89
ATOM     89  S   UNL A   1      43.057  40.256  26.785  1.00  0.00     0.124 S 
ATOM     90  O   UNL A   1      43.506  41.086  27.900  1.00  0.00    -0.237 OA
ATOM     91  O   UNL A   1      44.072  39.957  25.779  1.00  0.00    -0.237 OA
ATOM     92  O   UNL A   1      41.736  40.589  26.261  1.00  0.00    -0.744 OA
ENDBRANCH  88  89
ENDBRANCH  62  83
ENDBRANCH  36  37
ENDBRANCH  28  31
ENDBRANCH  26  27
ENDBRANCH   1  26
TORSDOF 16
ENDMDL
MODEL 2
REMARK VINA RESULT:     -13.1      4.674     11.270
REMARK SMILES Cc1ccccc1NC(=O)NC[C@@H]1CC[C@@H](C(=O)NCCCNC(=O)c2ccc(-c3c4nc(c(-c5ccc(S(=O)(=O)[O-])cc5)c5ccc([nH]5)c(-c5ccc(S(=O)(=O)[O-])cc5)c5nc(c(-c6ccc(S(=O)(=O)[O-])cc6)c6ccc3[nH]6)C=C5)C=C4)cc2)O1
REMARK SMILES IDX 21 1 20 2 19 3 17 4 18 5 16 7 13 8 14 9 86 10 15 11 12 12
REMARK SMILES IDX 11 13 8 14 9 15 10 17 7 19 1 20 2 21 3 22 4 23 6 24 5 25
REMARK SMILES IDX 22 26 23 27 24 28 25 30 26 31 27 32 85 33 28 34 84 35 29 36
REMARK SMILES IDX 30 37 31 38 78 39 32 40 83 41 77 42 79 43 33 44 82 45 76 46
REMARK SMILES IDX 75 47 34 49 64 50 45 51 63 52 46 53 49 54 62 55 80 56 47 57
REMARK SMILES IDX 48 58 61 60 81 61 50 62 35 63 36 64 44 65 37 66 43 67 38 68
REMARK SMILES IDX 39 69 40 70 41 71 42 72 65 73 66 74 74 75 67 76 73 77 68 78
REMARK SMILES IDX 69 79 70 80 71 81 72 82 51 83 52 84 60 85 53 86 59 87 54 88
REMARK SMILES IDX 55 89 56 90 57 91 58 92
REMARK H PARENT 19 6 8 16 11 18 23 29 79 48 49 59
REMARK Flexibility Score: inf
ROOT
ATOM      1  C   UNL A   1      32.996  30.005  27.159  1.00  0.00     0.042 C 
ENDROOT
BRANCH   1   2
ATOM      2  C   UNL A   1      32.279  28.812  26.521  1.00  0.00     0.117 C 
BRANCH   2   3
ATOM      3  N   UNL A   1      31.492  29.181  25.350  1.00  0.00    -0.354 N 
ATOM      4  C   UNL A   1      31.299  28.529  24.158  1.00  0.00     0.249 C 
ATOM      5  O   UNL A   1      30.526  29.037  23.343  1.00  0.00    -0.272 OA
ATOM      6  H   UNL A   1      31.019  30.041  25.427  1.00  0.00     0.163 HD
BRANCH   4   7
ATOM      7  C   UNL A   1      31.993  27.172  23.875  1.00  0.00     0.207 C 
ATOM      8  C   UNL A   1      30.914  25.195  23.204  1.00  0.00     0.138 C 
ATOM      9  C   UNL A   1      32.102  25.414  22.295  1.00  0.00     0.037 C 
ATOM     10  O   UNL A   1      31.237  26.016  24.349  1.00  0.00    -0.363 OA
ATOM     11  C   UNL A   1      32.233  26.905  22.396  1.00  0.00     0.045 C 
BRANCH   8  12
ATOM     12  C   UNL A   1      30.669  23.715  23.554  1.00  0.00     0.149 C 
BRANCH  12  13
ATOM     13  N   UNL A   1      30.404  23.541  24.982  1.00  0.00    -0.335 N 
ATOM     14  N   UNL A   1      32.424  23.600  26.291  1.00  0.00    -0.308 N 
ATOM     15  C   UNL A   1      31.094  23.595  26.122  1.00  0.00     0.319 C 
ATOM     16  H   UNL A   1      32.653  23.910  27.197  1.00  0.00     0.171 HD
ATOM     17  O   UNL A   1      30.424  23.710  27.158  1.00  0.00    -0.249 OA
ATOM     18  H   UNL A   1      29.457  23.326  25.147  1.00  0.00     0.165 HD
BRANCH  14  19
ATOM     19  C   UNL A   1      33.592  23.295  25.568  1.00  0.00     0.045 A 
ATOM     20  C   UNL A   1      34.425  25.734  25.730  1.00  0.00     0.046 C 
ATOM     21  C   UNL A   1      34.499  24.321  25.215  1.00  0.00    -0.027 A 
ATOM     22  C   UNL A   1      35.627  24.011  24.422  1.00  0.00     0.005 A 
ATOM     23  C   UNL A   1      35.877  22.710  24.003  1.00  0.00     0.000 A 
ATOM     24  C   UNL A   1      33.942  21.992  25.248  1.00  0.00     0.026 A 
ATOM     25  C   UNL A   1      35.045  21.693  24.442  1.00  0.00     0.002 A 
ENDBRANCH  14  19
ENDBRANCH  12  13
ENDBRANCH   8  12
ENDBRANCH   4   7
ENDBRANCH   2   3
ENDBRANCH   1   2
BRANCH   1  26
ATOM     26  C   UNL A   1      34.505  29.818  27.273  1.00  0.00     0.118 C 
BRANCH  26  27
ATOM     27  N   UNL A   1      35.183  30.991  27.833  1.00  0.00    -0.352 N 
ATOM     28  C   UNL A   1      36.456  31.038  28.368  1.00  0.00     0.251 C 
ATOM     29  H   UNL A   1      34.677  31.836  27.827  1.00  0.00     0.163 HD
ATOM     30  O   UNL A   1      36.937  32.045  28.873  1.00  0.00    -0.269 OA
BRANCH  28  31
ATOM     31  C   UNL A   1      37.247  29.804  28.244  1.00  0.00     0.039 A 
ATOM     32  C   UNL A   1      37.374  29.010  29.389  1.00  0.00     0.014 A 
ATOM     33  C   UNL A   1      38.132  29.698  27.174  1.00  0.00     0.014 A 
ATOM     34  C   UNL A   1      38.515  28.233  29.548  1.00  0.00     0.010 A 
ATOM     35  C   UNL A   1      39.299  28.986  27.370  1.00  0.00     0.010 A 
ATOM     36  C   UNL A   1      39.518  28.309  28.581  1.00  0.00    -0.014 A 
BRANCH  36  37
ATOM     37  C   UNL A   1      40.865  27.787  28.787  1.00  0.00     0.031 A 
ATOM     38  C   UNL A   1      41.162  26.376  28.454  1.00  0.00     0.074 A 
ATOM     39  C   UNL A   1      41.864  28.590  29.219  1.00  0.00     0.049 A 
ATOM     40  N   UNL A   1      42.169  25.709  28.912  1.00  0.00    -0.248 NA
ATOM     41  C   UNL A   1      40.270  25.572  27.627  1.00  0.00     0.031 C 
ATOM     42  C   UNL A   1      43.294  28.298  29.179  1.00  0.00     0.029 A 
ATOM     43  N   UNL A   1      41.779  29.742  30.005  1.00  0.00    -0.354 N 
ATOM     44  C   UNL A   1      42.245  24.538  28.190  1.00  0.00     0.074 A 
ATOM     45  C   UNL A   1      40.975  24.445  27.510  1.00  0.00     0.031 C 
ATOM     46  C   UNL A   1      43.905  29.021  30.128  1.00  0.00     0.029 A 
ATOM     47  C   UNL A   1      42.866  29.680  30.900  1.00  0.00     0.049 A 
ATOM     48  H   UNL A   1      41.099  30.452  29.947  1.00  0.00     0.167 HD
ATOM     49  C   UNL A   1      43.428  23.861  28.133  1.00  0.00     0.031 A 
ATOM     50  C   UNL A   1      42.730  29.616  32.258  1.00  0.00     0.031 A 
ATOM     51  C   UNL A   1      44.413  24.389  29.082  1.00  0.00     0.049 A 
ATOM     52  C   UNL A   1      43.356  28.380  32.883  1.00  0.00     0.074 A 
ATOM     53  C   UNL A   1      45.596  25.104  28.975  1.00  0.00     0.029 A 
ATOM     54  N   UNL A   1      44.088  24.398  30.430  1.00  0.00    -0.354 N 
ATOM     55  N   UNL A   1      43.970  27.444  32.214  1.00  0.00    -0.248 NA
ATOM     56  C   UNL A   1      43.240  28.053  34.306  1.00  0.00     0.031 C 
ATOM     57  C   UNL A   1      45.966  25.552  30.279  1.00  0.00     0.029 A 
ATOM     58  C   UNL A   1      45.017  25.098  31.176  1.00  0.00     0.049 A 
ATOM     59  H   UNL A   1      43.293  23.961  30.810  1.00  0.00     0.167 HD
ATOM     60  C   UNL A   1      44.263  26.399  33.049  1.00  0.00     0.074 A 
ATOM     61  C   UNL A   1      43.805  26.833  34.355  1.00  0.00     0.031 C 
ATOM     62  C   UNL A   1      44.805  25.229  32.607  1.00  0.00     0.031 A 
BRANCH  49  63
ATOM     63  C   UNL A   1      43.770  22.860  27.040  1.00  0.00    -0.014 A 
ATOM     64  C   UNL A   1      42.876  21.809  26.746  1.00  0.00     0.010 A 
ATOM     65  C   UNL A   1      44.981  22.842  26.324  1.00  0.00     0.010 A 
ATOM     66  C   UNL A   1      43.213  20.759  25.873  1.00  0.00     0.020 A 
ATOM     67  C   UNL A   1      45.344  21.794  25.467  1.00  0.00     0.020 A 
ATOM     68  C   UNL A   1      44.463  20.745  25.259  1.00  0.00     0.054 A 
BRANCH  68  69
ATOM     69  S   UNL A   1      44.935  19.350  24.206  1.00  0.00     0.124 S 
ATOM     70  O   UNL A   1      46.385  19.302  24.378  1.00  0.00    -0.237 OA
ATOM     71  O   UNL A   1      44.190  18.243  24.797  1.00  0.00    -0.237 OA
ATOM     72  O   UNL A   1      44.488  19.755  22.874  1.00  0.00    -0.744 OA
ENDBRANCH  68  69
ENDBRANCH  49  63
BRANCH  50  73
ATOM     73  C   UNL A   1      41.525  30.318  32.779  1.00  0.00    -0.014 A 
ATOM     74  C   UNL A   1      40.378  29.534  33.028  1.00  0.00     0.010 A 
ATOM     75  C   UNL A   1      41.640  31.576  33.396  1.00  0.00     0.010 A 
ATOM     76  C   UNL A   1      39.458  29.917  34.006  1.00  0.00     0.020 A 
ATOM     77  C   UNL A   1      40.712  31.963  34.373  1.00  0.00     0.020 A 
ATOM     78  C   UNL A   1      39.668  31.098  34.715  1.00  0.00     0.054 A 
BRANCH  78  79
ATOM     79  S   UNL A   1      38.694  31.362  36.228  1.00  0.00     0.124 S 
ATOM     80  O   UNL A   1      39.645  32.046  37.095  1.00  0.00    -0.237 OA
ATOM     81  O   UNL A   1      37.587  32.183  35.734  1.00  0.00    -0.237 OA
ATOM     82  O   UNL A   1      38.328  30.007  36.631  1.00  0.00    -0.744 OA
ENDBRANCH  78  79
ENDBRANCH  50  73
BRANCH  62  83
ATOM     83  C   UNL A   1      45.143  24.079  33.512  1.00  0.00    -0.014 A 
ATOM     84  C   UNL A   1      44.236  23.037  33.768  1.00  0.00     0.010 A 
ATOM     85  C   UNL A   1      46.352  24.086  34.241  1.00  0.00     0.010 A 
ATOM     86  C   UNL A   1      44.547  22.017  34.677  1.00  0.00     0.020 A 
ATOM     87  C   UNL A   1      46.664  23.083  35.163  1.00  0.00     0.020 A 
ATOM     88  C   UNL A   1      45.764  22.043  35.364  1.00  0.00     0.054 A 
BRANCH  88  89
ATOM     89  S   UNL A   1      46.135  20.740  36.568  1.00  0.00     0.124 S 
ATOM     90  O   UNL A   1      45.331  19.619  36.087  1.00  0.00    -0.237 OA
ATOM     91  O   UNL A   1      47.579  20.587  36.409  1.00  0.00    -0.237 OA
ATOM     92  O   UNL A   1      45.703  21.309  37.841  1.00  0.00    -0.744 OA
ENDBRANCH  88  89
ENDBRANCH  62  83
ENDBRANCH  36  37
ENDBRANCH  28  31
ENDBRANCH  26  27
ENDBRANCH   1  26
TORSDOF 16
ENDMDL
MODEL 3
REMARK VINA RESULT:     -13.1      1.571      2.198
REMARK SMILES Cc1ccccc1NC(=O)NC[C@@H]1CC[C@@H](C(=O)NCCCNC(=O)c2ccc(-c3c4nc(c(-c5ccc(S(=O)(=O)[O-])cc5)c5ccc([nH]5)c(-c5ccc(S(=O)(=O)[O-])cc5)c5nc(c(-c6ccc(S(=O)(=O)[O-])cc6)c6ccc3[nH]6)C=C5)C=C4)cc2)O1
REMARK SMILES IDX 21 1 20 2 19 3 17 4 18 5 16 7 13 8 14 9 86 10 15 11 12 12
REMARK SMILES IDX 11 13 8 14 9 15 10 17 7 19 1 20 2 21 3 22 4 23 6 24 5 25
REMARK SMILES IDX 22 26 23 27 24 28 25 30 26 31 27 32 85 33 28 34 84 35 29 36
REMARK SMILES IDX 30 37 31 38 78 39 32 40 83 41 77 42 79 43 33 44 82 45 76 46
REMARK SMILES IDX 75 47 34 49 64 50 45 51 63 52 46 53 49 54 62 55 80 56 47 57
REMARK SMILES IDX 48 58 61 60 81 61 50 62 35 63 36 64 44 65 37 66 43 67 38 68
REMARK SMILES IDX 39 69 40 70 41 71 42 72 65 73 66 74 74 75 67 76 73 77 68 78
REMARK SMILES IDX 69 79 70 80 71 81 72 82 51 83 52 84 60 85 53 86 59 87 54 88
REMARK SMILES IDX 55 89 56 90 57 91 58 92
REMARK H PARENT 19 6 8 16 11 18 23 29 79 48 49 59
REMARK Flexibility Score: inf
ROOT
ATOM      1  C   UNL A   1      37.959  22.022  25.515  1.00  0.00     0.042 C 
ENDROOT
BRANCH   1   2
ATOM      2  C   UNL A   1      36.956  22.291  24.390  1.00  0.00     0.117 C 
BRANCH   2   3
ATOM      3  N   UNL A   1      35.919  21.270  24.296  1.00  0.00    -0.354 N 
ATOM      4  C   UNL A   1      34.706  21.164  24.930  1.00  0.00     0.249 C 
ATOM      5  O   UNL A   1      33.979  20.217  24.626  1.00  0.00    -0.272 OA
ATOM      6  H   UNL A   1      36.121  20.535  23.674  1.00  0.00     0.163 HD
BRANCH   4   7
ATOM      7  C   UNL A   1      34.252  22.233  25.958  1.00  0.00     0.207 C 
ATOM      8  C   UNL A   1      32.035  22.634  26.626  1.00  0.00     0.138 C 
ATOM      9  C   UNL A   1      32.891  22.539  27.869  1.00  0.00     0.037 C 
ATOM     10  O   UNL A   1      33.008  22.905  25.592  1.00  0.00    -0.363 OA
ATOM     11  C   UNL A   1      34.002  21.674  27.351  1.00  0.00     0.045 C 
BRANCH   8  12
ATOM     12  C   UNL A   1      30.923  23.697  26.722  1.00  0.00     0.149 C 
BRANCH  12  13
ATOM     13  N   UNL A   1      30.370  24.011  25.405  1.00  0.00    -0.335 N 
ATOM     14  N   UNL A   1      31.337  26.009  24.470  1.00  0.00    -0.308 N 
ATOM     15  C   UNL A   1      30.599  24.889  24.428  1.00  0.00     0.319 C 
ATOM     16  H   UNL A   1      31.549  26.314  23.559  1.00  0.00     0.171 HD
ATOM     17  O   UNL A   1      30.116  24.610  23.322  1.00  0.00    -0.249 OA
ATOM     18  H   UNL A   1      29.624  23.410  25.178  1.00  0.00     0.165 HD
BRANCH  14  19
ATOM     19  C   UNL A   1      31.898  26.880  25.422  1.00  0.00     0.045 A 
ATOM     20  C   UNL A   1      33.948  27.332  23.917  1.00  0.00     0.046 C 
ATOM     21  C   UNL A   1      33.180  27.437  25.209  1.00  0.00    -0.027 A 
ATOM     22  C   UNL A   1      33.762  28.248  26.209  1.00  0.00     0.005 A 
ATOM     23  C   UNL A   1      33.086  28.531  27.390  1.00  0.00     0.000 A 
ATOM     24  C   UNL A   1      31.199  27.292  26.547  1.00  0.00     0.026 A 
ATOM     25  C   UNL A   1      31.788  28.074  27.546  1.00  0.00     0.002 A 
ENDBRANCH  14  19
ENDBRANCH  12  13
ENDBRANCH   8  12
ENDBRANCH   4   7
ENDBRANCH   2   3
ENDBRANCH   1   2
BRANCH   1  26
ATOM     26  C   UNL A   1      38.501  23.291  26.163  1.00  0.00     0.118 C 
BRANCH  26  27
ATOM     27  N   UNL A   1      39.838  23.111  26.736  1.00  0.00    -0.352 N 
ATOM     28  C   UNL A   1      40.606  24.068  27.370  1.00  0.00     0.251 C 
ATOM     29  H   UNL A   1      40.230  22.211  26.663  1.00  0.00     0.163 HD
ATOM     30  O   UNL A   1      41.743  23.860  27.774  1.00  0.00    -0.269 OA
BRANCH  28  31
ATOM     31  C   UNL A   1      39.951  25.367  27.594  1.00  0.00     0.039 A 
ATOM     32  C   UNL A   1      40.362  26.435  26.790  1.00  0.00     0.014 A 
ATOM     33  C   UNL A   1      39.294  25.568  28.805  1.00  0.00     0.014 A 
ATOM     34  C   UNL A   1      40.284  27.728  27.294  1.00  0.00     0.010 A 
ATOM     35  C   UNL A   1      39.291  26.845  29.333  1.00  0.00     0.010 A 
ATOM     36  C   UNL A   1      39.844  27.911  28.605  1.00  0.00    -0.014 A 
BRANCH  36  37
ATOM     37  C   UNL A   1      40.007  29.165  29.333  1.00  0.00     0.031 A 
ATOM     38  C   UNL A   1      38.986  30.227  29.200  1.00  0.00     0.074 A 
ATOM     39  C   UNL A   1      41.047  29.348  30.178  1.00  0.00     0.049 A 
ATOM     40  N   UNL A   1      39.179  31.472  29.482  1.00  0.00    -0.248 NA
ATOM     41  C   UNL A   1      37.665  29.964  28.642  1.00  0.00     0.031 C 
ATOM     42  C   UNL A   1      41.175  30.398  31.185  1.00  0.00     0.029 A 
ATOM     43  N   UNL A   1      42.316  28.763  30.141  1.00  0.00    -0.354 N 
ATOM     44  C   UNL A   1      37.948  32.089  29.472  1.00  0.00     0.074 A 
ATOM     45  C   UNL A   1      37.072  31.147  28.817  1.00  0.00     0.031 C 
ATOM     46  C   UNL A   1      42.478  30.594  31.434  1.00  0.00     0.029 A 
ATOM     47  C   UNL A   1      43.223  29.784  30.487  1.00  0.00     0.049 A 
ATOM     48  H   UNL A   1      42.532  27.829  29.919  1.00  0.00     0.167 HD
ATOM     49  C   UNL A   1      37.778  33.260  30.153  1.00  0.00     0.031 A 
ATOM     50  C   UNL A   1      44.203  30.244  29.653  1.00  0.00     0.031 A 
ATOM     51  C   UNL A   1      39.052  33.819  30.615  1.00  0.00     0.049 A 
ATOM     52  C   UNL A   1      44.102  31.728  29.342  1.00  0.00     0.074 A 
ATOM     53  C   UNL A   1      39.665  33.979  31.847  1.00  0.00     0.029 A 
ATOM     54  N   UNL A   1      40.025  34.110  29.670  1.00  0.00    -0.354 N 
ATOM     55  N   UNL A   1      43.174  32.519  29.805  1.00  0.00    -0.248 NA
ATOM     56  C   UNL A   1      44.982  32.412  28.391  1.00  0.00     0.031 C 
ATOM     57  C   UNL A   1      41.024  34.357  31.624  1.00  0.00     0.029 A 
ATOM     58  C   UNL A   1      41.229  34.440  30.259  1.00  0.00     0.049 A 
ATOM     59  H   UNL A   1      39.875  34.084  28.697  1.00  0.00     0.167 HD
ATOM     60  C   UNL A   1      43.270  33.744  29.201  1.00  0.00     0.074 A 
ATOM     61  C   UNL A   1      44.430  33.637  28.336  1.00  0.00     0.031 C 
ATOM     62  C   UNL A   1      42.364  34.742  29.404  1.00  0.00     0.031 A 
BRANCH  49  63
ATOM     63  C   UNL A   1      36.422  33.779  30.603  1.00  0.00    -0.014 A 
ATOM     64  C   UNL A   1      35.469  34.179  29.643  1.00  0.00     0.010 A 
ATOM     65  C   UNL A   1      36.049  33.979  31.945  1.00  0.00     0.010 A 
ATOM     66  C   UNL A   1      34.271  34.826  29.998  1.00  0.00     0.020 A 
ATOM     67  C   UNL A   1      34.871  34.641  32.318  1.00  0.00     0.020 A 
ATOM     68  C   UNL A   1      33.994  35.079  31.339  1.00  0.00     0.054 A 
BRANCH  68  69
ATOM     69  S   UNL A   1      32.497  35.991  31.794  1.00  0.00     0.124 S 
ATOM     70  O   UNL A   1      33.026  37.068  32.628  1.00  0.00    -0.237 OA
ATOM     71  O   UNL A   1      31.969  36.398  30.495  1.00  0.00    -0.237 OA
ATOM     72  O   UNL A   1      31.691  35.001  32.507  1.00  0.00    -0.744 OA
ENDBRANCH  68  69
ENDBRANCH  49  63
BRANCH  50  73
ATOM     73  C   UNL A   1      44.741  29.212  28.725  1.00  0.00    -0.014 A 
ATOM     74  C   UNL A   1      44.079  29.048  27.490  1.00  0.00     0.010 A 
ATOM     75  C   UNL A   1      46.058  28.743  28.862  1.00  0.00     0.010 A 
ATOM     76  C   UNL A   1      44.775  28.590  26.369  1.00  0.00     0.020 A 
ATOM     77  C   UNL A   1      46.755  28.277  27.739  1.00  0.00     0.020 A 
ATOM     78  C   UNL A   1      46.126  28.269  26.489  1.00  0.00     0.054 A 
BRANCH  78  79
ATOM     79  S   UNL A   1      47.088  28.066  24.960  1.00  0.00     0.124 S 
ATOM     80  O   UNL A   1      46.687  26.737  24.514  1.00  0.00    -0.237 OA
ATOM     81  O   UNL A   1      46.597  29.179  24.146  1.00  0.00    -0.237 OA
ATOM     82  O   UNL A   1      48.469  28.192  25.414  1.00  0.00    -0.744 OA
ENDBRANCH  78  79
ENDBRANCH  50  73
BRANCH  62  83
ATOM     83  C   UNL A   1      42.462  36.094  28.758  1.00  0.00    -0.014 A 
ATOM     84  C   UNL A   1      41.978  36.342  27.462  1.00  0.00     0.010 A 
ATOM     85  C   UNL A   1      43.174  37.132  29.398  1.00  0.00     0.010 A 
ATOM     86  C   UNL A   1      42.153  37.592  26.854  1.00  0.00     0.020 A 
ATOM     87  C   UNL A   1      43.369  38.376  28.793  1.00  0.00     0.020 A 
ATOM     88  C   UNL A   1      42.842  38.605  27.528  1.00  0.00     0.054 A 
BRANCH  88  89
ATOM     89  S   UNL A   1      43.096  40.203  26.711  1.00  0.00     0.124 S 
ATOM     90  O   UNL A   1      44.198  39.925  25.793  1.00  0.00    -0.237 OA
ATOM     91  O   UNL A   1      41.798  40.428  26.081  1.00  0.00    -0.237 OA
ATOM     92  O   UNL A   1      43.422  41.107  27.811  1.00  0.00    -0.744 OA
ENDBRANCH  88  89
ENDBRANCH  62  83
ENDBRANCH  36  37
ENDBRANCH  28  31
ENDBRANCH  26  27
ENDBRANCH   1  26
TORSDOF 16
ENDMDL
