MODEL 1
REMARK VINA RESULT:     -11.8      0.000      0.000
REMARK SMILES COC(=O)c1ccccc1N1C(=O)/C(=C\c2ccc(-c3ccc(Cl)c(C(=O)NCCCNC(=O)c4ccc(-c5c6nc(c(-c7ccc(S(=O)(=O)[O-])cc7)c7ccc([nH]7)c(-c7ccc(S(=O)(=O)[O-])cc7)c7nc(c(-c8ccc(S(=O)(=O)[O-])cc8)c8ccc5[nH]8)C=C7)C=C6)cc4)c3)o2)SC1=S
REMARK SMILES IDX 29 1 28 2 26 3 27 4 25 6 20 7 21 8 95 9 22 10 23 11 24 12
REMARK SMILES IDX 19 13 16 14 17 15 96 16 18 17 15 18 11 19 12 20 98 21 13 22
REMARK SMILES IDX 14 23 97 24 99 25 10 26 5 27 6 28 7 29 9 30 8 31 3 32 4 33
REMARK SMILES IDX 2 34 1 35 30 36 31 37 32 38 33 39 34 41 35 42 36 43 94 44
REMARK SMILES IDX 37 45 93 46 38 47 39 48 40 49 87 50 41 51 92 52 86 53 88 54
REMARK SMILES IDX 42 55 91 56 85 57 84 58 43 60 73 61 54 62 72 63 55 64 58 65
REMARK SMILES IDX 71 66 89 67 56 68 57 69 70 71 90 72 59 73 44 74 45 75 53 76
REMARK SMILES IDX 46 77 52 78 47 79 48 80 49 81 50 82 51 83 74 84 75 85 83 86
REMARK SMILES IDX 76 87 82 88 77 89 78 90 79 91 80 92 81 93 60 94 61 95 69 96
REMARK SMILES IDX 62 97 68 98 63 99 64 100 65 101 66 102 67 103
REMARK H PARENT 28 5 32 40 88 59 58 70
REMARK Flexibility Score: inf
ROOT
ATOM      1  C   UNL A   1      45.386  38.575  26.812  1.00  0.00     0.118 C 
ENDROOT
BRANCH   1   2
ATOM      2  N   UNL A   1      44.778  39.538  27.731  1.00  0.00    -0.352 N 
ATOM      3  C   UNL A   1      43.913  40.605  27.563  1.00  0.00     0.252 C 
ATOM      4  O   UNL A   1      43.496  41.159  28.577  1.00  0.00    -0.269 OA
ATOM      5  H   UNL A   1      45.041  39.397  28.669  1.00  0.00     0.163 HD
BRANCH   3   6
ATOM      6  C   UNL A   1      43.496  41.086  26.215  1.00  0.00     0.059 A 
ATOM      7  C   UNL A   1      44.038  42.563  24.355  1.00  0.00     0.018 A 
ATOM      8  C   UNL A   1      42.735  42.445  23.877  1.00  0.00     0.013 A 
ATOM      9  C   UNL A   1      44.431  41.755  25.427  1.00  0.00     0.027 A 
ATOM     10  C   UNL A   1      41.834  41.591  24.521  1.00  0.00     0.022 A 
ATOM     11  C   UNL A   1      42.193  40.947  25.716  1.00  0.00     0.053 A 
ATOM     12  Cl  UNL A   1      40.950  40.045  26.506  1.00  0.00    -0.083 Cl
BRANCH   7  13
ATOM     13  C   UNL A   1      44.966  43.597  23.916  1.00  0.00     0.134 A 
ATOM     14  C   UNL A   1      46.401  44.461  22.459  1.00  0.00     0.128 A 
ATOM     15  C   UNL A   1      46.006  45.478  23.317  1.00  0.00     0.051 A 
ATOM     16  O   UNL A   1      45.728  43.315  22.819  1.00  0.00    -0.457 OA
ATOM     17  C   UNL A   1      45.135  44.917  24.272  1.00  0.00     0.051 A 
BRANCH  14  18
ATOM     18  C   UNL A   1      47.376  44.516  21.429  1.00  0.00     0.068 C 
ATOM     19  N   UNL A   1      45.742  45.861  18.457  1.00  0.00    -0.260 N 
ATOM     20  C   UNL A   1      45.708  45.439  19.779  1.00  0.00     0.270 C 
ATOM     21  C   UNL A   1      46.949  45.744  17.793  1.00  0.00     0.152 C 
ATOM     22  O   UNL A   1      44.720  45.476  20.501  1.00  0.00    -0.268 OA
ATOM     23  C   UNL A   1      47.046  44.935  20.198  1.00  0.00     0.084 C 
ATOM     24  S   UNL A   1      48.136  44.993  18.866  1.00  0.00    -0.054 SA
ATOM     25  S   UNL A   1      47.366  46.300  16.273  1.00  0.00    -0.051 S 
BRANCH  19  26
ATOM     26  C   UNL A   1      44.550  46.429  17.922  1.00  0.00     0.065 A 
ATOM     27  C   UNL A   1      43.546  45.699  17.260  1.00  0.00     0.084 A 
ATOM     28  C   UNL A   1      42.370  46.362  16.858  1.00  0.00     0.018 A 
ATOM     29  C   UNL A   1      42.177  47.720  17.124  1.00  0.00     0.001 A 
ATOM     30  C   UNL A   1      44.334  47.800  18.179  1.00  0.00     0.028 A 
ATOM     31  C   UNL A   1      43.162  48.441  17.786  1.00  0.00     0.002 A 
BRANCH  27  32
ATOM     32  C   UNL A   1      43.567  44.234  16.996  1.00  0.00     0.339 C 
ATOM     33  O   UNL A   1      43.471  43.765  15.875  1.00  0.00    -0.246 OA
BRANCH  32  34
ATOM     34  O   UNL A   1      43.631  43.524  18.149  1.00  0.00    -0.465 OA
ATOM     35  C   UNL A   1      42.361  43.336  18.779  1.00  0.00     0.282 C 
ENDBRANCH  32  34
ENDBRANCH  27  32
ENDBRANCH  19  26
ENDBRANCH  14  18
ENDBRANCH   7  13
ENDBRANCH   3   6
ENDBRANCH   1   2
BRANCH   1  36
ATOM     36  C   UNL A   1      46.815  38.888  26.400  1.00  0.00     0.042 C 
BRANCH  36  37
ATOM     37  C   UNL A   1      47.821  37.782  26.671  1.00  0.00     0.118 C 
BRANCH  37  38
ATOM     38  N   UNL A   1      48.328  37.788  28.037  1.00  0.00    -0.352 N 
ATOM     39  C   UNL A   1      48.189  36.884  29.066  1.00  0.00     0.251 C 
ATOM     40  H   UNL A   1      48.865  38.580  28.266  1.00  0.00     0.163 HD
ATOM     41  O   UNL A   1      48.563  37.208  30.192  1.00  0.00    -0.269 OA
BRANCH  39  42
ATOM     42  C   UNL A   1      47.578  35.552  28.850  1.00  0.00     0.039 A 
ATOM     43  C   UNL A   1      46.982  35.271  27.614  1.00  0.00     0.014 A 
ATOM     44  C   UNL A   1      47.545  34.589  29.859  1.00  0.00     0.014 A 
ATOM     45  C   UNL A   1      46.437  34.006  27.371  1.00  0.00     0.010 A 
ATOM     46  C   UNL A   1      47.099  33.299  29.582  1.00  0.00     0.010 A 
ATOM     47  C   UNL A   1      46.534  32.992  28.337  1.00  0.00    -0.014 A 
BRANCH  47  48
ATOM     48  C   UNL A   1      46.049  31.611  28.074  1.00  0.00     0.031 A 
ATOM     49  C   UNL A   1      44.640  31.218  28.439  1.00  0.00     0.074 A 
ATOM     50  C   UNL A   1      46.899  30.687  27.582  1.00  0.00     0.049 A 
ATOM     51  N   UNL A   1      44.067  30.044  28.368  1.00  0.00    -0.248 NA
ATOM     52  C   UNL A   1      43.771  32.275  28.982  1.00  0.00     0.031 C 
ATOM     53  C   UNL A   1      48.303  30.925  27.231  1.00  0.00     0.029 A 
ATOM     54  N   UNL A   1      46.712  29.356  27.300  1.00  0.00    -0.354 N 
ATOM     55  C   UNL A   1      42.785  30.216  28.879  1.00  0.00     0.074 A 
ATOM     56  C   UNL A   1      42.681  31.595  29.302  1.00  0.00     0.031 C 
ATOM     57  C   UNL A   1      48.837  29.790  26.756  1.00  0.00     0.029 A 
ATOM     58  C   UNL A   1      47.834  28.731  26.808  1.00  0.00     0.049 A 
ATOM     59  H   UNL A   1      45.854  28.892  27.436  1.00  0.00     0.167 HD
ATOM     60  C   UNL A   1      41.776  29.315  28.967  1.00  0.00     0.031 A 
ATOM     61  C   UNL A   1      48.041  27.449  26.450  1.00  0.00     0.031 A 
ATOM     62  C   UNL A   1      41.875  27.951  28.525  1.00  0.00     0.049 A 
ATOM     63  C   UNL A   1      46.907  26.466  26.560  1.00  0.00     0.074 A 
ATOM     64  C   UNL A   1      40.890  26.978  28.509  1.00  0.00     0.029 A 
ATOM     65  N   UNL A   1      43.025  27.363  28.019  1.00  0.00    -0.354 N 
ATOM     66  N   UNL A   1      45.681  26.668  26.980  1.00  0.00    -0.248 NA
ATOM     67  C   UNL A   1      47.183  25.085  26.141  1.00  0.00     0.031 C 
ATOM     68  C   UNL A   1      41.459  25.789  28.044  1.00  0.00     0.029 A 
ATOM     69  C   UNL A   1      42.782  26.035  27.715  1.00  0.00     0.049 A 
ATOM     70  H   UNL A   1      43.887  27.823  27.896  1.00  0.00     0.167 HD
ATOM     71  C   UNL A   1      45.033  25.445  26.854  1.00  0.00     0.074 A 
ATOM     72  C   UNL A   1      45.996  24.514  26.303  1.00  0.00     0.031 C 
ATOM     73  C   UNL A   1      43.754  25.121  27.167  1.00  0.00     0.031 A 
BRANCH  60  74
ATOM     74  C   UNL A   1      40.475  29.782  29.567  1.00  0.00    -0.014 A 
ATOM     75  C   UNL A   1      39.385  30.137  28.751  1.00  0.00     0.010 A 
ATOM     76  C   UNL A   1      40.325  29.829  30.964  1.00  0.00     0.010 A 
ATOM     77  C   UNL A   1      38.186  30.573  29.320  1.00  0.00     0.020 A 
ATOM     78  C   UNL A   1      39.117  30.236  31.539  1.00  0.00     0.020 A 
ATOM     79  C   UNL A   1      38.060  30.623  30.711  1.00  0.00     0.054 A 
BRANCH  79  80
ATOM     80  S   UNL A   1      36.485  31.173  31.422  1.00  0.00     0.124 S 
ATOM     81  O   UNL A   1      35.671  31.376  30.226  1.00  0.00    -0.237 OA
ATOM     82  O   UNL A   1      36.098  30.040  32.259  1.00  0.00    -0.237 OA
ATOM     83  O   UNL A   1      36.837  32.390  32.149  1.00  0.00    -0.744 OA
ENDBRANCH  79  80
ENDBRANCH  60  74
BRANCH  61  84
ATOM     84  C   UNL A   1      49.373  27.023  25.940  1.00  0.00    -0.014 A 
ATOM     85  C   UNL A   1      50.338  26.499  26.817  1.00  0.00     0.010 A 
ATOM     86  C   UNL A   1      49.678  27.122  24.570  1.00  0.00     0.010 A 
ATOM     87  C   UNL A   1      51.589  26.098  26.339  1.00  0.00     0.020 A 
ATOM     88  C   UNL A   1      50.917  26.696  24.083  1.00  0.00     0.020 A 
ATOM     89  C   UNL A   1      51.869  26.196  24.973  1.00  0.00     0.054 A 
BRANCH  89  90
ATOM     90  S   UNL A   1      53.476  25.613  24.365  1.00  0.00     0.124 S 
ATOM     91  O   UNL A   1      54.408  26.390  25.177  1.00  0.00    -0.237 OA
ATOM     92  O   UNL A   1      53.423  24.182  24.653  1.00  0.00    -0.237 OA
ATOM     93  O   UNL A   1      53.446  25.955  22.944  1.00  0.00    -0.744 OA
ENDBRANCH  89  90
ENDBRANCH  61  84
BRANCH  73  94
ATOM     94  C   UNL A   1      43.309  23.708  26.900  1.00  0.00    -0.014 A 
ATOM     95  C   UNL A   1      43.215  23.213  25.587  1.00  0.00     0.010 A 
ATOM     96  C   UNL A   1      43.047  22.847  27.980  1.00  0.00     0.010 A 
ATOM     97  C   UNL A   1      42.842  21.886  25.360  1.00  0.00     0.020 A 
ATOM     98  C   UNL A   1      42.700  21.512  27.758  1.00  0.00     0.020 A 
ATOM     99  C   UNL A   1      42.589  21.043  26.448  1.00  0.00     0.054 A 
BRANCH  99 100
ATOM    100  S   UNL A   1      42.162  19.309  26.126  1.00  0.00     0.124 S 
ATOM    101  O   UNL A   1      42.573  18.660  27.368  1.00  0.00    -0.237 OA
ATOM    102  O   UNL A   1      40.721  19.372  25.896  1.00  0.00    -0.237 OA
ATOM    103  O   UNL A   1      42.960  18.969  24.950  1.00  0.00    -0.744 OA
ENDBRANCH  99 100
ENDBRANCH  73  94
ENDBRANCH  47  48
ENDBRANCH  39  42
ENDBRANCH  37  38
ENDBRANCH  36  37
ENDBRANCH   1  36
TORSDOF 18
ENDMDL
MODEL 2
REMARK VINA RESULT:     -11.7      8.108     15.553
REMARK SMILES COC(=O)c1ccccc1N1C(=O)/C(=C\c2ccc(-c3ccc(Cl)c(C(=O)NCCCNC(=O)c4ccc(-c5c6nc(c(-c7ccc(S(=O)(=O)[O-])cc7)c7ccc([nH]7)c(-c7ccc(S(=O)(=O)[O-])cc7)c7nc(c(-c8ccc(S(=O)(=O)[O-])cc8)c8ccc5[nH]8)C=C7)C=C6)cc4)c3)o2)SC1=S
REMARK SMILES IDX 29 1 28 2 26 3 27 4 25 6 20 7 21 8 95 9 22 10 23 11 24 12
REMARK SMILES IDX 19 13 16 14 17 15 96 16 18 17 15 18 11 19 12 20 98 21 13 22
REMARK SMILES IDX 14 23 97 24 99 25 10 26 5 27 6 28 7 29 9 30 8 31 3 32 4 33
REMARK SMILES IDX 2 34 1 35 30 36 31 37 32 38 33 39 34 41 35 42 36 43 94 44
REMARK SMILES IDX 37 45 93 46 38 47 39 48 40 49 87 50 41 51 92 52 86 53 88 54
REMARK SMILES IDX 42 55 91 56 85 57 84 58 43 60 73 61 54 62 72 63 55 64 58 65
REMARK SMILES IDX 71 66 89 67 56 68 57 69 70 71 90 72 59 73 44 74 45 75 53 76
REMARK SMILES IDX 46 77 52 78 47 79 48 80 49 81 50 82 51 83 74 84 75 85 83 86
REMARK SMILES IDX 76 87 82 88 77 89 78 90 79 91 80 92 81 93 60 94 61 95 69 96
REMARK SMILES IDX 62 97 68 98 63 99 64 100 65 101 66 102 67 103
REMARK H PARENT 28 5 32 40 88 59 58 70
REMARK Flexibility Score: inf
ROOT
ATOM      1  C   UNL A   1      34.680  32.689  31.662  1.00  0.00     0.118 C 
ENDROOT
BRANCH   1   2
ATOM      2  N   UNL A   1      34.638  33.699  30.604  1.00  0.00    -0.352 N 
ATOM      3  C   UNL A   1      34.820  33.655  29.232  1.00  0.00     0.252 C 
ATOM      4  O   UNL A   1      34.603  34.686  28.600  1.00  0.00    -0.269 OA
ATOM      5  H   UNL A   1      34.437  34.603  30.938  1.00  0.00     0.163 HD
BRANCH   3   6
ATOM      6  C   UNL A   1      35.269  32.420  28.529  1.00  0.00     0.059 A 
ATOM      7  C   UNL A   1      34.556  30.413  27.347  1.00  0.00     0.018 A 
ATOM      8  C   UNL A   1      35.819  29.854  27.525  1.00  0.00     0.013 A 
ATOM      9  C   UNL A   1      34.358  31.747  27.716  1.00  0.00     0.027 A 
ATOM     10  C   UNL A   1      36.829  30.604  28.136  1.00  0.00     0.022 A 
ATOM     11  C   UNL A   1      36.548  31.867  28.682  1.00  0.00     0.053 A 
ATOM     12  Cl  UNL A   1      37.830  32.632  29.550  1.00  0.00    -0.083 Cl
BRANCH   7  13
ATOM     13  C   UNL A   1      33.383  29.641  26.955  1.00  0.00     0.134 A 
ATOM     14  C   UNL A   1      32.283  28.305  25.564  1.00  0.00     0.128 A 
ATOM     15  C   UNL A   1      31.643  28.254  26.796  1.00  0.00     0.051 A 
ATOM     16  O   UNL A   1      33.372  29.139  25.686  1.00  0.00    -0.457 OA
ATOM     17  C   UNL A   1      32.312  29.140  27.662  1.00  0.00     0.051 A 
BRANCH  14  18
ATOM     18  C   UNL A   1      31.886  27.693  24.347  1.00  0.00     0.068 C 
ATOM     19  N   UNL A   1      33.679  24.525  24.089  1.00  0.00    -0.260 N 
ATOM     20  C   UNL A   1      33.396  25.714  24.748  1.00  0.00     0.270 C 
ATOM     21  C   UNL A   1      33.040  24.312  22.882  1.00  0.00     0.152 C 
ATOM     22  O   UNL A   1      33.878  26.052  25.821  1.00  0.00    -0.268 OA
ATOM     23  C   UNL A   1      32.421  26.524  23.965  1.00  0.00     0.084 C 
ATOM     24  S   UNL A   1      32.050  25.721  22.487  1.00  0.00    -0.054 SA
ATOM     25  S   UNL A   1      33.033  22.938  21.931  1.00  0.00    -0.051 S 
BRANCH  19  26
ATOM     26  C   UNL A   1      34.554  23.610  24.742  1.00  0.00     0.065 A 
ATOM     27  C   UNL A   1      34.133  22.582  25.606  1.00  0.00     0.084 A 
ATOM     28  C   UNL A   1      35.091  21.683  26.117  1.00  0.00     0.018 A 
ATOM     29  C   UNL A   1      36.439  21.784  25.765  1.00  0.00     0.001 A 
ATOM     30  C   UNL A   1      35.921  23.694  24.401  1.00  0.00     0.028 A 
ATOM     31  C   UNL A   1      36.855  22.792  24.906  1.00  0.00     0.002 A 
BRANCH  27  32
ATOM     32  C   UNL A   1      32.725  22.291  25.990  1.00  0.00     0.339 C 
ATOM     33  O   UNL A   1      32.065  21.414  25.460  1.00  0.00    -0.246 OA
BRANCH  32  34
ATOM     34  O   UNL A   1      32.278  23.161  26.929  1.00  0.00    -0.465 OA
ATOM     35  C   UNL A   1      30.945  23.623  26.694  1.00  0.00     0.282 C 
ENDBRANCH  32  34
ENDBRANCH  27  32
ENDBRANCH  19  26
ENDBRANCH  14  18
ENDBRANCH   7  13
ENDBRANCH   3   6
ENDBRANCH   1   2
BRANCH   1  36
ATOM     36  C   UNL A   1      34.115  33.132  33.001  1.00  0.00     0.042 C 
BRANCH  36  37
ATOM     37  C   UNL A   1      34.768  34.366  33.601  1.00  0.00     0.118 C 
BRANCH  37  38
ATOM     38  N   UNL A   1      35.185  34.179  34.984  1.00  0.00    -0.352 N 
ATOM     39  C   UNL A   1      36.385  33.784  35.530  1.00  0.00     0.251 C 
ATOM     40  H   UNL A   1      34.483  34.369  35.648  1.00  0.00     0.163 HD
ATOM     41  O   UNL A   1      36.432  33.525  36.732  1.00  0.00    -0.269 OA
BRANCH  39  42
ATOM     42  C   UNL A   1      37.604  33.640  34.701  1.00  0.00     0.039 A 
ATOM     43  C   UNL A   1      37.690  34.344  33.493  1.00  0.00     0.014 A 
ATOM     44  C   UNL A   1      38.647  32.792  35.073  1.00  0.00     0.014 A 
ATOM     45  C   UNL A   1      38.848  34.259  32.713  1.00  0.00     0.010 A 
ATOM     46  C   UNL A   1      39.839  32.790  34.352  1.00  0.00     0.010 A 
ATOM     47  C   UNL A   1      39.953  33.519  33.161  1.00  0.00    -0.014 A 
BRANCH  47  48
ATOM     48  C   UNL A   1      41.232  33.485  32.402  1.00  0.00     0.031 A 
ATOM     49  C   UNL A   1      42.235  34.600  32.551  1.00  0.00     0.074 A 
ATOM     50  C   UNL A   1      41.458  32.491  31.518  1.00  0.00     0.049 A 
ATOM     51  N   UNL A   1      43.360  34.789  31.911  1.00  0.00    -0.248 NA
ATOM     52  C   UNL A   1      41.917  35.657  33.526  1.00  0.00     0.031 C 
ATOM     53  C   UNL A   1      40.547  31.375  31.244  1.00  0.00     0.029 A 
ATOM     54  N   UNL A   1      42.519  32.262  30.677  1.00  0.00    -0.354 N 
ATOM     55  C   UNL A   1      43.869  35.994  32.385  1.00  0.00     0.074 A 
ATOM     56  C   UNL A   1      42.906  36.516  33.329  1.00  0.00     0.031 C 
ATOM     57  C   UNL A   1      41.101  30.569  30.325  1.00  0.00     0.029 A 
ATOM     58  C   UNL A   1      42.383  31.130  29.909  1.00  0.00     0.049 A 
ATOM     59  H   UNL A   1      43.306  32.854  30.630  1.00  0.00     0.167 HD
ATOM     60  C   UNL A   1      45.042  36.600  32.081  1.00  0.00     0.031 A 
ATOM     61  C   UNL A   1      43.191  30.604  28.967  1.00  0.00     0.031 A 
ATOM     62  C   UNL A   1      46.007  36.067  31.158  1.00  0.00     0.049 A 
ATOM     63  C   UNL A   1      44.487  31.297  28.644  1.00  0.00     0.074 A 
ATOM     64  C   UNL A   1      47.255  36.571  30.832  1.00  0.00     0.029 A 
ATOM     65  N   UNL A   1      45.836  34.909  30.413  1.00  0.00    -0.354 N 
ATOM     66  N   UNL A   1      44.980  32.399  29.157  1.00  0.00    -0.248 NA
ATOM     67  C   UNL A   1      45.335  30.672  27.620  1.00  0.00     0.031 C 
ATOM     68  C   UNL A   1      47.815  35.747  29.851  1.00  0.00     0.029 A 
ATOM     69  C   UNL A   1      46.943  34.698  29.609  1.00  0.00     0.049 A 
ATOM     70  H   UNL A   1      45.045  34.325  30.450  1.00  0.00     0.167 HD
ATOM     71  C   UNL A   1      46.209  32.586  28.534  1.00  0.00     0.074 A 
ATOM     72  C   UNL A   1      46.391  31.476  27.621  1.00  0.00     0.031 C 
ATOM     73  C   UNL A   1      47.107  33.588  28.703  1.00  0.00     0.031 A 
BRANCH  60  74
ATOM     74  C   UNL A   1      45.344  37.912  32.756  1.00  0.00    -0.014 A 
ATOM     75  C   UNL A   1      44.899  39.130  32.208  1.00  0.00     0.010 A 
ATOM     76  C   UNL A   1      46.045  37.929  33.974  1.00  0.00     0.010 A 
ATOM     77  C   UNL A   1      45.190  40.340  32.841  1.00  0.00     0.020 A 
ATOM     78  C   UNL A   1      46.313  39.136  34.627  1.00  0.00     0.020 A 
ATOM     79  C   UNL A   1      45.898  40.336  34.046  1.00  0.00     0.054 A 
BRANCH  79  80
ATOM     80  S   UNL A   1      46.243  41.922  34.856  1.00  0.00     0.124 S 
ATOM     81  O   UNL A   1      46.737  41.490  36.162  1.00  0.00    -0.237 OA
ATOM     82  O   UNL A   1      47.243  42.522  33.976  1.00  0.00    -0.237 OA
ATOM     83  O   UNL A   1      44.947  42.594  34.872  1.00  0.00    -0.744 OA
ENDBRANCH  79  80
ENDBRANCH  60  74
BRANCH  61  84
ATOM     84  C   UNL A   1      42.803  29.346  28.272  1.00  0.00    -0.014 A 
ATOM     85  C   UNL A   1      42.140  29.392  27.033  1.00  0.00     0.010 A 
ATOM     86  C   UNL A   1      43.112  28.095  28.835  1.00  0.00     0.010 A 
ATOM     87  C   UNL A   1      41.777  28.211  26.379  1.00  0.00     0.020 A 
ATOM     88  C   UNL A   1      42.776  26.911  28.171  1.00  0.00     0.020 A 
ATOM     89  C   UNL A   1      42.101  26.978  26.951  1.00  0.00     0.054 A 
BRANCH  89  90
ATOM     90  S   UNL A   1      41.674  25.458  26.055  1.00  0.00     0.124 S 
ATOM     91  O   UNL A   1      42.278  24.429  26.896  1.00  0.00    -0.237 OA
ATOM     92  O   UNL A   1      40.214  25.496  26.047  1.00  0.00    -0.237 OA
ATOM     93  O   UNL A   1      42.300  25.647  24.747  1.00  0.00    -0.744 OA
ENDBRANCH  89  90
ENDBRANCH  61  84
BRANCH  73  94
ATOM     94  C   UNL A   1      48.381  33.522  27.904  1.00  0.00    -0.014 A 
ATOM     95  C   UNL A   1      49.506  32.830  28.388  1.00  0.00     0.010 A 
ATOM     96  C   UNL A   1      48.429  34.103  26.625  1.00  0.00     0.010 A 
ATOM     97  C   UNL A   1      50.665  32.743  27.614  1.00  0.00     0.020 A 
ATOM     98  C   UNL A   1      49.578  33.994  25.836  1.00  0.00     0.020 A 
ATOM     99  C   UNL A   1      50.693  33.324  26.341  1.00  0.00     0.054 A 
BRANCH  99 100
ATOM    100  S   UNL A   1      52.191  33.147  25.334  1.00  0.00     0.124 S 
ATOM    101  O   UNL A   1      52.938  34.352  25.686  1.00  0.00    -0.237 OA
ATOM    102  O   UNL A   1      52.758  31.891  25.821  1.00  0.00    -0.237 OA
ATOM    103  O   UNL A   1      51.685  33.106  23.964  1.00  0.00    -0.744 OA
ENDBRANCH  99 100
ENDBRANCH  73  94
ENDBRANCH  47  48
ENDBRANCH  39  42
ENDBRANCH  37  38
ENDBRANCH  36  37
ENDBRANCH   1  36
TORSDOF 18
ENDMDL
MODEL 3
REMARK VINA RESULT:     -11.7      7.359     17.145
REMARK SMILES COC(=O)c1ccccc1N1C(=O)/C(=C\c2ccc(-c3ccc(Cl)c(C(=O)NCCCNC(=O)c4ccc(-c5c6nc(c(-c7ccc(S(=O)(=O)[O-])cc7)c7ccc([nH]7)c(-c7ccc(S(=O)(=O)[O-])cc7)c7nc(c(-c8ccc(S(=O)(=O)[O-])cc8)c8ccc5[nH]8)C=C7)C=C6)cc4)c3)o2)SC1=S
REMARK SMILES IDX 29 1 28 2 26 3 27 4 25 6 20 7 21 8 95 9 22 10 23 11 24 12
REMARK SMILES IDX 19 13 16 14 17 15 96 16 18 17 15 18 11 19 12 20 98 21 13 22
REMARK SMILES IDX 14 23 97 24 99 25 10 26 5 27 6 28 7 29 9 30 8 31 3 32 4 33
REMARK SMILES IDX 2 34 1 35 30 36 31 37 32 38 33 39 34 41 35 42 36 43 94 44
REMARK SMILES IDX 37 45 93 46 38 47 39 48 40 49 87 50 41 51 92 52 86 53 88 54
REMARK SMILES IDX 42 55 91 56 85 57 84 58 43 60 73 61 54 62 72 63 55 64 58 65
REMARK SMILES IDX 71 66 89 67 56 68 57 69 70 71 90 72 59 73 44 74 45 75 53 76
REMARK SMILES IDX 46 77 52 78 47 79 48 80 49 81 50 82 51 83 74 84 75 85 83 86
REMARK SMILES IDX 76 87 82 88 77 89 78 90 79 91 80 92 81 93 60 94 61 95 69 96
REMARK SMILES IDX 62 97 68 98 63 99 64 100 65 101 66 102 67 103
REMARK H PARENT 28 5 32 40 88 59 58 70
REMARK Flexibility Score: inf
ROOT
ATOM      1  C   UNL A   1      43.029  23.049  24.895  1.00  0.00     0.118 C 
ENDROOT
BRANCH   1   2
ATOM      2  N   UNL A   1      42.883  22.071  25.974  1.00  0.00    -0.352 N 
ATOM      3  C   UNL A   1      41.931  21.868  26.958  1.00  0.00     0.252 C 
ATOM      4  O   UNL A   1      42.048  20.866  27.659  1.00  0.00    -0.269 OA
ATOM      5  H   UNL A   1      43.619  21.419  26.008  1.00  0.00     0.163 HD
BRANCH   3   6
ATOM      6  C   UNL A   1      40.804  22.817  27.182  1.00  0.00     0.059 A 
ATOM      7  C   UNL A   1      38.541  23.436  26.524  1.00  0.00     0.018 A 
ATOM      8  C   UNL A   1      38.708  24.687  27.114  1.00  0.00     0.013 A 
ATOM      9  C   UNL A   1      39.538  22.473  26.708  1.00  0.00     0.027 A 
ATOM     10  C   UNL A   1      39.890  24.977  27.803  1.00  0.00     0.022 A 
ATOM     11  C   UNL A   1      40.959  24.066  27.800  1.00  0.00     0.053 A 
ATOM     12  Cl  UNL A   1      42.422  24.595  28.547  1.00  0.00    -0.083 Cl
BRANCH   7  13
ATOM     13  C   UNL A   1      37.471  23.126  25.585  1.00  0.00     0.134 A 
ATOM     14  C   UNL A   1      35.330  22.845  25.067  1.00  0.00     0.128 A 
ATOM     15  C   UNL A   1      36.035  23.007  23.881  1.00  0.00     0.051 A 
ATOM     16  O   UNL A   1      36.223  22.952  26.110  1.00  0.00    -0.457 OA
ATOM     17  C   UNL A   1      37.399  23.135  24.210  1.00  0.00     0.051 A 
BRANCH  14  18
ATOM     18  C   UNL A   1      33.953  22.542  25.231  1.00  0.00     0.068 C 
ATOM     19  N   UNL A   1      32.188  25.707  25.655  1.00  0.00    -0.260 N 
ATOM     20  C   UNL A   1      33.357  24.979  25.481  1.00  0.00     0.270 C 
ATOM     21  C   UNL A   1      31.013  24.988  25.766  1.00  0.00     0.152 C 
ATOM     22  O   UNL A   1      34.475  25.465  25.368  1.00  0.00    -0.268 OA
ATOM     23  C   UNL A   1      33.061  23.519  25.450  1.00  0.00     0.084 C 
ATOM     24  S   UNL A   1      31.379  23.259  25.712  1.00  0.00    -0.054 SA
ATOM     25  S   UNL A   1      29.442  25.553  25.818  1.00  0.00    -0.051 S 
BRANCH  19  26
ATOM     26  C   UNL A   1      32.297  27.128  25.646  1.00  0.00     0.065 A 
ATOM     27  C   UNL A   1      32.169  27.931  24.498  1.00  0.00     0.084 A 
ATOM     28  C   UNL A   1      32.206  29.333  24.636  1.00  0.00     0.018 A 
ATOM     29  C   UNL A   1      32.345  29.933  25.889  1.00  0.00     0.001 A 
ATOM     30  C   UNL A   1      32.439  27.756  26.902  1.00  0.00     0.028 A 
ATOM     31  C   UNL A   1      32.463  29.144  27.025  1.00  0.00     0.002 A 
BRANCH  27  32
ATOM     32  C   UNL A   1      31.917  27.438  23.116  1.00  0.00     0.339 C 
ATOM     33  O   UNL A   1      30.796  27.319  22.653  1.00  0.00    -0.246 OA
BRANCH  32  34
ATOM     34  O   UNL A   1      33.071  27.085  22.498  1.00  0.00    -0.465 OA
ATOM     35  C   UNL A   1      33.070  25.743  22.004  1.00  0.00     0.282 C 
ENDBRANCH  32  34
ENDBRANCH  27  32
ENDBRANCH  19  26
ENDBRANCH  14  18
ENDBRANCH   7  13
ENDBRANCH   3   6
ENDBRANCH   1   2
BRANCH   1  36
ATOM     36  C   UNL A   1      43.798  24.307  25.262  1.00  0.00     0.042 C 
BRANCH  36  37
ATOM     37  C   UNL A   1      45.087  24.073  26.032  1.00  0.00     0.118 C 
BRANCH  37  38
ATOM     38  N   UNL A   1      46.280  24.194  25.203  1.00  0.00    -0.352 N 
ATOM     39  C   UNL A   1      47.048  25.284  24.865  1.00  0.00     0.251 C 
ATOM     40  H   UNL A   1      46.592  23.345  24.816  1.00  0.00     0.163 HD
ATOM     41  O   UNL A   1      47.908  25.155  23.995  1.00  0.00    -0.269 OA
BRANCH  39  42
ATOM     42  C   UNL A   1      46.844  26.606  25.503  1.00  0.00     0.039 A 
ATOM     43  C   UNL A   1      46.253  27.634  24.759  1.00  0.00     0.014 A 
ATOM     44  C   UNL A   1      47.263  26.861  26.809  1.00  0.00     0.014 A 
ATOM     45  C   UNL A   1      46.009  28.878  25.353  1.00  0.00     0.010 A 
ATOM     46  C   UNL A   1      46.926  28.061  27.431  1.00  0.00     0.010 A 
ATOM     47  C   UNL A   1      46.300  29.087  26.710  1.00  0.00    -0.014 A 
BRANCH  47  48
ATOM     48  C   UNL A   1      45.968  30.364  27.394  1.00  0.00     0.031 A 
ATOM     49  C   UNL A   1      46.953  31.506  27.393  1.00  0.00     0.074 A 
ATOM     50  C   UNL A   1      44.815  30.471  28.086  1.00  0.00     0.049 A 
ATOM     51  N   UNL A   1      46.879  32.660  28.006  1.00  0.00    -0.248 NA
ATOM     52  C   UNL A   1      48.195  31.315  26.626  1.00  0.00     0.031 C 
ATOM     53  C   UNL A   1      43.798  29.423  28.208  1.00  0.00     0.029 A 
ATOM     54  N   UNL A   1      44.308  31.509  28.829  1.00  0.00    -0.354 N 
ATOM     55  C   UNL A   1      48.071  33.318  27.720  1.00  0.00     0.074 A 
ATOM     56  C   UNL A   1      48.870  32.416  26.922  1.00  0.00     0.031 C 
ATOM     57  C   UNL A   1      42.779  29.882  28.952  1.00  0.00     0.029 A 
ATOM     58  C   UNL A   1      43.087  31.236  29.399  1.00  0.00     0.049 A 
ATOM     59  H   UNL A   1      44.775  32.369  28.942  1.00  0.00     0.167 HD
ATOM     60  C   UNL A   1      48.457  34.568  28.071  1.00  0.00     0.031 A 
ATOM     61  C   UNL A   1      42.305  31.984  30.202  1.00  0.00     0.031 A 
ATOM     62  C   UNL A   1      47.650  35.471  28.847  1.00  0.00     0.049 A 
ATOM     63  C   UNL A   1      42.756  33.369  30.581  1.00  0.00     0.074 A 
ATOM     64  C   UNL A   1      47.923  36.782  29.199  1.00  0.00     0.029 A 
ATOM     65  N   UNL A   1      46.413  35.160  29.392  1.00  0.00    -0.354 N 
ATOM     66  N   UNL A   1      43.856  33.997  30.241  1.00  0.00    -0.248 NA
ATOM     67  C   UNL A   1      41.857  34.146  31.445  1.00  0.00     0.031 C 
ATOM     68  C   UNL A   1      46.876  37.246  30.000  1.00  0.00     0.029 A 
ATOM     69  C   UNL A   1      45.923  36.244  30.099  1.00  0.00     0.049 A 
ATOM     70  H   UNL A   1      45.953  34.296  29.291  1.00  0.00     0.167 HD
ATOM     71  C   UNL A   1      43.770  35.253  30.831  1.00  0.00     0.074 A 
ATOM     72  C   UNL A   1      42.504  35.301  31.535  1.00  0.00     0.031 C 
ATOM     73  C   UNL A   1      44.660  36.274  30.795  1.00  0.00     0.031 A 
BRANCH  60  74
ATOM     74  C   UNL A   1      49.816  35.032  27.615  1.00  0.00    -0.014 A 
ATOM     75  C   UNL A   1      50.962  34.803  28.400  1.00  0.00     0.010 A 
ATOM     76  C   UNL A   1      49.958  35.667  26.369  1.00  0.00     0.010 A 
ATOM     77  C   UNL A   1      52.215  35.243  27.969  1.00  0.00     0.020 A 
ATOM     78  C   UNL A   1      51.216  36.081  25.919  1.00  0.00     0.020 A 
ATOM     79  C   UNL A   1      52.335  35.883  26.732  1.00  0.00     0.054 A 
BRANCH  79  80
ATOM     80  S   UNL A   1      53.978  36.423  26.188  1.00  0.00     0.124 S 
ATOM     81  O   UNL A   1      54.696  36.525  27.456  1.00  0.00    -0.237 OA
ATOM     82  O   UNL A   1      54.402  35.331  25.314  1.00  0.00    -0.237 OA
ATOM     83  O   UNL A   1      53.721  37.693  25.514  1.00  0.00    -0.744 OA
ENDBRANCH  79  80
ENDBRANCH  60  74
BRANCH  61  84
ATOM     84  C   UNL A   1      41.006  31.444  30.691  1.00  0.00    -0.014 A 
ATOM     85  C   UNL A   1      39.841  31.580  29.917  1.00  0.00     0.010 A 
ATOM     86  C   UNL A   1      40.932  30.772  31.925  1.00  0.00     0.010 A 
ATOM     87  C   UNL A   1      38.622  31.071  30.375  1.00  0.00     0.020 A 
ATOM     88  C   UNL A   1      39.721  30.237  32.374  1.00  0.00     0.020 A 
ATOM     89  C   UNL A   1      38.571  30.399  31.600  1.00  0.00     0.054 A 
BRANCH  89  90
ATOM     90  S   UNL A   1      36.991  29.694  32.146  1.00  0.00     0.124 S 
ATOM     91  O   UNL A   1      36.364  29.333  30.879  1.00  0.00    -0.237 OA
ATOM     92  O   UNL A   1      37.417  28.576  32.985  1.00  0.00    -0.237 OA
ATOM     93  O   UNL A   1      36.358  30.796  32.869  1.00  0.00    -0.744 OA
ENDBRANCH  89  90
ENDBRANCH  61  84
BRANCH  73  94
ATOM     94  C   UNL A   1      44.291  37.544  31.515  1.00  0.00    -0.014 A 
ATOM     95  C   UNL A   1      44.515  37.688  32.895  1.00  0.00     0.010 A 
ATOM     96  C   UNL A   1      43.775  38.630  30.785  1.00  0.00     0.010 A 
ATOM     97  C   UNL A   1      44.206  38.889  33.537  1.00  0.00     0.020 A 
ATOM     98  C   UNL A   1      43.490  39.842  31.419  1.00  0.00     0.020 A 
ATOM     99  C   UNL A   1      43.697  39.960  32.794  1.00  0.00     0.054 A 
BRANCH  99 100
ATOM    100  S   UNL A   1      43.357  41.527  33.643  1.00  0.00     0.124 S 
ATOM    101  O   UNL A   1      43.955  41.297  34.955  1.00  0.00    -0.237 OA
ATOM    102  O   UNL A   1      44.045  42.503  32.801  1.00  0.00    -0.237 OA
ATOM    103  O   UNL A   1      41.899  41.619  33.629  1.00  0.00    -0.744 OA
ENDBRANCH  99 100
ENDBRANCH  73  94
ENDBRANCH  47  48
ENDBRANCH  39  42
ENDBRANCH  37  38
ENDBRANCH  36  37
ENDBRANCH   1  36
TORSDOF 18
ENDMDL
