MODEL 1
REMARK VINA RESULT:     -11.1      0.000      0.000
REMARK SMILES CC(C)(C)OC(=O)N[C@@H](C(=O)NCCCNC(=O)c1ccc(-c2c3nc(c(-c4ccc(S(=O)(=O)[O-])cc4)c4ccc([nH]4)c(-c4ccc(S(=O)(=O)[O-])cc4)c4nc(c(-c5ccc(S(=O)(=O)[O-])cc5)c5ccc2[nH]5)C=C4)C=C3)cc1)c1ccc([N+](=O)[O-])cc1
REMARK SMILES IDX 14 1 13 2 12 3 10 4 11 5 9 7 8 8 6 9 7 10 5 12 2 13 1 14
REMARK SMILES IDX 3 15 4 16 79 17 80 18 87 19 81 20 86 21 82 22 83 23 84 24
REMARK SMILES IDX 85 25 15 26 16 27 17 28 18 30 19 31 20 32 78 33 21 34 77 35
REMARK SMILES IDX 22 36 23 37 24 38 71 39 25 40 76 41 70 42 72 43 26 44 75 45
REMARK SMILES IDX 69 46 68 47 27 49 57 50 38 51 56 52 39 53 42 54 55 55 73 56
REMARK SMILES IDX 40 57 41 58 54 60 74 61 43 62 28 63 29 64 37 65 30 66 36 67
REMARK SMILES IDX 31 68 32 69 33 70 34 71 35 72 58 73 59 74 67 75 60 76 66 77
REMARK SMILES IDX 61 78 62 79 63 80 64 81 65 82 44 83 45 84 53 85 46 86 52 87
REMARK SMILES IDX 47 88 48 89 49 90 50 91 51 92
REMARK H PARENT 12 6 8 11 16 29 72 48 42 59
REMARK Flexibility Score: inf
ROOT
ATOM      1  C   UNL A   1      33.768  28.088  25.830  1.00  0.00     0.042 C 
ENDROOT
BRANCH   1   2
ATOM      2  C   UNL A   1      33.306  29.210  24.906  1.00  0.00     0.117 C 
BRANCH   2   3
ATOM      3  N   UNL A   1      33.897  29.095  23.589  1.00  0.00    -0.354 N 
ATOM      4  C   UNL A   1      33.700  28.142  22.627  1.00  0.00     0.247 C 
ATOM      5  O   UNL A   1      34.394  28.227  21.611  1.00  0.00    -0.272 OA
ATOM      6  H   UNL A   1      34.535  29.805  23.350  1.00  0.00     0.163 HD
BRANCH   4   7
ATOM      7  C   UNL A   1      32.617  27.040  22.827  1.00  0.00     0.205 C 
BRANCH   7   8
ATOM      8  N   UNL A   1      32.792  26.012  21.810  1.00  0.00    -0.306 N 
ATOM      9  C   UNL A   1      33.139  24.711  21.994  1.00  0.00     0.408 C 
ATOM     10  O   UNL A   1      33.246  23.954  21.041  1.00  0.00    -0.225 OA
ATOM     11  H   UNL A   1      32.644  26.294  20.878  1.00  0.00     0.168 HD
BRANCH   9  12
ATOM     12  O   UNL A   1      33.382  24.399  23.288  1.00  0.00    -0.444 OA
BRANCH  12  13
ATOM     13  C   UNL A   1      32.552  23.432  23.988  1.00  0.00     0.106 C 
ATOM     14  C   UNL A   1      32.506  23.935  25.439  1.00  0.00     0.056 C 
ATOM     15  C   UNL A   1      33.181  22.033  23.992  1.00  0.00     0.056 C 
ATOM     16  C   UNL A   1      31.128  23.413  23.426  1.00  0.00     0.056 C 
ENDBRANCH  12  13
ENDBRANCH   9  12
ENDBRANCH   7   8
BRANCH   7  17
ATOM     17  C   UNL A   1      31.206  27.638  22.812  1.00  0.00    -0.016 A 
ATOM     18  C   UNL A   1      30.165  26.931  23.445  1.00  0.00     0.013 A 
ATOM     19  C   UNL A   1      30.916  28.895  22.251  1.00  0.00     0.013 A 
ATOM     20  C   UNL A   1      28.878  27.467  23.534  1.00  0.00     0.086 A 
ATOM     21  C   UNL A   1      29.629  29.439  22.331  1.00  0.00     0.086 A 
ATOM     22  C   UNL A   1      28.616  28.724  22.980  1.00  0.00     0.269 A 
BRANCH  22  23
ATOM     23  N   UNL A   1      27.271  29.301  23.087  1.00  0.00     0.062 N 
ATOM     24  O   UNL A   1      27.148  30.520  22.894  1.00  0.00    -0.258 OA
ATOM     25  O   UNL A   1      26.334  28.539  23.370  1.00  0.00    -0.258 OA
ENDBRANCH  22  23
ENDBRANCH   7  17
ENDBRANCH   4   7
ENDBRANCH   2   3
ENDBRANCH   1   2
BRANCH   1  26
ATOM     26  C   UNL A   1      33.679  28.446  27.310  1.00  0.00     0.118 C 
BRANCH  26  27
ATOM     27  N   UNL A   1      33.619  29.887  27.527  1.00  0.00    -0.352 N 
ATOM     28  C   UNL A   1      34.527  30.717  28.138  1.00  0.00     0.251 C 
ATOM     29  H   UNL A   1      32.809  30.329  27.185  1.00  0.00     0.163 HD
ATOM     30  O   UNL A   1      34.211  31.872  28.406  1.00  0.00    -0.269 OA
BRANCH  28  31
ATOM     31  C   UNL A   1      35.873  30.213  28.479  1.00  0.00     0.039 A 
ATOM     32  C   UNL A   1      36.869  30.205  27.498  1.00  0.00     0.014 A 
ATOM     33  C   UNL A   1      36.147  29.742  29.766  1.00  0.00     0.014 A 
ATOM     34  C   UNL A   1      38.160  29.785  27.826  1.00  0.00     0.010 A 
ATOM     35  C   UNL A   1      37.448  29.391  30.107  1.00  0.00     0.010 A 
ATOM     36  C   UNL A   1      38.467  29.405  29.142  1.00  0.00    -0.014 A 
BRANCH  36  37
ATOM     37  C   UNL A   1      39.835  29.000  29.550  1.00  0.00     0.031 A 
ATOM     38  C   UNL A   1      40.722  29.991  30.251  1.00  0.00     0.074 A 
ATOM     39  C   UNL A   1      40.314  27.790  29.196  1.00  0.00     0.049 A 
ATOM     40  N   UNL A   1      41.997  29.908  30.527  1.00  0.00    -0.248 NA
ATOM     41  C   UNL A   1      40.096  31.257  30.670  1.00  0.00     0.031 C 
ATOM     42  C   UNL A   1      39.557  26.748  28.497  1.00  0.00     0.029 A 
ATOM     43  N   UNL A   1      41.563  27.243  29.354  1.00  0.00    -0.354 N 
ATOM     44  C   UNL A   1      42.335  31.120  31.118  1.00  0.00     0.074 A 
ATOM     45  C   UNL A   1      41.139  31.934  31.129  1.00  0.00     0.031 C 
ATOM     46  C   UNL A   1      40.356  25.687  28.295  1.00  0.00     0.029 A 
ATOM     47  C   UNL A   1      41.691  25.991  28.799  1.00  0.00     0.049 A 
ATOM     48  H   UNL A   1      42.298  27.705  29.820  1.00  0.00     0.167 HD
ATOM     49  C   UNL A   1      43.530  31.516  31.617  1.00  0.00     0.031 A 
ATOM     50  C   UNL A   1      42.768  25.188  28.689  1.00  0.00     0.031 A 
ATOM     51  C   UNL A   1      44.709  30.693  31.620  1.00  0.00     0.049 A 
ATOM     52  C   UNL A   1      44.089  25.653  29.240  1.00  0.00     0.074 A 
ATOM     53  C   UNL A   1      45.957  30.982  32.142  1.00  0.00     0.029 A 
ATOM     54  N   UNL A   1      44.785  29.418  31.080  1.00  0.00    -0.354 N 
ATOM     55  N   UNL A   1      44.380  26.788  29.828  1.00  0.00    -0.248 NA
ATOM     56  C   UNL A   1      45.223  24.726  29.120  1.00  0.00     0.031 C 
ATOM     57  C   UNL A   1      46.800  29.898  31.880  1.00  0.00     0.029 A 
ATOM     58  C   UNL A   1      46.061  28.912  31.246  1.00  0.00     0.049 A 
ATOM     59  H   UNL A   1      44.040  28.944  30.643  1.00  0.00     0.167 HD
ATOM     60  C   UNL A   1      45.722  26.696  30.184  1.00  0.00     0.074 A 
ATOM     61  C   UNL A   1      46.184  25.396  29.744  1.00  0.00     0.031 C 
ATOM     62  C   UNL A   1      46.497  27.604  30.824  1.00  0.00     0.031 A 
BRANCH  49  63
ATOM     63  C   UNL A   1      43.622  32.905  32.189  1.00  0.00    -0.014 A 
ATOM     64  C   UNL A   1      43.853  34.019  31.361  1.00  0.00     0.010 A 
ATOM     65  C   UNL A   1      43.439  33.105  33.569  1.00  0.00     0.010 A 
ATOM     66  C   UNL A   1      43.947  35.301  31.910  1.00  0.00     0.020 A 
ATOM     67  C   UNL A   1      43.502  34.389  34.118  1.00  0.00     0.020 A 
ATOM     68  C   UNL A   1      43.775  35.476  33.286  1.00  0.00     0.054 A 
BRANCH  68  69
ATOM     69  S   UNL A   1      43.887  37.154  33.968  1.00  0.00     0.124 S 
ATOM     70  O   UNL A   1      44.646  37.848  32.931  1.00  0.00    -0.237 OA
ATOM     71  O   UNL A   1      42.485  37.546  34.089  1.00  0.00    -0.237 OA
ATOM     72  O   UNL A   1      44.590  36.967  35.235  1.00  0.00    -0.744 OA
ENDBRANCH  68  69
ENDBRANCH  49  63
BRANCH  50  73
ATOM     73  C   UNL A   1      42.636  23.857  28.035  1.00  0.00    -0.014 A 
ATOM     74  C   UNL A   1      42.448  22.700  28.811  1.00  0.00     0.010 A 
ATOM     75  C   UNL A   1      42.681  23.740  26.634  1.00  0.00     0.010 A 
ATOM     76  C   UNL A   1      42.325  21.449  28.201  1.00  0.00     0.020 A 
ATOM     77  C   UNL A   1      42.531  22.494  26.017  1.00  0.00     0.020 A 
ATOM     78  C   UNL A   1      42.364  21.354  26.806  1.00  0.00     0.054 A 
BRANCH  78  79
ATOM     79  S   UNL A   1      42.151  19.726  26.034  1.00  0.00     0.124 S 
ATOM     80  O   UNL A   1      40.743  19.754  25.652  1.00  0.00    -0.237 OA
ATOM     81  O   UNL A   1      43.109  19.772  24.932  1.00  0.00    -0.237 OA
ATOM     82  O   UNL A   1      42.492  18.793  27.106  1.00  0.00    -0.744 OA
ENDBRANCH  78  79
ENDBRANCH  50  73
BRANCH  62  83
ATOM     83  C   UNL A   1      47.911  27.214  31.156  1.00  0.00    -0.014 A 
ATOM     84  C   UNL A   1      48.224  26.522  32.337  1.00  0.00     0.010 A 
ATOM     85  C   UNL A   1      48.926  27.453  30.208  1.00  0.00     0.010 A 
ATOM     86  C   UNL A   1      49.529  26.078  32.568  1.00  0.00     0.020 A 
ATOM     87  C   UNL A   1      50.224  26.990  30.424  1.00  0.00     0.020 A 
ATOM     88  C   UNL A   1      50.519  26.308  31.607  1.00  0.00     0.054 A 
BRANCH  88  89
ATOM     89  S   UNL A   1      52.183  25.641  31.888  1.00  0.00     0.124 S 
ATOM     90  O   UNL A   1      52.619  26.395  33.061  1.00  0.00    -0.237 OA
ATOM     91  O   UNL A   1      51.925  24.221  32.114  1.00  0.00    -0.237 OA
ATOM     92  O   UNL A   1      52.894  25.950  30.649  1.00  0.00    -0.744 OA
ENDBRANCH  88  89
ENDBRANCH  62  83
ENDBRANCH  36  37
ENDBRANCH  28  31
ENDBRANCH  26  27
ENDBRANCH   1  26
TORSDOF 18
ENDMDL
MODEL 2
REMARK VINA RESULT:     -10.7      2.468      3.154
REMARK SMILES CC(C)(C)OC(=O)N[C@@H](C(=O)NCCCNC(=O)c1ccc(-c2c3nc(c(-c4ccc(S(=O)(=O)[O-])cc4)c4ccc([nH]4)c(-c4ccc(S(=O)(=O)[O-])cc4)c4nc(c(-c5ccc(S(=O)(=O)[O-])cc5)c5ccc2[nH]5)C=C4)C=C3)cc1)c1ccc([N+](=O)[O-])cc1
REMARK SMILES IDX 14 1 13 2 12 3 10 4 11 5 9 7 8 8 6 9 7 10 5 12 2 13 1 14
REMARK SMILES IDX 3 15 4 16 79 17 80 18 87 19 81 20 86 21 82 22 83 23 84 24
REMARK SMILES IDX 85 25 15 26 16 27 17 28 18 30 19 31 20 32 78 33 21 34 77 35
REMARK SMILES IDX 22 36 23 37 24 38 71 39 25 40 76 41 70 42 72 43 26 44 75 45
REMARK SMILES IDX 69 46 68 47 27 49 57 50 38 51 56 52 39 53 42 54 55 55 73 56
REMARK SMILES IDX 40 57 41 58 54 60 74 61 43 62 28 63 29 64 37 65 30 66 36 67
REMARK SMILES IDX 31 68 32 69 33 70 34 71 35 72 58 73 59 74 67 75 60 76 66 77
REMARK SMILES IDX 61 78 62 79 63 80 64 81 65 82 44 83 45 84 53 85 46 86 52 87
REMARK SMILES IDX 47 88 48 89 49 90 50 91 51 92
REMARK H PARENT 12 6 8 11 16 29 72 48 42 59
REMARK Flexibility Score: inf
ROOT
ATOM      1  C   UNL A   1      33.111  28.006  27.028  1.00  0.00     0.042 C 
ENDROOT
BRANCH   1   2
ATOM      2  C   UNL A   1      31.655  27.916  26.582  1.00  0.00     0.117 C 
BRANCH   2   3
ATOM      3  N   UNL A   1      31.070  26.637  26.925  1.00  0.00    -0.354 N 
ATOM      4  C   UNL A   1      30.719  25.595  26.112  1.00  0.00     0.247 C 
ATOM      5  O   UNL A   1      30.156  24.637  26.649  1.00  0.00    -0.272 OA
ATOM      6  H   UNL A   1      30.898  26.497  27.884  1.00  0.00     0.163 HD
BRANCH   4   7
ATOM      7  C   UNL A   1      31.061  25.636  24.593  1.00  0.00     0.205 C 
BRANCH   7   8
ATOM      8  N   UNL A   1      32.501  25.791  24.435  1.00  0.00    -0.306 N 
ATOM      9  C   UNL A   1      33.453  24.823  24.508  1.00  0.00     0.408 C 
ATOM     10  O   UNL A   1      34.634  25.098  24.349  1.00  0.00    -0.225 OA
ATOM     11  H   UNL A   1      32.823  26.704  24.256  1.00  0.00     0.168 HD
BRANCH   9  12
ATOM     12  O   UNL A   1      32.955  23.602  24.809  1.00  0.00    -0.444 OA
BRANCH  12  13
ATOM     13  C   UNL A   1      33.276  22.445  23.988  1.00  0.00     0.106 C 
ATOM     14  C   UNL A   1      32.203  21.404  24.345  1.00  0.00     0.056 C 
ATOM     15  C   UNL A   1      34.646  21.853  24.342  1.00  0.00     0.056 C 
ATOM     16  C   UNL A   1      33.168  22.776  22.498  1.00  0.00     0.056 C 
ENDBRANCH  12  13
ENDBRANCH   9  12
ENDBRANCH   7   8
BRANCH   7  17
ATOM     17  C   UNL A   1      30.277  26.741  23.878  1.00  0.00    -0.016 A 
ATOM     18  C   UNL A   1      28.869  26.718  23.937  1.00  0.00     0.013 A 
ATOM     19  C   UNL A   1      30.899  27.816  23.219  1.00  0.00     0.013 A 
ATOM     20  C   UNL A   1      28.105  27.743  23.374  1.00  0.00     0.086 A 
ATOM     21  C   UNL A   1      30.144  28.846  22.648  1.00  0.00     0.086 A 
ATOM     22  C   UNL A   1      28.747  28.809  22.735  1.00  0.00     0.269 A 
BRANCH  22  23
ATOM     23  N   UNL A   1      27.952  29.898  22.158  1.00  0.00     0.062 N 
ATOM     24  O   UNL A   1      27.239  30.562  22.925  1.00  0.00    -0.258 OA
ATOM     25  O   UNL A   1      28.031  30.089  20.935  1.00  0.00    -0.258 OA
ENDBRANCH  22  23
ENDBRANCH   7  17
ENDBRANCH   4   7
ENDBRANCH   2   3
ENDBRANCH   1   2
BRANCH   1  26
ATOM     26  C   UNL A   1      33.945  28.970  26.190  1.00  0.00     0.118 C 
BRANCH  26  27
ATOM     27  N   UNL A   1      33.743  30.360  26.583  1.00  0.00    -0.352 N 
ATOM     28  C   UNL A   1      34.395  31.100  27.539  1.00  0.00     0.251 C 
ATOM     29  H   UNL A   1      33.037  30.837  26.091  1.00  0.00     0.163 HD
ATOM     30  O   UNL A   1      33.950  32.195  27.868  1.00  0.00    -0.269 OA
BRANCH  28  31
ATOM     31  C   UNL A   1      35.619  30.570  28.174  1.00  0.00     0.039 A 
ATOM     32  C   UNL A   1      36.868  30.945  27.671  1.00  0.00     0.014 A 
ATOM     33  C   UNL A   1      35.531  29.697  29.261  1.00  0.00     0.014 A 
ATOM     34  C   UNL A   1      38.031  30.496  28.300  1.00  0.00     0.010 A 
ATOM     35  C   UNL A   1      36.687  29.307  29.927  1.00  0.00     0.010 A 
ATOM     36  C   UNL A   1      37.949  29.700  29.452  1.00  0.00    -0.014 A 
BRANCH  36  37
ATOM     37  C   UNL A   1      39.156  29.240  30.184  1.00  0.00     0.031 A 
ATOM     38  C   UNL A   1      39.590  29.969  31.425  1.00  0.00     0.074 A 
ATOM     39  C   UNL A   1      39.914  28.248  29.678  1.00  0.00     0.049 A 
ATOM     40  N   UNL A   1      40.701  29.853  32.106  1.00  0.00    -0.248 NA
ATOM     41  C   UNL A   1      38.664  30.985  31.953  1.00  0.00     0.031 C 
ATOM     42  C   UNL A   1      39.608  27.475  28.470  1.00  0.00     0.029 A 
ATOM     43  N   UNL A   1      41.115  27.735  30.103  1.00  0.00    -0.354 N 
ATOM     44  C   UNL A   1      40.624  30.803  33.117  1.00  0.00     0.074 A 
ATOM     45  C   UNL A   1      39.374  31.510  32.942  1.00  0.00     0.031 C 
ATOM     46  C   UNL A   1      40.591  26.584  28.258  1.00  0.00     0.029 A 
ATOM     47  C   UNL A   1      41.619  26.756  29.280  1.00  0.00     0.049 A 
ATOM     48  H   UNL A   1      41.571  28.041  30.921  1.00  0.00     0.167 HD
ATOM     49  C   UNL A   1      41.509  31.056  34.110  1.00  0.00     0.031 A 
ATOM     50  C   UNL A   1      42.789  26.088  29.328  1.00  0.00     0.031 A 
ATOM     51  C   UNL A   1      42.740  30.335  34.290  1.00  0.00     0.049 A 
ATOM     52  C   UNL A   1      43.763  26.393  30.433  1.00  0.00     0.074 A 
ATOM     53  C   UNL A   1      43.684  30.482  35.291  1.00  0.00     0.029 A 
ATOM     54  N   UNL A   1      43.195  29.327  33.454  1.00  0.00    -0.354 N 
ATOM     55  N   UNL A   1      43.657  27.270  31.403  1.00  0.00    -0.248 NA
ATOM     56  C   UNL A   1      45.010  25.615  30.457  1.00  0.00     0.031 C 
ATOM     57  C   UNL A   1      44.731  29.592  35.035  1.00  0.00     0.029 A 
ATOM     58  C   UNL A   1      44.412  28.851  33.909  1.00  0.00     0.049 A 
ATOM     59  H   UNL A   1      42.722  28.999  32.655  1.00  0.00     0.167 HD
ATOM     60  C   UNL A   1      44.805  27.121  32.175  1.00  0.00     0.074 A 
ATOM     61  C   UNL A   1      45.591  26.073  31.559  1.00  0.00     0.031 C 
ATOM     62  C   UNL A   1      45.168  27.788  33.297  1.00  0.00     0.031 A 
BRANCH  49  63
ATOM     63  C   UNL A   1      41.181  32.168  35.071  1.00  0.00    -0.014 A 
ATOM     64  C   UNL A   1      41.592  33.490  34.822  1.00  0.00     0.010 A 
ATOM     65  C   UNL A   1      40.420  31.894  36.222  1.00  0.00     0.010 A 
ATOM     66  C   UNL A   1      41.289  34.508  35.729  1.00  0.00     0.020 A 
ATOM     67  C   UNL A   1      40.089  32.915  37.117  1.00  0.00     0.020 A 
ATOM     68  C   UNL A   1      40.542  34.213  36.874  1.00  0.00     0.054 A 
BRANCH  68  69
ATOM     69  S   UNL A   1      40.150  35.558  38.026  1.00  0.00     0.124 S 
ATOM     70  O   UNL A   1      38.931  35.063  38.660  1.00  0.00    -0.237 OA
ATOM     71  O   UNL A   1      41.331  35.600  38.884  1.00  0.00    -0.237 OA
ATOM     72  O   UNL A   1      39.973  36.718  37.157  1.00  0.00    -0.744 OA
ENDBRANCH  68  69
ENDBRANCH  49  63
BRANCH  50  73
ATOM     73  C   UNL A   1      43.098  25.057  28.299  1.00  0.00    -0.014 A 
ATOM     74  C   UNL A   1      43.786  25.409  27.125  1.00  0.00     0.010 A 
ATOM     75  C   UNL A   1      42.723  23.715  28.495  1.00  0.00     0.010 A 
ATOM     76  C   UNL A   1      44.077  24.444  26.157  1.00  0.00     0.020 A 
ATOM     77  C   UNL A   1      43.036  22.741  27.542  1.00  0.00     0.020 A 
ATOM     78  C   UNL A   1      43.702  23.114  26.373  1.00  0.00     0.054 A 
BRANCH  78  79
ATOM     79  S   UNL A   1      44.137  21.870  25.126  1.00  0.00     0.124 S 
ATOM     80  O   UNL A   1      45.507  21.532  25.499  1.00  0.00    -0.237 OA
ATOM     81  O   UNL A   1      43.140  20.828  25.360  1.00  0.00    -0.237 OA
ATOM     82  O   UNL A   1      43.990  22.588  23.862  1.00  0.00    -0.744 OA
ENDBRANCH  78  79
ENDBRANCH  50  73
BRANCH  62  83
ATOM     83  C   UNL A   1      46.440  27.371  33.983  1.00  0.00    -0.014 A 
ATOM     84  C   UNL A   1      46.456  26.338  34.934  1.00  0.00     0.010 A 
ATOM     85  C   UNL A   1      47.657  27.957  33.581  1.00  0.00     0.010 A 
ATOM     86  C   UNL A   1      47.668  25.899  35.476  1.00  0.00     0.020 A 
ATOM     87  C   UNL A   1      48.870  27.505  34.102  1.00  0.00     0.020 A 
ATOM     88  C   UNL A   1      48.867  26.480  35.050  1.00  0.00     0.054 A 
BRANCH  88  89
ATOM     89  S   UNL A   1      50.432  25.830  35.699  1.00  0.00     0.124 S 
ATOM     90  O   UNL A   1      50.000  25.158  36.921  1.00  0.00    -0.237 OA
ATOM     91  O   UNL A   1      50.883  24.949  34.624  1.00  0.00    -0.237 OA
ATOM     92  O   UNL A   1      51.248  27.026  35.900  1.00  0.00    -0.744 OA
ENDBRANCH  88  89
ENDBRANCH  62  83
ENDBRANCH  36  37
ENDBRANCH  28  31
ENDBRANCH  26  27
ENDBRANCH   1  26
TORSDOF 18
ENDMDL
MODEL 3
REMARK VINA RESULT:     -10.7      4.597     10.437
REMARK SMILES CC(C)(C)OC(=O)N[C@@H](C(=O)NCCCNC(=O)c1ccc(-c2c3nc(c(-c4ccc(S(=O)(=O)[O-])cc4)c4ccc([nH]4)c(-c4ccc(S(=O)(=O)[O-])cc4)c4nc(c(-c5ccc(S(=O)(=O)[O-])cc5)c5ccc2[nH]5)C=C4)C=C3)cc1)c1ccc([N+](=O)[O-])cc1
REMARK SMILES IDX 14 1 13 2 12 3 10 4 11 5 9 7 8 8 6 9 7 10 5 12 2 13 1 14
REMARK SMILES IDX 3 15 4 16 79 17 80 18 87 19 81 20 86 21 82 22 83 23 84 24
REMARK SMILES IDX 85 25 15 26 16 27 17 28 18 30 19 31 20 32 78 33 21 34 77 35
REMARK SMILES IDX 22 36 23 37 24 38 71 39 25 40 76 41 70 42 72 43 26 44 75 45
REMARK SMILES IDX 69 46 68 47 27 49 57 50 38 51 56 52 39 53 42 54 55 55 73 56
REMARK SMILES IDX 40 57 41 58 54 60 74 61 43 62 28 63 29 64 37 65 30 66 36 67
REMARK SMILES IDX 31 68 32 69 33 70 34 71 35 72 58 73 59 74 67 75 60 76 66 77
REMARK SMILES IDX 61 78 62 79 63 80 64 81 65 82 44 83 45 84 53 85 46 86 52 87
REMARK SMILES IDX 47 88 48 89 49 90 50 91 51 92
REMARK H PARENT 12 6 8 11 16 29 72 48 42 59
REMARK Flexibility Score: inf
ROOT
ATOM      1  C   UNL A   1      37.378  23.370  25.560  1.00  0.00     0.042 C 
ENDROOT
BRANCH   1   2
ATOM      2  C   UNL A   1      35.899  23.699  25.736  1.00  0.00     0.117 C 
BRANCH   2   3
ATOM      3  N   UNL A   1      35.339  23.040  26.897  1.00  0.00    -0.354 N 
ATOM      4  C   UNL A   1      34.053  22.643  27.137  1.00  0.00     0.247 C 
ATOM      5  O   UNL A   1      33.815  22.172  28.251  1.00  0.00    -0.272 OA
ATOM      6  H   UNL A   1      35.978  22.850  27.621  1.00  0.00     0.163 HD
BRANCH   4   7
ATOM      7  C   UNL A   1      32.974  22.765  26.019  1.00  0.00     0.205 C 
BRANCH   7   8
ATOM      8  N   UNL A   1      31.709  23.162  26.621  1.00  0.00    -0.306 N 
ATOM      9  C   UNL A   1      30.816  24.074  26.153  1.00  0.00     0.408 C 
ATOM     10  O   UNL A   1      29.784  24.306  26.766  1.00  0.00    -0.225 OA
ATOM     11  H   UNL A   1      31.473  22.719  27.468  1.00  0.00     0.168 HD
BRANCH   9  12
ATOM     12  O   UNL A   1      31.220  24.686  25.017  1.00  0.00    -0.444 OA
BRANCH  12  13
ATOM     13  C   UNL A   1      31.608  26.088  25.026  1.00  0.00     0.106 C 
ATOM     14  C   UNL A   1      30.386  26.834  24.466  1.00  0.00     0.056 C 
ATOM     15  C   UNL A   1      32.796  26.360  24.095  1.00  0.00     0.056 C 
ATOM     16  C   UNL A   1      31.877  26.580  26.450  1.00  0.00     0.056 C 
ENDBRANCH  12  13
ENDBRANCH   9  12
ENDBRANCH   7   8
BRANCH   7  17
ATOM     17  C   UNL A   1      32.854  21.463  25.220  1.00  0.00    -0.016 A 
ATOM     18  C   UNL A   1      32.390  21.526  23.890  1.00  0.00     0.013 A 
ATOM     19  C   UNL A   1      33.250  20.214  25.730  1.00  0.00     0.013 A 
ATOM     20  C   UNL A   1      32.339  20.382  23.089  1.00  0.00     0.086 A 
ATOM     21  C   UNL A   1      33.198  19.062  24.937  1.00  0.00     0.086 A 
ATOM     22  C   UNL A   1      32.749  19.153  23.615  1.00  0.00     0.269 A 
BRANCH  22  23
ATOM     23  N   UNL A   1      32.716  17.953  22.772  1.00  0.00     0.062 N 
ATOM     24  O   UNL A   1      33.190  16.906  23.239  1.00  0.00    -0.258 OA
ATOM     25  O   UNL A   1      32.222  18.054  21.638  1.00  0.00    -0.258 OA
ENDBRANCH  22  23
ENDBRANCH   7  17
ENDBRANCH   4   7
ENDBRANCH   2   3
ENDBRANCH   1   2
BRANCH   1  26
ATOM     26  C   UNL A   1      38.297  24.226  26.425  1.00  0.00     0.118 C 
BRANCH  26  27
ATOM     27  N   UNL A   1      39.707  23.970  26.153  1.00  0.00    -0.352 N 
ATOM     28  C   UNL A   1      40.814  24.684  26.539  1.00  0.00     0.251 C 
ATOM     29  H   UNL A   1      39.891  23.167  25.615  1.00  0.00     0.163 HD
ATOM     30  O   UNL A   1      41.908  24.426  26.044  1.00  0.00    -0.269 OA
BRANCH  28  31
ATOM     31  C   UNL A   1      40.684  25.766  27.536  1.00  0.00     0.039 A 
ATOM     32  C   UNL A   1      39.726  25.651  28.548  1.00  0.00     0.014 A 
ATOM     33  C   UNL A   1      41.502  26.897  27.466  1.00  0.00     0.014 A 
ATOM     34  C   UNL A   1      39.634  26.641  29.529  1.00  0.00     0.010 A 
ATOM     35  C   UNL A   1      41.455  27.845  28.480  1.00  0.00     0.010 A 
ATOM     36  C   UNL A   1      40.520  27.730  29.521  1.00  0.00    -0.014 A 
BRANCH  36  37
ATOM     37  C   UNL A   1      40.494  28.780  30.570  1.00  0.00     0.031 A 
ATOM     38  C   UNL A   1      41.388  28.648  31.771  1.00  0.00     0.074 A 
ATOM     39  C   UNL A   1      39.597  29.783  30.496  1.00  0.00     0.049 A 
ATOM     40  N   UNL A   1      41.392  29.343  32.879  1.00  0.00    -0.248 NA
ATOM     41  C   UNL A   1      42.390  27.569  31.734  1.00  0.00     0.031 C 
ATOM     42  C   UNL A   1      38.663  30.010  29.390  1.00  0.00     0.029 A 
ATOM     43  N   UNL A   1      39.308  30.789  31.385  1.00  0.00    -0.354 N 
ATOM     44  C   UNL A   1      42.368  28.766  33.682  1.00  0.00     0.074 A 
ATOM     45  C   UNL A   1      42.911  27.642  32.950  1.00  0.00     0.031 C 
ATOM     46  C   UNL A   1      37.911  31.089  29.664  1.00  0.00     0.029 A 
ATOM     47  C   UNL A   1      38.271  31.598  30.984  1.00  0.00     0.049 A 
ATOM     48  H   UNL A   1      39.797  30.917  32.231  1.00  0.00     0.167 HD
ATOM     49  C   UNL A   1      42.784  29.144  34.914  1.00  0.00     0.031 A 
ATOM     50  C   UNL A   1      37.663  32.622  31.616  1.00  0.00     0.031 A 
ATOM     51  C   UNL A   1      42.253  30.274  35.627  1.00  0.00     0.049 A 
ATOM     52  C   UNL A   1      38.133  33.018  32.990  1.00  0.00     0.074 A 
ATOM     53  C   UNL A   1      42.637  30.769  36.860  1.00  0.00     0.029 A 
ATOM     54  N   UNL A   1      41.228  31.089  35.168  1.00  0.00    -0.354 N 
ATOM     55  N   UNL A   1      39.083  32.484  33.719  1.00  0.00    -0.248 NA
ATOM     56  C   UNL A   1      37.456  34.159  33.622  1.00  0.00     0.031 C 
ATOM     57  C   UNL A   1      41.815  31.858  37.167  1.00  0.00     0.029 A 
ATOM     58  C   UNL A   1      40.959  32.076  36.099  1.00  0.00     0.049 A 
ATOM     59  H   UNL A   1      40.763  30.980  34.307  1.00  0.00     0.167 HD
ATOM     60  C   UNL A   1      39.144  33.248  34.880  1.00  0.00     0.074 A 
ATOM     61  C   UNL A   1      38.136  34.280  34.756  1.00  0.00     0.031 C 
ATOM     62  C   UNL A   1      39.968  33.111  35.947  1.00  0.00     0.031 A 
BRANCH  49  63
ATOM     63  C   UNL A   1      43.857  28.319  35.572  1.00  0.00    -0.014 A 
ATOM     64  C   UNL A   1      45.220  28.617  35.389  1.00  0.00     0.010 A 
ATOM     65  C   UNL A   1      43.499  27.252  36.416  1.00  0.00     0.010 A 
ATOM     66  C   UNL A   1      46.203  27.834  35.998  1.00  0.00     0.020 A 
ATOM     67  C   UNL A   1      44.479  26.485  37.052  1.00  0.00     0.020 A 
ATOM     68  C   UNL A   1      45.826  26.770  36.823  1.00  0.00     0.054 A 
BRANCH  68  69
ATOM     69  S   UNL A   1      47.125  25.781  37.613  1.00  0.00     0.124 S 
ATOM     70  O   UNL A   1      46.351  24.702  38.223  1.00  0.00    -0.237 OA
ATOM     71  O   UNL A   1      47.964  25.390  36.483  1.00  0.00    -0.237 OA
ATOM     72  O   UNL A   1      47.745  26.710  38.554  1.00  0.00    -0.744 OA
ENDBRANCH  68  69
ENDBRANCH  49  63
BRANCH  50  73
ATOM     73  C   UNL A   1      36.547  33.348  30.950  1.00  0.00    -0.014 A 
ATOM     74  C   UNL A   1      36.739  33.943  29.691  1.00  0.00     0.010 A 
ATOM     75  C   UNL A   1      35.283  33.434  31.561  1.00  0.00     0.010 A 
ATOM     76  C   UNL A   1      35.693  34.626  29.063  1.00  0.00     0.020 A 
ATOM     77  C   UNL A   1      34.227  34.092  30.925  1.00  0.00     0.020 A 
ATOM     78  C   UNL A   1      34.442  34.694  29.683  1.00  0.00     0.054 A 
BRANCH  78  79
ATOM     79  S   UNL A   1      33.086  35.542  28.825  1.00  0.00     0.124 S 
ATOM     80  O   UNL A   1      32.290  36.046  29.940  1.00  0.00    -0.237 OA
ATOM     81  O   UNL A   1      33.793  36.554  28.043  1.00  0.00    -0.237 OA
ATOM     82  O   UNL A   1      32.464  34.481  28.038  1.00  0.00    -0.744 OA
ENDBRANCH  78  79
ENDBRANCH  50  73
BRANCH  62  83
ATOM     83  C   UNL A   1      39.872  34.133  37.047  1.00  0.00    -0.014 A 
ATOM     84  C   UNL A   1      39.049  33.929  38.166  1.00  0.00     0.010 A 
ATOM     85  C   UNL A   1      40.710  35.264  37.003  1.00  0.00     0.010 A 
ATOM     86  C   UNL A   1      39.061  34.844  39.223  1.00  0.00     0.020 A 
ATOM     87  C   UNL A   1      40.742  36.166  38.068  1.00  0.00     0.020 A 
ATOM     88  C   UNL A   1      39.914  35.952  39.171  1.00  0.00     0.054 A 
BRANCH  88  89
ATOM     89  S   UNL A   1      39.979  37.074  40.596  1.00  0.00     0.124 S 
ATOM     90  O   UNL A   1      39.835  38.381  39.961  1.00  0.00    -0.237 OA
ATOM     91  O   UNL A   1      38.841  36.637  41.400  1.00  0.00    -0.237 OA
ATOM     92  O   UNL A   1      41.290  36.808  41.186  1.00  0.00    -0.744 OA
ENDBRANCH  88  89
ENDBRANCH  62  83
ENDBRANCH  36  37
ENDBRANCH  28  31
ENDBRANCH  26  27
ENDBRANCH   1  26
TORSDOF 18
ENDMDL
