MODEL 1
REMARK VINA RESULT:     -14.5      0.000      0.000
REMARK SMILES CC(=O)Nc1cnc(N2CC=C(c3ccccc3C)CC2)c(C(=O)NCCCNC(=O)c2ccc(-c3c4nc(c(-c5ccc(S(=O)(=O)[O-])cc5)c5ccc([nH]5)c(-c5ccc(S(=O)(=O)[O-])cc5)c5nc(c(-c6ccc(S(=O)(=O)[O-])cc6)c6ccc3[nH]6)C=C5)C=C4)cc2)c1
REMARK SMILES IDX 27 1 26 2 25 3 23 4 24 5 22 7 5 8 6 9 92 10 7 11 8 12 4 13
REMARK SMILES IDX 1 14 2 15 3 16 9 18 10 19 21 20 11 21 20 22 12 23 13 24
REMARK SMILES IDX 14 25 18 26 15 27 17 28 19 29 16 30 28 31 29 32 30 33 31 35
REMARK SMILES IDX 32 36 33 37 91 38 34 39 90 40 35 41 36 42 37 43 84 44 38 45
REMARK SMILES IDX 89 46 83 47 85 48 39 49 88 50 82 51 81 52 40 54 70 55 51 56
REMARK SMILES IDX 69 57 52 58 55 59 68 60 86 61 53 62 54 63 67 65 87 66 56 67
REMARK SMILES IDX 41 68 42 69 50 70 43 71 49 72 44 73 45 74 46 75 47 76 48 77
REMARK SMILES IDX 71 78 72 79 80 80 73 81 79 82 74 83 75 84 76 85 77 86 78 87
REMARK SMILES IDX 57 88 58 89 66 90 59 91 65 92 60 93 61 94 62 95 63 96 64 97
REMARK H PARENT 25 6 4 17 29 34 85 53 55 64
REMARK Flexibility Score: inf
ROOT
ATOM      1  C   UNL A   1      36.988  23.078  26.228  1.00  0.00     0.042 C 
ENDROOT
BRANCH   1   2
ATOM      2  C   UNL A   1      35.887  24.023  25.747  1.00  0.00     0.118 C 
BRANCH   2   3
ATOM      3  N   UNL A   1      35.536  23.814  24.345  1.00  0.00    -0.352 N 
ATOM      4  C   UNL A   1      34.681  22.993  23.641  1.00  0.00     0.255 C 
ATOM      5  O   UNL A   1      34.536  23.331  22.465  1.00  0.00    -0.269 OA
ATOM      6  H   UNL A   1      36.040  24.414  23.749  1.00  0.00     0.163 HD
BRANCH   4   7
ATOM      7  C   UNL A   1      33.946  21.792  24.190  1.00  0.00     0.084 A 
ATOM      8  C   UNL A   1      33.956  19.445  24.907  1.00  0.00     0.060 A 
ATOM      9  C   UNL A   1      32.637  19.614  25.274  1.00  0.00     0.139 A 
ATOM     10  C   UNL A   1      34.588  20.548  24.344  1.00  0.00     0.045 A 
ATOM     11  N   UNL A   1      31.970  20.776  25.158  1.00  0.00    -0.236 NA
ATOM     12  C   UNL A   1      32.595  21.861  24.611  1.00  0.00     0.141 A 
BRANCH   8  13
ATOM     13  N   UNL A   1      34.544  18.179  25.073  1.00  0.00    -0.325 N 
ATOM     14  C   UNL A   1      33.841  17.003  22.983  1.00  0.00     0.114 C 
ATOM     15  C   UNL A   1      34.457  17.023  24.354  1.00  0.00     0.221 C 
ATOM     16  O   UNL A   1      34.962  16.003  24.832  1.00  0.00    -0.275 OA
ATOM     17  H   UNL A   1      35.132  18.116  25.859  1.00  0.00     0.169 HD
ENDBRANCH   8  13
BRANCH  12  18
ATOM     18  N   UNL A   1      31.760  22.943  24.526  1.00  0.00    -0.352 N 
ATOM     19  C   UNL A   1      30.860  23.022  23.390  1.00  0.00     0.146 C 
ATOM     20  C   UNL A   1      31.647  23.937  25.585  1.00  0.00     0.123 C 
ATOM     21  C   UNL A   1      30.518  24.451  23.061  1.00  0.00    -0.002 C 
ATOM     22  C   UNL A   1      31.810  25.342  24.984  1.00  0.00     0.057 C 
ATOM     23  C   UNL A   1      30.945  25.521  23.758  1.00  0.00    -0.041 C 
BRANCH  23  24
ATOM     24  C   UNL A   1      30.537  26.886  23.368  1.00  0.00    -0.020 A 
ATOM     25  C   UNL A   1      29.180  27.230  23.504  1.00  0.00     0.008 A 
ATOM     26  C   UNL A   1      31.438  27.850  22.872  1.00  0.00    -0.044 A 
ATOM     27  C   UNL A   1      28.719  28.503  23.167  1.00  0.00     0.001 A 
ATOM     28  C   UNL A   1      30.961  29.135  22.553  1.00  0.00     0.004 A 
ATOM     29  C   UNL A   1      32.904  27.567  22.695  1.00  0.00     0.045 C 
ATOM     30  C   UNL A   1      29.612  29.458  22.694  1.00  0.00     0.000 A 
ENDBRANCH  23  24
ENDBRANCH  12  18
ENDBRANCH   4   7
ENDBRANCH   2   3
ENDBRANCH   1   2
BRANCH   1  31
ATOM     31  C   UNL A   1      38.384  23.542  25.843  1.00  0.00     0.118 C 
BRANCH  31  32
ATOM     32  N   UNL A   1      39.405  23.152  26.817  1.00  0.00    -0.352 N 
ATOM     33  C   UNL A   1      40.110  23.988  27.666  1.00  0.00     0.251 C 
ATOM     34  H   UNL A   1      39.613  22.191  26.872  1.00  0.00     0.163 HD
ATOM     35  O   UNL A   1      41.073  23.625  28.321  1.00  0.00    -0.269 OA
BRANCH  33  36
ATOM     36  C   UNL A   1      39.549  25.341  27.833  1.00  0.00     0.039 A 
ATOM     37  C   UNL A   1      40.066  26.334  26.991  1.00  0.00     0.014 A 
ATOM     38  C   UNL A   1      38.890  25.653  29.018  1.00  0.00     0.014 A 
ATOM     39  C   UNL A   1      40.099  27.647  27.439  1.00  0.00     0.010 A 
ATOM     40  C   UNL A   1      39.003  26.943  29.496  1.00  0.00     0.010 A 
ATOM     41  C   UNL A   1      39.664  27.921  28.734  1.00  0.00    -0.014 A 
BRANCH  41  42
ATOM     42  C   UNL A   1      39.936  29.179  29.418  1.00  0.00     0.031 A 
ATOM     43  C   UNL A   1      38.958  30.284  29.319  1.00  0.00     0.074 A 
ATOM     44  C   UNL A   1      41.038  29.311  30.192  1.00  0.00     0.049 A 
ATOM     45  N   UNL A   1      39.221  31.520  29.582  1.00  0.00    -0.248 NA
ATOM     46  C   UNL A   1      37.599  30.085  28.814  1.00  0.00     0.031 C 
ATOM     47  C   UNL A   1      41.289  30.358  31.181  1.00  0.00     0.029 A 
ATOM     48  N   UNL A   1      42.268  28.653  30.083  1.00  0.00    -0.354 N 
ATOM     49  C   UNL A   1      38.024  32.195  29.607  1.00  0.00     0.074 A 
ATOM     50  C   UNL A   1      37.081  31.305  28.979  1.00  0.00     0.031 C 
ATOM     51  C   UNL A   1      42.614  30.477  31.353  1.00  0.00     0.029 A 
ATOM     52  C   UNL A   1      43.251  29.615  30.372  1.00  0.00     0.049 A 
ATOM     53  H   UNL A   1      42.414  27.707  29.850  1.00  0.00     0.167 HD
ATOM     54  C   UNL A   1      37.933  33.361  30.306  1.00  0.00     0.031 A 
ATOM     55  C   UNL A   1      44.222  30.009  29.497  1.00  0.00     0.031 A 
ATOM     56  C   UNL A   1      39.255  33.869  30.669  1.00  0.00     0.049 A 
ATOM     57  C   UNL A   1      44.195  31.497  29.211  1.00  0.00     0.074 A 
ATOM     58  C   UNL A   1      39.968  33.912  31.855  1.00  0.00     0.029 A 
ATOM     59  N   UNL A   1      40.154  34.188  29.656  1.00  0.00    -0.354 N 
ATOM     60  N   UNL A   1      43.195  32.278  29.520  1.00  0.00    -0.248 NA
ATOM     61  C   UNL A   1      45.261  32.215  28.518  1.00  0.00     0.031 C 
ATOM     62  C   UNL A   1      41.334  34.143  31.530  1.00  0.00     0.029 A 
ATOM     63  C   UNL A   1      41.436  34.288  30.157  1.00  0.00     0.049 A 
ATOM     64  H   UNL A   1      39.908  34.324  28.712  1.00  0.00     0.167 HD
ATOM     65  C   UNL A   1      43.449  33.552  29.087  1.00  0.00     0.074 A 
ATOM     66  C   UNL A   1      44.763  33.464  28.475  1.00  0.00     0.031 C 
ATOM     67  C   UNL A   1      42.551  34.567  29.258  1.00  0.00     0.031 A 
BRANCH  54  68
ATOM     68  C   UNL A   1      36.637  33.905  30.883  1.00  0.00    -0.014 A 
ATOM     69  C   UNL A   1      35.475  33.939  30.082  1.00  0.00     0.010 A 
ATOM     70  C   UNL A   1      36.521  34.515  32.149  1.00  0.00     0.010 A 
ATOM     71  C   UNL A   1      34.296  34.585  30.501  1.00  0.00     0.020 A 
ATOM     72  C   UNL A   1      35.349  35.144  32.589  1.00  0.00     0.020 A 
ATOM     73  C   UNL A   1      34.246  35.197  31.751  1.00  0.00     0.054 A 
BRANCH  73  74
ATOM     74  S   UNL A   1      32.755  36.086  32.266  1.00  0.00     0.124 S 
ATOM     75  O   UNL A   1      32.418  36.849  31.067  1.00  0.00    -0.237 OA
ATOM     76  O   UNL A   1      31.838  35.002  32.605  1.00  0.00    -0.237 OA
ATOM     77  O   UNL A   1      33.205  36.892  33.401  1.00  0.00    -0.744 OA
ENDBRANCH  73  74
ENDBRANCH  54  68
BRANCH  55  78
ATOM     78  C   UNL A   1      44.652  28.955  28.538  1.00  0.00    -0.014 A 
ATOM     79  C   UNL A   1      44.070  28.983  27.252  1.00  0.00     0.010 A 
ATOM     80  C   UNL A   1      45.869  28.276  28.720  1.00  0.00     0.010 A 
ATOM     81  C   UNL A   1      44.774  28.509  26.145  1.00  0.00     0.020 A 
ATOM     82  C   UNL A   1      46.577  27.798  27.607  1.00  0.00     0.020 A 
ATOM     83  C   UNL A   1      46.054  27.983  26.324  1.00  0.00     0.054 A 
BRANCH  83  84
ATOM     84  S   UNL A   1      47.091  27.759  24.846  1.00  0.00     0.124 S 
ATOM     85  O   UNL A   1      46.498  28.701  23.903  1.00  0.00    -0.237 OA
ATOM     86  O   UNL A   1      48.417  28.123  25.348  1.00  0.00    -0.237 OA
ATOM     87  O   UNL A   1      46.915  26.346  24.525  1.00  0.00    -0.744 OA
ENDBRANCH  83  84
ENDBRANCH  55  78
BRANCH  67  88
ATOM     88  C   UNL A   1      42.650  35.946  28.651  1.00  0.00    -0.014 A 
ATOM     89  C   UNL A   1      41.991  36.340  27.474  1.00  0.00     0.010 A 
ATOM     90  C   UNL A   1      43.337  36.956  29.367  1.00  0.00     0.010 A 
ATOM     91  C   UNL A   1      42.067  37.661  27.004  1.00  0.00     0.020 A 
ATOM     92  C   UNL A   1      43.383  38.283  28.932  1.00  0.00     0.020 A 
ATOM     93  C   UNL A   1      42.767  38.622  27.734  1.00  0.00     0.054 A 
BRANCH  93  94
ATOM     94  S   UNL A   1      42.806  40.340  27.158  1.00  0.00     0.124 S 
ATOM     95  O   UNL A   1      44.099  40.399  26.481  1.00  0.00    -0.237 OA
ATOM     96  O   UNL A   1      41.639  40.421  26.284  1.00  0.00    -0.237 OA
ATOM     97  O   UNL A   1      42.706  41.115  28.391  1.00  0.00    -0.744 OA
ENDBRANCH  93  94
ENDBRANCH  67  88
ENDBRANCH  41  42
ENDBRANCH  33  36
ENDBRANCH  31  32
ENDBRANCH   1  31
TORSDOF 16
ENDMDL
MODEL 2
REMARK VINA RESULT:     -13.3      2.612      5.236
REMARK SMILES CC(=O)Nc1cnc(N2CC=C(c3ccccc3C)CC2)c(C(=O)NCCCNC(=O)c2ccc(-c3c4nc(c(-c5ccc(S(=O)(=O)[O-])cc5)c5ccc([nH]5)c(-c5ccc(S(=O)(=O)[O-])cc5)c5nc(c(-c6ccc(S(=O)(=O)[O-])cc6)c6ccc3[nH]6)C=C5)C=C4)cc2)c1
REMARK SMILES IDX 27 1 26 2 25 3 23 4 24 5 22 7 5 8 6 9 92 10 7 11 8 12 4 13
REMARK SMILES IDX 1 14 2 15 3 16 9 18 10 19 21 20 11 21 20 22 12 23 13 24
REMARK SMILES IDX 14 25 18 26 15 27 17 28 19 29 16 30 28 31 29 32 30 33 31 35
REMARK SMILES IDX 32 36 33 37 91 38 34 39 90 40 35 41 36 42 37 43 84 44 38 45
REMARK SMILES IDX 89 46 83 47 85 48 39 49 88 50 82 51 81 52 40 54 70 55 51 56
REMARK SMILES IDX 69 57 52 58 55 59 68 60 86 61 53 62 54 63 67 65 87 66 56 67
REMARK SMILES IDX 41 68 42 69 50 70 43 71 49 72 44 73 45 74 46 75 47 76 48 77
REMARK SMILES IDX 71 78 72 79 80 80 73 81 79 82 74 83 75 84 76 85 77 86 78 87
REMARK SMILES IDX 57 88 58 89 66 90 59 91 65 92 60 93 61 94 62 95 63 96 64 97
REMARK H PARENT 25 6 4 17 29 34 85 53 55 64
REMARK Flexibility Score: inf
ROOT
ATOM      1  C   UNL A   1      37.027  22.368  24.259  1.00  0.00     0.042 C 
ENDROOT
BRANCH   1   2
ATOM      2  C   UNL A   1      36.408  23.659  23.724  1.00  0.00     0.118 C 
BRANCH   2   3
ATOM      3  N   UNL A   1      35.147  23.431  23.022  1.00  0.00    -0.352 N 
ATOM      4  C   UNL A   1      33.853  23.899  23.115  1.00  0.00     0.255 C 
ATOM      5  O   UNL A   1      33.155  23.602  22.144  1.00  0.00    -0.269 OA
ATOM      6  H   UNL A   1      35.248  22.775  22.295  1.00  0.00     0.163 HD
BRANCH   4   7
ATOM      7  C   UNL A   1      33.280  24.711  24.252  1.00  0.00     0.084 A 
ATOM      8  C   UNL A   1      32.710  26.891  25.225  1.00  0.00     0.060 A 
ATOM      9  C   UNL A   1      32.155  26.206  26.286  1.00  0.00     0.139 A 
ATOM     10  C   UNL A   1      33.290  26.119  24.224  1.00  0.00     0.045 A 
ATOM     11  N   UNL A   1      32.109  24.863  26.368  1.00  0.00    -0.236 NA
ATOM     12  C   UNL A   1      32.673  24.107  25.381  1.00  0.00     0.141 A 
BRANCH   8  13
ATOM     13  N   UNL A   1      32.702  28.296  25.254  1.00  0.00    -0.325 N 
ATOM     14  C   UNL A   1      34.465  28.790  26.955  1.00  0.00     0.114 C 
ATOM     15  C   UNL A   1      33.340  29.204  26.049  1.00  0.00     0.221 C 
ATOM     16  O   UNL A   1      33.014  30.390  25.950  1.00  0.00    -0.275 OA
ATOM     17  H   UNL A   1      32.125  28.703  24.569  1.00  0.00     0.169 HD
ENDBRANCH   8  13
BRANCH  12  18
ATOM     18  N   UNL A   1      32.577  22.767  25.646  1.00  0.00    -0.352 N 
ATOM     19  C   UNL A   1      33.484  22.200  26.627  1.00  0.00     0.146 C 
ATOM     20  C   UNL A   1      31.528  21.925  25.087  1.00  0.00     0.123 C 
ATOM     21  C   UNL A   1      33.740  20.741  26.358  1.00  0.00    -0.002 C 
ATOM     22  C   UNL A   1      32.161  20.681  24.443  1.00  0.00     0.057 C 
ATOM     23  C   UNL A   1      33.164  20.032  25.368  1.00  0.00    -0.041 C 
BRANCH  23  24
ATOM     24  C   UNL A   1      33.463  18.596  25.197  1.00  0.00    -0.020 A 
ATOM     25  C   UNL A   1      32.417  17.678  25.402  1.00  0.00     0.008 A 
ATOM     26  C   UNL A   1      34.737  18.109  24.839  1.00  0.00    -0.044 A 
ATOM     27  C   UNL A   1      32.620  16.306  25.249  1.00  0.00     0.001 A 
ATOM     28  C   UNL A   1      34.921  16.724  24.671  1.00  0.00     0.004 A 
ATOM     29  C   UNL A   1      35.909  19.020  24.600  1.00  0.00     0.045 C 
ATOM     30  C   UNL A   1      33.871  15.829  24.880  1.00  0.00     0.000 A 
ENDBRANCH  23  24
ENDBRANCH  12  18
ENDBRANCH   4   7
ENDBRANCH   2   3
ENDBRANCH   1   2
BRANCH   1  31
ATOM     31  C   UNL A   1      37.291  22.407  25.757  1.00  0.00     0.118 C 
BRANCH  31  32
ATOM     32  N   UNL A   1      38.604  21.873  26.120  1.00  0.00    -0.352 N 
ATOM     33  C   UNL A   1      39.736  22.597  26.454  1.00  0.00     0.251 C 
ATOM     34  H   UNL A   1      38.691  20.892  26.127  1.00  0.00     0.163 HD
ATOM     35  O   UNL A   1      40.843  22.099  26.568  1.00  0.00    -0.269 OA
BRANCH  33  36
ATOM     36  C   UNL A   1      39.506  24.014  26.789  1.00  0.00     0.039 A 
ATOM     37  C   UNL A   1      40.161  24.955  25.985  1.00  0.00     0.014 A 
ATOM     38  C   UNL A   1      39.028  24.335  28.056  1.00  0.00     0.014 A 
ATOM     39  C   UNL A   1      40.522  26.177  26.536  1.00  0.00     0.010 A 
ATOM     40  C   UNL A   1      39.464  25.514  28.627  1.00  0.00     0.010 A 
ATOM     41  C   UNL A   1      40.263  26.402  27.887  1.00  0.00    -0.014 A 
BRANCH  41  42
ATOM     42  C   UNL A   1      40.862  27.494  28.643  1.00  0.00     0.031 A 
ATOM     43  C   UNL A   1      40.077  28.726  28.882  1.00  0.00     0.074 A 
ATOM     44  C   UNL A   1      42.096  27.357  29.181  1.00  0.00     0.049 A 
ATOM     45  N   UNL A   1      40.586  29.860  29.228  1.00  0.00    -0.248 NA
ATOM     46  C   UNL A   1      38.635  28.793  28.651  1.00  0.00     0.031 C 
ATOM     47  C   UNL A   1      42.697  28.201  30.212  1.00  0.00     0.029 A 
ATOM     48  N   UNL A   1      43.158  26.560  28.740  1.00  0.00    -0.354 N 
ATOM     49  C   UNL A   1      39.542  30.683  29.581  1.00  0.00     0.074 A 
ATOM     50  C   UNL A   1      38.365  30.034  29.063  1.00  0.00     0.031 C 
ATOM     51  C   UNL A   1      44.032  28.110  30.117  1.00  0.00     0.029 A 
ATOM     52  C   UNL A   1      44.323  27.324  28.930  1.00  0.00     0.049 A 
ATOM     53  H   UNL A   1      43.101  25.648  28.372  1.00  0.00     0.167 HD
ATOM     54  C   UNL A   1      39.776  31.733  30.417  1.00  0.00     0.031 A 
ATOM     55  C   UNL A   1      45.163  27.706  27.925  1.00  0.00     0.031 A 
ATOM     56  C   UNL A   1      41.208  31.995  30.554  1.00  0.00     0.049 A 
ATOM     57  C   UNL A   1      45.328  29.210  27.829  1.00  0.00     0.074 A 
ATOM     58  C   UNL A   1      42.129  31.763  31.562  1.00  0.00     0.029 A 
ATOM     59  N   UNL A   1      41.941  32.335  29.421  1.00  0.00    -0.354 N 
ATOM     60  N   UNL A   1      44.547  30.066  28.429  1.00  0.00    -0.248 NA
ATOM     61  C   UNL A   1      46.349  29.870  27.018  1.00  0.00     0.031 C 
ATOM     62  C   UNL A   1      43.428  31.849  30.989  1.00  0.00     0.029 A 
ATOM     63  C   UNL A   1      43.294  32.181  29.652  1.00  0.00     0.049 A 
ATOM     64  H   UNL A   1      41.549  32.642  28.572  1.00  0.00     0.167 HD
ATOM     65  C   UNL A   1      44.920  31.343  28.107  1.00  0.00     0.074 A 
ATOM     66  C   UNL A   1      46.064  31.168  27.229  1.00  0.00     0.031 C 
ATOM     67  C   UNL A   1      44.250  32.435  28.580  1.00  0.00     0.031 A 
BRANCH  54  68
ATOM     68  C   UNL A   1      38.719  32.358  31.312  1.00  0.00    -0.014 A 
ATOM     69  C   UNL A   1      38.123  31.588  32.333  1.00  0.00     0.010 A 
ATOM     70  C   UNL A   1      38.175  33.645  31.124  1.00  0.00     0.010 A 
ATOM     71  C   UNL A   1      37.025  32.054  33.078  1.00  0.00     0.020 A 
ATOM     72  C   UNL A   1      37.094  34.133  31.871  1.00  0.00     0.020 A 
ATOM     73  C   UNL A   1      36.507  33.325  32.832  1.00  0.00     0.054 A 
BRANCH  73  74
ATOM     74  S   UNL A   1      35.052  33.902  33.742  1.00  0.00     0.124 S 
ATOM     75  O   UNL A   1      33.967  33.175  33.089  1.00  0.00    -0.237 OA
ATOM     76  O   UNL A   1      35.351  33.498  35.113  1.00  0.00    -0.237 OA
ATOM     77  O   UNL A   1      35.050  35.347  33.513  1.00  0.00    -0.744 OA
ENDBRANCH  73  74
ENDBRANCH  54  68
BRANCH  55  78
ATOM     78  C   UNL A   1      45.226  26.758  26.779  1.00  0.00    -0.014 A 
ATOM     79  C   UNL A   1      46.240  25.778  26.813  1.00  0.00     0.010 A 
ATOM     80  C   UNL A   1      44.100  26.546  25.965  1.00  0.00     0.010 A 
ATOM     81  C   UNL A   1      46.049  24.539  26.200  1.00  0.00     0.020 A 
ATOM     82  C   UNL A   1      43.908  25.301  25.347  1.00  0.00     0.020 A 
ATOM     83  C   UNL A   1      44.852  24.286  25.530  1.00  0.00     0.054 A 
BRANCH  83  84
ATOM     84  S   UNL A   1      44.469  22.558  25.106  1.00  0.00     0.124 S 
ATOM     85  O   UNL A   1      43.389  22.708  24.137  1.00  0.00    -0.237 OA
ATOM     86  O   UNL A   1      45.744  22.090  24.559  1.00  0.00    -0.237 OA
ATOM     87  O   UNL A   1      44.093  21.975  26.390  1.00  0.00    -0.744 OA
ENDBRANCH  83  84
ENDBRANCH  55  78
BRANCH  67  88
ATOM     88  C   UNL A   1      44.458  33.862  28.133  1.00  0.00    -0.014 A 
ATOM     89  C   UNL A   1      43.838  34.437  27.011  1.00  0.00     0.010 A 
ATOM     90  C   UNL A   1      45.219  34.728  28.956  1.00  0.00     0.010 A 
ATOM     91  C   UNL A   1      44.018  35.793  26.695  1.00  0.00     0.020 A 
ATOM     92  C   UNL A   1      45.369  36.088  28.675  1.00  0.00     0.020 A 
ATOM     93  C   UNL A   1      44.787  36.608  27.526  1.00  0.00     0.054 A 
BRANCH  93  94
ATOM     94  S   UNL A   1      44.963  38.372  27.149  1.00  0.00     0.124 S 
ATOM     95  O   UNL A   1      45.265  38.931  28.464  1.00  0.00    -0.237 OA
ATOM     96  O   UNL A   1      46.066  38.396  26.192  1.00  0.00    -0.237 OA
ATOM     97  O   UNL A   1      43.661  38.733  26.595  1.00  0.00    -0.744 OA
ENDBRANCH  93  94
ENDBRANCH  67  88
ENDBRANCH  41  42
ENDBRANCH  33  36
ENDBRANCH  31  32
ENDBRANCH   1  31
TORSDOF 16
ENDMDL
MODEL 3
REMARK VINA RESULT:     -13.3      2.068      2.744
REMARK SMILES CC(=O)Nc1cnc(N2CC=C(c3ccccc3C)CC2)c(C(=O)NCCCNC(=O)c2ccc(-c3c4nc(c(-c5ccc(S(=O)(=O)[O-])cc5)c5ccc([nH]5)c(-c5ccc(S(=O)(=O)[O-])cc5)c5nc(c(-c6ccc(S(=O)(=O)[O-])cc6)c6ccc3[nH]6)C=C5)C=C4)cc2)c1
REMARK SMILES IDX 27 1 26 2 25 3 23 4 24 5 22 7 5 8 6 9 92 10 7 11 8 12 4 13
REMARK SMILES IDX 1 14 2 15 3 16 9 18 10 19 21 20 11 21 20 22 12 23 13 24
REMARK SMILES IDX 14 25 18 26 15 27 17 28 19 29 16 30 28 31 29 32 30 33 31 35
REMARK SMILES IDX 32 36 33 37 91 38 34 39 90 40 35 41 36 42 37 43 84 44 38 45
REMARK SMILES IDX 89 46 83 47 85 48 39 49 88 50 82 51 81 52 40 54 70 55 51 56
REMARK SMILES IDX 69 57 52 58 55 59 68 60 86 61 53 62 54 63 67 65 87 66 56 67
REMARK SMILES IDX 41 68 42 69 50 70 43 71 49 72 44 73 45 74 46 75 47 76 48 77
REMARK SMILES IDX 71 78 72 79 80 80 73 81 79 82 74 83 75 84 76 85 77 86 78 87
REMARK SMILES IDX 57 88 58 89 66 90 59 91 65 92 60 93 61 94 62 95 63 96 64 97
REMARK H PARENT 25 6 4 17 29 34 85 53 55 64
REMARK Flexibility Score: inf
ROOT
ATOM      1  C   UNL A   1      37.171  22.508  24.552  1.00  0.00     0.042 C 
ENDROOT
BRANCH   1   2
ATOM      2  C   UNL A   1      36.471  23.812  24.168  1.00  0.00     0.118 C 
BRANCH   2   3
ATOM      3  N   UNL A   1      35.374  23.607  23.225  1.00  0.00    -0.352 N 
ATOM      4  C   UNL A   1      34.195  22.893  23.205  1.00  0.00     0.255 C 
ATOM      5  O   UNL A   1      33.449  23.207  22.277  1.00  0.00    -0.269 OA
ATOM      6  H   UNL A   1      35.512  24.109  22.389  1.00  0.00     0.163 HD
BRANCH   4   7
ATOM      7  C   UNL A   1      33.782  21.828  24.194  1.00  0.00     0.084 A 
ATOM      8  C   UNL A   1      33.738  19.472  24.880  1.00  0.00     0.060 A 
ATOM      9  C   UNL A   1      33.110  19.882  26.037  1.00  0.00     0.139 A 
ATOM     10  C   UNL A   1      34.048  20.466  23.958  1.00  0.00     0.045 A 
ATOM     11  N   UNL A   1      32.833  21.167  26.324  1.00  0.00    -0.236 NA
ATOM     12  C   UNL A   1      33.144  22.142  25.420  1.00  0.00     0.141 A 
BRANCH   8  13
ATOM     13  N   UNL A   1      33.970  18.099  24.691  1.00  0.00    -0.325 N 
ATOM     14  C   UNL A   1      32.641  17.628  22.627  1.00  0.00     0.114 C 
ATOM     15  C   UNL A   1      33.450  17.190  23.815  1.00  0.00     0.221 C 
ATOM     16  O   UNL A   1      33.723  15.998  23.987  1.00  0.00    -0.275 OA
ATOM     17  H   UNL A   1      34.635  17.720  25.309  1.00  0.00     0.169 HD
ENDBRANCH   8  13
BRANCH  12  18
ATOM     18  N   UNL A   1      32.754  23.382  25.851  1.00  0.00    -0.352 N 
ATOM     19  C   UNL A   1      31.340  23.707  25.803  1.00  0.00     0.146 C 
ATOM     20  C   UNL A   1      33.673  24.328  26.470  1.00  0.00     0.123 C 
ATOM     21  C   UNL A   1      31.122  25.189  25.656  1.00  0.00    -0.002 C 
ATOM     22  C   UNL A   1      33.551  25.691  25.770  1.00  0.00     0.057 C 
ATOM     23  C   UNL A   1      32.107  26.108  25.625  1.00  0.00    -0.041 C 
BRANCH  23  24
ATOM     24  C   UNL A   1      31.791  27.546  25.498  1.00  0.00    -0.020 A 
ATOM     25  C   UNL A   1      32.193  28.401  26.541  1.00  0.00     0.008 A 
ATOM     26  C   UNL A   1      31.113  28.093  24.390  1.00  0.00    -0.044 A 
ATOM     27  C   UNL A   1      31.940  29.772  26.488  1.00  0.00     0.001 A 
ATOM     28  C   UNL A   1      30.881  29.481  24.344  1.00  0.00     0.004 A 
ATOM     29  C   UNL A   1      30.649  27.252  23.234  1.00  0.00     0.045 C 
ATOM     30  C   UNL A   1      31.287  30.313  25.387  1.00  0.00     0.000 A 
ENDBRANCH  23  24
ENDBRANCH  12  18
ENDBRANCH   4   7
ENDBRANCH   2   3
ENDBRANCH   1   2
BRANCH   1  31
ATOM     31  C   UNL A   1      37.497  22.419  26.035  1.00  0.00     0.118 C 
BRANCH  31  32
ATOM     32  N   UNL A   1      38.864  21.966  26.294  1.00  0.00    -0.352 N 
ATOM     33  C   UNL A   1      39.975  22.758  26.530  1.00  0.00     0.251 C 
ATOM     34  H   UNL A   1      39.009  20.992  26.299  1.00  0.00     0.163 HD
ATOM     35  O   UNL A   1      41.115  22.327  26.556  1.00  0.00    -0.269 OA
BRANCH  33  36
ATOM     36  C   UNL A   1      39.690  24.163  26.873  1.00  0.00     0.039 A 
ATOM     37  C   UNL A   1      40.264  25.133  26.042  1.00  0.00     0.014 A 
ATOM     38  C   UNL A   1      39.251  24.463  28.160  1.00  0.00     0.014 A 
ATOM     39  C   UNL A   1      40.587  26.372  26.577  1.00  0.00     0.010 A 
ATOM     40  C   UNL A   1      39.652  25.663  28.711  1.00  0.00     0.010 A 
ATOM     41  C   UNL A   1      40.375  26.588  27.938  1.00  0.00    -0.014 A 
BRANCH  41  42
ATOM     42  C   UNL A   1      40.950  27.710  28.667  1.00  0.00     0.031 A 
ATOM     43  C   UNL A   1      40.098  28.873  28.998  1.00  0.00     0.074 A 
ATOM     44  C   UNL A   1      42.232  27.659  29.098  1.00  0.00     0.049 A 
ATOM     45  N   UNL A   1      40.546  30.038  29.327  1.00  0.00    -0.248 NA
ATOM     46  C   UNL A   1      38.640  28.833  28.888  1.00  0.00     0.031 C 
ATOM     47  C   UNL A   1      42.852  28.530  30.096  1.00  0.00     0.029 A 
ATOM     48  N   UNL A   1      43.310  26.954  28.554  1.00  0.00    -0.354 N 
ATOM     49  C   UNL A   1      39.477  30.771  29.784  1.00  0.00     0.074 A 
ATOM     50  C   UNL A   1      38.313  30.043  29.350  1.00  0.00     0.031 C 
ATOM     51  C   UNL A   1      44.177  28.543  29.890  1.00  0.00     0.029 A 
ATOM     52  C   UNL A   1      44.426  27.802  28.665  1.00  0.00     0.049 A 
ATOM     53  H   UNL A   1      43.292  26.047  28.171  1.00  0.00     0.167 HD
ATOM     54  C   UNL A   1      39.701  31.822  30.622  1.00  0.00     0.031 A 
ATOM     55  C   UNL A   1      45.148  28.265  27.604  1.00  0.00     0.031 A 
ATOM     56  C   UNL A   1      41.115  32.191  30.647  1.00  0.00     0.049 A 
ATOM     57  C   UNL A   1      45.191  29.778  27.529  1.00  0.00     0.074 A 
ATOM     58  C   UNL A   1      42.131  32.014  31.570  1.00  0.00     0.029 A 
ATOM     59  N   UNL A   1      41.723  32.605  29.466  1.00  0.00    -0.354 N 
ATOM     60  N   UNL A   1      44.400  30.561  28.211  1.00  0.00    -0.248 NA
ATOM     61  C   UNL A   1      46.088  30.528  26.653  1.00  0.00     0.031 C 
ATOM     62  C   UNL A   1      43.369  32.210  30.895  1.00  0.00     0.029 A 
ATOM     63  C   UNL A   1      43.098  32.553  29.582  1.00  0.00     0.049 A 
ATOM     64  H   UNL A   1      41.239  32.896  28.660  1.00  0.00     0.167 HD
ATOM     65  C   UNL A   1      44.648  31.868  27.890  1.00  0.00     0.074 A 
ATOM     66  C   UNL A   1      45.724  31.797  26.917  1.00  0.00     0.031 C 
ATOM     67  C   UNL A   1      43.939  32.897  28.441  1.00  0.00     0.031 A 
BRANCH  54  68
ATOM     68  C   UNL A   1      38.678  32.349  31.615  1.00  0.00    -0.014 A 
ATOM     69  C   UNL A   1      37.464  31.654  31.803  1.00  0.00     0.010 A 
ATOM     70  C   UNL A   1      38.786  33.580  32.294  1.00  0.00     0.010 A 
ATOM     71  C   UNL A   1      36.413  32.180  32.576  1.00  0.00     0.020 A 
ATOM     72  C   UNL A   1      37.756  34.108  33.084  1.00  0.00     0.020 A 
ATOM     73  C   UNL A   1      36.562  33.416  33.203  1.00  0.00     0.054 A 
BRANCH  73  74
ATOM     74  S   UNL A   1      35.187  34.127  34.142  1.00  0.00     0.124 S 
ATOM     75  O   UNL A   1      35.577  33.850  35.522  1.00  0.00    -0.237 OA
ATOM     76  O   UNL A   1      35.221  35.531  33.745  1.00  0.00    -0.237 OA
ATOM     77  O   UNL A   1      34.021  33.381  33.671  1.00  0.00    -0.744 OA
ENDBRANCH  73  74
ENDBRANCH  54  68
BRANCH  55  78
ATOM     78  C   UNL A   1      45.186  27.344  26.435  1.00  0.00    -0.014 A 
ATOM     79  C   UNL A   1      46.273  26.447  26.360  1.00  0.00     0.010 A 
ATOM     80  C   UNL A   1      44.014  27.056  25.714  1.00  0.00     0.010 A 
ATOM     81  C   UNL A   1      46.128  25.207  25.737  1.00  0.00     0.020 A 
ATOM     82  C   UNL A   1      43.868  25.810  25.085  1.00  0.00     0.020 A 
ATOM     83  C   UNL A   1      44.901  24.871  25.164  1.00  0.00     0.054 A 
BRANCH  83  84
ATOM     84  S   UNL A   1      44.619  23.125  24.733  1.00  0.00     0.124 S 
ATOM     85  O   UNL A   1      43.201  23.114  24.392  1.00  0.00    -0.237 OA
ATOM     86  O   UNL A   1      45.539  22.938  23.610  1.00  0.00    -0.237 OA
ATOM     87  O   UNL A   1      44.982  22.417  25.957  1.00  0.00    -0.744 OA
ENDBRANCH  83  84
ENDBRANCH  55  78
BRANCH  67  88
ATOM     88  C   UNL A   1      44.001  34.344  28.012  1.00  0.00    -0.014 A 
ATOM     89  C   UNL A   1      43.101  34.941  27.114  1.00  0.00     0.010 A 
ATOM     90  C   UNL A   1      44.937  35.200  28.642  1.00  0.00     0.010 A 
ATOM     91  C   UNL A   1      43.171  36.311  26.814  1.00  0.00     0.020 A 
ATOM     92  C   UNL A   1      44.987  36.572  28.385  1.00  0.00     0.020 A 
ATOM     93  C   UNL A   1      44.118  37.116  27.449  1.00  0.00     0.054 A 
BRANCH  93  94
ATOM     94  S   UNL A   1      44.161  38.895  27.108  1.00  0.00     0.124 S 
ATOM     95  O   UNL A   1      42.892  39.099  26.415  1.00  0.00    -0.237 OA
ATOM     96  O   UNL A   1      44.245  39.484  28.443  1.00  0.00    -0.237 OA
ATOM     97  O   UNL A   1      45.359  39.057  26.289  1.00  0.00    -0.744 OA
ENDBRANCH  93  94
ENDBRANCH  67  88
ENDBRANCH  41  42
ENDBRANCH  33  36
ENDBRANCH  31  32
ENDBRANCH   1  31
TORSDOF 16
ENDMDL
