MODEL 1
REMARK VINA RESULT:     -11.0      0.000      0.000
REMARK SMILES COCCC(=O)N1Cc2ccccc2C[C@H]1C(=O)NCCCNC(=O)c1ccc(-c2c3nc(c(-c4ccc(S(=O)(=O)[O-])cc4)c4ccc([nH]4)c(-c4ccc(S(=O)(=O)[O-])cc4)c4nc(c(-c5ccc(S(=O)(=O)[O-])cc5)c5ccc2[nH]5)C=C4)C=C3)cc1
REMARK SMILES IDX 20 1 19 2 17 3 18 4 16 6 7 7 8 8 9 9 15 10 10 11 14 12 11 13
REMARK SMILES IDX 13 14 12 15 5 16 6 17 4 18 3 19 2 20 1 21 21 22 22 23 23 24
REMARK SMILES IDX 24 25 25 27 26 28 27 29 85 30 28 31 84 32 29 33 30 34 31 35
REMARK SMILES IDX 78 36 32 37 83 38 77 39 79 40 33 41 82 42 76 43 75 44 34 46
REMARK SMILES IDX 64 47 45 48 63 49 46 50 49 51 62 52 80 53 47 54 48 55 61 57
REMARK SMILES IDX 81 58 50 59 35 60 36 61 44 62 37 63 43 64 38 65 39 66 40 67
REMARK SMILES IDX 41 68 42 69 65 70 66 71 74 72 67 73 73 74 68 75 69 76 70 77
REMARK SMILES IDX 71 78 72 79 51 80 52 81 60 82 53 83 59 84 54 85 55 86 56 87
REMARK SMILES IDX 57 88 58 89
REMARK H PARENT 19 5 23 26 79 45 49 56
REMARK Flexibility Score: inf
ROOT
ATOM      1  C   UNL A   1      32.917  27.507  24.501  1.00  0.00     0.117 C 
ENDROOT
BRANCH   1   2
ATOM      2  N   UNL A   1      33.310  27.086  23.170  1.00  0.00    -0.354 N 
ATOM      3  C   UNL A   1      33.551  25.839  22.681  1.00  0.00     0.243 C 
ATOM      4  O   UNL A   1      33.569  25.718  21.452  1.00  0.00    -0.273 OA
ATOM      5  H   UNL A   1      33.422  27.816  22.519  1.00  0.00     0.163 HD
BRANCH   3   6
ATOM      6  C   UNL A   1      33.553  24.608  23.600  1.00  0.00     0.179 C 
ATOM      7  N   UNL A   1      32.377  23.690  23.578  1.00  0.00    -0.326 N 
ATOM      8  C   UNL A   1      32.624  22.242  23.535  1.00  0.00     0.156 C 
ATOM      9  C   UNL A   1      33.951  21.791  24.089  1.00  0.00    -0.025 A 
ATOM     10  C   UNL A   1      34.916  23.944  23.305  1.00  0.00     0.071 C 
ATOM     11  C   UNL A   1      34.106  20.503  24.619  1.00  0.00     0.006 A 
ATOM     12  C   UNL A   1      35.075  22.613  23.967  1.00  0.00    -0.040 A 
ATOM     13  C   UNL A   1      35.363  20.051  25.027  1.00  0.00     0.000 A 
ATOM     14  C   UNL A   1      36.336  22.154  24.363  1.00  0.00     0.004 A 
ATOM     15  C   UNL A   1      36.478  20.876  24.897  1.00  0.00     0.000 A 
BRANCH   7  16
ATOM     16  C   UNL A   1      31.120  24.082  24.054  1.00  0.00     0.225 C 
ATOM     17  O   UNL A   1      30.149  24.224  23.306  1.00  0.00    -0.275 OA
BRANCH  16  18
ATOM     18  C   UNL A   1      30.970  24.486  25.508  1.00  0.00     0.128 C 
BRANCH  18  19
ATOM     19  C   UNL A   1      30.419  23.395  26.400  1.00  0.00     0.169 C 
BRANCH  19  20
ATOM     20  O   UNL A   1      31.210  23.288  27.579  1.00  0.00    -0.384 OA
ATOM     21  C   UNL A   1      32.557  22.937  27.305  1.00  0.00     0.194 C 
ENDBRANCH  19  20
ENDBRANCH  18  19
ENDBRANCH  16  18
ENDBRANCH   7  16
ENDBRANCH   3   6
ENDBRANCH   1   2
BRANCH   1  22
ATOM     22  C   UNL A   1      33.909  28.454  25.154  1.00  0.00     0.042 C 
BRANCH  22  23
ATOM     23  C   UNL A   1      33.710  28.596  26.656  1.00  0.00     0.118 C 
BRANCH  23  24
ATOM     24  N   UNL A   1      33.647  29.992  27.068  1.00  0.00    -0.352 N 
ATOM     25  C   UNL A   1      34.495  30.701  27.884  1.00  0.00     0.251 C 
ATOM     26  H   UNL A   1      32.885  30.502  26.711  1.00  0.00     0.163 HD
ATOM     27  O   UNL A   1      34.137  31.770  28.362  1.00  0.00    -0.269 OA
BRANCH  25  28
ATOM     28  C   UNL A   1      35.830  30.150  28.181  1.00  0.00     0.039 A 
ATOM     29  C   UNL A   1      36.837  30.227  27.218  1.00  0.00     0.014 A 
ATOM     30  C   UNL A   1      36.080  29.568  29.425  1.00  0.00     0.014 A 
ATOM     31  C   UNL A   1      38.121  29.778  27.534  1.00  0.00     0.010 A 
ATOM     32  C   UNL A   1      37.376  29.220  29.772  1.00  0.00     0.010 A 
ATOM     33  C   UNL A   1      38.408  29.307  28.826  1.00  0.00    -0.014 A 
BRANCH  33  34
ATOM     34  C   UNL A   1      39.774  28.884  29.219  1.00  0.00     0.031 A 
ATOM     35  C   UNL A   1      40.692  29.861  29.899  1.00  0.00     0.074 A 
ATOM     36  C   UNL A   1      40.217  27.658  28.877  1.00  0.00     0.049 A 
ATOM     37  N   UNL A   1      41.951  29.722  30.225  1.00  0.00    -0.248 NA
ATOM     38  C   UNL A   1      40.130  31.184  30.222  1.00  0.00     0.031 C 
ATOM     39  C   UNL A   1      39.438  26.640  28.169  1.00  0.00     0.029 A 
ATOM     40  N   UNL A   1      41.441  27.067  29.066  1.00  0.00    -0.354 N 
ATOM     41  C   UNL A   1      42.337  30.944  30.765  1.00  0.00     0.074 A 
ATOM     42  C   UNL A   1      41.198  31.830  30.663  1.00  0.00     0.031 C 
ATOM     43  C   UNL A   1      40.195  25.545  28.002  1.00  0.00     0.029 A 
ATOM     44  C   UNL A   1      41.526  25.798  28.545  1.00  0.00     0.049 A 
ATOM     45  H   UNL A   1      42.188  27.511  29.529  1.00  0.00     0.167 HD
ATOM     46  C   UNL A   1      43.524  31.292  31.315  1.00  0.00     0.031 A 
ATOM     47  C   UNL A   1      42.561  24.937  28.497  1.00  0.00     0.031 A 
ATOM     48  C   UNL A   1      44.651  30.404  31.412  1.00  0.00     0.049 A 
ATOM     49  C   UNL A   1      43.873  25.340  29.110  1.00  0.00     0.074 A 
ATOM     50  C   UNL A   1      45.880  30.633  32.002  1.00  0.00     0.029 A 
ATOM     51  N   UNL A   1      44.687  29.114  30.898  1.00  0.00    -0.354 N 
ATOM     52  N   UNL A   1      44.200  26.476  29.682  1.00  0.00    -0.248 NA
ATOM     53  C   UNL A   1      44.950  24.343  29.086  1.00  0.00     0.031 C 
ATOM     54  C   UNL A   1      46.681  29.505  31.791  1.00  0.00     0.029 A 
ATOM     55  C   UNL A   1      45.927  28.546  31.133  1.00  0.00     0.049 A 
ATOM     56  H   UNL A   1      43.940  28.670  30.435  1.00  0.00     0.167 HD
ATOM     57  C   UNL A   1      45.515  26.321  30.107  1.00  0.00     0.074 A 
ATOM     58  C   UNL A   1      45.915  24.978  29.738  1.00  0.00     0.031 C 
ATOM     59  C   UNL A   1      46.314  27.209  30.750  1.00  0.00     0.031 A 
BRANCH  46  60
ATOM     60  C   UNL A   1      43.657  32.703  31.832  1.00  0.00    -0.014 A 
ATOM     61  C   UNL A   1      43.192  33.059  33.113  1.00  0.00     0.010 A 
ATOM     62  C   UNL A   1      44.245  33.691  31.023  1.00  0.00     0.010 A 
ATOM     63  C   UNL A   1      43.245  34.387  33.544  1.00  0.00     0.020 A 
ATOM     64  C   UNL A   1      44.334  35.015  31.465  1.00  0.00     0.020 A 
ATOM     65  C   UNL A   1      43.808  35.359  32.712  1.00  0.00     0.054 A 
BRANCH  65  66
ATOM     66  S   UNL A   1      43.847  37.078  33.287  1.00  0.00     0.124 S 
ATOM     67  O   UNL A   1      43.685  37.817  32.037  1.00  0.00    -0.237 OA
ATOM     68  O   UNL A   1      42.709  37.136  34.201  1.00  0.00    -0.237 OA
ATOM     69  O   UNL A   1      45.158  37.203  33.919  1.00  0.00    -0.744 OA
ENDBRANCH  65  66
ENDBRANCH  46  60
BRANCH  47  70
ATOM     70  C   UNL A   1      42.375  23.607  27.858  1.00  0.00    -0.014 A 
ATOM     71  C   UNL A   1      42.779  23.391  26.529  1.00  0.00     0.010 A 
ATOM     72  C   UNL A   1      41.857  22.528  28.599  1.00  0.00     0.010 A 
ATOM     73  C   UNL A   1      42.669  22.121  25.954  1.00  0.00     0.020 A 
ATOM     74  C   UNL A   1      41.772  21.253  28.037  1.00  0.00     0.020 A 
ATOM     75  C   UNL A   1      42.177  21.057  26.716  1.00  0.00     0.054 A 
BRANCH  75  76
ATOM     76  S   UNL A   1      42.136  19.399  25.977  1.00  0.00     0.124 S 
ATOM     77  O   UNL A   1      42.714  18.579  27.037  1.00  0.00    -0.237 OA
ATOM     78  O   UNL A   1      40.711  19.202  25.729  1.00  0.00    -0.237 OA
ATOM     79  O   UNL A   1      42.956  19.539  24.776  1.00  0.00    -0.744 OA
ENDBRANCH  75  76
ENDBRANCH  47  70
BRANCH  59  80
ATOM     80  C   UNL A   1      47.698  26.750  31.128  1.00  0.00    -0.014 A 
ATOM     81  C   UNL A   1      47.936  26.037  32.316  1.00  0.00     0.010 A 
ATOM     82  C   UNL A   1      48.767  26.984  30.242  1.00  0.00     0.010 A 
ATOM     83  C   UNL A   1      49.225  25.592  32.625  1.00  0.00     0.020 A 
ATOM     84  C   UNL A   1      50.050  26.514  30.533  1.00  0.00     0.020 A 
ATOM     85  C   UNL A   1      50.273  25.832  31.730  1.00  0.00     0.054 A 
BRANCH  85  86
ATOM     86  S   UNL A   1      51.925  25.202  32.132  1.00  0.00     0.124 S 
ATOM     87  O   UNL A   1      51.688  23.764  32.225  1.00  0.00    -0.237 OA
ATOM     88  O   UNL A   1      52.720  25.635  30.986  1.00  0.00    -0.237 OA
ATOM     89  O   UNL A   1      52.251  25.862  33.393  1.00  0.00    -0.744 OA
ENDBRANCH  85  86
ENDBRANCH  59  80
ENDBRANCH  33  34
ENDBRANCH  25  28
ENDBRANCH  23  24
ENDBRANCH  22  23
ENDBRANCH   1  22
TORSDOF 17
ENDMDL
MODEL 2
REMARK VINA RESULT:     -10.7      2.735      9.438
REMARK SMILES COCCC(=O)N1Cc2ccccc2C[C@H]1C(=O)NCCCNC(=O)c1ccc(-c2c3nc(c(-c4ccc(S(=O)(=O)[O-])cc4)c4ccc([nH]4)c(-c4ccc(S(=O)(=O)[O-])cc4)c4nc(c(-c5ccc(S(=O)(=O)[O-])cc5)c5ccc2[nH]5)C=C4)C=C3)cc1
REMARK SMILES IDX 20 1 19 2 17 3 18 4 16 6 7 7 8 8 9 9 15 10 10 11 14 12 11 13
REMARK SMILES IDX 13 14 12 15 5 16 6 17 4 18 3 19 2 20 1 21 21 22 22 23 23 24
REMARK SMILES IDX 24 25 25 27 26 28 27 29 85 30 28 31 84 32 29 33 30 34 31 35
REMARK SMILES IDX 78 36 32 37 83 38 77 39 79 40 33 41 82 42 76 43 75 44 34 46
REMARK SMILES IDX 64 47 45 48 63 49 46 50 49 51 62 52 80 53 47 54 48 55 61 57
REMARK SMILES IDX 81 58 50 59 35 60 36 61 44 62 37 63 43 64 38 65 39 66 40 67
REMARK SMILES IDX 41 68 42 69 65 70 66 71 74 72 67 73 73 74 68 75 69 76 70 77
REMARK SMILES IDX 71 78 72 79 51 80 52 81 60 82 53 83 59 84 54 85 55 86 56 87
REMARK SMILES IDX 57 88 58 89
REMARK H PARENT 19 5 23 26 79 45 49 56
REMARK Flexibility Score: inf
ROOT
ATOM      1  C   UNL A   1      34.922  24.397  23.994  1.00  0.00     0.117 C 
ENDROOT
BRANCH   1   2
ATOM      2  N   UNL A   1      33.589  24.080  24.468  1.00  0.00    -0.354 N 
ATOM      3  C   UNL A   1      32.544  24.901  24.758  1.00  0.00     0.243 C 
ATOM      4  O   UNL A   1      31.430  24.374  24.846  1.00  0.00    -0.273 OA
ATOM      5  H   UNL A   1      33.413  23.120  24.601  1.00  0.00     0.163 HD
BRANCH   3   6
ATOM      6  C   UNL A   1      32.698  26.430  24.733  1.00  0.00     0.179 C 
ATOM      7  N   UNL A   1      31.530  27.267  24.335  1.00  0.00    -0.326 N 
ATOM      8  C   UNL A   1      31.214  28.453  25.143  1.00  0.00     0.156 C 
ATOM      9  C   UNL A   1      32.370  29.047  25.906  1.00  0.00    -0.025 A 
ATOM     10  C   UNL A   1      33.302  26.752  26.118  1.00  0.00     0.071 C 
ATOM     11  C   UNL A   1      32.385  30.407  26.240  1.00  0.00     0.006 A 
ATOM     12  C   UNL A   1      33.385  28.218  26.395  1.00  0.00    -0.040 A 
ATOM     13  C   UNL A   1      33.401  30.929  27.044  1.00  0.00     0.000 A 
ATOM     14  C   UNL A   1      34.395  28.739  27.211  1.00  0.00     0.004 A 
ATOM     15  C   UNL A   1      34.405  30.094  27.530  1.00  0.00     0.000 A 
BRANCH   7  16
ATOM     16  C   UNL A   1      31.024  27.264  23.029  1.00  0.00     0.225 C 
ATOM     17  O   UNL A   1      31.584  26.663  22.109  1.00  0.00    -0.275 OA
BRANCH  16  18
ATOM     18  C   UNL A   1      29.834  28.143  22.694  1.00  0.00     0.128 C 
BRANCH  18  19
ATOM     19  C   UNL A   1      30.205  29.494  22.121  1.00  0.00     0.169 C 
BRANCH  19  20
ATOM     20  O   UNL A   1      29.160  30.428  22.370  1.00  0.00    -0.384 OA
ATOM     21  C   UNL A   1      28.202  30.470  21.324  1.00  0.00     0.194 C 
ENDBRANCH  19  20
ENDBRANCH  18  19
ENDBRANCH  16  18
ENDBRANCH   7  16
ENDBRANCH   3   6
ENDBRANCH   1   2
BRANCH   1  22
ATOM     22  C   UNL A   1      35.949  23.323  24.309  1.00  0.00     0.042 C 
BRANCH  22  23
ATOM     23  C   UNL A   1      36.578  23.474  25.686  1.00  0.00     0.118 C 
BRANCH  23  24
ATOM     24  N   UNL A   1      37.709  22.573  25.870  1.00  0.00    -0.352 N 
ATOM     25  C   UNL A   1      38.995  22.855  26.259  1.00  0.00     0.251 C 
ATOM     26  H   UNL A   1      37.524  21.624  25.688  1.00  0.00     0.163 HD
ATOM     27  O   UNL A   1      39.887  22.036  26.077  1.00  0.00    -0.269 OA
BRANCH  25  28
ATOM     28  C   UNL A   1      39.285  24.159  26.886  1.00  0.00     0.039 A 
ATOM     29  C   UNL A   1      38.882  24.396  28.201  1.00  0.00     0.014 A 
ATOM     30  C   UNL A   1      39.969  25.139  26.165  1.00  0.00     0.014 A 
ATOM     31  C   UNL A   1      39.230  25.599  28.816  1.00  0.00     0.010 A 
ATOM     32  C   UNL A   1      40.403  26.287  26.809  1.00  0.00     0.010 A 
ATOM     33  C   UNL A   1      40.026  26.537  28.137  1.00  0.00    -0.014 A 
BRANCH  33  34
ATOM     34  C   UNL A   1      40.471  27.798  28.780  1.00  0.00     0.031 A 
ATOM     35  C   UNL A   1      41.832  27.871  29.416  1.00  0.00     0.074 A 
ATOM     36  C   UNL A   1      39.618  28.836  28.876  1.00  0.00     0.049 A 
ATOM     37  N   UNL A   1      42.365  28.839  30.117  1.00  0.00    -0.248 NA
ATOM     38  C   UNL A   1      42.694  26.685  29.276  1.00  0.00     0.031 C 
ATOM     39  C   UNL A   1      38.253  28.865  28.345  1.00  0.00     0.029 A 
ATOM     40  N   UNL A   1      39.769  30.062  29.472  1.00  0.00    -0.354 N 
ATOM     41  C   UNL A   1      43.608  28.368  30.523  1.00  0.00     0.074 A 
ATOM     42  C   UNL A   1      43.722  27.008  30.044  1.00  0.00     0.031 C 
ATOM     43  C   UNL A   1      37.700  30.056  28.621  1.00  0.00     0.029 A 
ATOM     44  C   UNL A   1      38.650  30.856  29.388  1.00  0.00     0.049 A 
ATOM     45  H   UNL A   1      40.599  30.347  29.917  1.00  0.00     0.167 HD
ATOM     46  C   UNL A   1      44.577  29.016  31.212  1.00  0.00     0.031 A 
ATOM     47  C   UNL A   1      38.407  32.085  29.883  1.00  0.00     0.031 A 
ATOM     48  C   UNL A   1      44.454  30.369  31.684  1.00  0.00     0.049 A 
ATOM     49  C   UNL A   1      39.492  32.789  30.649  1.00  0.00     0.074 A 
ATOM     50  C   UNL A   1      45.394  31.141  32.341  1.00  0.00     0.029 A 
ATOM     51  N   UNL A   1      43.314  31.150  31.553  1.00  0.00    -0.354 N 
ATOM     52  N   UNL A   1      40.692  32.357  30.964  1.00  0.00    -0.248 NA
ATOM     53  C   UNL A   1      39.199  34.150  31.116  1.00  0.00     0.031 C 
ATOM     54  C   UNL A   1      44.802  32.368  32.662  1.00  0.00     0.029 A 
ATOM     55  C   UNL A   1      43.517  32.386  32.142  1.00  0.00     0.049 A 
ATOM     56  H   UNL A   1      42.483  30.866  31.107  1.00  0.00     0.167 HD
ATOM     57  C   UNL A   1      41.305  33.403  31.643  1.00  0.00     0.074 A 
ATOM     58  C   UNL A   1      40.349  34.491  31.682  1.00  0.00     0.031 C 
ATOM     59  C   UNL A   1      42.550  33.458  32.181  1.00  0.00     0.031 A 
BRANCH  46  60
ATOM     60  C   UNL A   1      45.842  28.249  31.509  1.00  0.00    -0.014 A 
ATOM     61  C   UNL A   1      46.889  28.174  30.570  1.00  0.00     0.010 A 
ATOM     62  C   UNL A   1      45.983  27.583  32.739  1.00  0.00     0.010 A 
ATOM     63  C   UNL A   1      48.017  27.391  30.826  1.00  0.00     0.020 A 
ATOM     64  C   UNL A   1      47.127  26.828  33.015  1.00  0.00     0.020 A 
ATOM     65  C   UNL A   1      48.124  26.714  32.044  1.00  0.00     0.054 A 
BRANCH  65  66
ATOM     66  S   UNL A   1      49.589  25.688  32.341  1.00  0.00     0.124 S 
ATOM     67  O   UNL A   1      49.103  24.758  33.357  1.00  0.00    -0.237 OA
ATOM     68  O   UNL A   1      49.844  25.104  31.027  1.00  0.00    -0.237 OA
ATOM     69  O   UNL A   1      50.594  26.643  32.803  1.00  0.00    -0.744 OA
ENDBRANCH  65  66
ENDBRANCH  46  60
BRANCH  47  70
ATOM     70  C   UNL A   1      37.084  32.720  29.645  1.00  0.00    -0.014 A 
ATOM     71  C   UNL A   1      36.106  32.733  30.655  1.00  0.00     0.010 A 
ATOM     72  C   UNL A   1      36.820  33.379  28.430  1.00  0.00     0.010 A 
ATOM     73  C   UNL A   1      34.889  33.393  30.454  1.00  0.00     0.020 A 
ATOM     74  C   UNL A   1      35.617  34.063  28.236  1.00  0.00     0.020 A 
ATOM     75  C   UNL A   1      34.658  34.064  29.249  1.00  0.00     0.054 A 
BRANCH  75  76
ATOM     76  S   UNL A   1      33.112  34.995  29.051  1.00  0.00     0.124 S 
ATOM     77  O   UNL A   1      32.408  34.207  28.045  1.00  0.00    -0.237 OA
ATOM     78  O   UNL A   1      32.547  34.954  30.397  1.00  0.00    -0.237 OA
ATOM     79  O   UNL A   1      33.561  36.314  28.613  1.00  0.00    -0.744 OA
ENDBRANCH  75  76
ENDBRANCH  47  70
BRANCH  59  80
ATOM     80  C   UNL A   1      42.968  34.749  32.833  1.00  0.00    -0.014 A 
ATOM     81  C   UNL A   1      42.801  34.962  34.213  1.00  0.00     0.010 A 
ATOM     82  C   UNL A   1      43.597  35.742  32.058  1.00  0.00     0.010 A 
ATOM     83  C   UNL A   1      43.229  36.156  34.800  1.00  0.00     0.020 A 
ATOM     84  C   UNL A   1      44.054  36.923  32.646  1.00  0.00     0.020 A 
ATOM     85  C   UNL A   1      43.856  37.128  34.011  1.00  0.00     0.054 A 
BRANCH  85  86
ATOM     86  S   UNL A   1      44.446  38.647  34.806  1.00  0.00     0.124 S 
ATOM     87  O   UNL A   1      44.150  38.389  36.213  1.00  0.00    -0.237 OA
ATOM     88  O   UNL A   1      45.864  38.662  34.454  1.00  0.00    -0.237 OA
ATOM     89  O   UNL A   1      43.645  39.698  34.184  1.00  0.00    -0.744 OA
ENDBRANCH  85  86
ENDBRANCH  59  80
ENDBRANCH  33  34
ENDBRANCH  25  28
ENDBRANCH  23  24
ENDBRANCH  22  23
ENDBRANCH   1  22
TORSDOF 17
ENDMDL
MODEL 3
REMARK VINA RESULT:     -10.3      2.896      9.280
REMARK SMILES COCCC(=O)N1Cc2ccccc2C[C@H]1C(=O)NCCCNC(=O)c1ccc(-c2c3nc(c(-c4ccc(S(=O)(=O)[O-])cc4)c4ccc([nH]4)c(-c4ccc(S(=O)(=O)[O-])cc4)c4nc(c(-c5ccc(S(=O)(=O)[O-])cc5)c5ccc2[nH]5)C=C4)C=C3)cc1
REMARK SMILES IDX 20 1 19 2 17 3 18 4 16 6 7 7 8 8 9 9 15 10 10 11 14 12 11 13
REMARK SMILES IDX 13 14 12 15 5 16 6 17 4 18 3 19 2 20 1 21 21 22 22 23 23 24
REMARK SMILES IDX 24 25 25 27 26 28 27 29 85 30 28 31 84 32 29 33 30 34 31 35
REMARK SMILES IDX 78 36 32 37 83 38 77 39 79 40 33 41 82 42 76 43 75 44 34 46
REMARK SMILES IDX 64 47 45 48 63 49 46 50 49 51 62 52 80 53 47 54 48 55 61 57
REMARK SMILES IDX 81 58 50 59 35 60 36 61 44 62 37 63 43 64 38 65 39 66 40 67
REMARK SMILES IDX 41 68 42 69 65 70 66 71 74 72 67 73 73 74 68 75 69 76 70 77
REMARK SMILES IDX 71 78 72 79 51 80 52 81 60 82 53 83 59 84 54 85 55 86 56 87
REMARK SMILES IDX 57 88 58 89
REMARK H PARENT 19 5 23 26 79 45 49 56
REMARK Flexibility Score: inf
ROOT
ATOM      1  C   UNL A   1      33.889  22.951  25.787  1.00  0.00     0.117 C 
ENDROOT
BRANCH   1   2
ATOM      2  N   UNL A   1      32.689  23.043  26.596  1.00  0.00    -0.354 N 
ATOM      3  C   UNL A   1      31.719  23.997  26.618  1.00  0.00     0.243 C 
ATOM      4  O   UNL A   1      30.655  23.696  27.168  1.00  0.00    -0.273 OA
ATOM      5  H   UNL A   1      32.555  22.300  27.228  1.00  0.00     0.163 HD
BRANCH   3   6
ATOM      6  C   UNL A   1      31.848  25.286  25.792  1.00  0.00     0.179 C 
ATOM      7  N   UNL A   1      30.916  25.506  24.649  1.00  0.00    -0.326 N 
ATOM      8  C   UNL A   1      30.291  26.828  24.502  1.00  0.00     0.156 C 
ATOM      9  C   UNL A   1      31.045  27.977  25.121  1.00  0.00    -0.025 A 
ATOM     10  C   UNL A   1      31.854  26.399  26.864  1.00  0.00     0.071 C 
ATOM     11  C   UNL A   1      30.907  29.278  24.620  1.00  0.00     0.006 A 
ATOM     12  C   UNL A   1      31.799  27.775  26.281  1.00  0.00    -0.040 A 
ATOM     13  C   UNL A   1      31.518  30.355  25.265  1.00  0.00     0.000 A 
ATOM     14  C   UNL A   1      32.400  28.856  26.934  1.00  0.00     0.004 A 
ATOM     15  C   UNL A   1      32.263  30.144  26.423  1.00  0.00     0.000 A 
BRANCH   7  16
ATOM     16  C   UNL A   1      30.964  24.721  23.490  1.00  0.00     0.225 C 
ATOM     17  O   UNL A   1      30.590  23.546  23.477  1.00  0.00    -0.275 OA
BRANCH  16  18
ATOM     18  C   UNL A   1      31.627  25.278  22.245  1.00  0.00     0.128 C 
BRANCH  18  19
ATOM     19  C   UNL A   1      33.033  24.768  22.012  1.00  0.00     0.169 C 
BRANCH  19  20
ATOM     20  O   UNL A   1      33.976  25.781  22.347  1.00  0.00    -0.384 OA
ATOM     21  C   UNL A   1      33.473  27.090  22.131  1.00  0.00     0.194 C 
ENDBRANCH  19  20
ENDBRANCH  18  19
ENDBRANCH  16  18
ENDBRANCH   7  16
ENDBRANCH   3   6
ENDBRANCH   1   2
BRANCH   1  22
ATOM     22  C   UNL A   1      35.151  23.359  26.528  1.00  0.00     0.042 C 
BRANCH  22  23
ATOM     23  C   UNL A   1      36.374  23.457  25.628  1.00  0.00     0.118 C 
BRANCH  23  24
ATOM     24  N   UNL A   1      37.361  22.431  25.939  1.00  0.00    -0.352 N 
ATOM     25  C   UNL A   1      38.682  22.568  26.291  1.00  0.00     0.251 C 
ATOM     26  H   UNL A   1      37.035  21.504  25.887  1.00  0.00     0.163 HD
ATOM     27  O   UNL A   1      39.439  21.607  26.225  1.00  0.00    -0.269 OA
BRANCH  25  28
ATOM     28  C   UNL A   1      39.172  23.886  26.734  1.00  0.00     0.039 A 
ATOM     29  C   UNL A   1      39.039  24.256  28.073  1.00  0.00     0.014 A 
ATOM     30  C   UNL A   1      39.776  24.747  25.816  1.00  0.00     0.014 A 
ATOM     31  C   UNL A   1      39.577  25.470  28.504  1.00  0.00     0.010 A 
ATOM     32  C   UNL A   1      40.400  25.901  26.265  1.00  0.00     0.010 A 
ATOM     33  C   UNL A   1      40.295  26.282  27.610  1.00  0.00    -0.014 A 
BRANCH  33  34
ATOM     34  C   UNL A   1      40.938  27.546  28.046  1.00  0.00     0.031 A 
ATOM     35  C   UNL A   1      42.438  27.664  28.034  1.00  0.00     0.074 A 
ATOM     36  C   UNL A   1      40.181  28.545  28.541  1.00  0.00     0.049 A 
ATOM     37  N   UNL A   1      43.193  28.638  28.473  1.00  0.00    -0.248 NA
ATOM     38  C   UNL A   1      43.188  26.519  27.491  1.00  0.00     0.031 C 
ATOM     39  C   UNL A   1      38.721  28.527  28.653  1.00  0.00     0.029 A 
ATOM     40  N   UNL A   1      40.539  29.763  29.059  1.00  0.00    -0.354 N 
ATOM     41  C   UNL A   1      44.503  28.211  28.284  1.00  0.00     0.074 A 
ATOM     42  C   UNL A   1      44.437  26.868  27.751  1.00  0.00     0.031 C 
ATOM     43  C   UNL A   1      38.307  29.688  29.185  1.00  0.00     0.029 A 
ATOM     44  C   UNL A   1      39.472  30.510  29.497  1.00  0.00     0.049 A 
ATOM     45  H   UNL A   1      41.472  30.073  29.113  1.00  0.00     0.167 HD
ATOM     46  C   UNL A   1      45.655  28.885  28.511  1.00  0.00     0.031 A 
ATOM     47  C   UNL A   1      39.432  31.716  30.095  1.00  0.00     0.031 A 
ATOM     48  C   UNL A   1      45.709  30.220  29.042  1.00  0.00     0.049 A 
ATOM     49  C   UNL A   1      40.721  32.449  30.344  1.00  0.00     0.074 A 
ATOM     50  C   UNL A   1      46.818  31.017  29.257  1.00  0.00     0.029 A 
ATOM     51  N   UNL A   1      44.603  30.955  29.446  1.00  0.00    -0.354 N 
ATOM     52  N   UNL A   1      41.950  32.061  30.093  1.00  0.00    -0.248 NA
ATOM     53  C   UNL A   1      40.620  33.786  30.943  1.00  0.00     0.031 C 
ATOM     54  C   UNL A   1      46.388  32.211  29.849  1.00  0.00     0.029 A 
ATOM     55  C   UNL A   1      45.004  32.185  29.936  1.00  0.00     0.049 A 
ATOM     56  H   UNL A   1      43.669  30.646  29.392  1.00  0.00     0.167 HD
ATOM     57  C   UNL A   1      42.767  33.118  30.480  1.00  0.00     0.074 A 
ATOM     58  C   UNL A   1      41.891  34.163  30.970  1.00  0.00     0.031 C 
ATOM     59  C   UNL A   1      44.119  33.214  30.429  1.00  0.00     0.031 A 
BRANCH  46  60
ATOM     60  C   UNL A   1      46.945  28.166  28.204  1.00  0.00    -0.014 A 
ATOM     61  C   UNL A   1      47.554  28.266  26.938  1.00  0.00     0.010 A 
ATOM     62  C   UNL A   1      47.554  27.370  29.190  1.00  0.00     0.010 A 
ATOM     63  C   UNL A   1      48.702  27.527  26.642  1.00  0.00     0.020 A 
ATOM     64  C   UNL A   1      48.725  26.657  28.910  1.00  0.00     0.020 A 
ATOM     65  C   UNL A   1      49.275  26.720  27.628  1.00  0.00     0.054 A 
BRANCH  65  66
ATOM     66  S   UNL A   1      50.753  25.757  27.211  1.00  0.00     0.124 S 
ATOM     67  O   UNL A   1      51.759  26.357  28.084  1.00  0.00    -0.237 OA
ATOM     68  O   UNL A   1      50.357  24.394  27.556  1.00  0.00    -0.237 OA
ATOM     69  O   UNL A   1      50.940  26.007  25.784  1.00  0.00    -0.744 OA
ENDBRANCH  65  66
ENDBRANCH  46  60
BRANCH  47  70
ATOM     70  C   UNL A   1      38.118  32.300  30.477  1.00  0.00    -0.014 A 
ATOM     71  C   UNL A   1      37.590  32.090  31.762  1.00  0.00     0.010 A 
ATOM     72  C   UNL A   1      37.420  33.128  29.577  1.00  0.00     0.010 A 
ATOM     73  C   UNL A   1      36.389  32.699  32.142  1.00  0.00     0.020 A 
ATOM     74  C   UNL A   1      36.236  33.760  29.962  1.00  0.00     0.020 A 
ATOM     75  C   UNL A   1      35.726  33.539  31.243  1.00  0.00     0.054 A 
BRANCH  75  76
ATOM     76  S   UNL A   1      34.222  34.393  31.793  1.00  0.00     0.124 S 
ATOM     77  O   UNL A   1      34.764  35.605  32.400  1.00  0.00    -0.237 OA
ATOM     78  O   UNL A   1      33.493  34.583  30.542  1.00  0.00    -0.237 OA
ATOM     79  O   UNL A   1      33.610  33.446  32.723  1.00  0.00    -0.744 OA
ENDBRANCH  75  76
ENDBRANCH  47  70
BRANCH  59  80
ATOM     80  C   UNL A   1      44.741  34.507  30.886  1.00  0.00    -0.014 A 
ATOM     81  C   UNL A   1      45.198  34.676  32.205  1.00  0.00     0.010 A 
ATOM     82  C   UNL A   1      44.927  35.549  29.958  1.00  0.00     0.010 A 
ATOM     83  C   UNL A   1      45.803  35.875  32.595  1.00  0.00     0.020 A 
ATOM     84  C   UNL A   1      45.559  36.736  30.335  1.00  0.00     0.020 A 
ATOM     85  C   UNL A   1      45.981  36.896  31.655  1.00  0.00     0.054 A 
BRANCH  85  86
ATOM     86  S   UNL A   1      46.813  38.422  32.173  1.00  0.00     0.124 S 
ATOM     87  O   UNL A   1      45.697  39.359  32.268  1.00  0.00    -0.237 OA
ATOM     88  O   UNL A   1      47.422  38.038  33.444  1.00  0.00    -0.237 OA
ATOM     89  O   UNL A   1      47.758  38.687  31.091  1.00  0.00    -0.744 OA
ENDBRANCH  85  86
ENDBRANCH  59  80
ENDBRANCH  33  34
ENDBRANCH  25  28
ENDBRANCH  23  24
ENDBRANCH  22  23
ENDBRANCH   1  22
TORSDOF 17
ENDMDL
