MODEL 1
REMARK VINA RESULT:     -13.6      0.000      0.000
REMARK SMILES Cc1c(CC(=O)NCCCNC(=O)c2ccc(-c3c4nc(c(-c5ccc(S(=O)(=O)[O-])cc5)c5ccc([nH]5)c(-c5ccc(S(=O)(=O)[O-])cc5)c5nc(c(-c6ccc(S(=O)(=O)[O-])cc6)c6ccc3[nH]6)C=C5)C=C4)cc2)cc(-c2ccc(S(C)(=O)=O)cc2)n1-c1cccc(F)c1
REMARK SMILES IDX 9 1 8 2 7 3 5 4 6 5 4 7 3 8 1 9 2 10 86 11 74 12 75 13 87 14
REMARK SMILES IDX 88 15 93 16 89 17 91 18 90 19 92 20 76 21 77 22 85 23 78 24
REMARK SMILES IDX 84 25 79 26 80 27 81 28 82 29 83 30 10 31 11 32 12 33 13 35
REMARK SMILES IDX 14 36 15 37 73 38 16 39 72 40 17 41 18 42 19 43 66 44 20 45
REMARK SMILES IDX 71 46 65 47 67 48 21 49 70 50 64 51 63 52 22 54 52 55 33 56
REMARK SMILES IDX 51 57 34 58 37 59 50 60 68 61 35 62 36 63 49 65 69 66 38 67
REMARK SMILES IDX 23 68 24 69 32 70 25 71 31 72 26 73 27 74 28 75 29 76 30 77
REMARK SMILES IDX 53 78 54 79 62 80 55 81 61 82 56 83 57 84 58 85 59 86 60 87
REMARK SMILES IDX 39 88 40 89 48 90 41 91 47 92 42 93 43 94 44 95 45 96 46 97
REMARK H PARENT 7 6 11 34 67 53 37 64
REMARK Flexibility Score: inf
ROOT
ATOM      1  C   UNL A   1      37.954  22.021  25.285  1.00  0.00     0.042 C 
ENDROOT
BRANCH   1   2
ATOM      2  C   UNL A   1      36.910  21.738  24.157  1.00  0.00     0.117 C 
BRANCH   2   3
ATOM      3  N   UNL A   1      35.551  21.388  24.559  1.00  0.00    -0.356 N 
ATOM      4  C   UNL A   1      34.332  21.761  24.052  1.00  0.00     0.224 C 
ATOM      5  O   UNL A   1      33.346  21.098  24.395  1.00  0.00    -0.275 OA
ATOM      6  H   UNL A   1      35.500  20.778  25.330  1.00  0.00     0.163 HD
BRANCH   4   7
ATOM      7  C   UNL A   1      34.154  22.917  23.072  1.00  0.00     0.137 C 
BRANCH   7   8
ATOM      8  C   UNL A   1      33.399  24.072  23.643  1.00  0.00    -0.017 A 
ATOM      9  C   UNL A   1      34.398  24.214  26.042  1.00  0.00     0.065 C 
ATOM     10  C   UNL A   1      33.572  24.672  24.881  1.00  0.00     0.024 A 
ATOM     11  N   UNL A   1      32.789  25.821  24.915  1.00  0.00    -0.313 N 
ATOM     12  C   UNL A   1      32.313  24.734  23.021  1.00  0.00     0.033 A 
ATOM     13  C   UNL A   1      31.953  25.820  23.800  1.00  0.00     0.053 A 
BRANCH  11  14
ATOM     14  C   UNL A   1      32.882  26.843  25.894  1.00  0.00     0.049 A 
ATOM     15  C   UNL A   1      31.800  27.118  26.739  1.00  0.00     0.027 A 
ATOM     16  C   UNL A   1      34.051  27.607  25.965  1.00  0.00     0.065 A 
ATOM     17  C   UNL A   1      31.902  28.152  27.672  1.00  0.00     0.005 A 
ATOM     18  C   UNL A   1      34.125  28.645  26.883  1.00  0.00     0.125 A 
ATOM     19  C   UNL A   1      33.066  28.921  27.740  1.00  0.00     0.039 A 
ATOM     20  F   UNL A   1      35.229  29.401  26.932  1.00  0.00    -0.207 F 
ENDBRANCH  11  14
BRANCH  13  21
ATOM     21  C   UNL A   1      31.018  26.883  23.426  1.00  0.00    -0.001 A 
ATOM     22  C   UNL A   1      31.464  27.999  22.702  1.00  0.00     0.011 A 
ATOM     23  C   UNL A   1      29.658  26.763  23.737  1.00  0.00     0.011 A 
ATOM     24  C   UNL A   1      30.572  29.004  22.327  1.00  0.00     0.021 A 
ATOM     25  C   UNL A   1      28.758  27.766  23.366  1.00  0.00     0.021 A 
ATOM     26  C   UNL A   1      29.224  28.886  22.678  1.00  0.00     0.067 A 
BRANCH  26  27
ATOM     27  S   UNL A   1      28.108  30.184  22.199  1.00  0.00     0.175 S 
ATOM     28  C   UNL A   1      28.925  31.662  22.748  1.00  0.00     0.163 C 
ATOM     29  O   UNL A   1      28.029  30.191  20.777  1.00  0.00    -0.224 OA
ATOM     30  O   UNL A   1      26.897  30.038  23.025  1.00  0.00    -0.224 OA
ENDBRANCH  26  27
ENDBRANCH  13  21
ENDBRANCH   7   8
ENDBRANCH   4   7
ENDBRANCH   2   3
ENDBRANCH   1   2
BRANCH   1  31
ATOM     31  C   UNL A   1      38.877  20.879  25.858  1.00  0.00     0.118 C 
BRANCH  31  32
ATOM     32  N   UNL A   1      40.233  21.358  26.262  1.00  0.00    -0.352 N 
ATOM     33  C   UNL A   1      40.901  22.427  26.860  1.00  0.00     0.251 C 
ATOM     34  H   UNL A   1      40.894  20.670  26.018  1.00  0.00     0.163 HD
ATOM     35  O   UNL A   1      42.137  22.302  26.809  1.00  0.00    -0.269 OA
BRANCH  33  36
ATOM     36  C   UNL A   1      40.413  23.706  27.556  1.00  0.00     0.039 A 
ATOM     37  C   UNL A   1      39.112  24.206  27.288  1.00  0.00     0.014 A 
ATOM     38  C   UNL A   1      41.181  24.612  28.256  1.00  0.00     0.014 A 
ATOM     39  C   UNL A   1      38.603  25.530  27.696  1.00  0.00     0.010 A 
ATOM     40  C   UNL A   1      40.658  25.939  28.656  1.00  0.00     0.010 A 
ATOM     41  C   UNL A   1      39.361  26.516  28.376  1.00  0.00    -0.014 A 
BRANCH  41  42
ATOM     42  C   UNL A   1      38.848  28.170  28.261  1.00  0.00     0.031 A 
ATOM     43  C   UNL A   1      39.989  28.887  27.563  1.00  0.00     0.074 A 
ATOM     44  C   UNL A   1      38.134  29.267  28.851  1.00  0.00     0.049 A 
ATOM     45  N   UNL A   1      40.689  29.673  28.324  1.00  0.00    -0.248 NA
ATOM     46  C   UNL A   1      40.752  28.367  26.430  1.00  0.00     0.031 C 
ATOM     47  C   UNL A   1      38.075  30.675  28.250  1.00  0.00     0.029 A 
ATOM     48  N   UNL A   1      37.437  29.552  30.055  1.00  0.00    -0.354 N 
ATOM     49  C   UNL A   1      41.920  29.109  28.251  1.00  0.00     0.074 A 
ATOM     50  C   UNL A   1      41.991  28.487  26.932  1.00  0.00     0.031 C 
ATOM     51  C   UNL A   1      37.384  31.565  29.008  1.00  0.00     0.029 A 
ATOM     52  C   UNL A   1      36.954  30.924  30.232  1.00  0.00     0.049 A 
ATOM     53  H   UNL A   1      37.287  28.860  30.740  1.00  0.00     0.167 HD
ATOM     54  C   UNL A   1      42.605  28.841  29.392  1.00  0.00     0.031 A 
ATOM     55  C   UNL A   1      36.458  31.580  31.348  1.00  0.00     0.031 A 
ATOM     56  C   UNL A   1      41.820  28.860  30.636  1.00  0.00     0.049 A 
ATOM     57  C   UNL A   1      37.430  31.239  32.420  1.00  0.00     0.074 A 
ATOM     58  C   UNL A   1      40.605  28.338  31.033  1.00  0.00     0.029 A 
ATOM     59  N   UNL A   1      42.162  29.631  31.734  1.00  0.00    -0.354 N 
ATOM     60  N   UNL A   1      38.501  31.913  32.729  1.00  0.00    -0.248 NA
ATOM     61  C   UNL A   1      37.193  30.021  33.182  1.00  0.00     0.031 C 
ATOM     62  C   UNL A   1      40.453  28.428  32.420  1.00  0.00     0.029 A 
ATOM     63  C   UNL A   1      41.068  29.640  32.617  1.00  0.00     0.049 A 
ATOM     64  H   UNL A   1      43.022  30.091  31.871  1.00  0.00     0.167 HD
ATOM     65  C   UNL A   1      39.259  31.005  33.444  1.00  0.00     0.074 A 
ATOM     66  C   UNL A   1      38.342  29.950  33.844  1.00  0.00     0.031 C 
ATOM     67  C   UNL A   1      40.585  30.887  33.162  1.00  0.00     0.031 A 
BRANCH  54  68
ATOM     68  C   UNL A   1      44.044  28.463  29.345  1.00  0.00    -0.014 A 
ATOM     69  C   UNL A   1      45.040  29.269  29.928  1.00  0.00     0.010 A 
ATOM     70  C   UNL A   1      44.400  27.173  28.920  1.00  0.00     0.010 A 
ATOM     71  C   UNL A   1      46.326  28.793  30.135  1.00  0.00     0.020 A 
ATOM     72  C   UNL A   1      45.668  26.661  29.189  1.00  0.00     0.020 A 
ATOM     73  C   UNL A   1      46.619  27.475  29.803  1.00  0.00     0.054 A 
BRANCH  73  74
ATOM     74  S   UNL A   1      48.228  26.825  30.289  1.00  0.00     0.124 S 
ATOM     75  O   UNL A   1      49.092  27.981  30.061  1.00  0.00    -0.237 OA
ATOM     76  O   UNL A   1      48.021  26.471  31.690  1.00  0.00    -0.237 OA
ATOM     77  O   UNL A   1      48.438  25.705  29.377  1.00  0.00    -0.744 OA
ENDBRANCH  73  74
ENDBRANCH  54  68
BRANCH  55  78
ATOM     78  C   UNL A   1      35.510  32.699  31.841  1.00  0.00    -0.014 A 
ATOM     79  C   UNL A   1      34.963  33.072  33.086  1.00  0.00     0.010 A 
ATOM     80  C   UNL A   1      35.053  33.503  30.753  1.00  0.00     0.010 A 
ATOM     81  C   UNL A   1      34.074  34.212  33.212  1.00  0.00     0.020 A 
ATOM     82  C   UNL A   1      34.170  34.590  30.853  1.00  0.00     0.020 A 
ATOM     83  C   UNL A   1      33.697  34.970  32.092  1.00  0.00     0.054 A 
BRANCH  83  84
ATOM     84  S   UNL A   1      32.723  36.521  32.202  1.00  0.00     0.124 S 
ATOM     85  O   UNL A   1      33.408  37.272  33.248  1.00  0.00    -0.237 OA
ATOM     86  O   UNL A   1      32.828  37.070  30.853  1.00  0.00    -0.237 OA
ATOM     87  O   UNL A   1      31.380  36.057  32.560  1.00  0.00    -0.744 OA
ENDBRANCH  83  84
ENDBRANCH  55  78
BRANCH  67  88
ATOM     88  C   UNL A   1      41.368  32.125  32.966  1.00  0.00    -0.014 A 
ATOM     89  C   UNL A   1      42.118  32.543  34.069  1.00  0.00     0.010 A 
ATOM     90  C   UNL A   1      41.595  32.673  31.689  1.00  0.00     0.010 A 
ATOM     91  C   UNL A   1      43.181  33.410  33.877  1.00  0.00     0.020 A 
ATOM     92  C   UNL A   1      42.685  33.517  31.491  1.00  0.00     0.020 A 
ATOM     93  C   UNL A   1      43.485  33.852  32.587  1.00  0.00     0.054 A 
BRANCH  93  94
ATOM     94  S   UNL A   1      45.009  34.799  32.377  1.00  0.00     0.124 S 
ATOM     95  O   UNL A   1      44.864  35.843  33.390  1.00  0.00    -0.237 OA
ATOM     96  O   UNL A   1      46.029  33.792  32.662  1.00  0.00    -0.237 OA
ATOM     97  O   UNL A   1      44.945  35.262  30.994  1.00  0.00    -0.744 OA
ENDBRANCH  93  94
ENDBRANCH  67  88
ENDBRANCH  41  42
ENDBRANCH  33  36
ENDBRANCH  31  32
ENDBRANCH   1  31
TORSDOF 17
ENDMDL
MODEL 2
REMARK VINA RESULT:     -12.3      3.291      4.218
REMARK SMILES Cc1c(CC(=O)NCCCNC(=O)c2ccc(-c3c4nc(c(-c5ccc(S(=O)(=O)[O-])cc5)c5ccc([nH]5)c(-c5ccc(S(=O)(=O)[O-])cc5)c5nc(c(-c6ccc(S(=O)(=O)[O-])cc6)c6ccc3[nH]6)C=C5)C=C4)cc2)cc(-c2ccc(S(C)(=O)=O)cc2)n1-c1cccc(F)c1
REMARK SMILES IDX 9 1 8 2 7 3 5 4 6 5 4 7 3 8 1 9 2 10 86 11 74 12 75 13 87 14
REMARK SMILES IDX 88 15 93 16 89 17 91 18 90 19 92 20 76 21 77 22 85 23 78 24
REMARK SMILES IDX 84 25 79 26 80 27 81 28 82 29 83 30 10 31 11 32 12 33 13 35
REMARK SMILES IDX 14 36 15 37 73 38 16 39 72 40 17 41 18 42 19 43 66 44 20 45
REMARK SMILES IDX 71 46 65 47 67 48 21 49 70 50 64 51 63 52 22 54 52 55 33 56
REMARK SMILES IDX 51 57 34 58 37 59 50 60 68 61 35 62 36 63 49 65 69 66 38 67
REMARK SMILES IDX 23 68 24 69 32 70 25 71 31 72 26 73 27 74 28 75 29 76 30 77
REMARK SMILES IDX 53 78 54 79 62 80 55 81 61 82 56 83 57 84 58 85 59 86 60 87
REMARK SMILES IDX 39 88 40 89 48 90 41 91 47 92 42 93 43 94 44 95 45 96 46 97
REMARK H PARENT 7 6 11 34 67 53 37 64
REMARK Flexibility Score: inf
ROOT
ATOM      1  C   UNL A   1      37.532  22.785  24.942  1.00  0.00     0.042 C 
ENDROOT
BRANCH   1   2
ATOM      2  C   UNL A   1      36.539  22.432  23.788  1.00  0.00     0.117 C 
BRANCH   2   3
ATOM      3  N   UNL A   1      35.220  21.926  24.156  1.00  0.00    -0.356 N 
ATOM      4  C   UNL A   1      33.978  22.164  23.624  1.00  0.00     0.224 C 
ATOM      5  O   UNL A   1      33.066  21.390  23.939  1.00  0.00    -0.275 OA
ATOM      6  H   UNL A   1      35.222  21.305  24.920  1.00  0.00     0.163 HD
BRANCH   4   7
ATOM      7  C   UNL A   1      33.691  23.304  22.651  1.00  0.00     0.137 C 
BRANCH   7   8
ATOM      8  C   UNL A   1      32.984  24.460  23.278  1.00  0.00    -0.017 A 
ATOM      9  C   UNL A   1      33.960  24.422  25.691  1.00  0.00     0.065 C 
ATOM     10  C   UNL A   1      33.171  24.983  24.549  1.00  0.00     0.024 A 
ATOM     11  N   UNL A   1      32.441  26.163  24.640  1.00  0.00    -0.313 N 
ATOM     12  C   UNL A   1      31.937  25.205  22.684  1.00  0.00     0.033 A 
ATOM     13  C   UNL A   1      31.619  26.263  23.519  1.00  0.00     0.053 A 
BRANCH  11  14
ATOM     14  C   UNL A   1      32.571  27.124  25.674  1.00  0.00     0.049 A 
ATOM     15  C   UNL A   1      31.549  27.297  26.616  1.00  0.00     0.027 A 
ATOM     16  C   UNL A   1      33.711  27.934  25.706  1.00  0.00     0.065 A 
ATOM     17  C   UNL A   1      31.683  28.273  27.605  1.00  0.00     0.005 A 
ATOM     18  C   UNL A   1      33.815  28.915  26.683  1.00  0.00     0.125 A 
ATOM     19  C   UNL A   1      32.817  29.088  27.635  1.00  0.00     0.039 A 
ATOM     20  F   UNL A   1      34.888  29.715  26.698  1.00  0.00    -0.207 F 
ENDBRANCH  11  14
BRANCH  13  21
ATOM     21  C   UNL A   1      30.739  27.387  23.196  1.00  0.00    -0.001 A 
ATOM     22  C   UNL A   1      31.245  28.519  22.538  1.00  0.00     0.011 A 
ATOM     23  C   UNL A   1      29.371  27.315  23.488  1.00  0.00     0.011 A 
ATOM     24  C   UNL A   1      30.405  29.584  22.212  1.00  0.00     0.021 A 
ATOM     25  C   UNL A   1      28.524  28.378  23.165  1.00  0.00     0.021 A 
ATOM     26  C   UNL A   1      29.049  29.511  22.543  1.00  0.00     0.067 A 
BRANCH  26  27
ATOM     27  S   UNL A   1      28.000  30.884  22.128  1.00  0.00     0.175 S 
ATOM     28  C   UNL A   1      29.054  32.297  22.346  1.00  0.00     0.163 C 
ATOM     29  O   UNL A   1      27.651  30.767  20.752  1.00  0.00    -0.224 OA
ATOM     30  O   UNL A   1      26.962  30.965  23.169  1.00  0.00    -0.224 OA
ENDBRANCH  26  27
ENDBRANCH  13  21
ENDBRANCH   7   8
ENDBRANCH   4   7
ENDBRANCH   2   3
ENDBRANCH   1   2
BRANCH   1  31
ATOM     31  C   UNL A   1      38.228  21.662  25.802  1.00  0.00     0.118 C 
BRANCH  31  32
ATOM     32  N   UNL A   1      39.711  21.811  25.887  1.00  0.00    -0.352 N 
ATOM     33  C   UNL A   1      40.718  22.606  26.437  1.00  0.00     0.251 C 
ATOM     34  H   UNL A   1      40.130  21.088  25.368  1.00  0.00     0.163 HD
ATOM     35  O   UNL A   1      41.848  22.288  26.031  1.00  0.00    -0.269 OA
BRANCH  33  36
ATOM     36  C   UNL A   1      40.698  23.777  27.431  1.00  0.00     0.039 A 
ATOM     37  C   UNL A   1      39.493  24.492  27.659  1.00  0.00     0.014 A 
ATOM     38  C   UNL A   1      41.790  24.414  27.980  1.00  0.00     0.014 A 
ATOM     39  C   UNL A   1      39.380  25.767  28.395  1.00  0.00     0.010 A 
ATOM     40  C   UNL A   1      41.662  25.696  28.714  1.00  0.00     0.010 A 
ATOM     41  C   UNL A   1      40.473  26.487  28.941  1.00  0.00    -0.014 A 
BRANCH  41  42
ATOM     42  C   UNL A   1      40.270  28.185  29.236  1.00  0.00     0.031 A 
ATOM     43  C   UNL A   1      40.676  28.860  27.938  1.00  0.00     0.074 A 
ATOM     44  C   UNL A   1      40.345  29.277  30.165  1.00  0.00     0.049 A 
ATOM     45  N   UNL A   1      41.811  29.490  27.980  1.00  0.00    -0.248 NA
ATOM     46  C   UNL A   1      40.336  28.392  26.596  1.00  0.00     0.031 C 
ATOM     47  C   UNL A   1      40.081  30.740  29.794  1.00  0.00     0.029 A 
ATOM     48  N   UNL A   1      40.747  29.499  31.509  1.00  0.00    -0.354 N 
ATOM     49  C   UNL A   1      42.536  28.822  27.050  1.00  0.00     0.074 A 
ATOM     50  C   UNL A   1      41.569  28.339  26.068  1.00  0.00     0.031 C 
ATOM     51  C   UNL A   1      40.260  31.607  30.823  1.00  0.00     0.029 A 
ATOM     52  C   UNL A   1      40.730  30.884  31.986  1.00  0.00     0.049 A 
ATOM     53  H   UNL A   1      41.025  28.756  32.093  1.00  0.00     0.167 HD
ATOM     54  C   UNL A   1      43.778  28.370  27.363  1.00  0.00     0.031 A 
ATOM     55  C   UNL A   1      41.263  31.462  33.127  1.00  0.00     0.031 A 
ATOM     56  C   UNL A   1      44.108  28.332  28.795  1.00  0.00     0.049 A 
ATOM     57  C   UNL A   1      42.646  30.919  33.187  1.00  0.00     0.074 A 
ATOM     58  C   UNL A   1      43.468  27.890  29.935  1.00  0.00     0.029 A 
ATOM     59  N   UNL A   1      45.229  28.946  29.328  1.00  0.00    -0.354 N 
ATOM     60  N   UNL A   1      43.705  31.451  32.647  1.00  0.00    -0.248 NA
ATOM     61  C   UNL A   1      42.843  29.655  33.883  1.00  0.00     0.031 C 
ATOM     62  C   UNL A   1      44.350  27.847  31.019  1.00  0.00     0.029 A 
ATOM     63  C   UNL A   1      45.090  28.967  30.728  1.00  0.00     0.049 A 
ATOM     64  H   UNL A   1      45.990  29.305  28.817  1.00  0.00     0.167 HD
ATOM     65  C   UNL A   1      44.606  30.404  32.605  1.00  0.00     0.074 A 
ATOM     66  C   UNL A   1      44.099  29.405  33.531  1.00  0.00     0.031 C 
ATOM     67  C   UNL A   1      45.315  30.189  31.462  1.00  0.00     0.031 A 
BRANCH  54  68
ATOM     68  C   UNL A   1      44.692  27.863  26.304  1.00  0.00    -0.014 A 
ATOM     69  C   UNL A   1      45.728  28.660  25.777  1.00  0.00     0.010 A 
ATOM     70  C   UNL A   1      44.680  26.496  25.984  1.00  0.00     0.010 A 
ATOM     71  C   UNL A   1      46.744  28.109  25.010  1.00  0.00     0.020 A 
ATOM     72  C   UNL A   1      45.734  25.923  25.276  1.00  0.00     0.020 A 
ATOM     73  C   UNL A   1      46.763  26.735  24.802  1.00  0.00     0.054 A 
BRANCH  73  74
ATOM     74  S   UNL A   1      48.211  26.029  23.994  1.00  0.00     0.124 S 
ATOM     75  O   UNL A   1      47.711  24.718  23.588  1.00  0.00    -0.237 OA
ATOM     76  O   UNL A   1      48.457  26.966  22.902  1.00  0.00    -0.237 OA
ATOM     77  O   UNL A   1      49.220  26.008  25.049  1.00  0.00    -0.744 OA
ENDBRANCH  73  74
ENDBRANCH  54  68
BRANCH  55  78
ATOM     78  C   UNL A   1      41.110  32.608  34.155  1.00  0.00    -0.014 A 
ATOM     79  C   UNL A   1      41.527  33.953  34.226  1.00  0.00     0.010 A 
ATOM     80  C   UNL A   1      40.422  32.162  35.325  1.00  0.00     0.010 A 
ATOM     81  C   UNL A   1      41.210  34.786  35.371  1.00  0.00     0.020 A 
ATOM     82  C   UNL A   1      40.133  32.946  36.454  1.00  0.00     0.020 A 
ATOM     83  C   UNL A   1      40.501  34.275  36.471  1.00  0.00     0.054 A 
BRANCH  83  84
ATOM     84  S   UNL A   1      39.916  35.312  37.867  1.00  0.00     0.124 S 
ATOM     85  O   UNL A   1      40.978  35.167  38.857  1.00  0.00    -0.237 OA
ATOM     86  O   UNL A   1      39.788  36.635  37.262  1.00  0.00    -0.237 OA
ATOM     87  O   UNL A   1      38.641  34.694  38.240  1.00  0.00    -0.744 OA
ENDBRANCH  83  84
ENDBRANCH  55  78
BRANCH  67  88
ATOM     88  C   UNL A   1      45.898  31.361  30.775  1.00  0.00    -0.014 A 
ATOM     89  C   UNL A   1      47.291  31.460  30.835  1.00  0.00     0.010 A 
ATOM     90  C   UNL A   1      45.156  32.146  29.872  1.00  0.00     0.010 A 
ATOM     91  C   UNL A   1      47.956  32.242  29.906  1.00  0.00     0.020 A 
ATOM     92  C   UNL A   1      45.826  32.905  28.916  1.00  0.00     0.020 A 
ATOM     93  C   UNL A   1      47.224  32.920  28.926  1.00  0.00     0.054 A 
BRANCH  93  94
ATOM     94  S   UNL A   1      48.160  33.740  27.617  1.00  0.00     0.124 S 
ATOM     95  O   UNL A   1      47.137  34.570  26.983  1.00  0.00    -0.237 OA
ATOM     96  O   UNL A   1      49.168  34.470  28.381  1.00  0.00    -0.237 OA
ATOM     97  O   UNL A   1      48.658  32.638  26.800  1.00  0.00    -0.744 OA
ENDBRANCH  93  94
ENDBRANCH  67  88
ENDBRANCH  41  42
ENDBRANCH  33  36
ENDBRANCH  31  32
ENDBRANCH   1  31
TORSDOF 17
ENDMDL
MODEL 3
REMARK VINA RESULT:     -11.1      5.875     11.729
REMARK SMILES Cc1c(CC(=O)NCCCNC(=O)c2ccc(-c3c4nc(c(-c5ccc(S(=O)(=O)[O-])cc5)c5ccc([nH]5)c(-c5ccc(S(=O)(=O)[O-])cc5)c5nc(c(-c6ccc(S(=O)(=O)[O-])cc6)c6ccc3[nH]6)C=C5)C=C4)cc2)cc(-c2ccc(S(C)(=O)=O)cc2)n1-c1cccc(F)c1
REMARK SMILES IDX 9 1 8 2 7 3 5 4 6 5 4 7 3 8 1 9 2 10 86 11 74 12 75 13 87 14
REMARK SMILES IDX 88 15 93 16 89 17 91 18 90 19 92 20 76 21 77 22 85 23 78 24
REMARK SMILES IDX 84 25 79 26 80 27 81 28 82 29 83 30 10 31 11 32 12 33 13 35
REMARK SMILES IDX 14 36 15 37 73 38 16 39 72 40 17 41 18 42 19 43 66 44 20 45
REMARK SMILES IDX 71 46 65 47 67 48 21 49 70 50 64 51 63 52 22 54 52 55 33 56
REMARK SMILES IDX 51 57 34 58 37 59 50 60 68 61 35 62 36 63 49 65 69 66 38 67
REMARK SMILES IDX 23 68 24 69 32 70 25 71 31 72 26 73 27 74 28 75 29 76 30 77
REMARK SMILES IDX 53 78 54 79 62 80 55 81 61 82 56 83 57 84 58 85 59 86 60 87
REMARK SMILES IDX 39 88 40 89 48 90 41 91 47 92 42 93 43 94 44 95 45 96 46 97
REMARK H PARENT 7 6 11 34 67 53 37 64
REMARK Flexibility Score: inf
ROOT
ATOM      1  C   UNL A   1      38.648  32.883  32.938  1.00  0.00     0.042 C 
ENDROOT
BRANCH   1   2
ATOM      2  C   UNL A   1      38.138  32.490  31.514  1.00  0.00     0.117 C 
BRANCH   2   3
ATOM      3  N   UNL A   1      37.222  31.359  31.407  1.00  0.00    -0.356 N 
ATOM      4  C   UNL A   1      37.399  30.023  31.660  1.00  0.00     0.224 C 
ATOM      5  O   UNL A   1      36.384  29.324  31.763  1.00  0.00    -0.275 OA
ATOM      6  H   UNL A   1      36.318  31.598  31.099  1.00  0.00     0.163 HD
BRANCH   4   7
ATOM      7  C   UNL A   1      38.772  29.384  31.850  1.00  0.00     0.137 C 
BRANCH   7   8
ATOM      8  C   UNL A   1      39.295  28.717  30.620  1.00  0.00    -0.017 A 
ATOM      9  C   UNL A   1      40.401  30.716  29.373  1.00  0.00     0.065 C 
ATOM     10  C   UNL A   1      40.064  29.277  29.611  1.00  0.00     0.024 A 
ATOM     11  N   UNL A   1      40.478  28.252  28.768  1.00  0.00    -0.313 N 
ATOM     12  C   UNL A   1      39.041  27.377  30.240  1.00  0.00     0.033 A 
ATOM     13  C   UNL A   1      39.786  27.091  29.109  1.00  0.00     0.053 A 
BRANCH  11  14
ATOM     14  C   UNL A   1      41.483  28.369  27.774  1.00  0.00     0.049 A 
ATOM     15  C   UNL A   1      41.139  28.644  26.445  1.00  0.00     0.027 A 
ATOM     16  C   UNL A   1      42.817  28.152  28.133  1.00  0.00     0.065 A 
ATOM     17  C   UNL A   1      42.143  28.721  25.477  1.00  0.00     0.005 A 
ATOM     18  C   UNL A   1      43.798  28.210  27.153  1.00  0.00     0.125 A 
ATOM     19  C   UNL A   1      43.475  28.498  25.831  1.00  0.00     0.039 A 
ATOM     20  F   UNL A   1      45.073  27.970  27.484  1.00  0.00    -0.207 F 
ENDBRANCH  11  14
BRANCH  13  21
ATOM     21  C   UNL A   1      39.976  25.770  28.507  1.00  0.00    -0.001 A 
ATOM     22  C   UNL A   1      39.022  25.252  27.617  1.00  0.00     0.011 A 
ATOM     23  C   UNL A   1      41.141  25.038  28.769  1.00  0.00     0.011 A 
ATOM     24  C   UNL A   1      39.209  24.002  27.026  1.00  0.00     0.021 A 
ATOM     25  C   UNL A   1      41.334  23.786  28.182  1.00  0.00     0.021 A 
ATOM     26  C   UNL A   1      40.360  23.269  27.328  1.00  0.00     0.067 A 
BRANCH  26  27
ATOM     27  S   UNL A   1      40.571  21.675  26.573  1.00  0.00     0.175 S 
ATOM     28  C   UNL A   1      39.023  21.393  25.749  1.00  0.00     0.163 C 
ATOM     29  O   UNL A   1      41.607  21.784  25.601  1.00  0.00    -0.224 OA
ATOM     30  O   UNL A   1      40.656  20.688  27.663  1.00  0.00    -0.224 OA
ENDBRANCH  26  27
ENDBRANCH  13  21
ENDBRANCH   7   8
ENDBRANCH   4   7
ENDBRANCH   2   3
ENDBRANCH   1   2
BRANCH   1  31
ATOM     31  C   UNL A   1      38.651  34.382  33.427  1.00  0.00     0.118 C 
BRANCH  31  32
ATOM     32  N   UNL A   1      39.339  34.578  34.737  1.00  0.00    -0.352 N 
ATOM     33  C   UNL A   1      40.529  34.316  35.418  1.00  0.00     0.251 C 
ATOM     34  H   UNL A   1      38.735  35.070  35.339  1.00  0.00     0.163 HD
ATOM     35  O   UNL A   1      40.472  34.640  36.616  1.00  0.00    -0.269 OA
BRANCH  33  36
ATOM     36  C   UNL A   1      41.873  33.715  34.978  1.00  0.00     0.039 A 
ATOM     37  C   UNL A   1      41.925  32.388  34.476  1.00  0.00     0.014 A 
ATOM     38  C   UNL A   1      43.129  34.219  35.238  1.00  0.00     0.014 A 
ATOM     39  C   UNL A   1      43.157  31.609  34.242  1.00  0.00     0.010 A 
ATOM     40  C   UNL A   1      44.357  33.425  35.000  1.00  0.00     0.010 A 
ATOM     41  C   UNL A   1      44.469  32.061  34.531  1.00  0.00    -0.014 A 
BRANCH  41  42
ATOM     42  C   UNL A   1      45.713  30.873  34.760  1.00  0.00     0.031 A 
ATOM     43  C   UNL A   1      46.673  31.083  33.603  1.00  0.00     0.074 A 
ATOM     44  C   UNL A   1      46.071  29.554  35.197  1.00  0.00     0.049 A 
ATOM     45  N   UNL A   1      46.644  30.158  32.692  1.00  0.00    -0.248 NA
ATOM     46  C   UNL A   1      47.104  32.378  33.082  1.00  0.00     0.031 C 
ATOM     47  C   UNL A   1      47.481  28.964  35.083  1.00  0.00     0.029 A 
ATOM     48  N   UNL A   1      45.424  28.387  35.686  1.00  0.00    -0.354 N 
ATOM     49  C   UNL A   1      46.263  30.858  31.595  1.00  0.00     0.074 A 
ATOM     50  C   UNL A   1      46.782  32.209  31.790  1.00  0.00     0.031 C 
ATOM     51  C   UNL A   1      47.574  27.679  35.514  1.00  0.00     0.029 A 
ATOM     52  C   UNL A   1      46.262  27.205  35.900  1.00  0.00     0.049 A 
ATOM     53  H   UNL A   1      44.457  28.374  35.872  1.00  0.00     0.167 HD
ATOM     54  C   UNL A   1      45.230  30.409  30.836  1.00  0.00     0.031 A 
ATOM     55  C   UNL A   1      45.927  25.881  36.139  1.00  0.00     0.031 A 
ATOM     56  C   UNL A   1      44.373  29.386  31.452  1.00  0.00     0.049 A 
ATOM     57  C   UNL A   1      44.885  25.590  35.120  1.00  0.00     0.074 A 
ATOM     58  C   UNL A   1      43.768  29.229  32.683  1.00  0.00     0.029 A 
ATOM     59  N   UNL A   1      44.102  28.167  30.854  1.00  0.00    -0.354 N 
ATOM     60  N   UNL A   1      45.090  25.129  33.920  1.00  0.00    -0.248 NA
ATOM     61  C   UNL A   1      43.501  25.875  35.472  1.00  0.00     0.031 C 
ATOM     62  C   UNL A   1      42.835  28.188  32.651  1.00  0.00     0.029 A 
ATOM     63  C   UNL A   1      43.509  27.331  31.817  1.00  0.00     0.049 A 
ATOM     64  H   UNL A   1      44.291  27.928  29.917  1.00  0.00     0.167 HD
ATOM     65  C   UNL A   1      43.920  25.434  33.251  1.00  0.00     0.074 A 
ATOM     66  C   UNL A   1      42.933  25.712  34.283  1.00  0.00     0.031 C 
ATOM     67  C   UNL A   1      43.995  25.985  32.008  1.00  0.00     0.031 A 
BRANCH  54  68
ATOM     68  C   UNL A   1      44.953  31.005  29.501  1.00  0.00    -0.014 A 
ATOM     69  C   UNL A   1      43.844  31.846  29.282  1.00  0.00     0.010 A 
ATOM     70  C   UNL A   1      45.930  30.922  28.496  1.00  0.00     0.010 A 
ATOM     71  C   UNL A   1      43.740  32.620  28.136  1.00  0.00     0.020 A 
ATOM     72  C   UNL A   1      45.869  31.749  27.376  1.00  0.00     0.020 A 
ATOM     73  C   UNL A   1      44.776  32.598  27.210  1.00  0.00     0.054 A 
BRANCH  73  74
ATOM     74  S   UNL A   1      44.711  33.779  25.849  1.00  0.00     0.124 S 
ATOM     75  O   UNL A   1      44.779  32.893  24.689  1.00  0.00    -0.237 OA
ATOM     76  O   UNL A   1      43.423  34.434  26.056  1.00  0.00    -0.237 OA
ATOM     77  O   UNL A   1      45.888  34.615  26.061  1.00  0.00    -0.744 OA
ENDBRANCH  73  74
ENDBRANCH  54  68
BRANCH  55  78
ATOM     78  C   UNL A   1      46.378  24.563  36.813  1.00  0.00    -0.014 A 
ATOM     79  C   UNL A   1      47.363  23.589  36.550  1.00  0.00     0.010 A 
ATOM     80  C   UNL A   1      45.555  24.253  37.938  1.00  0.00     0.010 A 
ATOM     81  C   UNL A   1      47.530  22.429  37.406  1.00  0.00     0.020 A 
ATOM     82  C   UNL A   1      45.684  23.121  38.759  1.00  0.00     0.020 A 
ATOM     83  C   UNL A   1      46.695  22.215  38.513  1.00  0.00     0.054 A 
BRANCH  83  84
ATOM     84  S   UNL A   1      46.959  20.870  39.734  1.00  0.00     0.124 S 
ATOM     85  O   UNL A   1      46.663  19.663  38.970  1.00  0.00    -0.237 OA
ATOM     86  O   UNL A   1      48.355  21.050  40.122  1.00  0.00    -0.237 OA
ATOM     87  O   UNL A   1      45.995  21.176  40.794  1.00  0.00    -0.744 OA
ENDBRANCH  83  84
ENDBRANCH  55  78
BRANCH  67  88
ATOM     88  C   UNL A   1      44.966  25.413  31.051  1.00  0.00    -0.014 A 
ATOM     89  C   UNL A   1      44.484  24.368  30.259  1.00  0.00     0.010 A 
ATOM     90  C   UNL A   1      46.176  26.059  30.736  1.00  0.00     0.010 A 
ATOM     91  C   UNL A   1      45.137  24.053  29.079  1.00  0.00     0.020 A 
ATOM     92  C   UNL A   1      46.814  25.766  29.533  1.00  0.00     0.020 A 
ATOM     93  C   UNL A   1      46.268  24.784  28.702  1.00  0.00     0.054 A 
BRANCH  93  94
ATOM     94  S   UNL A   1      46.939  24.473  27.055  1.00  0.00     0.124 S 
ATOM     95  O   UNL A   1      46.483  25.646  26.311  1.00  0.00    -0.237 OA
ATOM     96  O   UNL A   1      48.375  24.425  27.320  1.00  0.00    -0.237 OA
ATOM     97  O   UNL A   1      46.325  23.209  26.660  1.00  0.00    -0.744 OA
ENDBRANCH  93  94
ENDBRANCH  67  88
ENDBRANCH  41  42
ENDBRANCH  33  36
ENDBRANCH  31  32
ENDBRANCH   1  31
TORSDOF 17
ENDMDL
