MODEL 1
REMARK VINA RESULT:      -8.5      0.000      0.000
REMARK SMILES O=C(NCCCNC(=O)c1ccc(-c2c3nc(c(-c4ccc(S(=O)(=O)[O-])cc4)c4ccc([nH]4)c(-c4ccc(S(=O)(=O)[O-])cc4)c4nc(c(-c5ccc(S(=O)(=O)[O-])cc5)c5ccc2[nH]5)C=C4)C=C3)cc1)/C(=C\c1ccc(-c2ccccc2)cc1)c1ccc(S(=O)(=O)N2CCOCC2)s1
REMARK SMILES IDX 5 1 4 2 3 3 1 4 2 5 70 7 71 8 84 9 85 10 97 11 86 12 87 13
REMARK SMILES IDX 88 14 89 15 90 16 91 17 92 18 96 19 93 20 95 21 94 22 72 23
REMARK SMILES IDX 73 24 83 25 74 26 82 27 75 28 76 29 77 30 81 31 78 32 80 33
REMARK SMILES IDX 79 34 6 35 7 36 8 37 9 39 10 40 11 41 69 42 12 43 68 44
REMARK SMILES IDX 13 45 14 46 15 47 62 48 16 49 67 50 61 51 63 52 17 53 66 54
REMARK SMILES IDX 60 55 59 56 18 58 48 59 29 60 47 61 30 62 33 63 46 64 64 65
REMARK SMILES IDX 31 66 32 67 45 69 65 70 34 71 19 72 20 73 28 74 21 75 27 76
REMARK SMILES IDX 22 77 23 78 24 79 25 80 26 81 49 82 50 83 58 84 51 85 57 86
REMARK SMILES IDX 52 87 53 88 54 89 55 90 56 91 35 92 36 93 44 94 37 95 43 96
REMARK SMILES IDX 38 97 39 98 40 99 41 100 42 101
REMARK H PARENT 3 6 7 38 63 57 33 68
REMARK Flexibility Score: inf
ROOT
ATOM      1  C   UNL A   1      48.257  26.092  34.133  1.00  0.00     0.042 C 
ENDROOT
BRANCH   1   2
ATOM      2  C   UNL A   1      47.820  26.015  32.681  1.00  0.00     0.118 C 
BRANCH   2   3
ATOM      3  N   UNL A   1      48.439  26.983  31.791  1.00  0.00    -0.352 N 
ATOM      4  O   UNL A   1      48.631  28.578  30.260  1.00  0.00    -0.269 OA
ATOM      5  C   UNL A   1      47.937  27.671  30.720  1.00  0.00     0.252 C 
ATOM      6  H   UNL A   1      49.382  27.179  31.996  1.00  0.00     0.163 HD
BRANCH   5   7
ATOM      7  C   UNL A   1      46.604  27.328  30.112  1.00  0.00     0.057 C 
ATOM      8  C   UNL A   1      45.484  27.979  30.510  1.00  0.00     0.023 C 
BRANCH   7   9
ATOM      9  C   UNL A   1      46.487  26.332  29.081  1.00  0.00     0.041 A 
ATOM     10  C   UNL A   1      47.225  25.186  28.821  1.00  0.00     0.022 A 
ATOM     11  S   UNL A   1      45.320  26.529  27.833  1.00  0.00    -0.122 S 
ATOM     12  C   UNL A   1      47.028  24.701  27.482  1.00  0.00     0.034 A 
ATOM     13  C   UNL A   1      46.088  25.442  26.794  1.00  0.00     0.135 A 
BRANCH  13  14
ATOM     14  S   UNL A   1      45.540  25.469  25.098  1.00  0.00     0.252 S 
ATOM     15  O   UNL A   1      44.325  26.253  25.159  1.00  0.00    -0.206 OA
ATOM     16  O   UNL A   1      46.705  25.917  24.368  1.00  0.00    -0.206 OA
BRANCH  14  17
ATOM     17  N   UNL A   1      45.145  23.920  24.592  1.00  0.00    -0.193 NA
ATOM     18  C   UNL A   1      43.770  23.388  24.686  1.00  0.00     0.131 C 
ATOM     19  C   UNL A   1      46.172  22.939  24.190  1.00  0.00     0.131 C 
ATOM     20  C   UNL A   1      43.752  22.063  25.459  1.00  0.00     0.177 C 
ATOM     21  C   UNL A   1      46.010  21.607  24.937  1.00  0.00     0.177 C 
ATOM     22  O   UNL A   1      44.666  21.114  24.893  1.00  0.00    -0.379 OA
ENDBRANCH  14  17
ENDBRANCH  13  14
ENDBRANCH   7   9
BRANCH   8  23
ATOM     23  C   UNL A   1      45.295  29.098  31.444  1.00  0.00    -0.025 A 
ATOM     24  C   UNL A   1      44.362  30.080  31.097  1.00  0.00     0.009 A 
ATOM     25  C   UNL A   1      46.072  29.286  32.591  1.00  0.00     0.009 A 
ATOM     26  C   UNL A   1      44.156  31.189  31.918  1.00  0.00     0.009 A 
ATOM     27  C   UNL A   1      45.859  30.399  33.419  1.00  0.00     0.009 A 
ATOM     28  C   UNL A   1      44.877  31.354  33.109  1.00  0.00    -0.018 A 
BRANCH  28  29
ATOM     29  C   UNL A   1      44.560  32.467  34.018  1.00  0.00    -0.018 A 
ATOM     30  C   UNL A   1      45.381  32.717  35.131  1.00  0.00     0.009 A 
ATOM     31  C   UNL A   1      43.452  33.304  33.814  1.00  0.00     0.009 A 
ATOM     32  C   UNL A   1      45.105  33.759  36.018  1.00  0.00     0.001 A 
ATOM     33  C   UNL A   1      43.173  34.349  34.702  1.00  0.00     0.001 A 
ATOM     34  C   UNL A   1      43.998  34.574  35.803  1.00  0.00     0.000 A 
ENDBRANCH  28  29
ENDBRANCH   8  23
ENDBRANCH   5   7
ENDBRANCH   2   3
ENDBRANCH   1   2
BRANCH   1  35
ATOM     35  C   UNL A   1      47.866  24.919  35.016  1.00  0.00     0.118 C 
BRANCH  35  36
ATOM     36  N   UNL A   1      48.129  25.120  36.433  1.00  0.00    -0.352 N 
ATOM     37  C   UNL A   1      47.526  25.929  37.367  1.00  0.00     0.251 C 
ATOM     38  H   UNL A   1      48.874  24.580  36.786  1.00  0.00     0.163 HD
ATOM     39  O   UNL A   1      47.995  25.967  38.503  1.00  0.00    -0.269 OA
BRANCH  37  40
ATOM     40  C   UNL A   1      46.359  26.780  37.026  1.00  0.00     0.039 A 
ATOM     41  C   UNL A   1      46.589  28.101  36.630  1.00  0.00     0.014 A 
ATOM     42  C   UNL A   1      45.048  26.311  37.105  1.00  0.00     0.014 A 
ATOM     43  C   UNL A   1      45.519  28.913  36.237  1.00  0.00     0.010 A 
ATOM     44  C   UNL A   1      43.998  27.077  36.602  1.00  0.00     0.010 A 
ATOM     45  C   UNL A   1      44.216  28.393  36.175  1.00  0.00    -0.014 A 
BRANCH  45  46
ATOM     46  C   UNL A   1      43.076  29.216  35.685  1.00  0.00     0.031 A 
ATOM     47  C   UNL A   1      42.398  28.882  34.380  1.00  0.00     0.074 A 
ATOM     48  C   UNL A   1      42.686  30.302  36.385  1.00  0.00     0.049 A 
ATOM     49  N   UNL A   1      41.415  29.503  33.780  1.00  0.00    -0.248 NA
ATOM     50  C   UNL A   1      42.913  27.721  33.635  1.00  0.00     0.031 C 
ATOM     51  C   UNL A   1      43.302  30.783  37.625  1.00  0.00     0.029 A 
ATOM     52  N   UNL A   1      41.672  31.197  36.154  1.00  0.00    -0.354 N 
ATOM     53  C   UNL A   1      41.218  28.832  32.577  1.00  0.00     0.074 A 
ATOM     54  C   UNL A   1      42.219  27.791  32.508  1.00  0.00     0.031 C 
ATOM     55  C   UNL A   1      42.625  31.854  38.067  1.00  0.00     0.029 A 
ATOM     56  C   UNL A   1      41.549  32.157  37.130  1.00  0.00     0.049 A 
ATOM     57  H   UNL A   1      41.087  31.155  35.362  1.00  0.00     0.167 HD
ATOM     58  C   UNL A   1      40.277  29.040  31.626  1.00  0.00     0.031 A 
ATOM     59  C   UNL A   1      40.661  33.161  37.266  1.00  0.00     0.031 A 
ATOM     60  C   UNL A   1      39.253  30.047  31.711  1.00  0.00     0.049 A 
ATOM     61  C   UNL A   1      39.579  33.327  36.236  1.00  0.00     0.074 A 
ATOM     62  C   UNL A   1      38.210  30.294  30.834  1.00  0.00     0.029 A 
ATOM     63  N   UNL A   1      39.133  30.964  32.744  1.00  0.00    -0.354 N 
ATOM     64  N   UNL A   1      39.375  32.641  35.138  1.00  0.00    -0.248 NA
ATOM     65  C   UNL A   1      38.593  34.390  36.479  1.00  0.00     0.031 C 
ATOM     66  C   UNL A   1      37.476  31.380  31.325  1.00  0.00     0.029 A 
ATOM     67  C   UNL A   1      38.038  31.780  32.526  1.00  0.00     0.049 A 
ATOM     68  H   UNL A   1      39.738  31.024  33.518  1.00  0.00     0.167 HD
ATOM     69  C   UNL A   1      38.225  33.174  34.569  1.00  0.00     0.074 A 
ATOM     70  C   UNL A   1      37.768  34.224  35.455  1.00  0.00     0.031 C 
ATOM     71  C   UNL A   1      37.601  32.825  33.416  1.00  0.00     0.031 A 
BRANCH  58  72
ATOM     72  C   UNL A   1      40.310  28.146  30.413  1.00  0.00    -0.014 A 
ATOM     73  C   UNL A   1      41.292  28.312  29.418  1.00  0.00     0.010 A 
ATOM     74  C   UNL A   1      39.361  27.119  30.273  1.00  0.00     0.010 A 
ATOM     75  C   UNL A   1      41.291  27.501  28.280  1.00  0.00     0.020 A 
ATOM     76  C   UNL A   1      39.374  26.286  29.149  1.00  0.00     0.020 A 
ATOM     77  C   UNL A   1      40.326  26.498  28.148  1.00  0.00     0.054 A 
BRANCH  77  78
ATOM     78  S   UNL A   1      40.351  25.453  26.666  1.00  0.00     0.124 S 
ATOM     79  O   UNL A   1      41.292  24.406  27.055  1.00  0.00    -0.237 OA
ATOM     80  O   UNL A   1      38.958  25.032  26.544  1.00  0.00    -0.237 OA
ATOM     81  O   UNL A   1      40.821  26.354  25.616  1.00  0.00    -0.744 OA
ENDBRANCH  77  78
ENDBRANCH  58  72
BRANCH  59  82
ATOM     82  C   UNL A   1      40.728  34.055  38.453  1.00  0.00    -0.014 A 
ATOM     83  C   UNL A   1      40.067  33.704  39.643  1.00  0.00     0.010 A 
ATOM     84  C   UNL A   1      41.464  35.253  38.405  1.00  0.00     0.010 A 
ATOM     85  C   UNL A   1      40.123  34.544  40.759  1.00  0.00     0.020 A 
ATOM     86  C   UNL A   1      41.542  36.083  39.528  1.00  0.00     0.020 A 
ATOM     87  C   UNL A   1      40.861  35.728  40.694  1.00  0.00     0.054 A 
BRANCH  87  88
ATOM     88  S   UNL A   1      40.966  36.779  42.171  1.00  0.00     0.124 S 
ATOM     89  O   UNL A   1      41.816  37.869  41.708  1.00  0.00    -0.237 OA
ATOM     90  O   UNL A   1      39.568  37.125  42.416  1.00  0.00    -0.237 OA
ATOM     91  O   UNL A   1      41.565  35.898  43.171  1.00  0.00    -0.744 OA
ENDBRANCH  87  88
ENDBRANCH  59  82
BRANCH  71  92
ATOM     92  C   UNL A   1      36.341  33.571  33.070  1.00  0.00    -0.014 A 
ATOM     93  C   UNL A   1      36.376  34.716  32.256  1.00  0.00     0.010 A 
ATOM     94  C   UNL A   1      35.106  33.111  33.561  1.00  0.00     0.010 A 
ATOM     95  C   UNL A   1      35.201  35.420  31.980  1.00  0.00     0.020 A 
ATOM     96  C   UNL A   1      33.926  33.798  33.267  1.00  0.00     0.020 A 
ATOM     97  C   UNL A   1      33.985  34.962  32.497  1.00  0.00     0.054 A 
BRANCH  97  98
ATOM     98  S   UNL A   1      32.468  35.887  32.127  1.00  0.00     0.124 S 
ATOM     99  O   UNL A   1      32.652  37.098  32.922  1.00  0.00    -0.237 OA
ATOM    100  O   UNL A   1      32.545  36.069  30.679  1.00  0.00    -0.237 OA
ATOM    101  O   UNL A   1      31.403  34.996  32.580  1.00  0.00    -0.744 OA
ENDBRANCH  97  98
ENDBRANCH  71  92
ENDBRANCH  45  46
ENDBRANCH  37  40
ENDBRANCH  35  36
ENDBRANCH   1  35
TORSDOF 18
ENDMDL
MODEL 2
REMARK VINA RESULT:      -8.5      4.988      8.244
REMARK SMILES O=C(NCCCNC(=O)c1ccc(-c2c3nc(c(-c4ccc(S(=O)(=O)[O-])cc4)c4ccc([nH]4)c(-c4ccc(S(=O)(=O)[O-])cc4)c4nc(c(-c5ccc(S(=O)(=O)[O-])cc5)c5ccc2[nH]5)C=C4)C=C3)cc1)/C(=C\c1ccc(-c2ccccc2)cc1)c1ccc(S(=O)(=O)N2CCOCC2)s1
REMARK SMILES IDX 5 1 4 2 3 3 1 4 2 5 70 7 71 8 84 9 85 10 97 11 86 12 87 13
REMARK SMILES IDX 88 14 89 15 90 16 91 17 92 18 96 19 93 20 95 21 94 22 72 23
REMARK SMILES IDX 73 24 83 25 74 26 82 27 75 28 76 29 77 30 81 31 78 32 80 33
REMARK SMILES IDX 79 34 6 35 7 36 8 37 9 39 10 40 11 41 69 42 12 43 68 44
REMARK SMILES IDX 13 45 14 46 15 47 62 48 16 49 67 50 61 51 63 52 17 53 66 54
REMARK SMILES IDX 60 55 59 56 18 58 48 59 29 60 47 61 30 62 33 63 46 64 64 65
REMARK SMILES IDX 31 66 32 67 45 69 65 70 34 71 19 72 20 73 28 74 21 75 27 76
REMARK SMILES IDX 22 77 23 78 24 79 25 80 26 81 49 82 50 83 58 84 51 85 57 86
REMARK SMILES IDX 52 87 53 88 54 89 55 90 56 91 35 92 36 93 44 94 37 95 43 96
REMARK SMILES IDX 38 97 39 98 40 99 41 100 42 101
REMARK H PARENT 3 6 7 38 63 57 33 68
REMARK Flexibility Score: inf
ROOT
ATOM      1  C   UNL A   1      45.845  23.382  36.119  1.00  0.00     0.042 C 
ENDROOT
BRANCH   1   2
ATOM      2  C   UNL A   1      45.852  21.998  36.744  1.00  0.00     0.118 C 
BRANCH   2   3
ATOM      3  N   UNL A   1      45.962  21.967  38.193  1.00  0.00    -0.352 N 
ATOM      4  O   UNL A   1      46.858  21.725  40.208  1.00  0.00    -0.269 OA
ATOM      5  C   UNL A   1      46.922  21.438  39.013  1.00  0.00     0.252 C 
ATOM      6  H   UNL A   1      45.216  22.402  38.666  1.00  0.00     0.163 HD
BRANCH   5   7
ATOM      7  C   UNL A   1      48.001  20.532  38.486  1.00  0.00     0.057 C 
ATOM      8  C   UNL A   1      47.879  19.187  38.599  1.00  0.00     0.023 C 
BRANCH   7   9
ATOM      9  C   UNL A   1      49.165  21.060  37.827  1.00  0.00     0.041 A 
ATOM     10  C   UNL A   1      50.129  21.966  38.248  1.00  0.00     0.022 A 
ATOM     11  S   UNL A   1      49.481  20.644  36.189  1.00  0.00    -0.122 S 
ATOM     12  C   UNL A   1      50.880  22.515  37.152  1.00  0.00     0.034 A 
ATOM     13  C   UNL A   1      50.522  21.951  35.943  1.00  0.00     0.135 A 
BRANCH  13  14
ATOM     14  S   UNL A   1      50.933  22.309  34.246  1.00  0.00     0.252 S 
ATOM     15  O   UNL A   1      50.099  21.387  33.506  1.00  0.00    -0.206 OA
ATOM     16  O   UNL A   1      50.765  23.742  34.147  1.00  0.00    -0.206 OA
BRANCH  14  17
ATOM     17  N   UNL A   1      52.538  21.928  33.946  1.00  0.00    -0.193 NA
ATOM     18  C   UNL A   1      53.303  21.007  34.810  1.00  0.00     0.131 C 
ATOM     19  C   UNL A   1      53.330  22.623  32.911  1.00  0.00     0.131 C 
ATOM     20  C   UNL A   1      54.593  21.671  35.306  1.00  0.00     0.177 C 
ATOM     21  C   UNL A   1      54.653  23.162  33.474  1.00  0.00     0.177 C 
ATOM     22  O   UNL A   1      55.378  22.173  34.215  1.00  0.00    -0.379 OA
ENDBRANCH  14  17
ENDBRANCH  13  14
ENDBRANCH   7   9
BRANCH   8  23
ATOM     23  C   UNL A   1      46.782  18.354  39.112  1.00  0.00    -0.025 A 
ATOM     24  C   UNL A   1      46.958  17.752  40.362  1.00  0.00     0.009 A 
ATOM     25  C   UNL A   1      45.635  18.047  38.374  1.00  0.00     0.009 A 
ATOM     26  C   UNL A   1      45.974  16.919  40.896  1.00  0.00     0.009 A 
ATOM     27  C   UNL A   1      44.644  17.213  38.915  1.00  0.00     0.009 A 
ATOM     28  C   UNL A   1      44.786  16.659  40.197  1.00  0.00    -0.018 A 
BRANCH  28  29
ATOM     29  C   UNL A   1      43.713  15.875  40.830  1.00  0.00    -0.018 A 
ATOM     30  C   UNL A   1      43.546  15.916  42.225  1.00  0.00     0.009 A 
ATOM     31  C   UNL A   1      42.833  15.076  40.084  1.00  0.00     0.009 A 
ATOM     32  C   UNL A   1      42.545  15.179  42.859  1.00  0.00     0.001 A 
ATOM     33  C   UNL A   1      41.829  14.336  40.717  1.00  0.00     0.001 A 
ATOM     34  C   UNL A   1      41.686  14.387  42.103  1.00  0.00     0.000 A 
ENDBRANCH  28  29
ENDBRANCH   8  23
ENDBRANCH   5   7
ENDBRANCH   2   3
ENDBRANCH   1   2
BRANCH   1  35
ATOM     35  C   UNL A   1      47.176  24.113  36.087  1.00  0.00     0.118 C 
BRANCH  35  36
ATOM     36  N   UNL A   1      47.531  24.769  37.335  1.00  0.00    -0.352 N 
ATOM     37  C   UNL A   1      47.092  25.940  37.908  1.00  0.00     0.251 C 
ATOM     38  H   UNL A   1      48.209  24.289  37.865  1.00  0.00     0.163 HD
ATOM     39  O   UNL A   1      47.614  26.315  38.956  1.00  0.00    -0.269 OA
BRANCH  37  40
ATOM     40  C   UNL A   1      46.041  26.773  37.273  1.00  0.00     0.039 A 
ATOM     41  C   UNL A   1      46.436  27.819  36.432  1.00  0.00     0.014 A 
ATOM     42  C   UNL A   1      44.682  26.558  37.501  1.00  0.00     0.014 A 
ATOM     43  C   UNL A   1      45.472  28.584  35.764  1.00  0.00     0.010 A 
ATOM     44  C   UNL A   1      43.728  27.239  36.747  1.00  0.00     0.010 A 
ATOM     45  C   UNL A   1      44.109  28.270  35.879  1.00  0.00    -0.014 A 
BRANCH  45  46
ATOM     46  C   UNL A   1      43.074  29.021  35.116  1.00  0.00     0.031 A 
ATOM     47  C   UNL A   1      42.741  28.634  33.697  1.00  0.00     0.074 A 
ATOM     48  C   UNL A   1      42.474  30.091  35.677  1.00  0.00     0.049 A 
ATOM     49  N   UNL A   1      41.895  29.192  32.867  1.00  0.00    -0.248 NA
ATOM     50  C   UNL A   1      43.477  27.496  33.122  1.00  0.00     0.031 C 
ATOM     51  C   UNL A   1      42.755  30.621  37.015  1.00  0.00     0.029 A 
ATOM     52  N   UNL A   1      41.497  30.924  35.193  1.00  0.00    -0.354 N 
ATOM     53  C   UNL A   1      42.024  28.496  31.669  1.00  0.00     0.074 A 
ATOM     54  C   UNL A   1      43.066  27.513  31.863  1.00  0.00     0.031 C 
ATOM     55  C   UNL A   1      41.937  31.657  37.259  1.00  0.00     0.029 A 
ATOM     56  C   UNL A   1      41.097  31.887  36.089  1.00  0.00     0.049 A 
ATOM     57  H   UNL A   1      41.118  30.840  34.288  1.00  0.00     0.167 HD
ATOM     58  C   UNL A   1      41.323  28.639  30.519  1.00  0.00     0.031 A 
ATOM     59  C   UNL A   1      40.151  32.840  35.989  1.00  0.00     0.031 A 
ATOM     60  C   UNL A   1      40.256  29.587  30.337  1.00  0.00     0.049 A 
ATOM     61  C   UNL A   1      39.334  32.933  34.730  1.00  0.00     0.074 A 
ATOM     62  C   UNL A   1      39.437  29.764  29.234  1.00  0.00     0.029 A 
ATOM     63  N   UNL A   1      39.848  30.507  31.290  1.00  0.00    -0.354 N 
ATOM     64  N   UNL A   1      39.431  32.223  33.632  1.00  0.00    -0.248 NA
ATOM     65  C   UNL A   1      38.264  33.940  34.709  1.00  0.00     0.031 C 
ATOM     66  C   UNL A   1      38.552  30.812  29.512  1.00  0.00     0.029 A 
ATOM     67  C   UNL A   1      38.793  31.258  30.802  1.00  0.00     0.049 A 
ATOM     68  H   UNL A   1      40.250  30.611  32.182  1.00  0.00     0.167 HD
ATOM     69  C   UNL A   1      38.420  32.683  32.796  1.00  0.00     0.074 A 
ATOM     70  C   UNL A   1      37.713  33.716  33.525  1.00  0.00     0.031 C 
ATOM     71  C   UNL A   1      38.104  32.286  31.538  1.00  0.00     0.031 A 
BRANCH  58  72
ATOM     72  C   UNL A   1      41.688  27.735  29.370  1.00  0.00    -0.014 A 
ATOM     73  C   UNL A   1      42.684  28.103  28.446  1.00  0.00     0.010 A 
ATOM     74  C   UNL A   1      41.041  26.496  29.220  1.00  0.00     0.010 A 
ATOM     75  C   UNL A   1      42.988  27.274  27.364  1.00  0.00     0.020 A 
ATOM     76  C   UNL A   1      41.363  25.649  28.154  1.00  0.00     0.020 A 
ATOM     77  C   UNL A   1      42.319  26.054  27.220  1.00  0.00     0.054 A 
BRANCH  77  78
ATOM     78  S   UNL A   1      42.738  24.990  25.812  1.00  0.00     0.124 S 
ATOM     79  O   UNL A   1      42.351  25.828  24.679  1.00  0.00    -0.237 OA
ATOM     80  O   UNL A   1      44.174  24.784  25.978  1.00  0.00    -0.237 OA
ATOM     81  O   UNL A   1      41.913  23.803  26.019  1.00  0.00    -0.744 OA
ENDBRANCH  77  78
ENDBRANCH  58  72
BRANCH  59  82
ATOM     82  C   UNL A   1      39.889  33.750  37.135  1.00  0.00    -0.014 A 
ATOM     83  C   UNL A   1      40.467  35.031  37.171  1.00  0.00     0.010 A 
ATOM     84  C   UNL A   1      39.048  33.349  38.189  1.00  0.00     0.010 A 
ATOM     85  C   UNL A   1      40.228  35.888  38.249  1.00  0.00     0.020 A 
ATOM     86  C   UNL A   1      38.786  34.214  39.258  1.00  0.00     0.020 A 
ATOM     87  C   UNL A   1      39.388  35.474  39.285  1.00  0.00     0.054 A 
BRANCH  87  88
ATOM     88  S   UNL A   1      39.045  36.621  40.650  1.00  0.00     0.124 S 
ATOM     89  O   UNL A   1      40.340  36.694  41.317  1.00  0.00    -0.237 OA
ATOM     90  O   UNL A   1      38.625  37.832  39.948  1.00  0.00    -0.237 OA
ATOM     91  O   UNL A   1      37.988  35.948  41.401  1.00  0.00    -0.744 OA
ENDBRANCH  87  88
ENDBRANCH  59  82
BRANCH  71  92
ATOM     92  C   UNL A   1      36.925  32.955  30.888  1.00  0.00    -0.014 A 
ATOM     93  C   UNL A   1      37.084  33.762  29.748  1.00  0.00     0.010 A 
ATOM     94  C   UNL A   1      35.638  32.764  31.423  1.00  0.00     0.010 A 
ATOM     95  C   UNL A   1      35.981  34.409  29.184  1.00  0.00     0.020 A 
ATOM     96  C   UNL A   1      34.530  33.390  30.847  1.00  0.00     0.020 A 
ATOM     97  C   UNL A   1      34.714  34.227  29.744  1.00  0.00     0.054 A 
BRANCH  97  98
ATOM     98  S   UNL A   1      33.293  35.073  28.996  1.00  0.00     0.124 S 
ATOM     99  O   UNL A   1      33.921  36.249  28.402  1.00  0.00    -0.237 OA
ATOM    100  O   UNL A   1      32.789  34.083  28.048  1.00  0.00    -0.237 OA
ATOM    101  O   UNL A   1      32.415  35.340  30.133  1.00  0.00    -0.744 OA
ENDBRANCH  97  98
ENDBRANCH  71  92
ENDBRANCH  45  46
ENDBRANCH  37  40
ENDBRANCH  35  36
ENDBRANCH   1  35
TORSDOF 18
ENDMDL
MODEL 3
REMARK VINA RESULT:      -7.8     10.240     17.003
REMARK SMILES O=C(NCCCNC(=O)c1ccc(-c2c3nc(c(-c4ccc(S(=O)(=O)[O-])cc4)c4ccc([nH]4)c(-c4ccc(S(=O)(=O)[O-])cc4)c4nc(c(-c5ccc(S(=O)(=O)[O-])cc5)c5ccc2[nH]5)C=C4)C=C3)cc1)/C(=C\c1ccc(-c2ccccc2)cc1)c1ccc(S(=O)(=O)N2CCOCC2)s1
REMARK SMILES IDX 5 1 4 2 3 3 1 4 2 5 70 7 71 8 84 9 85 10 97 11 86 12 87 13
REMARK SMILES IDX 88 14 89 15 90 16 91 17 92 18 96 19 93 20 95 21 94 22 72 23
REMARK SMILES IDX 73 24 83 25 74 26 82 27 75 28 76 29 77 30 81 31 78 32 80 33
REMARK SMILES IDX 79 34 6 35 7 36 8 37 9 39 10 40 11 41 69 42 12 43 68 44
REMARK SMILES IDX 13 45 14 46 15 47 62 48 16 49 67 50 61 51 63 52 17 53 66 54
REMARK SMILES IDX 60 55 59 56 18 58 48 59 29 60 47 61 30 62 33 63 46 64 64 65
REMARK SMILES IDX 31 66 32 67 45 69 65 70 34 71 19 72 20 73 28 74 21 75 27 76
REMARK SMILES IDX 22 77 23 78 24 79 25 80 26 81 49 82 50 83 58 84 51 85 57 86
REMARK SMILES IDX 52 87 53 88 54 89 55 90 56 91 35 92 36 93 44 94 37 95 43 96
REMARK SMILES IDX 38 97 39 98 40 99 41 100 42 101
REMARK H PARENT 3 6 7 38 63 57 33 68
REMARK Flexibility Score: inf
ROOT
ATOM      1  C   UNL A   1      43.626  39.195  26.589  1.00  0.00     0.042 C 
ENDROOT
BRANCH   1   2
ATOM      2  C   UNL A   1      42.906  40.522  26.423  1.00  0.00     0.118 C 
BRANCH   2   3
ATOM      3  N   UNL A   1      43.629  41.689  26.898  1.00  0.00    -0.352 N 
ATOM      4  O   UNL A   1      44.771  43.591  26.855  1.00  0.00    -0.269 OA
ATOM      5  C   UNL A   1      44.439  42.576  26.243  1.00  0.00     0.252 C 
ATOM      6  H   UNL A   1      43.517  41.873  27.859  1.00  0.00     0.163 HD
BRANCH   5   7
ATOM      7  C   UNL A   1      44.919  42.322  24.840  1.00  0.00     0.057 C 
ATOM      8  C   UNL A   1      45.985  41.514  24.619  1.00  0.00     0.023 C 
BRANCH   7   9
ATOM      9  C   UNL A   1      44.249  42.896  23.705  1.00  0.00     0.041 A 
ATOM     10  C   UNL A   1      42.975  42.695  23.190  1.00  0.00     0.022 A 
ATOM     11  S   UNL A   1      45.099  43.968  22.663  1.00  0.00    -0.122 S 
ATOM     12  C   UNL A   1      42.853  43.159  21.835  1.00  0.00     0.034 A 
ATOM     13  C   UNL A   1      44.009  43.769  21.389  1.00  0.00     0.135 A 
BRANCH  13  14
ATOM     14  S   UNL A   1      44.551  44.375  19.801  1.00  0.00     0.252 S 
ATOM     15  O   UNL A   1      44.837  45.769  20.063  1.00  0.00    -0.206 OA
ATOM     16  O   UNL A   1      45.583  43.440  19.412  1.00  0.00    -0.206 OA
BRANCH  14  17
ATOM     17  N   UNL A   1      43.296  44.292  18.691  1.00  0.00    -0.193 NA
ATOM     18  C   UNL A   1      43.042  45.366  17.710  1.00  0.00     0.131 C 
ATOM     19  C   UNL A   1      42.270  43.232  18.745  1.00  0.00     0.131 C 
ATOM     20  C   UNL A   1      41.593  45.859  17.806  1.00  0.00     0.177 C 
ATOM     21  C   UNL A   1      40.849  43.815  18.730  1.00  0.00     0.177 C 
ATOM     22  O   UNL A   1      40.661  44.776  17.683  1.00  0.00    -0.379 OA
ENDBRANCH  14  17
ENDBRANCH  13  14
ENDBRANCH   7   9
BRANCH   8  23
ATOM     23  C   UNL A   1      46.798  40.710  25.542  1.00  0.00    -0.025 A 
ATOM     24  C   UNL A   1      47.440  41.379  26.589  1.00  0.00     0.009 A 
ATOM     25  C   UNL A   1      47.050  39.347  25.362  1.00  0.00     0.009 A 
ATOM     26  C   UNL A   1      48.257  40.685  27.482  1.00  0.00     0.009 A 
ATOM     27  C   UNL A   1      47.868  38.650  26.264  1.00  0.00     0.009 A 
ATOM     28  C   UNL A   1      48.462  39.304  27.356  1.00  0.00    -0.018 A 
BRANCH  28  29
ATOM     29  C   UNL A   1      49.230  38.574  28.377  1.00  0.00    -0.018 A 
ATOM     30  C   UNL A   1      48.641  37.490  29.053  1.00  0.00     0.009 A 
ATOM     31  C   UNL A   1      50.548  38.920  28.709  1.00  0.00     0.009 A 
ATOM     32  C   UNL A   1      49.338  36.781  30.033  1.00  0.00     0.001 A 
ATOM     33  C   UNL A   1      51.248  38.211  29.691  1.00  0.00     0.001 A 
ATOM     34  C   UNL A   1      50.642  37.143  30.353  1.00  0.00     0.000 A 
ENDBRANCH  28  29
ENDBRANCH   8  23
ENDBRANCH   5   7
ENDBRANCH   2   3
ENDBRANCH   1   2
BRANCH   1  35
ATOM     35  C   UNL A   1      43.345  38.433  27.872  1.00  0.00     0.118 C 
BRANCH  35  36
ATOM     36  N   UNL A   1      42.096  37.687  27.866  1.00  0.00    -0.352 N 
ATOM     37  C   UNL A   1      41.834  36.349  27.683  1.00  0.00     0.251 C 
ATOM     38  H   UNL A   1      41.295  38.239  28.019  1.00  0.00     0.163 HD
ATOM     39  O   UNL A   1      40.662  35.978  27.652  1.00  0.00    -0.269 OA
BRANCH  37  40
ATOM     40  C   UNL A   1      42.921  35.360  27.483  1.00  0.00     0.039 A 
ATOM     41  C   UNL A   1      43.319  35.061  26.176  1.00  0.00     0.014 A 
ATOM     42  C   UNL A   1      43.543  34.711  28.549  1.00  0.00     0.014 A 
ATOM     43  C   UNL A   1      44.385  34.183  25.950  1.00  0.00     0.010 A 
ATOM     44  C   UNL A   1      44.678  33.933  28.331  1.00  0.00     0.010 A 
ATOM     45  C   UNL A   1      45.106  33.646  27.029  1.00  0.00    -0.014 A 
BRANCH  45  46
ATOM     46  C   UNL A   1      46.292  32.774  26.810  1.00  0.00     0.031 A 
ATOM     47  C   UNL A   1      47.666  33.377  26.651  1.00  0.00     0.074 A 
ATOM     48  C   UNL A   1      46.129  31.439  26.695  1.00  0.00     0.049 A 
ATOM     49  N   UNL A   1      48.807  32.778  26.420  1.00  0.00    -0.248 NA
ATOM     50  C   UNL A   1      47.766  34.843  26.725  1.00  0.00     0.031 C 
ATOM     51  C   UNL A   1      44.847  30.730  26.754  1.00  0.00     0.029 A 
ATOM     52  N   UNL A   1      47.050  30.439  26.508  1.00  0.00    -0.354 N 
ATOM     53  C   UNL A   1      49.749  33.794  26.289  1.00  0.00     0.074 A 
ATOM     54  C   UNL A   1      49.037  35.046  26.411  1.00  0.00     0.031 C 
ATOM     55  C   UNL A   1      45.069  29.410  26.652  1.00  0.00     0.029 A 
ATOM     56  C   UNL A   1      46.501  29.178  26.490  1.00  0.00     0.049 A 
ATOM     57  H   UNL A   1      48.013  30.608  26.396  1.00  0.00     0.167 HD
ATOM     58  C   UNL A   1      51.088  33.699  26.111  1.00  0.00     0.031 A 
ATOM     59  C   UNL A   1      47.082  27.970  26.371  1.00  0.00     0.031 A 
ATOM     60  C   UNL A   1      51.806  32.455  26.033  1.00  0.00     0.049 A 
ATOM     61  C   UNL A   1      48.578  27.885  26.249  1.00  0.00     0.074 A 
ATOM     62  C   UNL A   1      53.171  32.250  25.922  1.00  0.00     0.029 A 
ATOM     63  N   UNL A   1      51.215  31.201  26.073  1.00  0.00    -0.354 N 
ATOM     64  N   UNL A   1      49.456  28.858  26.189  1.00  0.00    -0.248 NA
ATOM     65  C   UNL A   1      49.162  26.537  26.203  1.00  0.00     0.031 C 
ATOM     66  C   UNL A   1      53.403  30.871  25.868  1.00  0.00     0.029 A 
ATOM     67  C   UNL A   1      52.186  30.218  25.986  1.00  0.00     0.049 A 
ATOM     68  H   UNL A   1      50.249  31.034  26.152  1.00  0.00     0.167 HD
ATOM     69  C   UNL A   1      50.699  28.239  26.120  1.00  0.00     0.074 A 
ATOM     70  C   UNL A   1      50.459  26.811  26.167  1.00  0.00     0.031 C 
ATOM     71  C   UNL A   1      51.929  28.802  26.028  1.00  0.00     0.031 A 
BRANCH  58  72
ATOM     72  C   UNL A   1      51.863  34.986  25.999  1.00  0.00    -0.014 A 
ATOM     73  C   UNL A   1      52.462  35.572  27.131  1.00  0.00     0.010 A 
ATOM     74  C   UNL A   1      52.010  35.611  24.748  1.00  0.00     0.010 A 
ATOM     75  C   UNL A   1      53.146  36.785  27.022  1.00  0.00     0.020 A 
ATOM     76  C   UNL A   1      52.720  36.811  24.630  1.00  0.00     0.020 A 
ATOM     77  C   UNL A   1      53.264  37.401  25.773  1.00  0.00     0.054 A 
BRANCH  77  78
ATOM     78  S   UNL A   1      54.166  38.971  25.656  1.00  0.00     0.124 S 
ATOM     79  O   UNL A   1      53.675  39.685  26.832  1.00  0.00    -0.237 OA
ATOM     80  O   UNL A   1      55.562  38.547  25.717  1.00  0.00    -0.237 OA
ATOM     81  O   UNL A   1      53.739  39.520  24.371  1.00  0.00    -0.744 OA
ENDBRANCH  77  78
ENDBRANCH  58  72
BRANCH  59  82
ATOM     82  C   UNL A   1      46.251  26.737  26.416  1.00  0.00    -0.014 A 
ATOM     83  C   UNL A   1      45.838  26.204  27.650  1.00  0.00     0.010 A 
ATOM     84  C   UNL A   1      45.853  26.100  25.227  1.00  0.00     0.010 A 
ATOM     85  C   UNL A   1      45.061  25.044  27.697  1.00  0.00     0.020 A 
ATOM     86  C   UNL A   1      45.054  24.952  25.269  1.00  0.00     0.020 A 
ATOM     87  C   UNL A   1      44.673  24.425  26.505  1.00  0.00     0.054 A 
BRANCH  87  88
ATOM     88  S   UNL A   1      43.618  22.950  26.585  1.00  0.00     0.124 S 
ATOM     89  O   UNL A   1      43.698  22.597  27.997  1.00  0.00    -0.237 OA
ATOM     90  O   UNL A   1      42.325  23.459  26.131  1.00  0.00    -0.237 OA
ATOM     91  O   UNL A   1      44.268  22.018  25.666  1.00  0.00    -0.744 OA
ENDBRANCH  87  88
ENDBRANCH  59  82
BRANCH  71  92
ATOM     92  C   UNL A   1      53.107  27.867  26.000  1.00  0.00    -0.014 A 
ATOM     93  C   UNL A   1      53.746  27.468  27.187  1.00  0.00     0.010 A 
ATOM     94  C   UNL A   1      53.572  27.374  24.768  1.00  0.00     0.010 A 
ATOM     95  C   UNL A   1      54.864  26.632  27.138  1.00  0.00     0.020 A 
ATOM     96  C   UNL A   1      54.675  26.519  24.717  1.00  0.00     0.020 A 
ATOM     97  C   UNL A   1      55.328  26.172  25.902  1.00  0.00     0.054 A 
BRANCH  97  98
ATOM     98  S   UNL A   1      56.780  25.085  25.858  1.00  0.00     0.124 S 
ATOM     99  O   UNL A   1      57.828  26.000  25.413  1.00  0.00    -0.237 OA
ATOM    100  O   UNL A   1      56.889  24.632  27.242  1.00  0.00    -0.237 OA
ATOM    101  O   UNL A   1      56.405  24.049  24.898  1.00  0.00    -0.744 OA
ENDBRANCH  97  98
ENDBRANCH  71  92
ENDBRANCH  45  46
ENDBRANCH  37  40
ENDBRANCH  35  36
ENDBRANCH   1  35
TORSDOF 18
ENDMDL
