MODEL 1
REMARK VINA RESULT:     -10.1      0.000      0.000
REMARK SMILES Cc1nonc1C[C@@]1(C(=O)NCCCNC(=O)c2ccc(-c3c4nc(c(-c5ccc(S(=O)(=O)[O-])cc5)c5ccc([nH]5)c(-c5ccc(S(=O)(=O)[O-])cc5)c5nc(c(-c6ccc(S(=O)(=O)[O-])cc6)c6ccc3[nH]6)C=C5)C=C4)cc2)CCC[NH2+]C1
REMARK SMILES IDX 13 1 12 2 11 3 9 4 10 5 8 7 78 8 82 9 79 10 81 11 80 12 7 15
REMARK SMILES IDX 6 16 1 17 2 18 3 19 4 20 5 21 14 22 15 23 16 24 17 26 18 27
REMARK SMILES IDX 19 28 77 29 20 30 76 31 21 32 22 33 23 34 70 35 24 36 75 37
REMARK SMILES IDX 69 38 71 39 25 40 74 41 68 42 67 43 26 45 56 46 37 47 55 48
REMARK SMILES IDX 38 49 41 50 54 51 72 52 39 53 40 54 53 56 73 57 42 58 27 59
REMARK SMILES IDX 28 60 36 61 29 62 35 63 30 64 31 65 32 66 33 67 34 68 57 69
REMARK SMILES IDX 58 70 66 71 59 72 65 73 60 74 61 75 62 76 63 77 64 78 43 79
REMARK SMILES IDX 44 80 52 81 45 82 51 83 46 84 47 85 48 86 49 87 50 88
REMARK H PARENT 11 6 81 13 81 14 15 25 71 44 41 55
REMARK Flexibility Score: inf
ROOT
ATOM      1  C   UNL A   1      41.313  21.610  26.049  1.00  0.00     0.042 C 
ENDROOT
BRANCH   1   2
ATOM      2  C   UNL A   1      42.412  22.448  26.688  1.00  0.00     0.117 C 
BRANCH   2   3
ATOM      3  N   UNL A   1      42.771  23.576  25.852  1.00  0.00    -0.355 N 
ATOM      4  C   UNL A   1      43.905  23.958  25.214  1.00  0.00     0.232 C 
ATOM      5  O   UNL A   1      43.838  25.066  24.669  1.00  0.00    -0.274 OA
ATOM      6  H   UNL A   1      42.025  24.205  25.718  1.00  0.00     0.163 HD
BRANCH   4   7
ATOM      7  C   UNL A   1      45.183  23.093  25.146  1.00  0.00     0.104 C 
ATOM      8  C   UNL A   1      45.592  22.647  26.586  1.00  0.00     0.029 C 
ATOM      9  C   UNL A   1      46.369  23.915  24.570  1.00  0.00     0.277 C 
ATOM     10  C   UNL A   1      46.150  23.790  27.439  1.00  0.00     0.063 C 
ATOM     11  N   UNL A   1      46.809  25.026  25.415  1.00  0.00    -0.345 N 
ATOM     12  C   UNL A   1      47.255  24.552  26.721  1.00  0.00     0.260 C 
ATOM     13  H   UNL A   1      47.580  25.508  24.955  1.00  0.00     0.346 HD
ATOM     14  H   UNL A   1      46.021  25.657  25.553  1.00  0.00     0.346 HD
BRANCH   7  15
ATOM     15  C   UNL A   1      44.990  21.829  24.256  1.00  0.00     0.085 C 
BRANCH  15  16
ATOM     16  C   UNL A   1      45.638  20.547  24.664  1.00  0.00     0.109 A 
ATOM     17  C   UNL A   1      43.597  18.965  25.151  1.00  0.00     0.073 C 
ATOM     18  C   UNL A   1      45.026  19.328  25.035  1.00  0.00     0.105 A 
ATOM     19  N   UNL A   1      45.968  18.417  25.287  1.00  0.00    -0.055 NA
ATOM     20  O   UNL A   1      47.172  19.069  25.061  1.00  0.00    -0.244 OA
ATOM     21  N   UNL A   1      46.960  20.379  24.654  1.00  0.00    -0.055 NA
ENDBRANCH  15  16
ENDBRANCH   7  15
ENDBRANCH   4   7
ENDBRANCH   2   3
ENDBRANCH   1   2
BRANCH   1  22
ATOM     22  C   UNL A   1      40.077  21.445  26.924  1.00  0.00     0.118 C 
BRANCH  22  23
ATOM     23  N   UNL A   1      38.874  21.975  26.295  1.00  0.00    -0.352 N 
ATOM     24  C   UNL A   1      38.374  23.254  26.295  1.00  0.00     0.251 C 
ATOM     25  H   UNL A   1      38.339  21.317  25.795  1.00  0.00     0.163 HD
ATOM     26  O   UNL A   1      37.237  23.458  25.874  1.00  0.00    -0.269 OA
BRANCH  24  27
ATOM     27  C   UNL A   1      39.183  24.373  26.822  1.00  0.00     0.039 A 
ATOM     28  C   UNL A   1      39.852  25.206  25.923  1.00  0.00     0.014 A 
ATOM     29  C   UNL A   1      39.289  24.602  28.197  1.00  0.00     0.014 A 
ATOM     30  C   UNL A   1      40.568  26.307  26.399  1.00  0.00     0.010 A 
ATOM     31  C   UNL A   1      39.926  25.748  28.664  1.00  0.00     0.010 A 
ATOM     32  C   UNL A   1      40.576  26.612  27.771  1.00  0.00    -0.014 A 
BRANCH  32  33
ATOM     33  C   UNL A   1      41.250  27.832  28.286  1.00  0.00     0.031 A 
ATOM     34  C   UNL A   1      42.753  27.922  28.300  1.00  0.00     0.074 A 
ATOM     35  C   UNL A   1      40.509  28.835  28.800  1.00  0.00     0.049 A 
ATOM     36  N   UNL A   1      43.516  28.882  28.756  1.00  0.00    -0.248 NA
ATOM     37  C   UNL A   1      43.495  26.775  27.752  1.00  0.00     0.031 C 
ATOM     38  C   UNL A   1      39.047  28.851  28.883  1.00  0.00     0.029 A 
ATOM     39  N   UNL A   1      40.885  30.033  29.356  1.00  0.00    -0.354 N 
ATOM     40  C   UNL A   1      44.823  28.450  28.564  1.00  0.00     0.074 A 
ATOM     41  C   UNL A   1      44.750  27.121  28.000  1.00  0.00     0.031 C 
ATOM     42  C   UNL A   1      38.649  30.013  29.427  1.00  0.00     0.029 A 
ATOM     43  C   UNL A   1      39.825  30.803  29.777  1.00  0.00     0.049 A 
ATOM     44  H   UNL A   1      41.823  30.315  29.445  1.00  0.00     0.167 HD
ATOM     45  C   UNL A   1      45.981  29.108  28.817  1.00  0.00     0.031 A 
ATOM     46  C   UNL A   1      39.800  32.005  30.385  1.00  0.00     0.031 A 
ATOM     47  C   UNL A   1      46.050  30.433  29.377  1.00  0.00     0.049 A 
ATOM     48  C   UNL A   1      41.099  32.706  30.676  1.00  0.00     0.074 A 
ATOM     49  C   UNL A   1      47.171  31.205  29.620  1.00  0.00     0.029 A 
ATOM     50  N   UNL A   1      44.954  31.178  29.786  1.00  0.00    -0.354 N 
ATOM     51  N   UNL A   1      42.323  32.311  30.420  1.00  0.00    -0.248 NA
ATOM     52  C   UNL A   1      41.012  34.022  31.325  1.00  0.00     0.031 C 
ATOM     53  C   UNL A   1      46.759  32.392  30.234  1.00  0.00     0.029 A 
ATOM     54  C   UNL A   1      45.375  32.389  30.308  1.00  0.00     0.049 A 
ATOM     55  H   UNL A   1      44.015  30.889  29.718  1.00  0.00     0.167 HD
ATOM     56  C   UNL A   1      43.151  33.342  30.852  1.00  0.00     0.074 A 
ATOM     57  C   UNL A   1      42.286  34.383  31.367  1.00  0.00     0.031 C 
ATOM     58  C   UNL A   1      44.505  33.419  30.821  1.00  0.00     0.031 A 
BRANCH  45  59
ATOM     59  C   UNL A   1      47.272  28.398  28.498  1.00  0.00    -0.014 A 
ATOM     60  C   UNL A   1      47.898  27.563  29.443  1.00  0.00     0.010 A 
ATOM     61  C   UNL A   1      47.846  28.531  27.221  1.00  0.00     0.010 A 
ATOM     62  C   UNL A   1      49.093  26.910  29.129  1.00  0.00     0.020 A 
ATOM     63  C   UNL A   1      49.025  27.854  26.893  1.00  0.00     0.020 A 
ATOM     64  C   UNL A   1      49.650  27.061  27.857  1.00  0.00     0.054 A 
BRANCH  64  65
ATOM     65  S   UNL A   1      51.187  26.179  27.472  1.00  0.00     0.124 S 
ATOM     66  O   UNL A   1      52.002  26.467  28.650  1.00  0.00    -0.237 OA
ATOM     67  O   UNL A   1      50.738  24.795  27.343  1.00  0.00    -0.237 OA
ATOM     68  O   UNL A   1      51.645  26.801  26.233  1.00  0.00    -0.744 OA
ENDBRANCH  64  65
ENDBRANCH  45  59
BRANCH  46  69
ATOM     69  C   UNL A   1      38.496  32.625  30.752  1.00  0.00    -0.014 A 
ATOM     70  C   UNL A   1      38.038  32.598  32.082  1.00  0.00     0.010 A 
ATOM     71  C   UNL A   1      37.709  33.259  29.773  1.00  0.00     0.010 A 
ATOM     72  C   UNL A   1      36.812  33.176  32.422  1.00  0.00     0.020 A 
ATOM     73  C   UNL A   1      36.497  33.866  30.114  1.00  0.00     0.020 A 
ATOM     74  C   UNL A   1      36.051  33.811  31.435  1.00  0.00     0.054 A 
BRANCH  74  75
ATOM     75  S   UNL A   1      34.488  34.602  31.911  1.00  0.00     0.124 S 
ATOM     76  O   UNL A   1      34.931  35.584  32.896  1.00  0.00    -0.237 OA
ATOM     77  O   UNL A   1      34.012  35.146  30.642  1.00  0.00    -0.237 OA
ATOM     78  O   UNL A   1      33.694  33.496  32.442  1.00  0.00    -0.744 OA
ENDBRANCH  74  75
ENDBRANCH  46  69
BRANCH  58  79
ATOM     79  C   UNL A   1      45.140  34.688  31.324  1.00  0.00    -0.014 A 
ATOM     80  C   UNL A   1      45.547  34.825  32.663  1.00  0.00     0.010 A 
ATOM     81  C   UNL A   1      45.385  35.742  30.424  1.00  0.00     0.010 A 
ATOM     82  C   UNL A   1      46.156  36.005  33.100  1.00  0.00     0.020 A 
ATOM     83  C   UNL A   1      46.023  36.911  30.848  1.00  0.00     0.020 A 
ATOM     84  C   UNL A   1      46.391  37.041  32.188  1.00  0.00     0.054 A 
BRANCH  84  85
ATOM     85  S   UNL A   1      47.222  38.543  32.771  1.00  0.00     0.124 S 
ATOM     86  O   UNL A   1      48.187  38.007  33.726  1.00  0.00    -0.237 OA
ATOM     87  O   UNL A   1      47.791  39.091  31.542  1.00  0.00    -0.237 OA
ATOM     88  O   UNL A   1      46.141  39.333  33.356  1.00  0.00    -0.744 OA
ENDBRANCH  84  85
ENDBRANCH  58  79
ENDBRANCH  32  33
ENDBRANCH  24  27
ENDBRANCH  22  23
ENDBRANCH   1  22
TORSDOF 15
ENDMDL
MODEL 2
REMARK VINA RESULT:      -9.9      3.375      6.827
REMARK SMILES Cc1nonc1C[C@@]1(C(=O)NCCCNC(=O)c2ccc(-c3c4nc(c(-c5ccc(S(=O)(=O)[O-])cc5)c5ccc([nH]5)c(-c5ccc(S(=O)(=O)[O-])cc5)c5nc(c(-c6ccc(S(=O)(=O)[O-])cc6)c6ccc3[nH]6)C=C5)C=C4)cc2)CCC[NH2+]C1
REMARK SMILES IDX 13 1 12 2 11 3 9 4 10 5 8 7 78 8 82 9 79 10 81 11 80 12 7 15
REMARK SMILES IDX 6 16 1 17 2 18 3 19 4 20 5 21 14 22 15 23 16 24 17 26 18 27
REMARK SMILES IDX 19 28 77 29 20 30 76 31 21 32 22 33 23 34 70 35 24 36 75 37
REMARK SMILES IDX 69 38 71 39 25 40 74 41 68 42 67 43 26 45 56 46 37 47 55 48
REMARK SMILES IDX 38 49 41 50 54 51 72 52 39 53 40 54 53 56 73 57 42 58 27 59
REMARK SMILES IDX 28 60 36 61 29 62 35 63 30 64 31 65 32 66 33 67 34 68 57 69
REMARK SMILES IDX 58 70 66 71 59 72 65 73 60 74 61 75 62 76 63 77 64 78 43 79
REMARK SMILES IDX 44 80 52 81 45 82 51 83 46 84 47 85 48 86 49 87 50 88
REMARK H PARENT 11 6 81 13 81 14 15 25 71 44 41 55
REMARK Flexibility Score: inf
ROOT
ATOM      1  C   UNL A   1      38.200  19.960  25.048  1.00  0.00     0.042 C 
ENDROOT
BRANCH   1   2
ATOM      2  C   UNL A   1      37.059  20.967  24.991  1.00  0.00     0.117 C 
BRANCH   2   3
ATOM      3  N   UNL A   1      35.771  20.312  25.084  1.00  0.00    -0.355 N 
ATOM      4  C   UNL A   1      34.488  20.750  25.153  1.00  0.00     0.232 C 
ATOM      5  O   UNL A   1      33.650  19.858  25.328  1.00  0.00    -0.274 OA
ATOM      6  H   UNL A   1      35.841  19.330  25.101  1.00  0.00     0.163 HD
BRANCH   4   7
ATOM      7  C   UNL A   1      34.082  22.233  25.012  1.00  0.00     0.104 C 
ATOM      8  C   UNL A   1      34.414  22.996  26.333  1.00  0.00     0.029 C 
ATOM      9  C   UNL A   1      32.549  22.360  24.786  1.00  0.00     0.277 C 
ATOM     10  C   UNL A   1      33.487  22.628  27.496  1.00  0.00     0.063 C 
ATOM     11  N   UNL A   1      31.728  21.934  25.921  1.00  0.00    -0.345 N 
ATOM     12  C   UNL A   1      32.018  22.728  27.110  1.00  0.00     0.260 C 
ATOM     13  H   UNL A   1      30.744  22.045  25.678  1.00  0.00     0.346 HD
ATOM     14  H   UNL A   1      31.941  20.959  26.124  1.00  0.00     0.346 HD
BRANCH   7  15
ATOM     15  C   UNL A   1      34.807  22.931  23.823  1.00  0.00     0.085 C 
BRANCH  15  16
ATOM     16  C   UNL A   1      34.048  23.900  22.977  1.00  0.00     0.109 A 
ATOM     17  C   UNL A   1      33.894  26.038  24.496  1.00  0.00     0.073 C 
ATOM     18  C   UNL A   1      33.675  25.230  23.277  1.00  0.00     0.105 A 
ATOM     19  N   UNL A   1      33.042  25.761  22.229  1.00  0.00    -0.055 NA
ATOM     20  O   UNL A   1      33.032  24.760  21.268  1.00  0.00    -0.244 OA
ATOM     21  N   UNL A   1      33.676  23.620  21.728  1.00  0.00    -0.055 NA
ENDBRANCH  15  16
ENDBRANCH   7  15
ENDBRANCH   4   7
ENDBRANCH   2   3
ENDBRANCH   1   2
BRANCH   1  22
ATOM     22  C   UNL A   1      39.362  20.395  25.933  1.00  0.00     0.118 C 
BRANCH  22  23
ATOM     23  N   UNL A   1      40.366  19.351  26.089  1.00  0.00    -0.352 N 
ATOM     24  C   UNL A   1      41.728  19.455  26.226  1.00  0.00     0.251 C 
ATOM     25  H   UNL A   1      40.015  18.431  26.098  1.00  0.00     0.163 HD
ATOM     26  O   UNL A   1      42.423  18.445  26.143  1.00  0.00    -0.269 OA
BRANCH  24  27
ATOM     27  C   UNL A   1      42.359  20.775  26.444  1.00  0.00     0.039 A 
ATOM     28  C   UNL A   1      42.642  21.580  25.338  1.00  0.00     0.014 A 
ATOM     29  C   UNL A   1      42.676  21.218  27.731  1.00  0.00     0.014 A 
ATOM     30  C   UNL A   1      43.177  22.856  25.530  1.00  0.00     0.010 A 
ATOM     31  C   UNL A   1      43.124  22.521  27.925  1.00  0.00     0.010 A 
ATOM     32  C   UNL A   1      43.384  23.354  26.827  1.00  0.00    -0.014 A 
BRANCH  32  33
ATOM     33  C   UNL A   1      43.861  24.743  27.054  1.00  0.00     0.031 A 
ATOM     34  C   UNL A   1      45.315  25.088  26.866  1.00  0.00     0.074 A 
ATOM     35  C   UNL A   1      42.995  25.681  27.489  1.00  0.00     0.049 A 
ATOM     36  N   UNL A   1      45.922  26.230  27.065  1.00  0.00    -0.248 NA
ATOM     37  C   UNL A   1      46.206  24.004  26.421  1.00  0.00     0.031 C 
ATOM     38  C   UNL A   1      41.570  25.464  27.749  1.00  0.00     0.029 A 
ATOM     39  N   UNL A   1      43.188  27.006  27.795  1.00  0.00    -0.354 N 
ATOM     40  C   UNL A   1      47.264  25.999  26.784  1.00  0.00     0.074 A 
ATOM     41  C   UNL A   1      47.390  24.596  26.453  1.00  0.00     0.031 C 
ATOM     42  C   UNL A   1      41.013  26.620  28.145  1.00  0.00     0.029 A 
ATOM     43  C   UNL A   1      42.047  27.648  28.216  1.00  0.00     0.049 A 
ATOM     44  H   UNL A   1      44.061  27.454  27.720  1.00  0.00     0.167 HD
ATOM     45  C   UNL A   1      48.295  26.877  26.783  1.00  0.00     0.031 A 
ATOM     46  C   UNL A   1      41.852  28.917  28.622  1.00  0.00     0.031 A 
ATOM     47  C   UNL A   1      48.165  28.273  27.111  1.00  0.00     0.049 A 
ATOM     48  C   UNL A   1      43.017  29.870  28.633  1.00  0.00     0.074 A 
ATOM     49  C   UNL A   1      49.138  29.256  27.087  1.00  0.00     0.029 A 
ATOM     50  N   UNL A   1      46.992  28.883  27.529  1.00  0.00    -0.354 N 
ATOM     51  N   UNL A   1      44.264  29.648  28.294  1.00  0.00    -0.248 NA
ATOM     52  C   UNL A   1      42.744  31.246  29.070  1.00  0.00     0.031 C 
ATOM     53  C   UNL A   1      48.569  30.447  27.550  1.00  0.00     0.029 A 
ATOM     54  C   UNL A   1      47.223  30.222  27.794  1.00  0.00     0.049 A 
ATOM     55  H   UNL A   1      46.122  28.431  27.624  1.00  0.00     0.167 HD
ATOM     56  C   UNL A   1      44.920  30.866  28.450  1.00  0.00     0.074 A 
ATOM     57  C   UNL A   1      43.926  31.821  28.896  1.00  0.00     0.031 C 
ATOM     58  C   UNL A   1      46.226  31.164  28.240  1.00  0.00     0.031 A 
BRANCH  45  59
ATOM     59  C   UNL A   1      49.662  26.352  26.424  1.00  0.00    -0.014 A 
ATOM     60  C   UNL A   1      50.144  26.418  25.103  1.00  0.00     0.010 A 
ATOM     61  C   UNL A   1      50.495  25.824  27.427  1.00  0.00     0.010 A 
ATOM     62  C   UNL A   1      51.414  25.930  24.787  1.00  0.00     0.020 A 
ATOM     63  C   UNL A   1      51.779  25.364  27.121  1.00  0.00     0.020 A 
ATOM     64  C   UNL A   1      52.223  25.404  25.798  1.00  0.00     0.054 A 
BRANCH  64  65
ATOM     65  S   UNL A   1      53.878  24.803  25.361  1.00  0.00     0.124 S 
ATOM     66  O   UNL A   1      54.190  25.612  24.184  1.00  0.00    -0.237 OA
ATOM     67  O   UNL A   1      54.656  25.111  26.557  1.00  0.00    -0.237 OA
ATOM     68  O   UNL A   1      53.674  23.381  25.100  1.00  0.00    -0.744 OA
ENDBRANCH  64  65
ENDBRANCH  45  59
BRANCH  46  69
ATOM     69  C   UNL A   1      40.494  29.363  29.044  1.00  0.00    -0.014 A 
ATOM     70  C   UNL A   1      40.185  29.529  30.406  1.00  0.00     0.010 A 
ATOM     71  C   UNL A   1      39.505  29.637  28.083  1.00  0.00     0.010 A 
ATOM     72  C   UNL A   1      38.909  29.942  30.799  1.00  0.00     0.020 A 
ATOM     73  C   UNL A   1      38.237  30.081  28.469  1.00  0.00     0.020 A 
ATOM     74  C   UNL A   1      37.944  30.220  29.826  1.00  0.00     0.054 A 
BRANCH  74  75
ATOM     75  S   UNL A   1      36.311  30.808  30.358  1.00  0.00     0.124 S 
ATOM     76  O   UNL A   1      36.636  32.086  30.983  1.00  0.00    -0.237 OA
ATOM     77  O   UNL A   1      35.579  30.886  29.097  1.00  0.00    -0.237 OA
ATOM     78  O   UNL A   1      35.854  29.761  31.271  1.00  0.00    -0.744 OA
ENDBRANCH  74  75
ENDBRANCH  46  69
BRANCH  58  79
ATOM     79  C   UNL A   1      46.655  32.593  28.451  1.00  0.00    -0.014 A 
ATOM     80  C   UNL A   1      46.562  33.545  27.421  1.00  0.00     0.010 A 
ATOM     81  C   UNL A   1      47.105  32.999  29.721  1.00  0.00     0.010 A 
ATOM     82  C   UNL A   1      46.946  34.871  27.648  1.00  0.00     0.020 A 
ATOM     83  C   UNL A   1      47.458  34.329  29.962  1.00  0.00     0.020 A 
ATOM     84  C   UNL A   1      47.390  35.254  28.919  1.00  0.00     0.054 A 
BRANCH  84  85
ATOM     85  S   UNL A   1      47.839  36.989  29.198  1.00  0.00     0.124 S 
ATOM     86  O   UNL A   1      46.984  37.683  28.240  1.00  0.00    -0.237 OA
ATOM     87  O   UNL A   1      47.495  37.186  30.604  1.00  0.00    -0.237 OA
ATOM     88  O   UNL A   1      49.269  37.030  28.901  1.00  0.00    -0.744 OA
ENDBRANCH  84  85
ENDBRANCH  58  79
ENDBRANCH  32  33
ENDBRANCH  24  27
ENDBRANCH  22  23
ENDBRANCH   1  22
TORSDOF 15
ENDMDL
MODEL 3
REMARK VINA RESULT:      -9.9      3.787      6.745
REMARK SMILES Cc1nonc1C[C@@]1(C(=O)NCCCNC(=O)c2ccc(-c3c4nc(c(-c5ccc(S(=O)(=O)[O-])cc5)c5ccc([nH]5)c(-c5ccc(S(=O)(=O)[O-])cc5)c5nc(c(-c6ccc(S(=O)(=O)[O-])cc6)c6ccc3[nH]6)C=C5)C=C4)cc2)CCC[NH2+]C1
REMARK SMILES IDX 13 1 12 2 11 3 9 4 10 5 8 7 78 8 82 9 79 10 81 11 80 12 7 15
REMARK SMILES IDX 6 16 1 17 2 18 3 19 4 20 5 21 14 22 15 23 16 24 17 26 18 27
REMARK SMILES IDX 19 28 77 29 20 30 76 31 21 32 22 33 23 34 70 35 24 36 75 37
REMARK SMILES IDX 69 38 71 39 25 40 74 41 68 42 67 43 26 45 56 46 37 47 55 48
REMARK SMILES IDX 38 49 41 50 54 51 72 52 39 53 40 54 53 56 73 57 42 58 27 59
REMARK SMILES IDX 28 60 36 61 29 62 35 63 30 64 31 65 32 66 33 67 34 68 57 69
REMARK SMILES IDX 58 70 66 71 59 72 65 73 60 74 61 75 62 76 63 77 64 78 43 79
REMARK SMILES IDX 44 80 52 81 45 82 51 83 46 84 47 85 48 86 49 87 50 88
REMARK H PARENT 11 6 81 13 81 14 15 25 71 44 41 55
REMARK Flexibility Score: inf
ROOT
ATOM      1  C   UNL A   1      35.607  23.549  25.459  1.00  0.00     0.042 C 
ENDROOT
BRANCH   1   2
ATOM      2  C   UNL A   1      34.751  24.805  25.374  1.00  0.00     0.117 C 
BRANCH   2   3
ATOM      3  N   UNL A   1      33.511  24.650  26.107  1.00  0.00    -0.355 N 
ATOM      4  C   UNL A   1      32.396  25.409  26.251  1.00  0.00     0.232 C 
ATOM      5  O   UNL A   1      31.575  24.966  27.064  1.00  0.00    -0.274 OA
ATOM      6  H   UNL A   1      33.468  23.807  26.613  1.00  0.00     0.163 HD
BRANCH   4   7
ATOM      7  C   UNL A   1      32.140  26.714  25.466  1.00  0.00     0.104 C 
ATOM      8  C   UNL A   1      33.490  27.470  25.252  1.00  0.00     0.029 C 
ATOM      9  C   UNL A   1      31.210  27.663  26.271  1.00  0.00     0.277 C 
ATOM     10  C   UNL A   1      34.045  28.096  26.536  1.00  0.00     0.063 C 
ATOM     11  N   UNL A   1      31.788  28.174  27.515  1.00  0.00    -0.345 N 
ATOM     12  C   UNL A   1      33.003  28.940  27.257  1.00  0.00     0.260 C 
ATOM     13  H   UNL A   1      31.106  28.777  27.975  1.00  0.00     0.346 HD
ATOM     14  H   UNL A   1      32.026  27.381  28.109  1.00  0.00     0.346 HD
BRANCH   7  15
ATOM     15  C   UNL A   1      31.480  26.447  24.081  1.00  0.00     0.085 C 
BRANCH  15  16
ATOM     16  C   UNL A   1      32.322  25.920  22.965  1.00  0.00     0.109 A 
ATOM     17  C   UNL A   1      32.020  23.317  23.157  1.00  0.00     0.073 C 
ATOM     18  C   UNL A   1      32.533  24.577  22.578  1.00  0.00     0.105 A 
ATOM     19  N   UNL A   1      33.322  24.544  21.502  1.00  0.00    -0.055 NA
ATOM     20  O   UNL A   1      33.593  25.873  21.211  1.00  0.00    -0.244 OA
ATOM     21  N   UNL A   1      32.953  26.720  22.105  1.00  0.00    -0.055 NA
ENDBRANCH  15  16
ENDBRANCH   7  15
ENDBRANCH   4   7
ENDBRANCH   2   3
ENDBRANCH   1   2
BRANCH   1  22
ATOM     22  C   UNL A   1      37.008  23.718  24.883  1.00  0.00     0.118 C 
BRANCH  22  23
ATOM     23  N   UNL A   1      37.938  22.708  25.371  1.00  0.00    -0.352 N 
ATOM     24  C   UNL A   1      39.069  22.852  26.136  1.00  0.00     0.251 C 
ATOM     25  H   UNL A   1      37.722  21.782  25.114  1.00  0.00     0.163 HD
ATOM     26  O   UNL A   1      39.830  21.897  26.275  1.00  0.00    -0.269 OA
BRANCH  24  27
ATOM     27  C   UNL A   1      39.385  24.151  26.766  1.00  0.00     0.039 A 
ATOM     28  C   UNL A   1      38.936  24.401  28.065  1.00  0.00     0.014 A 
ATOM     29  C   UNL A   1      40.117  25.126  26.082  1.00  0.00     0.014 A 
ATOM     30  C   UNL A   1      39.281  25.596  28.700  1.00  0.00     0.010 A 
ATOM     31  C   UNL A   1      40.534  26.275  26.746  1.00  0.00     0.010 A 
ATOM     32  C   UNL A   1      40.119  26.526  28.061  1.00  0.00    -0.014 A 
BRANCH  32  33
ATOM     33  C   UNL A   1      40.575  27.757  28.756  1.00  0.00     0.031 A 
ATOM     34  C   UNL A   1      41.946  27.815  29.378  1.00  0.00     0.074 A 
ATOM     35  C   UNL A   1      39.733  28.803  28.880  1.00  0.00     0.049 A 
ATOM     36  N   UNL A   1      42.497  28.783  30.066  1.00  0.00    -0.248 NA
ATOM     37  C   UNL A   1      42.797  26.624  29.230  1.00  0.00     0.031 C 
ATOM     38  C   UNL A   1      38.365  28.856  28.357  1.00  0.00     0.029 A 
ATOM     39  N   UNL A   1      39.900  30.022  29.490  1.00  0.00    -0.354 N 
ATOM     40  C   UNL A   1      43.749  28.313  30.443  1.00  0.00     0.074 A 
ATOM     41  C   UNL A   1      43.856  26.956  29.954  1.00  0.00     0.031 C 
ATOM     42  C   UNL A   1      37.830  30.054  28.642  1.00  0.00     0.029 A 
ATOM     43  C   UNL A   1      38.794  30.836  29.409  1.00  0.00     0.049 A 
ATOM     44  H   UNL A   1      40.732  30.288  29.942  1.00  0.00     0.167 HD
ATOM     45  C   UNL A   1      44.730  28.958  31.119  1.00  0.00     0.031 A 
ATOM     46  C   UNL A   1      38.575  32.071  29.903  1.00  0.00     0.031 A 
ATOM     47  C   UNL A   1      44.622  30.310  31.602  1.00  0.00     0.049 A 
ATOM     48  C   UNL A   1      39.672  32.759  30.669  1.00  0.00     0.074 A 
ATOM     49  C   UNL A   1      45.579  31.070  32.250  1.00  0.00     0.029 A 
ATOM     50  N   UNL A   1      43.487  31.100  31.497  1.00  0.00    -0.354 N 
ATOM     51  N   UNL A   1      40.876  32.323  30.952  1.00  0.00    -0.248 NA
ATOM     52  C   UNL A   1      39.384  34.110  31.171  1.00  0.00     0.031 C 
ATOM     53  C   UNL A   1      45.003  32.298  32.592  1.00  0.00     0.029 A 
ATOM     54  C   UNL A   1      43.709  32.329  32.094  1.00  0.00     0.049 A 
ATOM     55  H   UNL A   1      42.646  30.828  31.063  1.00  0.00     0.167 HD
ATOM     56  C   UNL A   1      41.500  33.359  31.642  1.00  0.00     0.074 A 
ATOM     57  C   UNL A   1      40.545  34.445  31.715  1.00  0.00     0.031 C 
ATOM     58  C   UNL A   1      42.751  33.404  32.164  1.00  0.00     0.031 A 
BRANCH  45  59
ATOM     59  C   UNL A   1      46.009  28.204  31.385  1.00  0.00    -0.014 A 
ATOM     60  C   UNL A   1      47.082  28.244  30.475  1.00  0.00     0.010 A 
ATOM     61  C   UNL A   1      46.158  27.481  32.583  1.00  0.00     0.010 A 
ATOM     62  C   UNL A   1      48.261  27.542  30.738  1.00  0.00     0.020 A 
ATOM     63  C   UNL A   1      47.349  26.804  32.865  1.00  0.00     0.020 A 
ATOM     64  C   UNL A   1      48.387  26.826  31.931  1.00  0.00     0.054 A 
BRANCH  64  65
ATOM     65  S   UNL A   1      49.940  25.948  32.256  1.00  0.00     0.124 S 
ATOM     66  O   UNL A   1      49.630  25.237  33.495  1.00  0.00    -0.237 OA
ATOM     67  O   UNL A   1      50.087  25.108  31.071  1.00  0.00    -0.237 OA
ATOM     68  O   UNL A   1      50.925  27.019  32.385  1.00  0.00    -0.744 OA
ENDBRANCH  64  65
ENDBRANCH  45  59
BRANCH  46  69
ATOM     69  C   UNL A   1      37.262  32.739  29.679  1.00  0.00    -0.014 A 
ATOM     70  C   UNL A   1      36.323  32.842  30.721  1.00  0.00     0.010 A 
ATOM     71  C   UNL A   1      36.948  33.287  28.422  1.00  0.00     0.010 A 
ATOM     72  C   UNL A   1      35.090  33.464  30.506  1.00  0.00     0.020 A 
ATOM     73  C   UNL A   1      35.730  33.938  28.211  1.00  0.00     0.020 A 
ATOM     74  C   UNL A   1      34.803  34.013  29.252  1.00  0.00     0.054 A 
BRANCH  74  75
ATOM     75  S   UNL A   1      33.219  34.864  29.013  1.00  0.00     0.124 S 
ATOM     76  O   UNL A   1      33.647  36.193  28.589  1.00  0.00    -0.237 OA
ATOM     77  O   UNL A   1      32.575  34.048  27.987  1.00  0.00    -0.237 OA
ATOM     78  O   UNL A   1      32.594  34.797  30.333  1.00  0.00    -0.744 OA
ENDBRANCH  74  75
ENDBRANCH  46  69
BRANCH  58  79
ATOM     79  C   UNL A   1      43.180  34.686  32.829  1.00  0.00    -0.014 A 
ATOM     80  C   UNL A   1      43.701  35.759  32.085  1.00  0.00     0.010 A 
ATOM     81  C   UNL A   1      43.004  34.837  34.217  1.00  0.00     0.010 A 
ATOM     82  C   UNL A   1      44.071  36.947  32.723  1.00  0.00     0.020 A 
ATOM     83  C   UNL A   1      43.342  36.033  34.854  1.00  0.00     0.020 A 
ATOM     84  C   UNL A   1      43.887  37.077  34.104  1.00  0.00     0.054 A 
BRANCH  84  85
ATOM     85  S   UNL A   1      44.334  38.644  34.899  1.00  0.00     0.124 S 
ATOM     86  O   UNL A   1      44.011  38.379  36.298  1.00  0.00    -0.237 OA
ATOM     87  O   UNL A   1      45.758  38.762  34.596  1.00  0.00    -0.237 OA
ATOM     88  O   UNL A   1      43.479  39.626  34.238  1.00  0.00    -0.744 OA
ENDBRANCH  84  85
ENDBRANCH  58  79
ENDBRANCH  32  33
ENDBRANCH  24  27
ENDBRANCH  22  23
ENDBRANCH   1  22
TORSDOF 15
ENDMDL
