MODEL 1
REMARK VINA RESULT:      -9.5      0.000      0.000
REMARK SMILES O=C(N/N=C/c1ccc(C(=O)NCCCNC(=O)c2ccc(-c3c4nc(c(-c5ccc(S(=O)(=O)[O-])cc5)c5ccc([nH]5)c(-c5ccc(S(=O)(=O)[O-])cc5)c5nc(c(-c6ccc(S(=O)(=O)[O-])cc6)c6ccc3[nH]6)C=C5)C=C4)cc2)cc1)C(=O)Nc1cccc(Br)c1
REMARK SMILES IDX 13 1 12 2 10 3 11 4 9 6 6 7 7 8 80 9 8 10 79 11 5 12 4 13
REMARK SMILES IDX 3 14 1 15 2 16 81 18 82 19 83 20 84 22 85 23 90 24 86 25
REMARK SMILES IDX 88 26 87 27 89 28 14 29 15 30 16 31 17 32 18 34 19 35 20 36
REMARK SMILES IDX 78 37 21 38 77 39 22 40 23 41 24 42 71 43 25 44 76 45 70 46
REMARK SMILES IDX 72 47 26 48 75 49 69 50 68 51 27 53 57 54 38 55 56 56 39 57
REMARK SMILES IDX 42 58 55 59 73 60 40 61 41 62 54 64 74 65 43 66 28 67 29 68
REMARK SMILES IDX 37 69 30 70 36 71 31 72 32 73 33 74 34 75 35 76 58 77 59 78
REMARK SMILES IDX 67 79 60 80 66 81 61 82 62 83 63 84 64 85 65 86 44 87 45 88
REMARK SMILES IDX 53 89 46 90 52 91 47 92 48 93 49 94 50 95 51 96
REMARK H PARENT 12 5 3 17 83 21 16 33 72 52 42 63
REMARK Flexibility Score: inf
ROOT
ATOM      1  C   UNL A   1      42.308  19.799  26.740  1.00  0.00     0.118 C 
ENDROOT
BRANCH   1   2
ATOM      2  N   UNL A   1      43.158  19.748  25.558  1.00  0.00    -0.352 N 
ATOM      3  C   UNL A   1      43.881  20.735  24.936  1.00  0.00     0.251 C 
ATOM      4  O   UNL A   1      44.548  20.461  23.942  1.00  0.00    -0.269 OA
ATOM      5  H   UNL A   1      43.224  18.860  25.138  1.00  0.00     0.163 HD
BRANCH   3   6
ATOM      6  C   UNL A   1      43.992  22.072  25.552  1.00  0.00     0.039 A 
ATOM      7  C   UNL A   1      44.728  25.001  26.064  1.00  0.00    -0.005 A 
ATOM      8  C   UNL A   1      43.549  24.431  25.304  1.00  0.00     0.010 A 
ATOM      9  C   UNL A   1      45.114  23.775  26.860  1.00  0.00     0.010 A 
ATOM     10  C   UNL A   1      43.220  23.079  25.037  1.00  0.00     0.014 A 
ATOM     11  C   UNL A   1      44.823  22.409  26.590  1.00  0.00     0.014 A 
BRANCH   7  12
ATOM     12  C   UNL A   1      45.607  26.939  25.960  1.00  0.00     0.141 C 
ATOM     13  N   UNL A   1      45.431  28.152  26.589  1.00  0.00    -0.180 NA
BRANCH  13  14
ATOM     14  N   UNL A   1      45.675  29.230  25.815  1.00  0.00    -0.239 N 
ATOM     15  O   UNL A   1      46.177  31.409  25.697  1.00  0.00    -0.262 OA
ATOM     16  C   UNL A   1      45.514  30.537  26.271  1.00  0.00     0.329 C 
ATOM     17  H   UNL A   1      45.978  29.088  24.890  1.00  0.00     0.194 HD
BRANCH  16  18
ATOM     18  C   UNL A   1      44.545  31.006  27.402  1.00  0.00     0.315 C 
ATOM     19  O   UNL A   1      43.380  30.594  27.339  1.00  0.00    -0.263 OA
ATOM     20  N   UNL A   1      44.863  31.725  28.546  1.00  0.00    -0.318 N 
ATOM     21  H   UNL A   1      44.145  31.807  29.214  1.00  0.00     0.170 HD
BRANCH  20  22
ATOM     22  C   UNL A   1      46.065  32.342  28.870  1.00  0.00     0.042 A 
ATOM     23  C   UNL A   1      45.879  33.953  29.698  1.00  0.00     0.026 A 
ATOM     24  C   UNL A   1      47.480  31.256  29.243  1.00  0.00     0.041 A 
ATOM     25  C   UNL A   1      47.166  34.509  30.893  1.00  0.00     0.003 A 
ATOM     26  C   UNL A   1      48.679  31.768  30.549  1.00  0.00     0.020 A 
ATOM     27  C   UNL A   1      48.535  33.400  31.324  1.00  0.00     0.016 A 
ATOM     28  Br  UNL A   1      49.970  30.539  31.193  1.00  0.00    -0.051 Br
ENDBRANCH  20  22
ENDBRANCH  16  18
ENDBRANCH  13  14
ENDBRANCH   7  12
ENDBRANCH   3   6
ENDBRANCH   1   2
BRANCH   1  29
ATOM     29  C   UNL A   1      40.861  20.067  26.348  1.00  0.00     0.042 C 
BRANCH  29  30
ATOM     30  C   UNL A   1      40.402  21.469  26.722  1.00  0.00     0.118 C 
BRANCH  30  31
ATOM     31  N   UNL A   1      39.226  21.876  25.968  1.00  0.00    -0.352 N 
ATOM     32  C   UNL A   1      38.568  23.082  25.996  1.00  0.00     0.251 C 
ATOM     33  H   UNL A   1      38.854  21.200  25.357  1.00  0.00     0.163 HD
ATOM     34  O   UNL A   1      37.465  23.192  25.468  1.00  0.00    -0.269 OA
BRANCH  32  35
ATOM     35  C   UNL A   1      39.190  24.233  26.684  1.00  0.00     0.039 A 
ATOM     36  C   UNL A   1      40.032  25.086  25.966  1.00  0.00     0.014 A 
ATOM     37  C   UNL A   1      38.922  24.479  28.033  1.00  0.00     0.014 A 
ATOM     38  C   UNL A   1      40.555  26.223  26.588  1.00  0.00     0.010 A 
ATOM     39  C   UNL A   1      39.373  25.653  28.623  1.00  0.00     0.010 A 
ATOM     40  C   UNL A   1      40.203  26.533  27.911  1.00  0.00    -0.014 A 
BRANCH  40  41
ATOM     41  C   UNL A   1      40.700  27.753  28.595  1.00  0.00     0.031 A 
ATOM     42  C   UNL A   1      42.072  27.745  29.215  1.00  0.00     0.074 A 
ATOM     43  C   UNL A   1      39.887  28.819  28.751  1.00  0.00     0.049 A 
ATOM     44  N   UNL A   1      42.630  28.636  29.991  1.00  0.00    -0.248 NA
ATOM     45  C   UNL A   1      42.912  26.563  28.957  1.00  0.00     0.031 C 
ATOM     46  C   UNL A   1      38.523  28.931  28.228  1.00  0.00     0.029 A 
ATOM     47  N   UNL A   1      40.083  30.001  29.420  1.00  0.00    -0.354 N 
ATOM     48  C   UNL A   1      43.866  28.105  30.345  1.00  0.00     0.074 A 
ATOM     49  C   UNL A   1      43.963  26.802  29.728  1.00  0.00     0.031 C 
ATOM     50  C   UNL A   1      38.008  30.116  28.593  1.00  0.00     0.029 A 
ATOM     51  C   UNL A   1      38.982  30.827  29.415  1.00  0.00     0.049 A 
ATOM     52  H   UNL A   1      40.931  30.236  29.862  1.00  0.00     0.167 HD
ATOM     53  C   UNL A   1      44.837  28.660  31.108  1.00  0.00     0.031 A 
ATOM     54  C   UNL A   1      38.770  32.010  30.025  1.00  0.00     0.031 A 
ATOM     55  C   UNL A   1      44.748  29.972  31.687  1.00  0.00     0.049 A 
ATOM     56  C   UNL A   1      39.872  32.611  30.857  1.00  0.00     0.074 A 
ATOM     57  C   UNL A   1      45.711  30.659  32.405  1.00  0.00     0.029 A 
ATOM     58  N   UNL A   1      43.635  30.796  31.616  1.00  0.00    -0.354 N 
ATOM     59  N   UNL A   1      41.063  32.127  31.119  1.00  0.00    -0.248 NA
ATOM     60  C   UNL A   1      39.606  33.920  31.472  1.00  0.00     0.031 C 
ATOM     61  C   UNL A   1      45.161  31.876  32.816  1.00  0.00     0.029 A 
ATOM     62  C   UNL A   1      43.878  31.974  32.301  1.00  0.00     0.049 A 
ATOM     63  H   UNL A   1      42.798  30.576  31.149  1.00  0.00     0.167 HD
ATOM     64  C   UNL A   1      41.699  33.087  31.899  1.00  0.00     0.074 A 
ATOM     65  C   UNL A   1      40.766  34.182  32.061  1.00  0.00     0.031 C 
ATOM     66  C   UNL A   1      42.943  33.062  32.434  1.00  0.00     0.031 A 
BRANCH  53  67
ATOM     67  C   UNL A   1      46.080  27.852  31.370  1.00  0.00    -0.014 A 
ATOM     68  C   UNL A   1      47.154  27.849  30.462  1.00  0.00     0.010 A 
ATOM     69  C   UNL A   1      46.203  27.143  32.578  1.00  0.00     0.010 A 
ATOM     70  C   UNL A   1      48.317  27.129  30.746  1.00  0.00     0.020 A 
ATOM     71  C   UNL A   1      47.375  26.444  32.880  1.00  0.00     0.020 A 
ATOM     72  C   UNL A   1      48.421  26.433  31.955  1.00  0.00     0.054 A 
BRANCH  72  73
ATOM     73  S   UNL A   1      49.963  25.549  32.318  1.00  0.00     0.124 S 
ATOM     74  O   UNL A   1      50.696  26.536  33.108  1.00  0.00    -0.237 OA
ATOM     75  O   UNL A   1      49.494  24.379  33.057  1.00  0.00    -0.237 OA
ATOM     76  O   UNL A   1      50.522  25.267  30.999  1.00  0.00    -0.744 OA
ENDBRANCH  72  73
ENDBRANCH  53  67
BRANCH  54  77
ATOM     77  C   UNL A   1      37.457  32.700  29.887  1.00  0.00    -0.014 A 
ATOM     78  C   UNL A   1      37.268  33.697  28.914  1.00  0.00     0.010 A 
ATOM     79  C   UNL A   1      36.387  32.363  30.736  1.00  0.00     0.010 A 
ATOM     80  C   UNL A   1      36.044  34.365  28.811  1.00  0.00     0.020 A 
ATOM     81  C   UNL A   1      35.152  33.006  30.617  1.00  0.00     0.020 A 
ATOM     82  C   UNL A   1      34.993  34.015  29.666  1.00  0.00     0.054 A 
BRANCH  82  83
ATOM     83  S   UNL A   1      33.403  34.873  29.496  1.00  0.00     0.124 S 
ATOM     84  O   UNL A   1      32.643  33.940  28.671  1.00  0.00    -0.237 OA
ATOM     85  O   UNL A   1      32.962  34.997  30.883  1.00  0.00    -0.237 OA
ATOM     86  O   UNL A   1      33.763  36.133  28.851  1.00  0.00    -0.744 OA
ENDBRANCH  82  83
ENDBRANCH  54  77
BRANCH  66  87
ATOM     87  C   UNL A   1      43.402  34.271  33.202  1.00  0.00    -0.014 A 
ATOM     88  C   UNL A   1      43.378  34.296  34.607  1.00  0.00     0.010 A 
ATOM     89  C   UNL A   1      43.962  35.358  32.504  1.00  0.00     0.010 A 
ATOM     90  C   UNL A   1      43.895  35.394  35.300  1.00  0.00     0.020 A 
ATOM     91  C   UNL A   1      44.503  36.444  33.194  1.00  0.00     0.020 A 
ATOM     92  C   UNL A   1      44.460  36.458  34.590  1.00  0.00     0.054 A 
BRANCH  92  93
ATOM     93  S   UNL A   1      45.196  37.832  35.515  1.00  0.00     0.124 S 
ATOM     94  O   UNL A   1      46.106  37.136  36.421  1.00  0.00    -0.237 OA
ATOM     95  O   UNL A   1      45.837  38.619  34.463  1.00  0.00    -0.237 OA
ATOM     96  O   UNL A   1      44.050  38.474  36.154  1.00  0.00    -0.744 OA
ENDBRANCH  92  93
ENDBRANCH  66  87
ENDBRANCH  40  41
ENDBRANCH  32  35
ENDBRANCH  30  31
ENDBRANCH  29  30
ENDBRANCH   1  29
TORSDOF 17
ENDMDL
MODEL 2
REMARK VINA RESULT:      -9.5      5.438     11.750
REMARK SMILES O=C(N/N=C/c1ccc(C(=O)NCCCNC(=O)c2ccc(-c3c4nc(c(-c5ccc(S(=O)(=O)[O-])cc5)c5ccc([nH]5)c(-c5ccc(S(=O)(=O)[O-])cc5)c5nc(c(-c6ccc(S(=O)(=O)[O-])cc6)c6ccc3[nH]6)C=C5)C=C4)cc2)cc1)C(=O)Nc1cccc(Br)c1
REMARK SMILES IDX 13 1 12 2 10 3 11 4 9 6 6 7 7 8 80 9 8 10 79 11 5 12 4 13
REMARK SMILES IDX 3 14 1 15 2 16 81 18 82 19 83 20 84 22 85 23 90 24 86 25
REMARK SMILES IDX 88 26 87 27 89 28 14 29 15 30 16 31 17 32 18 34 19 35 20 36
REMARK SMILES IDX 78 37 21 38 77 39 22 40 23 41 24 42 71 43 25 44 76 45 70 46
REMARK SMILES IDX 72 47 26 48 75 49 69 50 68 51 27 53 57 54 38 55 56 56 39 57
REMARK SMILES IDX 42 58 55 59 73 60 40 61 41 62 54 64 74 65 43 66 28 67 29 68
REMARK SMILES IDX 37 69 30 70 36 71 31 72 32 73 33 74 34 75 35 76 58 77 59 78
REMARK SMILES IDX 67 79 60 80 66 81 61 82 62 83 63 84 64 85 65 86 44 87 45 88
REMARK SMILES IDX 53 89 46 90 52 91 47 92 48 93 49 94 50 95 51 96
REMARK H PARENT 12 5 3 17 83 21 16 33 72 52 42 63
REMARK Flexibility Score: inf
ROOT
ATOM      1  C   UNL A   1      36.633  22.400  25.409  1.00  0.00     0.118 C 
ENDROOT
BRANCH   1   2
ATOM      2  N   UNL A   1      35.742  21.838  26.414  1.00  0.00    -0.352 N 
ATOM      3  C   UNL A   1      34.426  22.110  26.692  1.00  0.00     0.251 C 
ATOM      4  O   UNL A   1      33.858  21.498  27.592  1.00  0.00    -0.269 OA
ATOM      5  H   UNL A   1      36.151  21.150  26.987  1.00  0.00     0.163 HD
BRANCH   3   6
ATOM      6  C   UNL A   1      33.653  23.007  25.810  1.00  0.00     0.039 A 
ATOM      7  C   UNL A   1      31.414  24.746  24.650  1.00  0.00    -0.005 A 
ATOM      8  C   UNL A   1      32.518  25.127  25.612  1.00  0.00     0.010 A 
ATOM      9  C   UNL A   1      32.015  23.478  24.087  1.00  0.00     0.010 A 
ATOM     10  C   UNL A   1      33.538  24.321  26.176  1.00  0.00     0.014 A 
ATOM     11  C   UNL A   1      33.012  22.637  24.655  1.00  0.00     0.014 A 
BRANCH   7  12
ATOM     12  C   UNL A   1      29.543  25.696  24.279  1.00  0.00     0.141 C 
ATOM     13  N   UNL A   1      29.002  26.486  23.289  1.00  0.00    -0.180 NA
BRANCH  13  14
ATOM     14  N   UNL A   1      28.103  27.396  23.721  1.00  0.00    -0.239 N 
ATOM     15  O   UNL A   1      26.789  29.143  23.240  1.00  0.00    -0.262 OA
ATOM     16  C   UNL A   1      27.894  28.614  23.077  1.00  0.00     0.329 C 
ATOM     17  H   UNL A   1      27.573  27.190  24.523  1.00  0.00     0.194 HD
BRANCH  16  18
ATOM     18  C   UNL A   1      28.937  29.389  22.211  1.00  0.00     0.315 C 
ATOM     19  O   UNL A   1      28.490  30.040  21.258  1.00  0.00    -0.263 OA
ATOM     20  N   UNL A   1      30.294  29.546  22.458  1.00  0.00    -0.318 N 
ATOM     21  H   UNL A   1      30.764  30.186  21.875  1.00  0.00     0.170 HD
BRANCH  20  22
ATOM     22  C   UNL A   1      31.074  28.917  23.419  1.00  0.00     0.042 A 
ATOM     23  C   UNL A   1      32.392  27.860  22.740  1.00  0.00     0.026 A 
ATOM     24  C   UNL A   1      31.296  29.788  25.005  1.00  0.00     0.041 A 
ATOM     25  C   UNL A   1      33.952  27.635  23.695  1.00  0.00     0.003 A 
ATOM     26  C   UNL A   1      32.920  29.663  25.872  1.00  0.00     0.020 A 
ATOM     27  C   UNL A   1      34.207  28.558  25.235  1.00  0.00     0.016 A 
ATOM     28  Br  UNL A   1      33.306  30.797  27.342  1.00  0.00    -0.051 Br
ENDBRANCH  20  22
ENDBRANCH  16  18
ENDBRANCH  13  14
ENDBRANCH   7  12
ENDBRANCH   3   6
ENDBRANCH   1   2
BRANCH   1  29
ATOM     29  C   UNL A   1      37.762  21.430  25.089  1.00  0.00     0.042 C 
BRANCH  29  30
ATOM     30  C   UNL A   1      38.911  21.519  26.083  1.00  0.00     0.118 C 
BRANCH  30  31
ATOM     31  N   UNL A   1      39.746  20.328  26.058  1.00  0.00    -0.352 N 
ATOM     32  C   UNL A   1      41.116  20.242  26.126  1.00  0.00     0.251 C 
ATOM     33  H   UNL A   1      39.267  19.471  25.984  1.00  0.00     0.163 HD
ATOM     34  O   UNL A   1      41.678  19.182  25.870  1.00  0.00    -0.269 OA
BRANCH  32  35
ATOM     35  C   UNL A   1      41.902  21.441  26.487  1.00  0.00     0.039 A 
ATOM     36  C   UNL A   1      42.265  22.348  25.489  1.00  0.00     0.014 A 
ATOM     37  C   UNL A   1      42.259  21.677  27.817  1.00  0.00     0.014 A 
ATOM     38  C   UNL A   1      42.933  23.526  25.836  1.00  0.00     0.010 A 
ATOM     39  C   UNL A   1      42.846  22.885  28.170  1.00  0.00     0.010 A 
ATOM     40  C   UNL A   1      43.199  23.819  27.183  1.00  0.00    -0.014 A 
BRANCH  40  41
ATOM     41  C   UNL A   1      43.867  25.077  27.600  1.00  0.00     0.031 A 
ATOM     42  C   UNL A   1      43.046  26.181  28.212  1.00  0.00     0.074 A 
ATOM     43  C   UNL A   1      45.176  25.267  27.334  1.00  0.00     0.049 A 
ATOM     44  N   UNL A   1      43.396  27.408  28.494  1.00  0.00    -0.248 NA
ATOM     45  C   UNL A   1      41.637  25.874  28.513  1.00  0.00     0.031 C 
ATOM     46  C   UNL A   1      46.068  24.287  26.710  1.00  0.00     0.029 A 
ATOM     47  N   UNL A   1      45.977  26.364  27.530  1.00  0.00    -0.354 N 
ATOM     48  C   UNL A   1      42.244  28.029  28.965  1.00  0.00     0.074 A 
ATOM     49  C   UNL A   1      41.178  27.056  28.901  1.00  0.00     0.031 C 
ATOM     50  C   UNL A   1      47.291  24.825  26.579  1.00  0.00     0.029 A 
ATOM     51  C   UNL A   1      47.261  26.202  27.062  1.00  0.00     0.049 A 
ATOM     52  H   UNL A   1      45.663  27.190  27.966  1.00  0.00     0.167 HD
ATOM     53  C   UNL A   1      42.093  29.294  29.422  1.00  0.00     0.031 A 
ATOM     54  C   UNL A   1      48.290  27.070  27.003  1.00  0.00     0.031 A 
ATOM     55  C   UNL A   1      43.166  30.245  29.518  1.00  0.00     0.049 A 
ATOM     56  C   UNL A   1      48.098  28.468  27.529  1.00  0.00     0.074 A 
ATOM     57  C   UNL A   1      43.134  31.524  30.044  1.00  0.00     0.029 A 
ATOM     58  N   UNL A   1      44.463  30.023  29.079  1.00  0.00    -0.354 N 
ATOM     59  N   UNL A   1      47.021  29.013  28.041  1.00  0.00    -0.248 NA
ATOM     60  C   UNL A   1      49.261  29.367  27.476  1.00  0.00     0.031 C 
ATOM     61  C   UNL A   1      44.397  32.096  29.873  1.00  0.00     0.029 A 
ATOM     62  C   UNL A   1      45.233  31.152  29.298  1.00  0.00     0.049 A 
ATOM     63  H   UNL A   1      44.787  29.188  28.671  1.00  0.00     0.167 HD
ATOM     64  C   UNL A   1      47.385  30.307  28.402  1.00  0.00     0.074 A 
ATOM     65  C   UNL A   1      48.783  30.460  28.058  1.00  0.00     0.031 C 
ATOM     66  C   UNL A   1      46.629  31.279  28.966  1.00  0.00     0.031 A 
BRANCH  53  67
ATOM     67  C   UNL A   1      40.717  29.733  29.847  1.00  0.00    -0.014 A 
ATOM     68  C   UNL A   1      40.407  29.954  31.201  1.00  0.00     0.010 A 
ATOM     69  C   UNL A   1      39.742  29.999  28.870  1.00  0.00     0.010 A 
ATOM     70  C   UNL A   1      39.138  30.405  31.571  1.00  0.00     0.020 A 
ATOM     71  C   UNL A   1      38.479  30.478  29.232  1.00  0.00     0.020 A 
ATOM     72  C   UNL A   1      38.182  30.667  30.583  1.00  0.00     0.054 A 
BRANCH  72  73
ATOM     73  S   UNL A   1      36.560  31.301  31.090  1.00  0.00     0.124 S 
ATOM     74  O   UNL A   1      36.930  32.365  32.020  1.00  0.00    -0.237 OA
ATOM     75  O   UNL A   1      35.983  31.747  29.824  1.00  0.00    -0.237 OA
ATOM     76  O   UNL A   1      35.908  30.144  31.696  1.00  0.00    -0.744 OA
ENDBRANCH  72  73
ENDBRANCH  53  67
BRANCH  54  77
ATOM     77  C   UNL A   1      49.590  26.652  26.409  1.00  0.00    -0.014 A 
ATOM     78  C   UNL A   1      49.855  26.853  25.044  1.00  0.00     0.010 A 
ATOM     79  C   UNL A   1      50.572  26.042  27.212  1.00  0.00     0.010 A 
ATOM     80  C   UNL A   1      51.064  26.428  24.485  1.00  0.00     0.020 A 
ATOM     81  C   UNL A   1      51.794  25.643  26.664  1.00  0.00     0.020 A 
ATOM     82  C   UNL A   1      52.026  25.823  25.300  1.00  0.00     0.054 A 
BRANCH  82  83
ATOM     83  S   UNL A   1      53.601  25.306  24.561  1.00  0.00     0.124 S 
ATOM     84  O   UNL A   1      54.566  26.079  25.334  1.00  0.00    -0.237 OA
ATOM     85  O   UNL A   1      53.604  23.865  24.802  1.00  0.00    -0.237 OA
ATOM     86  O   UNL A   1      53.462  25.694  23.159  1.00  0.00    -0.744 OA
ENDBRANCH  82  83
ENDBRANCH  54  77
BRANCH  66  87
ATOM     87  C   UNL A   1      47.299  32.583  29.303  1.00  0.00    -0.014 A 
ATOM     88  C   UNL A   1      47.968  32.765  30.525  1.00  0.00     0.010 A 
ATOM     89  C   UNL A   1      47.344  33.603  28.335  1.00  0.00     0.010 A 
ATOM     90  C   UNL A   1      48.661  33.952  30.778  1.00  0.00     0.020 A 
ATOM     91  C   UNL A   1      48.057  34.779  28.573  1.00  0.00     0.020 A 
ATOM     92  C   UNL A   1      48.707  34.949  29.798  1.00  0.00     0.054 A 
BRANCH  92  93
ATOM     93  S   UNL A   1      49.680  36.445  30.118  1.00  0.00     0.124 S 
ATOM     94  O   UNL A   1      49.755  37.049  28.791  1.00  0.00    -0.237 OA
ATOM     95  O   UNL A   1      48.855  37.161  31.089  1.00  0.00    -0.237 OA
ATOM     96  O   UNL A   1      50.943  35.931  30.642  1.00  0.00    -0.744 OA
ENDBRANCH  92  93
ENDBRANCH  66  87
ENDBRANCH  40  41
ENDBRANCH  32  35
ENDBRANCH  30  31
ENDBRANCH  29  30
ENDBRANCH   1  29
TORSDOF 17
ENDMDL
MODEL 3
REMARK VINA RESULT:      -9.3      1.517      2.112
REMARK SMILES O=C(N/N=C/c1ccc(C(=O)NCCCNC(=O)c2ccc(-c3c4nc(c(-c5ccc(S(=O)(=O)[O-])cc5)c5ccc([nH]5)c(-c5ccc(S(=O)(=O)[O-])cc5)c5nc(c(-c6ccc(S(=O)(=O)[O-])cc6)c6ccc3[nH]6)C=C5)C=C4)cc2)cc1)C(=O)Nc1cccc(Br)c1
REMARK SMILES IDX 13 1 12 2 10 3 11 4 9 6 6 7 7 8 80 9 8 10 79 11 5 12 4 13
REMARK SMILES IDX 3 14 1 15 2 16 81 18 82 19 83 20 84 22 85 23 90 24 86 25
REMARK SMILES IDX 88 26 87 27 89 28 14 29 15 30 16 31 17 32 18 34 19 35 20 36
REMARK SMILES IDX 78 37 21 38 77 39 22 40 23 41 24 42 71 43 25 44 76 45 70 46
REMARK SMILES IDX 72 47 26 48 75 49 69 50 68 51 27 53 57 54 38 55 56 56 39 57
REMARK SMILES IDX 42 58 55 59 73 60 40 61 41 62 54 64 74 65 43 66 28 67 29 68
REMARK SMILES IDX 37 69 30 70 36 71 31 72 32 73 33 74 34 75 35 76 58 77 59 78
REMARK SMILES IDX 67 79 60 80 66 81 61 82 62 83 63 84 64 85 65 86 44 87 45 88
REMARK SMILES IDX 53 89 46 90 52 91 47 92 48 93 49 94 50 95 51 96
REMARK H PARENT 12 5 3 17 83 21 16 33 72 52 42 63
REMARK Flexibility Score: inf
ROOT
ATOM      1  C   UNL A   1      42.449  22.755  26.046  1.00  0.00     0.118 C 
ENDROOT
BRANCH   1   2
ATOM      2  N   UNL A   1      43.461  22.685  25.001  1.00  0.00    -0.352 N 
ATOM      3  C   UNL A   1      44.436  23.582  24.642  1.00  0.00     0.251 C 
ATOM      4  O   UNL A   1      45.201  23.308  23.722  1.00  0.00    -0.269 OA
ATOM      5  H   UNL A   1      43.442  21.859  24.465  1.00  0.00     0.163 HD
BRANCH   3   6
ATOM      6  C   UNL A   1      44.672  24.787  25.462  1.00  0.00     0.039 A 
ATOM      7  C   UNL A   1      45.550  27.578  26.369  1.00  0.00    -0.005 A 
ATOM      8  C   UNL A   1      44.257  27.152  25.707  1.00  0.00     0.010 A 
ATOM      9  C   UNL A   1      46.019  26.230  26.867  1.00  0.00     0.010 A 
ATOM     10  C   UNL A   1      43.857  25.869  25.257  1.00  0.00     0.014 A 
ATOM     11  C   UNL A   1      45.656  24.934  26.405  1.00  0.00     0.014 A 
BRANCH   7  12
ATOM     12  C   UNL A   1      46.452  29.505  26.479  1.00  0.00     0.141 C 
ATOM     13  N   UNL A   1      46.075  30.763  26.892  1.00  0.00    -0.180 NA
BRANCH  13  14
ATOM     14  N   UNL A   1      46.637  31.777  26.202  1.00  0.00    -0.239 N 
ATOM     15  O   UNL A   1      46.808  33.985  25.870  1.00  0.00    -0.262 OA
ATOM     16  C   UNL A   1      46.048  33.036  26.096  1.00  0.00     0.329 C 
ATOM     17  H   UNL A   1      47.499  31.622  25.754  1.00  0.00     0.194 HD
BRANCH  16  18
ATOM     18  C   UNL A   1      44.521  33.350  26.191  1.00  0.00     0.315 C 
ATOM     19  O   UNL A   1      43.810  32.919  25.275  1.00  0.00    -0.263 OA
ATOM     20  N   UNL A   1      43.842  33.942  27.247  1.00  0.00    -0.318 N 
ATOM     21  H   UNL A   1      42.860  33.931  27.184  1.00  0.00     0.170 HD
BRANCH  20  22
ATOM     22  C   UNL A   1      44.370  34.548  28.380  1.00  0.00     0.042 A 
ATOM     23  C   UNL A   1      45.455  33.471  29.369  1.00  0.00     0.026 A 
ATOM     24  C   UNL A   1      44.657  36.346  28.300  1.00  0.00     0.041 A 
ATOM     25  C   UNL A   1      46.833  34.219  30.336  1.00  0.00     0.003 A 
ATOM     26  C   UNL A   1      46.128  37.054  29.159  1.00  0.00     0.020 A 
ATOM     27  C   UNL A   1      47.169  35.996  30.199  1.00  0.00     0.016 A 
ATOM     28  Br  UNL A   1      46.646  38.850  28.841  1.00  0.00    -0.051 Br
ENDBRANCH  20  22
ENDBRANCH  16  18
ENDBRANCH  13  14
ENDBRANCH   7  12
ENDBRANCH   3   6
ENDBRANCH   1   2
BRANCH   1  29
ATOM     29  C   UNL A   1      41.627  21.473  26.083  1.00  0.00     0.042 C 
BRANCH  29  30
ATOM     30  C   UNL A   1      40.381  21.601  26.948  1.00  0.00     0.118 C 
BRANCH  30  31
ATOM     31  N   UNL A   1      39.215  21.987  26.169  1.00  0.00    -0.352 N 
ATOM     32  C   UNL A   1      38.555  23.193  26.157  1.00  0.00     0.251 C 
ATOM     33  H   UNL A   1      38.850  21.295  25.572  1.00  0.00     0.163 HD
ATOM     34  O   UNL A   1      37.459  23.288  25.613  1.00  0.00    -0.269 OA
BRANCH  32  35
ATOM     35  C   UNL A   1      39.168  24.362  26.822  1.00  0.00     0.039 A 
ATOM     36  C   UNL A   1      39.990  25.217  26.083  1.00  0.00     0.014 A 
ATOM     37  C   UNL A   1      38.913  24.623  28.170  1.00  0.00     0.014 A 
ATOM     38  C   UNL A   1      40.504  26.370  26.682  1.00  0.00     0.010 A 
ATOM     39  C   UNL A   1      39.353  25.811  28.739  1.00  0.00     0.010 A 
ATOM     40  C   UNL A   1      40.162  26.693  28.005  1.00  0.00    -0.014 A 
BRANCH  40  41
ATOM     41  C   UNL A   1      40.649  27.930  28.666  1.00  0.00     0.031 A 
ATOM     42  C   UNL A   1      42.024  27.947  29.280  1.00  0.00     0.074 A 
ATOM     43  C   UNL A   1      39.825  28.989  28.808  1.00  0.00     0.049 A 
ATOM     44  N   UNL A   1      42.576  28.856  30.038  1.00  0.00    -0.248 NA
ATOM     45  C   UNL A   1      42.875  26.769  29.037  1.00  0.00     0.031 C 
ATOM     46  C   UNL A   1      38.458  29.078  28.291  1.00  0.00     0.029 A 
ATOM     47  N   UNL A   1      40.011  30.184  29.457  1.00  0.00    -0.354 N 
ATOM     48  C   UNL A   1      43.819  28.345  30.395  1.00  0.00     0.074 A 
ATOM     49  C   UNL A   1      43.927  27.033  29.799  1.00  0.00     0.031 C 
ATOM     50  C   UNL A   1      37.932  30.264  28.638  1.00  0.00     0.029 A 
ATOM     51  C   UNL A   1      38.902  30.999  29.444  1.00  0.00     0.049 A 
ATOM     52  H   UNL A   1      40.859  30.436  29.891  1.00  0.00     0.167 HD
ATOM     53  C   UNL A   1      44.788  28.923  31.144  1.00  0.00     0.031 A 
ATOM     54  C   UNL A   1      38.680  32.189  30.035  1.00  0.00     0.031 A 
ATOM     55  C   UNL A   1      44.688  30.243  31.702  1.00  0.00     0.049 A 
ATOM     56  C   UNL A   1      39.779  32.816  30.852  1.00  0.00     0.074 A 
ATOM     57  C   UNL A   1      45.646  30.952  32.404  1.00  0.00     0.029 A 
ATOM     58  N   UNL A   1      43.566  31.054  31.622  1.00  0.00    -0.354 N 
ATOM     59  N   UNL A   1      40.976  32.349  31.115  1.00  0.00    -0.248 NA
ATOM     60  C   UNL A   1      39.502  34.132  31.446  1.00  0.00     0.031 C 
ATOM     61  C   UNL A   1      45.085  32.169  32.797  1.00  0.00     0.029 A 
ATOM     62  C   UNL A   1      43.798  32.245  32.286  1.00  0.00     0.049 A 
ATOM     63  H   UNL A   1      42.728  30.817  31.163  1.00  0.00     0.167 HD
ATOM     64  C   UNL A   1      41.606  33.328  31.877  1.00  0.00     0.074 A 
ATOM     65  C   UNL A   1      40.662  34.416  32.025  1.00  0.00     0.031 C 
ATOM     66  C   UNL A   1      42.853  33.326  32.406  1.00  0.00     0.031 A 
BRANCH  53  67
ATOM     67  C   UNL A   1      46.040  28.133  31.413  1.00  0.00    -0.014 A 
ATOM     68  C   UNL A   1      46.117  27.229  32.487  1.00  0.00     0.010 A 
ATOM     69  C   UNL A   1      47.132  28.243  30.533  1.00  0.00     0.010 A 
ATOM     70  C   UNL A   1      47.273  26.471  32.693  1.00  0.00     0.020 A 
ATOM     71  C   UNL A   1      48.280  27.467  30.717  1.00  0.00     0.020 A 
ATOM     72  C   UNL A   1      48.346  26.593  31.805  1.00  0.00     0.054 A 
BRANCH  72  73
ATOM     73  S   UNL A   1      49.813  25.559  32.067  1.00  0.00     0.124 S 
ATOM     74  O   UNL A   1      49.394  24.721  33.188  1.00  0.00    -0.237 OA
ATOM     75  O   UNL A   1      49.952  24.871  30.786  1.00  0.00    -0.237 OA
ATOM     76  O   UNL A   1      50.868  26.523  32.372  1.00  0.00    -0.744 OA
ENDBRANCH  72  73
ENDBRANCH  53  67
BRANCH  54  77
ATOM     77  C   UNL A   1      37.359  32.862  29.892  1.00  0.00    -0.014 A 
ATOM     78  C   UNL A   1      37.025  33.546  28.710  1.00  0.00     0.010 A 
ATOM     79  C   UNL A   1      36.427  32.826  30.946  1.00  0.00     0.010 A 
ATOM     80  C   UNL A   1      35.797  34.204  28.594  1.00  0.00     0.020 A 
ATOM     81  C   UNL A   1      35.187  33.457  30.822  1.00  0.00     0.020 A 
ATOM     82  C   UNL A   1      34.886  34.157  29.653  1.00  0.00     0.054 A 
BRANCH  82  83
ATOM     83  S   UNL A   1      33.285  34.993  29.471  1.00  0.00     0.124 S 
ATOM     84  O   UNL A   1      32.725  34.870  30.812  1.00  0.00    -0.237 OA
ATOM     85  O   UNL A   1      33.678  36.341  29.068  1.00  0.00    -0.237 OA
ATOM     86  O   UNL A   1      32.611  34.214  28.434  1.00  0.00    -0.744 OA
ENDBRANCH  82  83
ENDBRANCH  54  77
BRANCH  66  87
ATOM     87  C   UNL A   1      43.302  34.552  33.152  1.00  0.00    -0.014 A 
ATOM     88  C   UNL A   1      43.063  34.697  34.529  1.00  0.00     0.010 A 
ATOM     89  C   UNL A   1      44.065  35.524  32.480  1.00  0.00     0.010 A 
ATOM     90  C   UNL A   1      43.570  35.802  35.218  1.00  0.00     0.020 A 
ATOM     91  C   UNL A   1      44.596  36.616  33.170  1.00  0.00     0.020 A 
ATOM     92  C   UNL A   1      44.339  36.751  34.536  1.00  0.00     0.054 A 
BRANCH  92  93
ATOM     93  S   UNL A   1      45.053  38.131  35.470  1.00  0.00     0.124 S 
ATOM     94  O   UNL A   1      44.042  39.171  35.297  1.00  0.00    -0.237 OA
ATOM     95  O   UNL A   1      45.164  37.581  36.820  1.00  0.00    -0.237 OA
ATOM     96  O   UNL A   1      46.327  38.382  34.800  1.00  0.00    -0.744 OA
ENDBRANCH  92  93
ENDBRANCH  66  87
ENDBRANCH  40  41
ENDBRANCH  32  35
ENDBRANCH  30  31
ENDBRANCH  29  30
ENDBRANCH   1  29
TORSDOF 17
ENDMDL
