MODEL 1
REMARK VINA RESULT:      -9.6      0.000      0.000
REMARK SMILES Cc1nonc1CSCC(=O)NCCCNC(=O)c1ccc(-c2c3nc(c(-c4ccc(S(=O)(=O)[O-])cc4)c4ccc([nH]4)c(-c4ccc(S(=O)(=O)[O-])cc4)c4nc(c(-c5ccc(S(=O)(=O)[O-])cc5)c5ccc2[nH]5)C=C4)C=C3)cc1
REMARK SMILES IDX 14 1 13 2 12 3 10 4 11 5 9 7 8 8 7 9 6 10 1 11 2 12 3 13
REMARK SMILES IDX 4 14 5 15 15 16 16 17 17 18 18 20 19 21 20 22 78 23 21 24
REMARK SMILES IDX 77 25 22 26 23 27 24 28 71 29 25 30 76 31 70 32 72 33 26 34
REMARK SMILES IDX 75 35 69 36 68 37 27 39 57 40 38 41 56 42 39 43 42 44 55 45
REMARK SMILES IDX 73 46 40 47 41 48 54 50 74 51 43 52 28 53 29 54 37 55 30 56
REMARK SMILES IDX 36 57 31 58 32 59 33 60 34 61 35 62 58 63 59 64 67 65 60 66
REMARK SMILES IDX 66 67 61 68 62 69 63 70 64 71 65 72 44 73 45 74 53 75 46 76
REMARK SMILES IDX 52 77 47 78 48 79 49 80 50 81 51 82
REMARK H PARENT 12 6 16 19 72 38 42 49
REMARK Flexibility Score: inf
ROOT
ATOM      1  C   UNL A   1      41.265  21.656  27.620  1.00  0.00     0.042 C 
ENDROOT
BRANCH   1   2
ATOM      2  C   UNL A   1      42.357  22.449  28.338  1.00  0.00     0.117 C 
BRANCH   2   3
ATOM      3  N   UNL A   1      42.750  23.632  27.591  1.00  0.00    -0.355 N 
ATOM      4  C   UNL A   1      43.971  23.959  27.078  1.00  0.00     0.230 C 
ATOM      5  O   UNL A   1      44.115  25.083  26.590  1.00  0.00    -0.274 OA
ATOM      6  H   UNL A   1      42.035  24.289  27.432  1.00  0.00     0.163 HD
BRANCH   4   7
ATOM      7  C   UNL A   1      45.113  22.963  27.107  1.00  0.00     0.169 C 
BRANCH   7   8
ATOM      8  S   UNL A   1      46.004  22.875  25.523  1.00  0.00    -0.145 SA
BRANCH   8   9
ATOM      9  C   UNL A   1      45.026  21.604  24.649  1.00  0.00     0.132 C 
BRANCH   9  10
ATOM     10  C   UNL A   1      45.439  20.207  24.940  1.00  0.00     0.117 A 
ATOM     11  C   UNL A   1      43.190  18.971  25.491  1.00  0.00     0.073 C 
ATOM     12  C   UNL A   1      44.650  19.090  25.292  1.00  0.00     0.106 A 
ATOM     13  N   UNL A   1      45.434  18.018  25.430  1.00  0.00    -0.055 NA
ATOM     14  O   UNL A   1      46.718  18.470  25.152  1.00  0.00    -0.244 OA
ATOM     15  N   UNL A   1      46.716  19.822  24.837  1.00  0.00    -0.054 NA
ENDBRANCH   9  10
ENDBRANCH   8   9
ENDBRANCH   7   8
ENDBRANCH   4   7
ENDBRANCH   2   3
ENDBRANCH   1   2
BRANCH   1  16
ATOM     16  C   UNL A   1      41.111  21.987  26.138  1.00  0.00     0.118 C 
BRANCH  16  17
ATOM     17  N   UNL A   1      39.724  22.181  25.748  1.00  0.00    -0.352 N 
ATOM     18  C   UNL A   1      38.827  23.155  26.106  1.00  0.00     0.251 C 
ATOM     19  H   UNL A   1      39.371  21.503  25.128  1.00  0.00     0.163 HD
ATOM     20  O   UNL A   1      37.645  23.012  25.793  1.00  0.00    -0.269 OA
BRANCH  18  21
ATOM     21  C   UNL A   1      39.245  24.359  26.863  1.00  0.00     0.039 A 
ATOM     22  C   UNL A   1      40.004  25.329  26.200  1.00  0.00     0.014 A 
ATOM     23  C   UNL A   1      38.967  24.514  28.225  1.00  0.00     0.014 A 
ATOM     24  C   UNL A   1      40.451  26.462  26.886  1.00  0.00     0.010 A 
ATOM     25  C   UNL A   1      39.356  25.677  28.892  1.00  0.00     0.010 A 
ATOM     26  C   UNL A   1      40.116  26.656  28.236  1.00  0.00    -0.014 A 
BRANCH  26  27
ATOM     27  C   UNL A   1      40.575  27.868  28.965  1.00  0.00     0.031 A 
ATOM     28  C   UNL A   1      41.961  27.930  29.551  1.00  0.00     0.074 A 
ATOM     29  C   UNL A   1      39.734  28.910  29.123  1.00  0.00     0.049 A 
ATOM     30  N   UNL A   1      42.535  28.904  30.211  1.00  0.00    -0.248 NA
ATOM     31  C   UNL A   1      42.806  26.736  29.393  1.00  0.00     0.031 C 
ATOM     32  C   UNL A   1      38.351  28.962  28.644  1.00  0.00     0.029 A 
ATOM     33  N   UNL A   1      39.922  30.126  29.731  1.00  0.00    -0.354 N 
ATOM     34  C   UNL A   1      43.798  28.437  30.560  1.00  0.00     0.074 A 
ATOM     35  C   UNL A   1      43.888  27.075  30.078  1.00  0.00     0.031 C 
ATOM     36  C   UNL A   1      37.827  30.160  28.948  1.00  0.00     0.029 A 
ATOM     37  C   UNL A   1      38.823  30.951  29.665  1.00  0.00     0.049 A 
ATOM     38  H   UNL A   1      40.763  30.384  30.171  1.00  0.00     0.167 HD
ATOM     39  C   UNL A   1      44.798  29.085  31.204  1.00  0.00     0.031 A 
ATOM     40  C   UNL A   1      38.638  32.204  30.121  1.00  0.00     0.031 A 
ATOM     41  C   UNL A   1      44.717  30.444  31.671  1.00  0.00     0.049 A 
ATOM     42  C   UNL A   1      39.774  32.913  30.807  1.00  0.00     0.074 A 
ATOM     43  C   UNL A   1      45.694  31.202  32.294  1.00  0.00     0.029 A 
ATOM     44  N   UNL A   1      43.595  31.251  31.563  1.00  0.00    -0.354 N 
ATOM     45  N   UNL A   1      40.978  32.471  31.078  1.00  0.00    -0.248 NA
ATOM     46  C   UNL A   1      39.528  34.299  31.229  1.00  0.00     0.031 C 
ATOM     47  C   UNL A   1      45.151  32.458  32.593  1.00  0.00     0.029 A 
ATOM     48  C   UNL A   1      43.851  32.496  32.114  1.00  0.00     0.049 A 
ATOM     49  H   UNL A   1      42.742  30.980  31.154  1.00  0.00     0.167 HD
ATOM     50  C   UNL A   1      41.645  33.535  31.676  1.00  0.00     0.074 A 
ATOM     51  C   UNL A   1      40.713  34.645  31.714  1.00  0.00     0.031 C 
ATOM     52  C   UNL A   1      42.915  33.590  32.149  1.00  0.00     0.031 A 
BRANCH  39  53
ATOM     53  C   UNL A   1      46.075  28.321  31.443  1.00  0.00    -0.014 A 
ATOM     54  C   UNL A   1      46.252  27.550  32.607  1.00  0.00     0.010 A 
ATOM     55  C   UNL A   1      47.101  28.352  30.481  1.00  0.00     0.010 A 
ATOM     56  C   UNL A   1      47.449  26.863  32.827  1.00  0.00     0.020 A 
ATOM     57  C   UNL A   1      48.290  27.644  30.685  1.00  0.00     0.020 A 
ATOM     58  C   UNL A   1      48.463  26.921  31.866  1.00  0.00     0.054 A 
BRANCH  58  59
ATOM     59  S   UNL A   1      50.004  26.013  32.172  1.00  0.00     0.124 S 
ATOM     60  O   UNL A   1      50.829  27.031  32.817  1.00  0.00    -0.237 OA
ATOM     61  O   UNL A   1      49.569  24.919  33.035  1.00  0.00    -0.237 OA
ATOM     62  O   UNL A   1      50.440  25.613  30.836  1.00  0.00    -0.744 OA
ENDBRANCH  58  59
ENDBRANCH  39  53
BRANCH  40  63
ATOM     63  C   UNL A   1      37.334  32.885  29.908  1.00  0.00    -0.014 A 
ATOM     64  C   UNL A   1      37.081  33.581  28.712  1.00  0.00     0.010 A 
ATOM     65  C   UNL A   1      36.333  32.832  30.895  1.00  0.00     0.010 A 
ATOM     66  C   UNL A   1      35.857  34.226  28.514  1.00  0.00     0.020 A 
ATOM     67  C   UNL A   1      35.099  33.456  30.690  1.00  0.00     0.020 A 
ATOM     68  C   UNL A   1      34.874  34.159  29.505  1.00  0.00     0.054 A 
BRANCH  68  69
ATOM     69  S   UNL A   1      33.272  34.958  29.206  1.00  0.00     0.124 S 
ATOM     70  O   UNL A   1      33.676  36.272  28.715  1.00  0.00    -0.237 OA
ATOM     71  O   UNL A   1      32.655  34.074  28.220  1.00  0.00    -0.237 OA
ATOM     72  O   UNL A   1      32.638  34.948  30.522  1.00  0.00    -0.744 OA
ENDBRANCH  68  69
ENDBRANCH  40  63
BRANCH  52  73
ATOM     73  C   UNL A   1      43.381  34.906  32.711  1.00  0.00    -0.014 A 
ATOM     74  C   UNL A   1      43.205  35.224  34.069  1.00  0.00     0.010 A 
ATOM     75  C   UNL A   1      44.016  35.833  31.866  1.00  0.00     0.010 A 
ATOM     76  C   UNL A   1      43.611  36.468  34.561  1.00  0.00     0.020 A 
ATOM     77  C   UNL A   1      44.447  37.067  32.359  1.00  0.00     0.020 A 
ATOM     78  C   UNL A   1      44.222  37.386  33.700  1.00  0.00     0.054 A 
BRANCH  78  79
ATOM     79  S   UNL A   1      44.747  38.992  34.358  1.00  0.00     0.124 S 
ATOM     80  O   UNL A   1      46.096  39.116  33.812  1.00  0.00    -0.237 OA
ATOM     81  O   UNL A   1      43.757  39.910  33.801  1.00  0.00    -0.237 OA
ATOM     82  O   UNL A   1      44.674  38.811  35.807  1.00  0.00    -0.744 OA
ENDBRANCH  78  79
ENDBRANCH  52  73
ENDBRANCH  26  27
ENDBRANCH  18  21
ENDBRANCH  16  17
ENDBRANCH   1  16
TORSDOF 16
ENDMDL
MODEL 2
REMARK VINA RESULT:      -9.3      1.727      3.073
REMARK SMILES Cc1nonc1CSCC(=O)NCCCNC(=O)c1ccc(-c2c3nc(c(-c4ccc(S(=O)(=O)[O-])cc4)c4ccc([nH]4)c(-c4ccc(S(=O)(=O)[O-])cc4)c4nc(c(-c5ccc(S(=O)(=O)[O-])cc5)c5ccc2[nH]5)C=C4)C=C3)cc1
REMARK SMILES IDX 14 1 13 2 12 3 10 4 11 5 9 7 8 8 7 9 6 10 1 11 2 12 3 13
REMARK SMILES IDX 4 14 5 15 15 16 16 17 17 18 18 20 19 21 20 22 78 23 21 24
REMARK SMILES IDX 77 25 22 26 23 27 24 28 71 29 25 30 76 31 70 32 72 33 26 34
REMARK SMILES IDX 75 35 69 36 68 37 27 39 57 40 38 41 56 42 39 43 42 44 55 45
REMARK SMILES IDX 73 46 40 47 41 48 54 50 74 51 43 52 28 53 29 54 37 55 30 56
REMARK SMILES IDX 36 57 31 58 32 59 33 60 34 61 35 62 58 63 59 64 67 65 60 66
REMARK SMILES IDX 66 67 61 68 62 69 63 70 64 71 65 72 44 73 45 74 53 75 46 76
REMARK SMILES IDX 52 77 47 78 48 79 49 80 50 81 51 82
REMARK H PARENT 12 6 16 19 72 38 42 49
REMARK Flexibility Score: inf
ROOT
ATOM      1  C   UNL A   1      42.067  22.126  25.830  1.00  0.00     0.042 C 
ENDROOT
BRANCH   1   2
ATOM      2  C   UNL A   1      43.182  21.105  25.613  1.00  0.00     0.117 C 
BRANCH   2   3
ATOM      3  N   UNL A   1      44.447  21.554  26.171  1.00  0.00    -0.355 N 
ATOM      4  C   UNL A   1      45.259  22.566  25.754  1.00  0.00     0.230 C 
ATOM      5  O   UNL A   1      46.360  22.691  26.297  1.00  0.00    -0.274 OA
ATOM      6  H   UNL A   1      44.760  21.058  26.961  1.00  0.00     0.163 HD
BRANCH   4   7
ATOM      7  C   UNL A   1      44.815  23.511  24.655  1.00  0.00     0.169 C 
BRANCH   7   8
ATOM      8  S   UNL A   1      44.368  25.158  25.287  1.00  0.00    -0.145 SA
BRANCH   8   9
ATOM      9  C   UNL A   1      46.022  25.847  25.647  1.00  0.00     0.132 C 
BRANCH   9  10
ATOM     10  C   UNL A   1      46.247  27.212  25.104  1.00  0.00     0.117 A 
ATOM     11  C   UNL A   1      45.506  28.810  27.050  1.00  0.00     0.073 C 
ATOM     12  C   UNL A   1      46.031  28.468  25.711  1.00  0.00     0.106 A 
ATOM     13  N   UNL A   1      46.402  29.437  24.870  1.00  0.00    -0.055 NA
ATOM     14  O   UNL A   1      46.862  28.777  23.738  1.00  0.00    -0.244 OA
ATOM     15  N   UNL A   1      46.776  27.400  23.890  1.00  0.00    -0.054 NA
ENDBRANCH   9  10
ENDBRANCH   8   9
ENDBRANCH   7   8
ENDBRANCH   4   7
ENDBRANCH   2   3
ENDBRANCH   1   2
BRANCH   1  16
ATOM     16  C   UNL A   1      40.854  21.590  26.587  1.00  0.00     0.118 C 
BRANCH  16  17
ATOM     17  N   UNL A   1      39.595  21.941  25.951  1.00  0.00    -0.352 N 
ATOM     18  C   UNL A   1      38.835  23.079  26.050  1.00  0.00     0.251 C 
ATOM     19  H   UNL A   1      39.228  21.251  25.354  1.00  0.00     0.163 HD
ATOM     20  O   UNL A   1      37.706  23.077  25.558  1.00  0.00    -0.269 OA
BRANCH  18  21
ATOM     21  C   UNL A   1      39.335  24.292  26.738  1.00  0.00     0.039 A 
ATOM     22  C   UNL A   1      38.957  24.504  28.068  1.00  0.00     0.014 A 
ATOM     23  C   UNL A   1      40.106  25.256  26.079  1.00  0.00     0.014 A 
ATOM     24  C   UNL A   1      39.376  25.655  28.743  1.00  0.00     0.010 A 
ATOM     25  C   UNL A   1      40.579  26.371  26.774  1.00  0.00     0.010 A 
ATOM     26  C   UNL A   1      40.207  26.591  28.108  1.00  0.00    -0.014 A 
BRANCH  26  27
ATOM     27  C   UNL A   1      40.669  27.807  28.827  1.00  0.00     0.031 A 
ATOM     28  C   UNL A   1      42.062  27.880  29.395  1.00  0.00     0.074 A 
ATOM     29  C   UNL A   1      39.823  28.845  28.994  1.00  0.00     0.049 A 
ATOM     30  N   UNL A   1      42.638  28.859  30.044  1.00  0.00    -0.248 NA
ATOM     31  C   UNL A   1      42.912  26.691  29.229  1.00  0.00     0.031 C 
ATOM     32  C   UNL A   1      38.433  28.887  28.534  1.00  0.00     0.029 A 
ATOM     33  N   UNL A   1      40.012  30.064  29.596  1.00  0.00    -0.354 N 
ATOM     34  C   UNL A   1      43.909  28.401  30.377  1.00  0.00     0.074 A 
ATOM     35  C   UNL A   1      44.001  27.038  29.898  1.00  0.00     0.031 C 
ATOM     36  C   UNL A   1      37.906  30.083  28.841  1.00  0.00     0.029 A 
ATOM     37  C   UNL A   1      38.907  30.882  29.542  1.00  0.00     0.049 A 
ATOM     38  H   UNL A   1      40.857  30.329  30.024  1.00  0.00     0.167 HD
ATOM     39  C   UNL A   1      44.914  29.058  31.006  1.00  0.00     0.031 A 
ATOM     40  C   UNL A   1      38.721  32.135  29.998  1.00  0.00     0.031 A 
ATOM     41  C   UNL A   1      44.830  30.417  31.470  1.00  0.00     0.049 A 
ATOM     42  C   UNL A   1      39.861  32.853  30.666  1.00  0.00     0.074 A 
ATOM     43  C   UNL A   1      45.811  31.183  32.077  1.00  0.00     0.029 A 
ATOM     44  N   UNL A   1      43.702  31.217  31.375  1.00  0.00    -0.354 N 
ATOM     45  N   UNL A   1      41.072  32.419  30.921  1.00  0.00    -0.248 NA
ATOM     46  C   UNL A   1      39.613  34.239  31.088  1.00  0.00     0.031 C 
ATOM     47  C   UNL A   1      45.265  32.436  32.380  1.00  0.00     0.029 A 
ATOM     48  C   UNL A   1      43.958  32.465  31.919  1.00  0.00     0.049 A 
ATOM     49  H   UNL A   1      42.845  30.939  30.978  1.00  0.00     0.167 HD
ATOM     50  C   UNL A   1      41.740  33.489  31.508  1.00  0.00     0.074 A 
ATOM     51  C   UNL A   1      40.801  34.593  31.555  1.00  0.00     0.031 C 
ATOM     52  C   UNL A   1      43.015  33.553  31.963  1.00  0.00     0.031 A 
BRANCH  39  53
ATOM     53  C   UNL A   1      46.199  28.302  31.230  1.00  0.00    -0.014 A 
ATOM     54  C   UNL A   1      47.297  28.467  30.365  1.00  0.00     0.010 A 
ATOM     55  C   UNL A   1      46.321  27.438  32.333  1.00  0.00     0.010 A 
ATOM     56  C   UNL A   1      48.475  27.745  30.571  1.00  0.00     0.020 A 
ATOM     57  C   UNL A   1      47.508  26.734  32.558  1.00  0.00     0.020 A 
ATOM     58  C   UNL A   1      48.570  26.877  31.663  1.00  0.00     0.054 A 
BRANCH  58  59
ATOM     59  S   UNL A   1      50.114  25.957  31.913  1.00  0.00     0.124 S 
ATOM     60  O   UNL A   1      50.928  26.929  32.640  1.00  0.00    -0.237 OA
ATOM     61  O   UNL A   1      49.679  24.799  32.688  1.00  0.00    -0.237 OA
ATOM     62  O   UNL A   1      50.564  25.661  30.555  1.00  0.00    -0.744 OA
ENDBRANCH  58  59
ENDBRANCH  39  53
BRANCH  40  63
ATOM     63  C   UNL A   1      37.410  32.808  29.800  1.00  0.00    -0.014 A 
ATOM     64  C   UNL A   1      36.455  32.827  30.833  1.00  0.00     0.010 A 
ATOM     65  C   UNL A   1      37.112  33.443  28.581  1.00  0.00     0.010 A 
ATOM     66  C   UNL A   1      35.221  33.454  30.645  1.00  0.00     0.020 A 
ATOM     67  C   UNL A   1      35.888  34.092  28.397  1.00  0.00     0.020 A 
ATOM     68  C   UNL A   1      34.946  34.084  29.427  1.00  0.00     0.054 A 
BRANCH  68  69
ATOM     69  S   UNL A   1      33.358  34.939  29.222  1.00  0.00     0.124 S 
ATOM     70  O   UNL A   1      32.809  34.887  30.574  1.00  0.00    -0.237 OA
ATOM     71  O   UNL A   1      33.767  36.260  28.753  1.00  0.00    -0.237 OA
ATOM     72  O   UNL A   1      32.660  34.123  28.230  1.00  0.00    -0.744 OA
ENDBRANCH  68  69
ENDBRANCH  40  63
BRANCH  52  73
ATOM     73  C   UNL A   1      43.481  34.873  32.515  1.00  0.00    -0.014 A 
ATOM     74  C   UNL A   1      44.097  35.833  31.693  1.00  0.00     0.010 A 
ATOM     75  C   UNL A   1      43.287  35.160  33.879  1.00  0.00     0.010 A 
ATOM     76  C   UNL A   1      44.556  37.037  32.235  1.00  0.00     0.020 A 
ATOM     77  C   UNL A   1      43.721  36.374  34.419  1.00  0.00     0.020 A 
ATOM     78  C   UNL A   1      44.373  37.296  33.598  1.00  0.00     0.054 A 
BRANCH  78  79
ATOM     79  S   UNL A   1      44.970  38.866  34.281  1.00  0.00     0.124 S 
ATOM     80  O   UNL A   1      45.406  39.572  33.079  1.00  0.00    -0.237 OA
ATOM     81  O   UNL A   1      43.782  39.410  34.933  1.00  0.00    -0.237 OA
ATOM     82  O   UNL A   1      46.041  38.461  35.189  1.00  0.00    -0.744 OA
ENDBRANCH  78  79
ENDBRANCH  52  73
ENDBRANCH  26  27
ENDBRANCH  18  21
ENDBRANCH  16  17
ENDBRANCH   1  16
TORSDOF 16
ENDMDL
MODEL 3
REMARK VINA RESULT:      -9.3      0.665      8.623
REMARK SMILES Cc1nonc1CSCC(=O)NCCCNC(=O)c1ccc(-c2c3nc(c(-c4ccc(S(=O)(=O)[O-])cc4)c4ccc([nH]4)c(-c4ccc(S(=O)(=O)[O-])cc4)c4nc(c(-c5ccc(S(=O)(=O)[O-])cc5)c5ccc2[nH]5)C=C4)C=C3)cc1
REMARK SMILES IDX 14 1 13 2 12 3 10 4 11 5 9 7 8 8 7 9 6 10 1 11 2 12 3 13
REMARK SMILES IDX 4 14 5 15 15 16 16 17 17 18 18 20 19 21 20 22 78 23 21 24
REMARK SMILES IDX 77 25 22 26 23 27 24 28 71 29 25 30 76 31 70 32 72 33 26 34
REMARK SMILES IDX 75 35 69 36 68 37 27 39 57 40 38 41 56 42 39 43 42 44 55 45
REMARK SMILES IDX 73 46 40 47 41 48 54 50 74 51 43 52 28 53 29 54 37 55 30 56
REMARK SMILES IDX 36 57 31 58 32 59 33 60 34 61 35 62 58 63 59 64 67 65 60 66
REMARK SMILES IDX 66 67 61 68 62 69 63 70 64 71 65 72 44 73 45 74 53 75 46 76
REMARK SMILES IDX 52 77 47 78 48 79 49 80 50 81 51 82
REMARK H PARENT 12 6 16 19 72 38 42 49
REMARK Flexibility Score: inf
ROOT
ATOM      1  C   UNL A   1      41.008  21.786  27.663  1.00  0.00     0.042 C 
ENDROOT
BRANCH   1   2
ATOM      2  C   UNL A   1      42.202  22.504  28.291  1.00  0.00     0.117 C 
BRANCH   2   3
ATOM      3  N   UNL A   1      42.631  23.643  27.495  1.00  0.00    -0.355 N 
ATOM      4  C   UNL A   1      43.845  23.881  26.921  1.00  0.00     0.230 C 
ATOM      5  O   UNL A   1      44.034  24.981  26.396  1.00  0.00    -0.274 OA
ATOM      6  H   UNL A   1      41.950  24.338  27.351  1.00  0.00     0.163 HD
BRANCH   4   7
ATOM      7  C   UNL A   1      44.924  22.817  26.925  1.00  0.00     0.169 C 
BRANCH   7   8
ATOM      8  S   UNL A   1      45.924  22.828  25.405  1.00  0.00    -0.145 SA
BRANCH   8   9
ATOM      9  C   UNL A   1      45.058  21.560  24.416  1.00  0.00     0.132 C 
BRANCH   9  10
ATOM     10  C   UNL A   1      45.388  20.161  24.790  1.00  0.00     0.117 A 
ATOM     11  C   UNL A   1      43.090  19.129  25.526  1.00  0.00     0.073 C 
ATOM     12  C   UNL A   1      44.543  19.130  25.255  1.00  0.00     0.106 A 
ATOM     13  N   UNL A   1      45.259  18.017  25.437  1.00  0.00    -0.055 NA
ATOM     14  O   UNL A   1      46.556  18.356  25.072  1.00  0.00    -0.244 OA
ATOM     15  N   UNL A   1      46.630  19.680  24.660  1.00  0.00    -0.054 NA
ENDBRANCH   9  10
ENDBRANCH   8   9
ENDBRANCH   7   8
ENDBRANCH   4   7
ENDBRANCH   2   3
ENDBRANCH   1   2
BRANCH   1  16
ATOM     16  C   UNL A   1      40.864  21.990  26.157  1.00  0.00     0.118 C 
BRANCH  16  17
ATOM     17  N   UNL A   1      39.497  22.283  25.759  1.00  0.00    -0.352 N 
ATOM     18  C   UNL A   1      38.668  23.316  26.115  1.00  0.00     0.251 C 
ATOM     19  H   UNL A   1      39.102  21.634  25.133  1.00  0.00     0.163 HD
ATOM     20  O   UNL A   1      37.481  23.257  25.793  1.00  0.00    -0.269 OA
BRANCH  18  21
ATOM     21  C   UNL A   1      39.164  24.484  26.881  1.00  0.00     0.039 A 
ATOM     22  C   UNL A   1      39.966  25.419  26.218  1.00  0.00     0.014 A 
ATOM     23  C   UNL A   1      38.916  24.637  28.248  1.00  0.00     0.014 A 
ATOM     24  C   UNL A   1      40.486  26.516  26.912  1.00  0.00     0.010 A 
ATOM     25  C   UNL A   1      39.379  25.767  28.925  1.00  0.00     0.010 A 
ATOM     26  C   UNL A   1      40.182  26.711  28.268  1.00  0.00    -0.014 A 
BRANCH  26  27
ATOM     27  C   UNL A   1      40.719  27.885  29.005  1.00  0.00     0.031 A 
ATOM     28  C   UNL A   1      39.861  29.101  29.241  1.00  0.00     0.074 A 
ATOM     29  C   UNL A   1      41.994  27.871  29.444  1.00  0.00     0.049 A 
ATOM     30  N   UNL A   1      40.158  30.211  29.868  1.00  0.00    -0.248 NA
ATOM     31  C   UNL A   1      38.500  29.074  28.684  1.00  0.00     0.031 C 
ATOM     32  C   UNL A   1      42.947  26.776  29.245  1.00  0.00     0.029 A 
ATOM     33  N   UNL A   1      42.707  28.807  30.152  1.00  0.00    -0.354 N 
ATOM     34  C   UNL A   1      39.029  31.018  29.767  1.00  0.00     0.074 A 
ATOM     35  C   UNL A   1      38.060  30.288  28.979  1.00  0.00     0.031 C 
ATOM     36  C   UNL A   1      44.107  27.090  29.843  1.00  0.00     0.029 A 
ATOM     37  C   UNL A   1      43.992  28.415  30.446  1.00  0.00     0.049 A 
ATOM     38  H   UNL A   1      42.333  29.675  30.425  1.00  0.00     0.167 HD
ATOM     39  C   UNL A   1      38.810  32.247  30.297  1.00  0.00     0.031 A 
ATOM     40  C   UNL A   1      44.967  29.044  31.129  1.00  0.00     0.031 A 
ATOM     41  C   UNL A   1      39.767  32.969  31.094  1.00  0.00     0.049 A 
ATOM     42  C   UNL A   1      44.690  30.394  31.732  1.00  0.00     0.074 A 
ATOM     43  C   UNL A   1      39.619  34.199  31.713  1.00  0.00     0.029 A 
ATOM     44  N   UNL A   1      41.047  32.526  31.387  1.00  0.00    -0.354 N 
ATOM     45  N   UNL A   1      43.597  31.115  31.671  1.00  0.00    -0.248 NA
ATOM     46  C   UNL A   1      45.774  31.003  32.515  1.00  0.00     0.031 C 
ATOM     47  C   UNL A   1      40.824  34.515  32.352  1.00  0.00     0.029 A 
ATOM     48  C   UNL A   1      41.704  33.461  32.170  1.00  0.00     0.049 A 
ATOM     49  H   UNL A   1      41.432  31.673  31.084  1.00  0.00     0.167 HD
ATOM     50  C   UNL A   1      43.851  32.251  32.432  1.00  0.00     0.074 A 
ATOM     51  C   UNL A   1      45.196  32.112  32.955  1.00  0.00     0.031 C 
ATOM     52  C   UNL A   1      43.043  33.312  32.679  1.00  0.00     0.031 A 
BRANCH  39  53
ATOM     53  C   UNL A   1      37.474  32.888  30.025  1.00  0.00    -0.014 A 
ATOM     54  C   UNL A   1      37.275  33.696  28.891  1.00  0.00     0.010 A 
ATOM     55  C   UNL A   1      36.396  32.659  30.899  1.00  0.00     0.010 A 
ATOM     56  C   UNL A   1      36.037  34.302  28.660  1.00  0.00     0.020 A 
ATOM     57  C   UNL A   1      35.148  33.242  30.658  1.00  0.00     0.020 A 
ATOM     58  C   UNL A   1      34.983  34.076  29.551  1.00  0.00     0.054 A 
BRANCH  58  59
ATOM     59  S   UNL A   1      33.383  34.868  29.225  1.00  0.00     0.124 S 
ATOM     60  O   UNL A   1      32.776  33.938  28.276  1.00  0.00    -0.237 OA
ATOM     61  O   UNL A   1      32.766  34.907  30.548  1.00  0.00    -0.237 OA
ATOM     62  O   UNL A   1      33.749  36.171  28.673  1.00  0.00    -0.744 OA
ENDBRANCH  58  59
ENDBRANCH  39  53
BRANCH  40  63
ATOM     63  C   UNL A   1      46.287  28.385  31.313  1.00  0.00    -0.014 A 
ATOM     64  C   UNL A   1      47.333  28.619  30.403  1.00  0.00     0.010 A 
ATOM     65  C   UNL A   1      46.508  27.529  32.407  1.00  0.00     0.010 A 
ATOM     66  C   UNL A   1      48.572  27.995  30.574  1.00  0.00     0.020 A 
ATOM     67  C   UNL A   1      47.753  26.922  32.594  1.00  0.00     0.020 A 
ATOM     68  C   UNL A   1      48.774  27.150  31.669  1.00  0.00     0.054 A 
BRANCH  68  69
ATOM     69  S   UNL A   1      50.406  26.391  31.902  1.00  0.00     0.124 S 
ATOM     70  O   UNL A   1      50.055  25.049  32.353  1.00  0.00    -0.237 OA
ATOM     71  O   UNL A   1      50.991  26.480  30.566  1.00  0.00    -0.237 OA
ATOM     72  O   UNL A   1      51.036  27.246  32.906  1.00  0.00    -0.744 OA
ENDBRANCH  68  69
ENDBRANCH  40  63
BRANCH  52  73
ATOM     73  C   UNL A   1      43.581  34.386  33.586  1.00  0.00    -0.014 A 
ATOM     74  C   UNL A   1      43.421  34.313  34.982  1.00  0.00     0.010 A 
ATOM     75  C   UNL A   1      44.267  35.481  33.031  1.00  0.00     0.010 A 
ATOM     76  C   UNL A   1      43.895  35.341  35.801  1.00  0.00     0.020 A 
ATOM     77  C   UNL A   1      44.765  36.499  33.849  1.00  0.00     0.020 A 
ATOM     78  C   UNL A   1      44.556  36.432  35.229  1.00  0.00     0.054 A 
BRANCH  78  79
ATOM     79  S   UNL A   1      45.169  37.753  36.310  1.00  0.00     0.124 S 
ATOM     80  O   UNL A   1      43.929  38.278  36.878  1.00  0.00    -0.237 OA
ATOM     81  O   UNL A   1      46.033  37.035  37.243  1.00  0.00    -0.237 OA
ATOM     82  O   UNL A   1      45.865  38.654  35.394  1.00  0.00    -0.744 OA
ENDBRANCH  78  79
ENDBRANCH  52  73
ENDBRANCH  26  27
ENDBRANCH  18  21
ENDBRANCH  16  17
ENDBRANCH   1  16
TORSDOF 16
ENDMDL
