MODEL 1
REMARK VINA RESULT:     -10.4      0.000      0.000
REMARK SMILES C[C@H](CO)CSc1cc(Cl)ccc1C(=O)NCCCNC(=O)c1ccc(-c2c3nc(c(-c4ccc(S(=O)(=O)[O-])cc4)c4ccc([nH]4)c(-c4ccc(S(=O)(=O)[O-])cc4)c4nc(c(-c5ccc(S(=O)(=O)[O-])cc5)c5ccc2[nH]5)C=C4)C=C3)cc1
REMARK SMILES IDX 17 1 16 2 14 3 15 4 13 6 7 7 8 8 9 9 12 10 10 11 11 12 6 13
REMARK SMILES IDX 5 14 2 15 1 16 3 17 4 18 18 20 19 21 20 22 21 23 22 25 23 26
REMARK SMILES IDX 24 27 82 28 25 29 81 30 26 31 27 32 28 33 75 34 29 35 80 36
REMARK SMILES IDX 74 37 76 38 30 39 79 40 73 41 72 42 31 44 61 45 42 46 60 47
REMARK SMILES IDX 43 48 46 49 59 50 77 51 44 52 45 53 58 55 78 56 47 57 32 58
REMARK SMILES IDX 33 59 41 60 34 61 40 62 35 63 36 64 37 65 38 66 39 67 62 68
REMARK SMILES IDX 63 69 71 70 64 71 70 72 65 73 66 74 67 75 68 76 69 77 48 78
REMARK SMILES IDX 49 79 57 80 50 81 56 82 51 83 52 84 53 85 54 86 55 87
REMARK H PARENT 16 5 4 19 20 24 76 43 46 54
REMARK Flexibility Score: inf
ROOT
ATOM      1  C   UNL A   1      33.653  32.125  28.472  1.00  0.00     0.118 C 
ENDROOT
BRANCH   1   2
ATOM      2  N   UNL A   1      33.658  33.556  28.387  1.00  0.00    -0.352 N 
ATOM      3  C   UNL A   1      34.650  34.423  28.768  1.00  0.00     0.252 C 
ATOM      4  O   UNL A   1      34.494  35.615  28.492  1.00  0.00    -0.269 OA
ATOM      5  H   UNL A   1      32.849  33.968  28.006  1.00  0.00     0.163 HD
BRANCH   3   6
ATOM      6  C   UNL A   1      35.827  34.043  29.614  1.00  0.00     0.053 A 
ATOM      7  C   UNL A   1      35.892  33.774  31.001  1.00  0.00     0.021 A 
ATOM      8  C   UNL A   1      37.084  33.220  31.516  1.00  0.00     0.036 A 
ATOM      9  C   UNL A   1      38.207  33.010  30.722  1.00  0.00     0.042 A 
ATOM     10  C   UNL A   1      36.985  33.813  28.826  1.00  0.00     0.016 A 
ATOM     11  Cl  UNL A   1      39.632  32.351  31.421  1.00  0.00    -0.084 Cl
ATOM     12  C   UNL A   1      38.168  33.315  29.375  1.00  0.00     0.021 A 
BRANCH   7  13
ATOM     13  S   UNL A   1      34.600  33.910  32.248  1.00  0.00    -0.125 SA
BRANCH  13  14
ATOM     14  C   UNL A   1      34.755  35.689  32.759  1.00  0.00     0.080 C 
BRANCH  14  15
ATOM     15  C   UNL A   1      33.479  36.550  32.757  1.00  0.00     0.022 C 
ATOM     16  C   UNL A   1      32.307  35.723  32.205  1.00  0.00     0.011 C 
BRANCH  15  17
ATOM     17  C   UNL A   1      33.684  37.841  31.953  1.00  0.00     0.160 C 
BRANCH  17  18
ATOM     18  O   UNL A   1      33.427  37.680  30.566  1.00  0.00    -0.396 OA
ATOM     19  H   UNL A   1      32.679  37.077  30.444  1.00  0.00     0.210 HD
ENDBRANCH  17  18
ENDBRANCH  15  17
ENDBRANCH  14  15
ENDBRANCH  13  14
ENDBRANCH   7  13
ENDBRANCH   3   6
ENDBRANCH   1   2
BRANCH   1  20
ATOM     20  C   UNL A   1      34.484  31.373  27.461  1.00  0.00     0.042 C 
BRANCH  20  21
ATOM     21  C   UNL A   1      35.443  30.357  28.046  1.00  0.00     0.118 C 
BRANCH  21  22
ATOM     22  N   UNL A   1      35.477  30.343  29.504  1.00  0.00    -0.352 N 
ATOM     23  C   UNL A   1      36.446  29.937  30.397  1.00  0.00     0.251 C 
ATOM     24  H   UNL A   1      34.657  30.686  29.929  1.00  0.00     0.163 HD
ATOM     25  O   UNL A   1      36.184  29.921  31.592  1.00  0.00    -0.269 OA
BRANCH  23  26
ATOM     26  C   UNL A   1      37.778  29.482  29.927  1.00  0.00     0.039 A 
ATOM     27  C   UNL A   1      38.138  29.686  28.590  1.00  0.00     0.014 A 
ATOM     28  C   UNL A   1      38.673  28.849  30.785  1.00  0.00     0.014 A 
ATOM     29  C   UNL A   1      39.419  29.329  28.151  1.00  0.00     0.010 A 
ATOM     30  C   UNL A   1      39.989  28.639  30.391  1.00  0.00     0.010 A 
ATOM     31  C   UNL A   1      40.371  28.844  29.060  1.00  0.00    -0.014 A 
BRANCH  31  32
ATOM     32  C   UNL A   1      41.752  28.482  28.644  1.00  0.00     0.031 A 
ATOM     33  C   UNL A   1      42.823  29.546  28.597  1.00  0.00     0.074 A 
ATOM     34  C   UNL A   1      42.031  27.225  28.242  1.00  0.00     0.049 A 
ATOM     35  N   UNL A   1      44.060  29.456  28.180  1.00  0.00    -0.248 NA
ATOM     36  C   UNL A   1      42.441  30.901  29.036  1.00  0.00     0.031 C 
ATOM     37  C   UNL A   1      41.074  26.116  28.187  1.00  0.00     0.029 A 
ATOM     38  N   UNL A   1      43.205  26.668  27.800  1.00  0.00    -0.354 N 
ATOM     39  C   UNL A   1      44.586  30.741  28.277  1.00  0.00     0.074 A 
ATOM     40  C   UNL A   1      43.517  31.605  28.722  1.00  0.00     0.031 C 
ATOM     41  C   UNL A   1      41.709  25.005  27.779  1.00  0.00     0.029 A 
ATOM     42  C   UNL A   1      43.103  25.330  27.498  1.00  0.00     0.049 A 
ATOM     43  H   UNL A   1      44.041  27.178  27.706  1.00  0.00     0.167 HD
ATOM     44  C   UNL A   1      45.853  31.163  28.054  1.00  0.00     0.031 A 
ATOM     45  C   UNL A   1      44.030  24.460  27.049  1.00  0.00     0.031 A 
ATOM     46  C   UNL A   1      46.923  30.294  27.650  1.00  0.00     0.049 A 
ATOM     47  C   UNL A   1      45.437  24.946  26.825  1.00  0.00     0.074 A 
ATOM     48  C   UNL A   1      48.258  30.604  27.457  1.00  0.00     0.029 A 
ATOM     49  N   UNL A   1      46.783  28.939  27.388  1.00  0.00    -0.354 N 
ATOM     50  N   UNL A   1      45.927  26.153  26.982  1.00  0.00    -0.248 NA
ATOM     51  C   UNL A   1      46.420  23.947  26.386  1.00  0.00     0.031 C 
ATOM     52  C   UNL A   1      48.916  29.447  27.029  1.00  0.00     0.029 A 
ATOM     53  C   UNL A   1      48.005  28.402  27.021  1.00  0.00     0.049 A 
ATOM     54  H   UNL A   1      45.941  28.435  27.454  1.00  0.00     0.167 HD
ATOM     55  C   UNL A   1      47.285  26.050  26.696  1.00  0.00     0.074 A 
ATOM     56  C   UNL A   1      47.537  24.660  26.371  1.00  0.00     0.031 C 
ATOM     57  C   UNL A   1      48.237  27.015  26.707  1.00  0.00     0.031 A 
BRANCH  44  58
ATOM     58  C   UNL A   1      46.146  32.628  28.252  1.00  0.00    -0.014 A 
ATOM     59  C   UNL A   1      46.445  33.146  29.526  1.00  0.00     0.010 A 
ATOM     60  C   UNL A   1      46.153  33.497  27.145  1.00  0.00     0.010 A 
ATOM     61  C   UNL A   1      46.699  34.509  29.697  1.00  0.00     0.020 A 
ATOM     62  C   UNL A   1      46.440  34.855  27.307  1.00  0.00     0.020 A 
ATOM     63  C   UNL A   1      46.694  35.356  28.585  1.00  0.00     0.054 A 
BRANCH  63  64
ATOM     64  S   UNL A   1      47.054  37.115  28.833  1.00  0.00     0.124 S 
ATOM     65  O   UNL A   1      46.097  37.749  27.929  1.00  0.00    -0.237 OA
ATOM     66  O   UNL A   1      46.787  37.298  30.258  1.00  0.00    -0.237 OA
ATOM     67  O   UNL A   1      48.456  37.241  28.443  1.00  0.00    -0.744 OA
ENDBRANCH  63  64
ENDBRANCH  44  58
BRANCH  45  68
ATOM     68  C   UNL A   1      43.665  23.036  26.811  1.00  0.00    -0.014 A 
ATOM     69  C   UNL A   1      43.982  22.412  25.590  1.00  0.00     0.010 A 
ATOM     70  C   UNL A   1      43.003  22.291  27.804  1.00  0.00     0.010 A 
ATOM     71  C   UNL A   1      43.623  21.081  25.358  1.00  0.00     0.020 A 
ATOM     72  C   UNL A   1      42.669  20.951  27.588  1.00  0.00     0.020 A 
ATOM     73  C   UNL A   1      42.969  20.359  26.360  1.00  0.00     0.054 A 
BRANCH  73  74
ATOM     74  S   UNL A   1      42.550  18.619  26.055  1.00  0.00     0.124 S 
ATOM     75  O   UNL A   1      43.434  18.286  24.941  1.00  0.00    -0.237 OA
ATOM     76  O   UNL A   1      42.874  17.988  27.331  1.00  0.00    -0.237 OA
ATOM     77  O   UNL A   1      41.125  18.663  25.733  1.00  0.00    -0.744 OA
ENDBRANCH  73  74
ENDBRANCH  45  68
BRANCH  57  78
ATOM     78  C   UNL A   1      49.652  26.594  26.412  1.00  0.00    -0.014 A 
ATOM     79  C   UNL A   1      50.457  25.982  27.388  1.00  0.00     0.010 A 
ATOM     80  C   UNL A   1      50.167  26.777  25.114  1.00  0.00     0.010 A 
ATOM     81  C   UNL A   1      51.766  25.601  27.084  1.00  0.00     0.020 A 
ATOM     82  C   UNL A   1      51.463  26.369  24.798  1.00  0.00     0.020 A 
ATOM     83  C   UNL A   1      52.262  25.799  25.791  1.00  0.00     0.054 A 
BRANCH  83  84
ATOM     84  S   UNL A   1      53.956  25.275  25.415  1.00  0.00     0.124 S 
ATOM     85  O   UNL A   1      54.699  25.813  26.550  1.00  0.00    -0.237 OA
ATOM     86  O   UNL A   1      53.838  23.818  25.374  1.00  0.00    -0.237 OA
ATOM     87  O   UNL A   1      54.237  25.907  24.128  1.00  0.00    -0.744 OA
ENDBRANCH  83  84
ENDBRANCH  57  78
ENDBRANCH  31  32
ENDBRANCH  23  26
ENDBRANCH  21  22
ENDBRANCH  20  21
ENDBRANCH   1  20
TORSDOF 18
ENDMDL
MODEL 2
REMARK VINA RESULT:     -10.3      0.713      8.455
REMARK SMILES C[C@H](CO)CSc1cc(Cl)ccc1C(=O)NCCCNC(=O)c1ccc(-c2c3nc(c(-c4ccc(S(=O)(=O)[O-])cc4)c4ccc([nH]4)c(-c4ccc(S(=O)(=O)[O-])cc4)c4nc(c(-c5ccc(S(=O)(=O)[O-])cc5)c5ccc2[nH]5)C=C4)C=C3)cc1
REMARK SMILES IDX 17 1 16 2 14 3 15 4 13 6 7 7 8 8 9 9 12 10 10 11 11 12 6 13
REMARK SMILES IDX 5 14 2 15 1 16 3 17 4 18 18 20 19 21 20 22 21 23 22 25 23 26
REMARK SMILES IDX 24 27 82 28 25 29 81 30 26 31 27 32 28 33 75 34 29 35 80 36
REMARK SMILES IDX 74 37 76 38 30 39 79 40 73 41 72 42 31 44 61 45 42 46 60 47
REMARK SMILES IDX 43 48 46 49 59 50 77 51 44 52 45 53 58 55 78 56 47 57 32 58
REMARK SMILES IDX 33 59 41 60 34 61 40 62 35 63 36 64 37 65 38 66 39 67 62 68
REMARK SMILES IDX 63 69 71 70 64 71 70 72 65 73 66 74 67 75 68 76 69 77 48 78
REMARK SMILES IDX 49 79 57 80 50 81 56 82 51 83 52 84 53 85 54 86 55 87
REMARK H PARENT 16 5 4 19 20 24 76 43 46 54
REMARK Flexibility Score: inf
ROOT
ATOM      1  C   UNL A   1      34.003  31.806  28.274  1.00  0.00     0.118 C 
ENDROOT
BRANCH   1   2
ATOM      2  N   UNL A   1      33.987  33.234  28.166  1.00  0.00    -0.352 N 
ATOM      3  C   UNL A   1      34.930  34.127  28.606  1.00  0.00     0.252 C 
ATOM      4  O   UNL A   1      34.773  35.312  28.300  1.00  0.00    -0.269 OA
ATOM      5  H   UNL A   1      33.200  33.624  27.720  1.00  0.00     0.163 HD
BRANCH   3   6
ATOM      6  C   UNL A   1      36.048  33.785  29.543  1.00  0.00     0.053 A 
ATOM      7  C   UNL A   1      35.996  33.324  30.880  1.00  0.00     0.021 A 
ATOM      8  C   UNL A   1      37.192  32.862  31.471  1.00  0.00     0.036 A 
ATOM      9  C   UNL A   1      38.415  32.920  30.811  1.00  0.00     0.042 A 
ATOM     10  C   UNL A   1      37.309  33.826  28.892  1.00  0.00     0.016 A 
ATOM     11  Cl  UNL A   1      39.835  32.357  31.600  1.00  0.00    -0.084 Cl
ATOM     12  C   UNL A   1      38.483  33.413  29.522  1.00  0.00     0.021 A 
BRANCH   7  13
ATOM     13  S   UNL A   1      34.566  33.105  31.952  1.00  0.00    -0.125 SA
BRANCH  13  14
ATOM     14  C   UNL A   1      34.467  34.759  32.792  1.00  0.00     0.080 C 
BRANCH  14  15
ATOM     15  C   UNL A   1      34.024  35.967  31.947  1.00  0.00     0.022 C 
ATOM     16  C   UNL A   1      33.934  37.211  32.846  1.00  0.00     0.011 C 
BRANCH  15  17
ATOM     17  C   UNL A   1      32.692  35.689  31.238  1.00  0.00     0.160 C 
BRANCH  17  18
ATOM     18  O   UNL A   1      32.534  36.431  30.038  1.00  0.00    -0.396 OA
ATOM     19  H   UNL A   1      33.193  36.140  29.390  1.00  0.00     0.210 HD
ENDBRANCH  17  18
ENDBRANCH  15  17
ENDBRANCH  14  15
ENDBRANCH  13  14
ENDBRANCH   7  13
ENDBRANCH   3   6
ENDBRANCH   1   2
BRANCH   1  20
ATOM     20  C   UNL A   1      35.008  31.063  27.428  1.00  0.00     0.042 C 
BRANCH  20  21
ATOM     21  C   UNL A   1      35.530  29.775  28.031  1.00  0.00     0.118 C 
BRANCH  21  22
ATOM     22  N   UNL A   1      35.538  29.763  29.489  1.00  0.00    -0.352 N 
ATOM     23  C   UNL A   1      36.556  29.576  30.400  1.00  0.00     0.251 C 
ATOM     24  H   UNL A   1      34.656  29.917  29.898  1.00  0.00     0.163 HD
ATOM     25  O   UNL A   1      36.282  29.497  31.590  1.00  0.00    -0.269 OA
BRANCH  23  26
ATOM     26  C   UNL A   1      37.964  29.425  29.956  1.00  0.00     0.039 A 
ATOM     27  C   UNL A   1      38.918  28.945  30.860  1.00  0.00     0.014 A 
ATOM     28  C   UNL A   1      38.358  29.761  28.664  1.00  0.00     0.014 A 
ATOM     29  C   UNL A   1      40.234  28.729  30.435  1.00  0.00     0.010 A 
ATOM     30  C   UNL A   1      39.617  29.401  28.202  1.00  0.00     0.010 A 
ATOM     31  C   UNL A   1      40.584  28.912  29.089  1.00  0.00    -0.014 A 
BRANCH  31  32
ATOM     32  C   UNL A   1      41.962  28.665  28.586  1.00  0.00     0.031 A 
ATOM     33  C   UNL A   1      42.347  27.285  28.109  1.00  0.00     0.074 A 
ATOM     34  C   UNL A   1      42.884  29.648  28.624  1.00  0.00     0.049 A 
ATOM     35  N   UNL A   1      43.514  26.841  27.718  1.00  0.00    -0.248 NA
ATOM     36  C   UNL A   1      41.291  26.255  28.110  1.00  0.00     0.031 C 
ATOM     37  C   UNL A   1      42.656  31.010  29.114  1.00  0.00     0.029 A 
ATOM     38  N   UNL A   1      44.202  29.652  28.244  1.00  0.00    -0.354 N 
ATOM     39  C   UNL A   1      43.337  25.485  27.461  1.00  0.00     0.074 A 
ATOM     40  C   UNL A   1      41.973  25.162  27.809  1.00  0.00     0.031 C 
ATOM     41  C   UNL A   1      43.783  31.727  28.964  1.00  0.00     0.029 A 
ATOM     42  C   UNL A   1      44.824  30.867  28.413  1.00  0.00     0.049 A 
ATOM     43  H   UNL A   1      44.661  28.859  27.885  1.00  0.00     0.167 HD
ATOM     44  C   UNL A   1      44.216  24.592  26.948  1.00  0.00     0.031 A 
ATOM     45  C   UNL A   1      46.090  31.248  28.152  1.00  0.00     0.031 A 
ATOM     46  C   UNL A   1      45.561  24.926  26.566  1.00  0.00     0.049 A 
ATOM     47  C   UNL A   1      47.046  30.244  27.563  1.00  0.00     0.074 A 
ATOM     48  C   UNL A   1      46.515  24.115  25.977  1.00  0.00     0.029 A 
ATOM     49  N   UNL A   1      46.138  26.177  26.724  1.00  0.00    -0.354 N 
ATOM     50  N   UNL A   1      46.839  28.982  27.272  1.00  0.00    -0.248 NA
ATOM     51  C   UNL A   1      48.398  30.724  27.247  1.00  0.00     0.031 C 
ATOM     52  C   UNL A   1      47.686  24.862  25.826  1.00  0.00     0.029 A 
ATOM     53  C   UNL A   1      47.441  26.156  26.257  1.00  0.00     0.049 A 
ATOM     54  H   UNL A   1      45.689  26.962  27.110  1.00  0.00     0.167 HD
ATOM     55  C   UNL A   1      48.025  28.526  26.704  1.00  0.00     0.074 A 
ATOM     56  C   UNL A   1      48.936  29.653  26.682  1.00  0.00     0.031 C 
ATOM     57  C   UNL A   1      48.330  27.290  26.238  1.00  0.00     0.031 A 
BRANCH  44  58
ATOM     58  C   UNL A   1      43.743  23.173  26.763  1.00  0.00    -0.014 A 
ATOM     59  C   UNL A   1      43.064  22.490  27.790  1.00  0.00     0.010 A 
ATOM     60  C   UNL A   1      43.952  22.520  25.535  1.00  0.00     0.010 A 
ATOM     61  C   UNL A   1      42.646  21.170  27.610  1.00  0.00     0.020 A 
ATOM     62  C   UNL A   1      43.505  21.210  25.338  1.00  0.00     0.020 A 
ATOM     63  C   UNL A   1      42.870  20.538  26.383  1.00  0.00     0.054 A 
BRANCH  63  64
ATOM     64  S   UNL A   1      42.291  18.833  26.169  1.00  0.00     0.124 S 
ATOM     65  O   UNL A   1      42.476  18.282  27.509  1.00  0.00    -0.237 OA
ATOM     66  O   UNL A   1      40.904  19.016  25.751  1.00  0.00    -0.237 OA
ATOM     67  O   UNL A   1      43.181  18.290  25.145  1.00  0.00    -0.744 OA
ENDBRANCH  63  64
ENDBRANCH  44  58
BRANCH  45  68
ATOM     68  C   UNL A   1      46.519  32.650  28.415  1.00  0.00    -0.014 A 
ATOM     69  C   UNL A   1      46.396  33.633  27.416  1.00  0.00     0.010 A 
ATOM     70  C   UNL A   1      47.047  33.013  29.666  1.00  0.00     0.010 A 
ATOM     71  C   UNL A   1      46.816  34.946  27.655  1.00  0.00     0.020 A 
ATOM     72  C   UNL A   1      47.440  34.330  29.920  1.00  0.00     0.020 A 
ATOM     73  C   UNL A   1      47.335  35.285  28.908  1.00  0.00     0.054 A 
BRANCH  73  74
ATOM     74  S   UNL A   1      47.834  37.003  29.211  1.00  0.00     0.124 S 
ATOM     75  O   UNL A   1      47.919  37.539  27.855  1.00  0.00    -0.237 OA
ATOM     76  O   UNL A   1      46.734  37.512  30.025  1.00  0.00    -0.237 OA
ATOM     77  O   UNL A   1      49.109  36.870  29.914  1.00  0.00    -0.744 OA
ENDBRANCH  73  74
ENDBRANCH  45  68
BRANCH  57  78
ATOM     78  C   UNL A   1      49.686  27.102  25.613  1.00  0.00    -0.014 A 
ATOM     79  C   UNL A   1      49.900  27.314  24.240  1.00  0.00     0.010 A 
ATOM     80  C   UNL A   1      50.777  26.749  26.430  1.00  0.00     0.010 A 
ATOM     81  C   UNL A   1      51.171  27.133  23.688  1.00  0.00     0.020 A 
ATOM     82  C   UNL A   1      52.054  26.598  25.888  1.00  0.00     0.020 A 
ATOM     83  C   UNL A   1      52.239  26.774  24.516  1.00  0.00     0.054 A 
BRANCH  83  84
ATOM     84  S   UNL A   1      53.883  26.568  23.781  1.00  0.00     0.124 S 
ATOM     85  O   UNL A   1      53.560  26.322  22.378  1.00  0.00    -0.237 OA
ATOM     86  O   UNL A   1      54.523  27.852  24.063  1.00  0.00    -0.237 OA
ATOM     87  O   UNL A   1      54.446  25.429  24.501  1.00  0.00    -0.744 OA
ENDBRANCH  83  84
ENDBRANCH  57  78
ENDBRANCH  31  32
ENDBRANCH  23  26
ENDBRANCH  21  22
ENDBRANCH  20  21
ENDBRANCH   1  20
TORSDOF 18
ENDMDL
MODEL 3
REMARK VINA RESULT:     -10.1      4.986      6.877
REMARK SMILES C[C@H](CO)CSc1cc(Cl)ccc1C(=O)NCCCNC(=O)c1ccc(-c2c3nc(c(-c4ccc(S(=O)(=O)[O-])cc4)c4ccc([nH]4)c(-c4ccc(S(=O)(=O)[O-])cc4)c4nc(c(-c5ccc(S(=O)(=O)[O-])cc5)c5ccc2[nH]5)C=C4)C=C3)cc1
REMARK SMILES IDX 17 1 16 2 14 3 15 4 13 6 7 7 8 8 9 9 12 10 10 11 11 12 6 13
REMARK SMILES IDX 5 14 2 15 1 16 3 17 4 18 18 20 19 21 20 22 21 23 22 25 23 26
REMARK SMILES IDX 24 27 82 28 25 29 81 30 26 31 27 32 28 33 75 34 29 35 80 36
REMARK SMILES IDX 74 37 76 38 30 39 79 40 73 41 72 42 31 44 61 45 42 46 60 47
REMARK SMILES IDX 43 48 46 49 59 50 77 51 44 52 45 53 58 55 78 56 47 57 32 58
REMARK SMILES IDX 33 59 41 60 34 61 40 62 35 63 36 64 37 65 38 66 39 67 62 68
REMARK SMILES IDX 63 69 71 70 64 71 70 72 65 73 66 74 67 75 68 76 69 77 48 78
REMARK SMILES IDX 49 79 57 80 50 81 56 82 51 83 52 84 53 85 54 86 55 87
REMARK H PARENT 16 5 4 19 20 24 76 43 46 54
REMARK Flexibility Score: inf
ROOT
ATOM      1  C   UNL A   1      32.622  26.183  26.335  1.00  0.00     0.118 C 
ENDROOT
BRANCH   1   2
ATOM      2  N   UNL A   1      31.498  25.371  26.696  1.00  0.00    -0.352 N 
ATOM      3  C   UNL A   1      31.433  24.004  26.780  1.00  0.00     0.252 C 
ATOM      4  O   UNL A   1      30.394  23.514  27.229  1.00  0.00    -0.269 OA
ATOM      5  H   UNL A   1      30.668  25.856  26.911  1.00  0.00     0.163 HD
BRANCH   3   6
ATOM      6  C   UNL A   1      32.473  23.073  26.236  1.00  0.00     0.053 A 
ATOM      7  C   UNL A   1      32.773  22.740  24.893  1.00  0.00     0.021 A 
ATOM      8  C   UNL A   1      33.950  22.003  24.638  1.00  0.00     0.036 A 
ATOM      9  C   UNL A   1      34.767  21.535  25.661  1.00  0.00     0.042 A 
ATOM     10  C   UNL A   1      33.330  22.588  27.259  1.00  0.00     0.016 A 
ATOM     11  Cl  UNL A   1      36.176  20.626  25.277  1.00  0.00    -0.084 Cl
ATOM     12  C   UNL A   1      34.457  21.815  26.978  1.00  0.00     0.021 A 
BRANCH   7  13
ATOM     13  S   UNL A   1      31.927  23.235  23.383  1.00  0.00    -0.125 SA
BRANCH  13  14
ATOM     14  C   UNL A   1      33.041  24.579  22.749  1.00  0.00     0.080 C 
BRANCH  14  15
ATOM     15  C   UNL A   1      32.421  25.964  22.491  1.00  0.00     0.022 C 
ATOM     16  C   UNL A   1      31.853  26.009  21.063  1.00  0.00     0.011 C 
BRANCH  15  17
ATOM     17  C   UNL A   1      33.446  27.082  22.723  1.00  0.00     0.160 C 
BRANCH  17  18
ATOM     18  O   UNL A   1      33.955  27.630  21.517  1.00  0.00    -0.396 OA
ATOM     19  H   UNL A   1      33.230  27.752  20.886  1.00  0.00     0.210 HD
ENDBRANCH  17  18
ENDBRANCH  15  17
ENDBRANCH  14  15
ENDBRANCH  13  14
ENDBRANCH   7  13
ENDBRANCH   3   6
ENDBRANCH   1   2
BRANCH   1  20
ATOM     20  C   UNL A   1      32.490  27.673  26.545  1.00  0.00     0.042 C 
BRANCH  20  21
ATOM     21  C   UNL A   1      33.797  28.437  26.569  1.00  0.00     0.118 C 
BRANCH  21  22
ATOM     22  N   UNL A   1      33.701  29.761  27.173  1.00  0.00    -0.352 N 
ATOM     23  C   UNL A   1      34.585  30.487  27.941  1.00  0.00     0.251 C 
ATOM     24  H   UNL A   1      32.847  30.221  27.000  1.00  0.00     0.163 HD
ATOM     25  O   UNL A   1      34.218  31.547  28.430  1.00  0.00    -0.269 OA
BRANCH  23  26
ATOM     26  C   UNL A   1      35.954  29.984  28.216  1.00  0.00     0.039 A 
ATOM     27  C   UNL A   1      36.937  30.100  27.227  1.00  0.00     0.014 A 
ATOM     28  C   UNL A   1      36.278  29.389  29.433  1.00  0.00     0.014 A 
ATOM     29  C   UNL A   1      38.250  29.696  27.499  1.00  0.00     0.010 A 
ATOM     30  C   UNL A   1      37.605  29.135  29.754  1.00  0.00     0.010 A 
ATOM     31  C   UNL A   1      38.605  29.252  28.781  1.00  0.00    -0.014 A 
BRANCH  31  32
ATOM     32  C   UNL A   1      39.993  28.843  29.123  1.00  0.00     0.031 A 
ATOM     33  C   UNL A   1      40.913  29.822  29.812  1.00  0.00     0.074 A 
ATOM     34  C   UNL A   1      40.452  27.630  28.755  1.00  0.00     0.049 A 
ATOM     35  N   UNL A   1      42.179  29.694  30.116  1.00  0.00    -0.248 NA
ATOM     36  C   UNL A   1      40.347  31.136  30.171  1.00  0.00     0.031 C 
ATOM     37  C   UNL A   1      39.683  26.611  28.035  1.00  0.00     0.029 A 
ATOM     38  N   UNL A   1      41.681  27.047  28.935  1.00  0.00    -0.354 N 
ATOM     39  C   UNL A   1      42.562  30.914  30.666  1.00  0.00     0.074 A 
ATOM     40  C   UNL A   1      41.419  31.792  30.589  1.00  0.00     0.031 C 
ATOM     41  C   UNL A   1      40.444  25.515  27.874  1.00  0.00     0.029 A 
ATOM     42  C   UNL A   1      41.767  25.768  28.435  1.00  0.00     0.049 A 
ATOM     43  H   UNL A   1      42.432  27.501  29.380  1.00  0.00     0.167 HD
ATOM     44  C   UNL A   1      43.746  31.265  31.221  1.00  0.00     0.031 A 
ATOM     45  C   UNL A   1      42.793  24.895  28.431  1.00  0.00     0.031 A 
ATOM     46  C   UNL A   1      44.870  30.376  31.332  1.00  0.00     0.049 A 
ATOM     47  C   UNL A   1      44.095  25.299  29.071  1.00  0.00     0.074 A 
ATOM     48  C   UNL A   1      46.095  30.607  31.933  1.00  0.00     0.029 A 
ATOM     49  N   UNL A   1      44.901  29.079  30.842  1.00  0.00    -0.354 N 
ATOM     50  N   UNL A   1      44.416  26.437  29.639  1.00  0.00    -0.248 NA
ATOM     51  C   UNL A   1      45.165  24.293  29.087  1.00  0.00     0.031 C 
ATOM     52  C   UNL A   1      46.886  29.468  31.761  1.00  0.00     0.029 A 
ATOM     53  C   UNL A   1      46.130  28.502  31.113  1.00  0.00     0.049 A 
ATOM     54  H   UNL A   1      44.160  28.634  30.372  1.00  0.00     0.167 HD
ATOM     55  C   UNL A   1      45.713  26.270  30.115  1.00  0.00     0.074 A 
ATOM     56  C   UNL A   1      46.109  24.918  29.777  1.00  0.00     0.031 C 
ATOM     57  C   UNL A   1      46.503  27.153  30.775  1.00  0.00     0.031 A 
BRANCH  44  58
ATOM     58  C   UNL A   1      43.878  32.668  31.757  1.00  0.00    -0.014 A 
ATOM     59  C   UNL A   1      43.648  32.954  33.116  1.00  0.00     0.010 A 
ATOM     60  C   UNL A   1      44.265  33.712  30.897  1.00  0.00     0.010 A 
ATOM     61  C   UNL A   1      43.758  34.261  33.594  1.00  0.00     0.020 A 
ATOM     62  C   UNL A   1      44.410  35.016  31.379  1.00  0.00     0.020 A 
ATOM     63  C   UNL A   1      44.138  35.286  32.721  1.00  0.00     0.054 A 
BRANCH  63  64
ATOM     64  S   UNL A   1      44.299  36.968  33.377  1.00  0.00     0.124 S 
ATOM     65  O   UNL A   1      45.033  36.738  34.619  1.00  0.00    -0.237 OA
ATOM     66  O   UNL A   1      45.045  37.652  32.324  1.00  0.00    -0.237 OA
ATOM     67  O   UNL A   1      42.916  37.409  33.544  1.00  0.00    -0.744 OA
ENDBRANCH  63  64
ENDBRANCH  44  58
BRANCH  45  68
ATOM     68  C   UNL A   1      42.623  23.543  27.830  1.00  0.00    -0.014 A 
ATOM     69  C   UNL A   1      43.166  23.251  26.565  1.00  0.00     0.010 A 
ATOM     70  C   UNL A   1      41.923  22.537  28.520  1.00  0.00     0.010 A 
ATOM     71  C   UNL A   1      42.990  21.988  25.991  1.00  0.00     0.020 A 
ATOM     72  C   UNL A   1      41.771  21.264  27.963  1.00  0.00     0.020 A 
ATOM     73  C   UNL A   1      42.294  21.002  26.696  1.00  0.00     0.054 A 
BRANCH  73  74
ATOM     74  S   UNL A   1      42.114  19.356  25.952  1.00  0.00     0.124 S 
ATOM     75  O   UNL A   1      42.663  18.491  26.993  1.00  0.00    -0.237 OA
ATOM     76  O   UNL A   1      40.672  19.260  25.743  1.00  0.00    -0.237 OA
ATOM     77  O   UNL A   1      42.908  19.446  24.728  1.00  0.00    -0.744 OA
ENDBRANCH  73  74
ENDBRANCH  45  68
BRANCH  57  78
ATOM     78  C   UNL A   1      47.854  26.668  31.227  1.00  0.00    -0.014 A 
ATOM     79  C   UNL A   1      48.026  26.000  32.452  1.00  0.00     0.010 A 
ATOM     80  C   UNL A   1      48.966  26.849  30.382  1.00  0.00     0.010 A 
ATOM     81  C   UNL A   1      49.292  25.561  32.843  1.00  0.00     0.020 A 
ATOM     82  C   UNL A   1      50.228  26.383  30.756  1.00  0.00     0.020 A 
ATOM     83  C   UNL A   1      50.386  25.757  31.993  1.00  0.00     0.054 A 
BRANCH  83  84
ATOM     84  S   UNL A   1      52.015  25.157  32.514  1.00  0.00     0.124 S 
ATOM     85  O   UNL A   1      51.862  23.711  32.381  1.00  0.00    -0.237 OA
ATOM     86  O   UNL A   1      52.912  25.786  31.546  1.00  0.00    -0.237 OA
ATOM     87  O   UNL A   1      52.145  25.647  33.884  1.00  0.00    -0.744 OA
ENDBRANCH  83  84
ENDBRANCH  57  78
ENDBRANCH  31  32
ENDBRANCH  23  26
ENDBRANCH  21  22
ENDBRANCH  20  21
ENDBRANCH   1  20
TORSDOF 18
ENDMDL
