MODEL 1
REMARK VINA RESULT:     -12.3      0.000      0.000
REMARK SMILES NS(=O)(=O)c1ccc(-n2nc(C(F)(F)F)cc2-c2ccc(CC(=O)NCCCNC(=O)c3ccc(-c4c5nc(c(-c6ccc(S(=O)(=O)[O-])cc6)c6ccc([nH]6)c(-c6ccc(S(=O)(=O)[O-])cc6)c6nc(c(-c7ccc(S(=O)(=O)[O-])cc7)c7ccc4[nH]7)C=C6)C=C5)cc3)cc2)cc1
REMARK SMILES IDX 26 1 25 2 23 3 24 4 22 6 21 7 18 8 19 9 93 10 20 11 92 12
REMARK SMILES IDX 17 13 9 14 10 15 11 16 16 17 8 18 5 19 6 20 95 21 7 22 94 23
REMARK SMILES IDX 2 24 3 25 4 26 1 27 12 30 13 31 14 32 15 33 27 34 28 35
REMARK SMILES IDX 29 36 30 37 31 39 32 40 33 41 91 42 34 43 90 44 35 45 36 46
REMARK SMILES IDX 37 47 84 48 38 49 89 50 83 51 85 52 39 53 88 54 82 55 81 56
REMARK SMILES IDX 40 58 70 59 51 60 69 61 52 62 55 63 68 64 86 65 53 66 54 67
REMARK SMILES IDX 67 69 87 70 56 71 41 72 42 73 50 74 43 75 49 76 44 77 45 78
REMARK SMILES IDX 46 79 47 80 48 81 71 82 72 83 80 84 73 85 79 86 74 87 75 88
REMARK SMILES IDX 76 89 77 90 78 91 57 92 58 93 66 94 59 95 65 96 60 97 61 98
REMARK SMILES IDX 62 99 63 100 64 101
REMARK H PARENT 25 5 1 28 1 29 29 38 85 57 55 68
REMARK Flexibility Score: inf
ROOT
ATOM      1  C   UNL A   1      41.021  22.115  26.902  1.00  0.00     0.117 C 
ENDROOT
BRANCH   1   2
ATOM      2  N   UNL A   1      39.936  21.350  26.311  1.00  0.00    -0.356 N 
ATOM      3  C   UNL A   1      38.744  21.789  25.808  1.00  0.00     0.224 C 
ATOM      4  O   UNL A   1      37.974  20.965  25.315  1.00  0.00    -0.275 OA
ATOM      5  H   UNL A   1      40.081  20.378  26.267  1.00  0.00     0.163 HD
BRANCH   3   6
ATOM      6  C   UNL A   1      38.409  23.270  25.821  1.00  0.00     0.135 C 
BRANCH   6   7
ATOM      7  C   UNL A   1      36.971  23.571  25.475  1.00  0.00    -0.039 A 
ATOM      8  C   UNL A   1      34.328  24.301  24.827  1.00  0.00     0.000 A 
ATOM      9  C   UNL A   1      34.724  24.149  26.165  1.00  0.00     0.010 A 
ATOM     10  C   UNL A   1      35.251  24.020  23.817  1.00  0.00     0.010 A 
ATOM     11  C   UNL A   1      36.038  23.807  26.488  1.00  0.00     0.005 A 
ATOM     12  C   UNL A   1      36.556  23.642  24.138  1.00  0.00     0.005 A 
BRANCH   8  13
ATOM     13  C   UNL A   1      32.973  24.737  24.484  1.00  0.00     0.075 A 
ATOM     14  N   UNL A   1      31.953  23.915  24.014  1.00  0.00    -0.233 N 
ATOM     15  N   UNL A   1      30.899  24.624  23.541  1.00  0.00    -0.163 NA
ATOM     16  C   UNL A   1      31.163  25.903  23.869  1.00  0.00     0.167 A 
ATOM     17  C   UNL A   1      32.454  26.016  24.442  1.00  0.00     0.064 A 
BRANCH  14  18
ATOM     18  C   UNL A   1      31.967  22.503  23.927  1.00  0.00     0.065 A 
ATOM     19  C   UNL A   1      32.363  19.772  23.721  1.00  0.00     0.082 A 
ATOM     20  C   UNL A   1      32.228  20.352  24.988  1.00  0.00     0.024 A 
ATOM     21  C   UNL A   1      32.274  20.541  22.559  1.00  0.00     0.024 A 
ATOM     22  C   UNL A   1      32.036  21.727  25.094  1.00  0.00     0.030 A 
ATOM     23  C   UNL A   1      32.042  21.913  22.660  1.00  0.00     0.030 A 
BRANCH  19  24
ATOM     24  S   UNL A   1      32.580  18.022  23.628  1.00  0.00     0.238 S 
ATOM     25  O   UNL A   1      31.735  17.466  24.665  1.00  0.00    -0.207 OA
ATOM     26  O   UNL A   1      33.987  17.750  23.532  1.00  0.00    -0.207 OA
BRANCH  24  27
ATOM     27  N   UNL A   1      31.885  17.559  22.180  1.00  0.00    -0.225 NA
ATOM     28  H   UNL A   1      30.870  17.620  22.256  1.00  0.00     0.137 HD
ATOM     29  H   UNL A   1      32.152  16.598  21.967  1.00  0.00     0.137 HD
ENDBRANCH  24  27
ENDBRANCH  19  24
ENDBRANCH  14  18
BRANCH  16  30
ATOM     30  C   UNL A   1      30.203  27.032  23.614  1.00  0.00     0.435 C 
ATOM     31  F   UNL A   1      28.910  26.708  23.872  1.00  0.00    -0.164 F 
ATOM     32  F   UNL A   1      30.497  28.133  24.356  1.00  0.00    -0.164 F 
ATOM     33  F   UNL A   1      30.243  27.435  22.311  1.00  0.00    -0.164 F 
ENDBRANCH  16  30
ENDBRANCH   8  13
ENDBRANCH   6   7
ENDBRANCH   3   6
ENDBRANCH   1   2
BRANCH   1  34
ATOM     34  C   UNL A   1      42.336  21.996  26.125  1.00  0.00     0.042 C 
BRANCH  34  35
ATOM     35  C   UNL A   1      43.475  22.737  26.801  1.00  0.00     0.118 C 
BRANCH  35  36
ATOM     36  N   UNL A   1      44.549  23.107  25.873  1.00  0.00    -0.352 N 
ATOM     37  C   UNL A   1      44.790  24.338  25.291  1.00  0.00     0.251 C 
ATOM     38  H   UNL A   1      45.176  22.387  25.634  1.00  0.00     0.163 HD
ATOM     39  O   UNL A   1      45.490  24.425  24.288  1.00  0.00    -0.269 OA
BRANCH  37  40
ATOM     40  C   UNL A   1      44.194  25.540  25.900  1.00  0.00     0.039 A 
ATOM     41  C   UNL A   1      42.996  26.091  25.439  1.00  0.00     0.014 A 
ATOM     42  C   UNL A   1      44.861  26.103  26.981  1.00  0.00     0.014 A 
ATOM     43  C   UNL A   1      42.452  27.179  26.121  1.00  0.00     0.010 A 
ATOM     44  C   UNL A   1      44.217  27.008  27.775  1.00  0.00     0.010 A 
ATOM     45  C   UNL A   1      43.066  27.625  27.302  1.00  0.00    -0.014 A 
BRANCH  45  46
ATOM     46  C   UNL A   1      42.472  28.663  28.140  1.00  0.00     0.031 A 
ATOM     47  C   UNL A   1      43.152  29.994  28.061  1.00  0.00     0.074 A 
ATOM     48  C   UNL A   1      41.254  28.477  28.709  1.00  0.00     0.049 A 
ATOM     49  N   UNL A   1      43.486  30.775  29.031  1.00  0.00    -0.248 NA
ATOM     50  C   UNL A   1      43.589  30.488  26.746  1.00  0.00     0.031 C 
ATOM     51  C   UNL A   1      40.377  27.298  28.612  1.00  0.00     0.029 A 
ATOM     52  N   UNL A   1      40.456  29.362  29.366  1.00  0.00    -0.354 N 
ATOM     53  C   UNL A   1      43.988  31.940  28.450  1.00  0.00     0.074 A 
ATOM     54  C   UNL A   1      44.101  31.684  27.042  1.00  0.00     0.031 C 
ATOM     55  C   UNL A   1      39.109  27.642  28.920  1.00  0.00     0.029 A 
ATOM     56  C   UNL A   1      39.105  29.010  29.400  1.00  0.00     0.049 A 
ATOM     57  H   UNL A   1      40.803  30.183  29.783  1.00  0.00     0.167 HD
ATOM     58  C   UNL A   1      44.095  33.095  29.161  1.00  0.00     0.031 A 
ATOM     59  C   UNL A   1      38.051  29.794  29.753  1.00  0.00     0.031 A 
ATOM     60  C   UNL A   1      44.128  32.833  30.574  1.00  0.00     0.049 A 
ATOM     61  C   UNL A   1      38.611  30.924  30.533  1.00  0.00     0.074 A 
ATOM     62  C   UNL A   1      44.955  32.055  31.362  1.00  0.00     0.029 A 
ATOM     63  N   UNL A   1      42.961  32.996  31.284  1.00  0.00    -0.354 N 
ATOM     64  N   UNL A   1      39.200  30.767  31.688  1.00  0.00    -0.248 NA
ATOM     65  C   UNL A   1      38.980  32.128  29.802  1.00  0.00     0.031 C 
ATOM     66  C   UNL A   1      44.061  31.349  32.216  1.00  0.00     0.029 A 
ATOM     67  C   UNL A   1      42.769  31.835  31.994  1.00  0.00     0.049 A 
ATOM     68  H   UNL A   1      42.378  33.789  31.283  1.00  0.00     0.167 HD
ATOM     69  C   UNL A   1      40.324  31.579  31.621  1.00  0.00     0.074 A 
ATOM     70  C   UNL A   1      40.094  32.453  30.467  1.00  0.00     0.031 C 
ATOM     71  C   UNL A   1      41.469  31.283  32.309  1.00  0.00     0.031 A 
BRANCH  58  72
ATOM     72  C   UNL A   1      43.785  34.454  28.598  1.00  0.00    -0.014 A 
ATOM     73  C   UNL A   1      44.847  35.357  28.390  1.00  0.00     0.010 A 
ATOM     74  C   UNL A   1      42.474  34.977  28.570  1.00  0.00     0.010 A 
ATOM     75  C   UNL A   1      44.614  36.731  28.250  1.00  0.00     0.020 A 
ATOM     76  C   UNL A   1      42.232  36.342  28.398  1.00  0.00     0.020 A 
ATOM     77  C   UNL A   1      43.307  37.216  28.274  1.00  0.00     0.054 A 
BRANCH  77  78
ATOM     78  S   UNL A   1      43.033  39.004  28.216  1.00  0.00     0.124 S 
ATOM     79  O   UNL A   1      41.647  39.084  27.766  1.00  0.00    -0.237 OA
ATOM     80  O   UNL A   1      43.274  39.399  29.600  1.00  0.00    -0.237 OA
ATOM     81  O   UNL A   1      44.030  39.471  27.255  1.00  0.00    -0.744 OA
ENDBRANCH  77  78
ENDBRANCH  58  72
BRANCH  59  82
ATOM     82  C   UNL A   1      36.665  29.788  29.193  1.00  0.00    -0.014 A 
ATOM     83  C   UNL A   1      35.711  30.756  29.566  1.00  0.00     0.010 A 
ATOM     84  C   UNL A   1      36.354  28.978  28.079  1.00  0.00     0.010 A 
ATOM     85  C   UNL A   1      34.531  30.950  28.814  1.00  0.00     0.020 A 
ATOM     86  C   UNL A   1      35.180  29.158  27.334  1.00  0.00     0.020 A 
ATOM     87  C   UNL A   1      34.286  30.163  27.687  1.00  0.00     0.054 A 
BRANCH  87  88
ATOM     88  S   UNL A   1      32.875  30.544  26.601  1.00  0.00     0.124 S 
ATOM     89  O   UNL A   1      32.750  31.992  26.742  1.00  0.00    -0.237 OA
ATOM     90  O   UNL A   1      33.340  30.074  25.298  1.00  0.00    -0.237 OA
ATOM     91  O   UNL A   1      31.778  29.768  27.176  1.00  0.00    -0.744 OA
ENDBRANCH  87  88
ENDBRANCH  59  82
BRANCH  71  92
ATOM     92  C   UNL A   1      41.464  30.153  33.319  1.00  0.00    -0.014 A 
ATOM     93  C   UNL A   1      41.566  28.787  32.987  1.00  0.00     0.010 A 
ATOM     94  C   UNL A   1      41.564  30.515  34.675  1.00  0.00     0.010 A 
ATOM     95  C   UNL A   1      41.737  27.814  33.988  1.00  0.00     0.020 A 
ATOM     96  C   UNL A   1      41.758  29.558  35.670  1.00  0.00     0.020 A 
ATOM     97  C   UNL A   1      41.831  28.209  35.325  1.00  0.00     0.054 A 
BRANCH  97  98
ATOM     98  S   UNL A   1      42.081  26.961  36.621  1.00  0.00     0.124 S 
ATOM     99  O   UNL A   1      43.214  27.503  37.367  1.00  0.00    -0.237 OA
ATOM    100  O   UNL A   1      40.803  26.962  37.327  1.00  0.00    -0.237 OA
ATOM    101  O   UNL A   1      42.365  25.736  35.874  1.00  0.00    -0.744 OA
ENDBRANCH  97  98
ENDBRANCH  71  92
ENDBRANCH  45  46
ENDBRANCH  37  40
ENDBRANCH  35  36
ENDBRANCH  34  35
ENDBRANCH   1  34
TORSDOF 19
ENDMDL
MODEL 2
REMARK VINA RESULT:     -12.2      3.345      9.390
REMARK SMILES NS(=O)(=O)c1ccc(-n2nc(C(F)(F)F)cc2-c2ccc(CC(=O)NCCCNC(=O)c3ccc(-c4c5nc(c(-c6ccc(S(=O)(=O)[O-])cc6)c6ccc([nH]6)c(-c6ccc(S(=O)(=O)[O-])cc6)c6nc(c(-c7ccc(S(=O)(=O)[O-])cc7)c7ccc4[nH]7)C=C6)C=C5)cc3)cc2)cc1
REMARK SMILES IDX 26 1 25 2 23 3 24 4 22 6 21 7 18 8 19 9 93 10 20 11 92 12
REMARK SMILES IDX 17 13 9 14 10 15 11 16 16 17 8 18 5 19 6 20 95 21 7 22 94 23
REMARK SMILES IDX 2 24 3 25 4 26 1 27 12 30 13 31 14 32 15 33 27 34 28 35
REMARK SMILES IDX 29 36 30 37 31 39 32 40 33 41 91 42 34 43 90 44 35 45 36 46
REMARK SMILES IDX 37 47 84 48 38 49 89 50 83 51 85 52 39 53 88 54 82 55 81 56
REMARK SMILES IDX 40 58 70 59 51 60 69 61 52 62 55 63 68 64 86 65 53 66 54 67
REMARK SMILES IDX 67 69 87 70 56 71 41 72 42 73 50 74 43 75 49 76 44 77 45 78
REMARK SMILES IDX 46 79 47 80 48 81 71 82 72 83 80 84 73 85 79 86 74 87 75 88
REMARK SMILES IDX 76 89 77 90 78 91 57 92 58 93 66 94 59 95 65 96 60 97 61 98
REMARK SMILES IDX 62 99 63 100 64 101
REMARK H PARENT 25 5 1 28 1 29 29 38 85 57 55 68
REMARK Flexibility Score: inf
ROOT
ATOM      1  C   UNL A   1      35.525  32.947  27.749  1.00  0.00     0.117 C 
ENDROOT
BRANCH   1   2
ATOM      2  N   UNL A   1      35.903  31.626  28.218  1.00  0.00    -0.356 N 
ATOM      3  C   UNL A   1      35.220  30.446  28.123  1.00  0.00     0.224 C 
ATOM      4  O   UNL A   1      35.746  29.423  28.560  1.00  0.00    -0.275 OA
ATOM      5  H   UNL A   1      36.777  31.573  28.669  1.00  0.00     0.163 HD
BRANCH   3   6
ATOM      6  C   UNL A   1      33.861  30.405  27.446  1.00  0.00     0.135 C 
BRANCH   6   7
ATOM      7  C   UNL A   1      33.562  29.092  26.764  1.00  0.00    -0.039 A 
ATOM      8  C   UNL A   1      32.874  26.719  25.409  1.00  0.00     0.000 A 
ATOM      9  C   UNL A   1      32.337  27.007  26.673  1.00  0.00     0.010 A 
ATOM     10  C   UNL A   1      33.809  27.601  24.860  1.00  0.00     0.010 A 
ATOM     11  C   UNL A   1      32.661  28.190  27.336  1.00  0.00     0.005 A 
ATOM     12  C   UNL A   1      34.163  28.768  25.539  1.00  0.00     0.005 A 
BRANCH   8  13
ATOM     13  C   UNL A   1      32.476  25.517  24.673  1.00  0.00     0.075 A 
ATOM     14  N   UNL A   1      31.401  25.426  23.795  1.00  0.00    -0.233 N 
ATOM     15  N   UNL A   1      31.118  24.143  23.461  1.00  0.00    -0.163 NA
ATOM     16  C   UNL A   1      32.124  23.417  23.984  1.00  0.00     0.167 A 
ATOM     17  C   UNL A   1      32.980  24.235  24.760  1.00  0.00     0.064 A 
BRANCH  14  18
ATOM     18  C   UNL A   1      30.591  26.486  23.323  1.00  0.00     0.065 A 
ATOM     19  C   UNL A   1      29.108  28.741  22.710  1.00  0.00     0.082 A 
ATOM     20  C   UNL A   1      30.380  28.582  22.147  1.00  0.00     0.024 A 
ATOM     21  C   UNL A   1      28.563  27.770  23.553  1.00  0.00     0.024 A 
ATOM     22  C   UNL A   1      31.130  27.451  22.460  1.00  0.00     0.030 A 
ATOM     23  C   UNL A   1      29.296  26.618  23.837  1.00  0.00     0.030 A 
BRANCH  19  24
ATOM     24  S   UNL A   1      28.178  30.175  22.269  1.00  0.00     0.238 S 
ATOM     25  O   UNL A   1      27.075  30.231  23.208  1.00  0.00    -0.207 OA
ATOM     26  O   UNL A   1      27.997  30.171  20.845  1.00  0.00    -0.207 OA
BRANCH  24  27
ATOM     27  N   UNL A   1      29.156  31.478  22.642  1.00  0.00    -0.225 NA
ATOM     28  H   UNL A   1      28.709  32.340  22.327  1.00  0.00     0.137 HD
ATOM     29  H   UNL A   1      30.056  31.373  22.174  1.00  0.00     0.137 HD
ENDBRANCH  24  27
ENDBRANCH  19  24
ENDBRANCH  14  18
BRANCH  16  30
ATOM     30  C   UNL A   1      32.262  21.934  23.774  1.00  0.00     0.435 C 
ATOM     31  F   UNL A   1      31.699  21.500  22.618  1.00  0.00    -0.164 F 
ATOM     32  F   UNL A   1      33.563  21.537  23.760  1.00  0.00    -0.164 F 
ATOM     33  F   UNL A   1      31.665  21.230  24.778  1.00  0.00    -0.164 F 
ENDBRANCH  16  30
ENDBRANCH   8  13
ENDBRANCH   6   7
ENDBRANCH   3   6
ENDBRANCH   1   2
BRANCH   1  34
ATOM     34  C   UNL A   1      34.496  33.636  28.650  1.00  0.00     0.042 C 
BRANCH  34  35
ATOM     35  C   UNL A   1      35.147  34.450  29.753  1.00  0.00     0.118 C 
BRANCH  35  36
ATOM     36  N   UNL A   1      34.462  34.318  31.043  1.00  0.00    -0.352 N 
ATOM     37  C   UNL A   1      34.648  33.352  32.015  1.00  0.00     0.251 C 
ATOM     38  H   UNL A   1      33.784  35.004  31.241  1.00  0.00     0.163 HD
ATOM     39  O   UNL A   1      33.789  33.156  32.868  1.00  0.00    -0.269 OA
BRANCH  37  40
ATOM     40  C   UNL A   1      35.895  32.569  32.009  1.00  0.00     0.039 A 
ATOM     41  C   UNL A   1      35.901  31.182  31.839  1.00  0.00     0.014 A 
ATOM     42  C   UNL A   1      37.086  33.267  32.154  1.00  0.00     0.014 A 
ATOM     43  C   UNL A   1      37.127  30.521  31.758  1.00  0.00     0.010 A 
ATOM     44  C   UNL A   1      38.269  32.658  31.847  1.00  0.00     0.010 A 
ATOM     45  C   UNL A   1      38.311  31.273  31.751  1.00  0.00    -0.014 A 
BRANCH  45  46
ATOM     46  C   UNL A   1      39.618  30.659  31.527  1.00  0.00     0.031 A 
ATOM     47  C   UNL A   1      40.421  30.430  32.768  1.00  0.00     0.074 A 
ATOM     48  C   UNL A   1      39.923  30.108  30.325  1.00  0.00     0.049 A 
ATOM     49  N   UNL A   1      41.668  30.689  32.968  1.00  0.00    -0.248 NA
ATOM     50  C   UNL A   1      39.738  29.923  33.969  1.00  0.00     0.031 C 
ATOM     51  C   UNL A   1      39.082  30.037  29.118  1.00  0.00     0.029 A 
ATOM     52  N   UNL A   1      40.991  29.346  29.963  1.00  0.00    -0.354 N 
ATOM     53  C   UNL A   1      41.980  30.198  34.237  1.00  0.00     0.074 A 
ATOM     54  C   UNL A   1      40.740  29.803  34.842  1.00  0.00     0.031 C 
ATOM     55  C   UNL A   1      39.531  29.060  28.302  1.00  0.00     0.029 A 
ATOM     56  C   UNL A   1      40.781  28.553  28.834  1.00  0.00     0.049 A 
ATOM     57  H   UNL A   1      41.842  29.354  30.457  1.00  0.00     0.167 HD
ATOM     58  C   UNL A   1      43.269  29.983  34.614  1.00  0.00     0.031 A 
ATOM     59  C   UNL A   1      41.548  27.522  28.387  1.00  0.00     0.031 A 
ATOM     60  C   UNL A   1      44.180  30.757  33.815  1.00  0.00     0.049 A 
ATOM     61  C   UNL A   1      42.878  27.683  29.026  1.00  0.00     0.074 A 
ATOM     62  C   UNL A   1      44.285  32.112  33.566  1.00  0.00     0.029 A 
ATOM     63  N   UNL A   1      44.819  30.123  32.775  1.00  0.00    -0.354 N 
ATOM     64  N   UNL A   1      43.663  28.698  28.786  1.00  0.00    -0.248 NA
ATOM     65  C   UNL A   1      43.099  27.009  30.297  1.00  0.00     0.031 C 
ATOM     66  C   UNL A   1      44.475  32.194  32.157  1.00  0.00     0.029 A 
ATOM     67  C   UNL A   1      44.611  30.896  31.658  1.00  0.00     0.049 A 
ATOM     68  H   UNL A   1      45.326  29.281  32.822  1.00  0.00     0.167 HD
ATOM     69  C   UNL A   1      44.144  29.072  30.034  1.00  0.00     0.074 A 
ATOM     70  C   UNL A   1      43.825  27.946  30.917  1.00  0.00     0.031 C 
ATOM     71  C   UNL A   1      44.485  30.365  30.317  1.00  0.00     0.031 A 
BRANCH  58  72
ATOM     72  C   UNL A   1      43.714  28.801  35.431  1.00  0.00    -0.014 A 
ATOM     73  C   UNL A   1      44.589  29.021  36.514  1.00  0.00     0.010 A 
ATOM     74  C   UNL A   1      43.559  27.473  34.980  1.00  0.00     0.010 A 
ATOM     75  C   UNL A   1      45.342  27.975  37.061  1.00  0.00     0.020 A 
ATOM     76  C   UNL A   1      44.282  26.418  35.544  1.00  0.00     0.020 A 
ATOM     77  C   UNL A   1      45.196  26.682  36.558  1.00  0.00     0.054 A 
BRANCH  77  78
ATOM     78  S   UNL A   1      46.265  25.368  37.195  1.00  0.00     0.124 S 
ATOM     79  O   UNL A   1      45.303  24.308  37.483  1.00  0.00    -0.237 OA
ATOM     80  O   UNL A   1      47.158  25.122  36.066  1.00  0.00    -0.237 OA
ATOM     81  O   UNL A   1      46.896  25.976  38.364  1.00  0.00    -0.744 OA
ENDBRANCH  77  78
ENDBRANCH  58  72
BRANCH  59  82
ATOM     82  C   UNL A   1      41.108  26.264  27.712  1.00  0.00    -0.014 A 
ATOM     83  C   UNL A   1      41.839  25.698  26.648  1.00  0.00     0.010 A 
ATOM     84  C   UNL A   1      40.098  25.465  28.291  1.00  0.00     0.010 A 
ATOM     85  C   UNL A   1      41.615  24.368  26.231  1.00  0.00     0.020 A 
ATOM     86  C   UNL A   1      39.862  24.147  27.875  1.00  0.00     0.020 A 
ATOM     87  C   UNL A   1      40.642  23.593  26.865  1.00  0.00     0.054 A 
BRANCH  87  88
ATOM     88  S   UNL A   1      40.491  21.821  26.471  1.00  0.00     0.124 S 
ATOM     89  O   UNL A   1      40.580  21.197  27.788  1.00  0.00    -0.237 OA
ATOM     90  O   UNL A   1      39.182  21.750  25.826  1.00  0.00    -0.237 OA
ATOM     91  O   UNL A   1      41.625  21.568  25.585  1.00  0.00    -0.744 OA
ENDBRANCH  87  88
ENDBRANCH  59  82
BRANCH  71  92
ATOM     92  C   UNL A   1      44.528  31.389  29.201  1.00  0.00    -0.014 A 
ATOM     93  C   UNL A   1      43.536  32.366  28.977  1.00  0.00     0.010 A 
ATOM     94  C   UNL A   1      45.730  31.488  28.476  1.00  0.00     0.010 A 
ATOM     95  C   UNL A   1      43.736  33.392  28.036  1.00  0.00     0.020 A 
ATOM     96  C   UNL A   1      45.945  32.517  27.560  1.00  0.00     0.020 A 
ATOM     97  C   UNL A   1      44.942  33.458  27.333  1.00  0.00     0.054 A 
BRANCH  97  98
ATOM     98  S   UNL A   1      45.219  34.798  26.139  1.00  0.00     0.124 S 
ATOM     99  O   UNL A   1      45.142  34.101  24.858  1.00  0.00    -0.237 OA
ATOM    100  O   UNL A   1      44.122  35.720  26.421  1.00  0.00    -0.237 OA
ATOM    101  O   UNL A   1      46.547  35.305  26.485  1.00  0.00    -0.744 OA
ENDBRANCH  97  98
ENDBRANCH  71  92
ENDBRANCH  45  46
ENDBRANCH  37  40
ENDBRANCH  35  36
ENDBRANCH  34  35
ENDBRANCH   1  34
TORSDOF 19
ENDMDL
MODEL 3
REMARK VINA RESULT:     -11.9      3.388      9.398
REMARK SMILES NS(=O)(=O)c1ccc(-n2nc(C(F)(F)F)cc2-c2ccc(CC(=O)NCCCNC(=O)c3ccc(-c4c5nc(c(-c6ccc(S(=O)(=O)[O-])cc6)c6ccc([nH]6)c(-c6ccc(S(=O)(=O)[O-])cc6)c6nc(c(-c7ccc(S(=O)(=O)[O-])cc7)c7ccc4[nH]7)C=C6)C=C5)cc3)cc2)cc1
REMARK SMILES IDX 26 1 25 2 23 3 24 4 22 6 21 7 18 8 19 9 93 10 20 11 92 12
REMARK SMILES IDX 17 13 9 14 10 15 11 16 16 17 8 18 5 19 6 20 95 21 7 22 94 23
REMARK SMILES IDX 2 24 3 25 4 26 1 27 12 30 13 31 14 32 15 33 27 34 28 35
REMARK SMILES IDX 29 36 30 37 31 39 32 40 33 41 91 42 34 43 90 44 35 45 36 46
REMARK SMILES IDX 37 47 84 48 38 49 89 50 83 51 85 52 39 53 88 54 82 55 81 56
REMARK SMILES IDX 40 58 70 59 51 60 69 61 52 62 55 63 68 64 86 65 53 66 54 67
REMARK SMILES IDX 67 69 87 70 56 71 41 72 42 73 50 74 43 75 49 76 44 77 45 78
REMARK SMILES IDX 46 79 47 80 48 81 71 82 72 83 80 84 73 85 79 86 74 87 75 88
REMARK SMILES IDX 76 89 77 90 78 91 57 92 58 93 66 94 59 95 65 96 60 97 61 98
REMARK SMILES IDX 62 99 63 100 64 101
REMARK H PARENT 25 5 1 28 1 29 29 38 85 57 55 68
REMARK Flexibility Score: inf
ROOT
ATOM      1  C   UNL A   1      35.364  32.985  27.839  1.00  0.00     0.117 C 
ENDROOT
BRANCH   1   2
ATOM      2  N   UNL A   1      35.834  31.692  28.302  1.00  0.00    -0.356 N 
ATOM      3  C   UNL A   1      35.203  30.480  28.269  1.00  0.00     0.224 C 
ATOM      4  O   UNL A   1      35.804  29.491  28.687  1.00  0.00    -0.275 OA
ATOM      5  H   UNL A   1      36.736  31.688  28.696  1.00  0.00     0.163 HD
BRANCH   3   6
ATOM      6  C   UNL A   1      33.807  30.363  27.682  1.00  0.00     0.135 C 
BRANCH   6   7
ATOM      7  C   UNL A   1      33.553  29.053  26.978  1.00  0.00    -0.039 A 
ATOM      8  C   UNL A   1      32.973  26.691  25.555  1.00  0.00     0.000 A 
ATOM      9  C   UNL A   1      32.220  27.054  26.682  1.00  0.00     0.010 A 
ATOM     10  C   UNL A   1      34.059  27.488  25.187  1.00  0.00     0.010 A 
ATOM     11  C   UNL A   1      32.493  28.233  27.376  1.00  0.00     0.005 A 
ATOM     12  C   UNL A   1      34.358  28.650  25.902  1.00  0.00     0.005 A 
BRANCH   8  13
ATOM     13  C   UNL A   1      32.640  25.496  24.776  1.00  0.00     0.075 A 
ATOM     14  N   UNL A   1      31.613  25.399  23.843  1.00  0.00    -0.233 N 
ATOM     15  N   UNL A   1      31.377  24.117  23.470  1.00  0.00    -0.163 NA
ATOM     16  C   UNL A   1      32.373  23.403  24.028  1.00  0.00     0.167 A 
ATOM     17  C   UNL A   1      33.170  24.224  24.863  1.00  0.00     0.064 A 
BRANCH  14  18
ATOM     18  C   UNL A   1      30.803  26.451  23.352  1.00  0.00     0.065 A 
ATOM     19  C   UNL A   1      29.281  28.674  22.721  1.00  0.00     0.082 A 
ATOM     20  C   UNL A   1      30.607  28.603  22.279  1.00  0.00     0.024 A 
ATOM     21  C   UNL A   1      28.704  27.632  23.450  1.00  0.00     0.024 A 
ATOM     22  C   UNL A   1      31.377  27.488  22.602  1.00  0.00     0.030 A 
ATOM     23  C   UNL A   1      29.460  26.497  23.741  1.00  0.00     0.030 A 
BRANCH  19  24
ATOM     24  S   UNL A   1      28.330  30.092  22.269  1.00  0.00     0.238 S 
ATOM     25  O   UNL A   1      28.014  29.921  20.865  1.00  0.00    -0.207 OA
ATOM     26  O   UNL A   1      28.989  31.256  22.790  1.00  0.00    -0.207 OA
BRANCH  24  27
ATOM     27  N   UNL A   1      26.878  29.937  23.082  1.00  0.00    -0.225 NA
ATOM     28  H   UNL A   1      27.001  29.316  23.882  1.00  0.00     0.137 HD
ATOM     29  H   UNL A   1      26.176  29.546  22.454  1.00  0.00     0.137 HD
ENDBRANCH  24  27
ENDBRANCH  19  24
ENDBRANCH  14  18
BRANCH  16  30
ATOM     30  C   UNL A   1      32.557  21.929  23.795  1.00  0.00     0.435 C 
ATOM     31  F   UNL A   1      33.826  21.504  24.018  1.00  0.00    -0.164 F 
ATOM     32  F   UNL A   1      31.738  21.179  24.581  1.00  0.00    -0.164 F 
ATOM     33  F   UNL A   1      32.260  21.586  22.508  1.00  0.00    -0.164 F 
ENDBRANCH  16  30
ENDBRANCH   8  13
ENDBRANCH   6   7
ENDBRANCH   3   6
ENDBRANCH   1   2
BRANCH   1  34
ATOM     34  C   UNL A   1      34.386  33.656  28.809  1.00  0.00     0.042 C 
BRANCH  34  35
ATOM     35  C   UNL A   1      35.092  34.535  29.824  1.00  0.00     0.118 C 
BRANCH  35  36
ATOM     36  N   UNL A   1      34.456  34.508  31.146  1.00  0.00    -0.352 N 
ATOM     37  C   UNL A   1      34.658  33.604  32.173  1.00  0.00     0.251 C 
ATOM     38  H   UNL A   1      33.803  35.223  31.323  1.00  0.00     0.163 HD
ATOM     39  O   UNL A   1      33.830  33.488  33.070  1.00  0.00    -0.269 OA
BRANCH  37  40
ATOM     40  C   UNL A   1      35.885  32.789  32.172  1.00  0.00     0.039 A 
ATOM     41  C   UNL A   1      35.876  31.432  31.842  1.00  0.00     0.014 A 
ATOM     42  C   UNL A   1      37.075  33.431  32.489  1.00  0.00     0.014 A 
ATOM     43  C   UNL A   1      37.090  30.748  31.780  1.00  0.00     0.010 A 
ATOM     44  C   UNL A   1      38.266  32.825  32.206  1.00  0.00     0.010 A 
ATOM     45  C   UNL A   1      38.287  31.460  31.952  1.00  0.00    -0.014 A 
BRANCH  45  46
ATOM     46  C   UNL A   1      39.593  30.836  31.759  1.00  0.00     0.031 A 
ATOM     47  C   UNL A   1      40.342  30.552  33.023  1.00  0.00     0.074 A 
ATOM     48  C   UNL A   1      39.942  30.325  30.551  1.00  0.00     0.049 A 
ATOM     49  N   UNL A   1      41.583  30.787  33.283  1.00  0.00    -0.248 NA
ATOM     50  C   UNL A   1      39.604  30.012  34.176  1.00  0.00     0.031 C 
ATOM     51  C   UNL A   1      39.150  30.308  29.309  1.00  0.00     0.029 A 
ATOM     52  N   UNL A   1      41.014  29.561  30.206  1.00  0.00    -0.354 N 
ATOM     53  C   UNL A   1      41.836  30.247  34.544  1.00  0.00     0.074 A 
ATOM     54  C   UNL A   1      40.568  29.848  35.084  1.00  0.00     0.031 C 
ATOM     55  C   UNL A   1      39.620  29.354  28.478  1.00  0.00     0.029 A 
ATOM     56  C   UNL A   1      40.841  28.811  29.041  1.00  0.00     0.049 A 
ATOM     57  H   UNL A   1      41.844  29.540  30.735  1.00  0.00     0.167 HD
ATOM     58  C   UNL A   1      43.106  30.001  34.966  1.00  0.00     0.031 A 
ATOM     59  C   UNL A   1      41.614  27.787  28.590  1.00  0.00     0.031 A 
ATOM     60  C   UNL A   1      44.058  30.790  34.233  1.00  0.00     0.049 A 
ATOM     61  C   UNL A   1      42.918  27.907  29.287  1.00  0.00     0.074 A 
ATOM     62  C   UNL A   1      44.190  32.152  34.037  1.00  0.00     0.029 A 
ATOM     63  N   UNL A   1      44.732  30.185  33.198  1.00  0.00    -0.354 N 
ATOM     64  N   UNL A   1      43.724  28.919  29.117  1.00  0.00    -0.248 NA
ATOM     65  C   UNL A   1      43.078  27.185  30.541  1.00  0.00     0.031 C 
ATOM     66  C   UNL A   1      44.439  32.281  32.642  1.00  0.00     0.029 A 
ATOM     67  C   UNL A   1      44.579  31.000  32.102  1.00  0.00     0.049 A 
ATOM     68  H   UNL A   1      45.226  29.335  33.235  1.00  0.00     0.167 HD
ATOM     69  C   UNL A   1      44.158  29.241  30.395  1.00  0.00     0.074 A 
ATOM     70  C   UNL A   1      43.789  28.089  31.224  1.00  0.00     0.031 C 
ATOM     71  C   UNL A   1      44.503  30.519  30.738  1.00  0.00     0.031 A 
BRANCH  58  72
ATOM     72  C   UNL A   1      43.502  28.785  35.757  1.00  0.00    -0.014 A 
ATOM     73  C   UNL A   1      44.212  28.966  36.961  1.00  0.00     0.010 A 
ATOM     74  C   UNL A   1      43.483  27.487  35.204  1.00  0.00     0.010 A 
ATOM     75  C   UNL A   1      44.941  27.918  37.537  1.00  0.00     0.020 A 
ATOM     76  C   UNL A   1      44.181  26.428  35.791  1.00  0.00     0.020 A 
ATOM     77  C   UNL A   1      44.935  26.660  36.936  1.00  0.00     0.054 A 
BRANCH  77  78
ATOM     78  S   UNL A   1      45.981  25.354  37.625  1.00  0.00     0.124 S 
ATOM     79  O   UNL A   1      46.174  24.479  36.472  1.00  0.00    -0.237 OA
ATOM     80  O   UNL A   1      47.159  26.098  38.059  1.00  0.00    -0.237 OA
ATOM     81  O   UNL A   1      45.167  24.797  38.703  1.00  0.00    -0.744 OA
ENDBRANCH  77  78
ENDBRANCH  58  72
BRANCH  59  82
ATOM     82  C   UNL A   1      41.186  26.560  27.852  1.00  0.00    -0.014 A 
ATOM     83  C   UNL A   1      42.003  25.961  26.871  1.00  0.00     0.010 A 
ATOM     84  C   UNL A   1      40.074  25.815  28.300  1.00  0.00     0.010 A 
ATOM     85  C   UNL A   1      41.757  24.649  26.414  1.00  0.00     0.020 A 
ATOM     86  C   UNL A   1      39.816  24.515  27.843  1.00  0.00     0.020 A 
ATOM     87  C   UNL A   1      40.676  23.925  26.922  1.00  0.00     0.054 A 
BRANCH  87  88
ATOM     88  S   UNL A   1      40.475  22.167  26.491  1.00  0.00     0.124 S 
ATOM     89  O   UNL A   1      41.645  21.911  25.656  1.00  0.00    -0.237 OA
ATOM     90  O   UNL A   1      40.477  21.516  27.799  1.00  0.00    -0.237 OA
ATOM     91  O   UNL A   1      39.192  22.129  25.790  1.00  0.00    -0.744 OA
ENDBRANCH  87  88
ENDBRANCH  59  82
BRANCH  71  92
ATOM     92  C   UNL A   1      44.604  31.582  29.663  1.00  0.00    -0.014 A 
ATOM     93  C   UNL A   1      45.723  31.763  28.824  1.00  0.00     0.010 A 
ATOM     94  C   UNL A   1      43.428  32.292  29.361  1.00  0.00     0.010 A 
ATOM     95  C   UNL A   1      45.669  32.649  27.734  1.00  0.00     0.020 A 
ATOM     96  C   UNL A   1      43.359  33.153  28.266  1.00  0.00     0.020 A 
ATOM     97  C   UNL A   1      44.484  33.339  27.463  1.00  0.00     0.054 A 
BRANCH  97  98
ATOM     98  S   UNL A   1      44.397  34.463  26.040  1.00  0.00     0.124 S 
ATOM     99  O   UNL A   1      43.077  34.172  25.487  1.00  0.00    -0.237 OA
ATOM    100  O   UNL A   1      44.547  35.780  26.653  1.00  0.00    -0.237 OA
ATOM    101  O   UNL A   1      45.521  34.049  25.200  1.00  0.00    -0.744 OA
ENDBRANCH  97  98
ENDBRANCH  71  92
ENDBRANCH  45  46
ENDBRANCH  37  40
ENDBRANCH  35  36
ENDBRANCH  34  35
ENDBRANCH   1  34
TORSDOF 19
ENDMDL
