MODEL 1
REMARK VINA RESULT:     -14.0      0.000      0.000
REMARK SMILES COc1cc(Cl)c(C)cc1N1C(=O)C[C@H](Nc2cc(C(=O)NCCCNC(=O)c3ccc(-c4c5nc(c(-c6ccc(S(=O)(=O)[O-])cc6)c6ccc([nH]6)c(-c6ccc(S(=O)(=O)[O-])cc6)c6nc(c(-c7ccc(S(=O)(=O)[O-])cc7)c7ccc4[nH]7)C=C6)C=C5)cc3)ccc2C)C1=O
REMARK SMILES IDX 23 1 22 2 20 3 21 4 19 6 17 7 18 8 91 9 90 10 92 11 89 12
REMARK SMILES IDX 16 13 15 15 11 16 12 17 93 18 13 19 14 20 94 21 10 22 3 23
REMARK SMILES IDX 4 24 5 25 9 26 6 27 7 28 8 29 2 30 1 31 24 32 25 33 26 34
REMARK SMILES IDX 27 35 28 37 29 38 30 39 88 40 31 41 87 42 32 43 33 44 34 45
REMARK SMILES IDX 81 46 35 47 86 48 80 49 82 50 36 51 85 52 79 53 78 54 37 56
REMARK SMILES IDX 67 57 48 58 66 59 49 60 52 61 65 62 83 63 50 64 51 65 64 67
REMARK SMILES IDX 84 68 53 69 38 70 39 71 47 72 40 73 46 74 41 75 42 76 43 77
REMARK SMILES IDX 44 78 45 79 68 80 69 81 77 82 70 83 76 84 71 85 72 86 73 87
REMARK SMILES IDX 74 88 75 89 54 90 55 91 63 92 56 93 62 94 57 95 58 96 59 97
REMARK SMILES IDX 60 98 61 99
REMARK H PARENT 22 5 16 14 26 36 82 55 52 66
REMARK Flexibility Score: inf
ROOT
ATOM      1  C   UNL A   1      32.751  29.537  26.869  1.00  0.00     0.118 C 
ENDROOT
BRANCH   1   2
ATOM      2  N   UNL A   1      32.214  30.898  26.901  1.00  0.00    -0.352 N 
ATOM      3  C   UNL A   1      31.303  31.608  26.165  1.00  0.00     0.251 C 
ATOM      4  O   UNL A   1      31.105  32.776  26.515  1.00  0.00    -0.269 OA
ATOM      5  H   UNL A   1      32.603  31.435  27.629  1.00  0.00     0.163 HD
BRANCH   3   6
ATOM      6  C   UNL A   1      30.536  31.097  24.986  1.00  0.00     0.041 A 
ATOM      7  C   UNL A   1      29.752  29.383  23.414  1.00  0.00     0.038 A 
ATOM      8  C   UNL A   1      30.556  29.790  24.497  1.00  0.00     0.039 A 
ATOM      9  C   UNL A   1      28.966  30.336  22.745  1.00  0.00    -0.028 A 
ATOM     10  C   UNL A   1      28.939  31.652  23.222  1.00  0.00     0.006 A 
ATOM     11  C   UNL A   1      28.089  29.983  21.574  1.00  0.00     0.046 C 
ATOM     12  C   UNL A   1      29.709  32.022  24.327  1.00  0.00     0.014 A 
BRANCH   7  13
ATOM     13  N   UNL A   1      29.862  28.090  22.896  1.00  0.00    -0.373 N 
ATOM     14  H   UNL A   1      29.071  27.506  22.843  1.00  0.00     0.161 HD
BRANCH  13  15
ATOM     15  C   UNL A   1      31.170  27.609  22.431  1.00  0.00     0.179 C 
ATOM     16  N   UNL A   1      32.871  26.501  23.585  1.00  0.00    -0.245 N 
ATOM     17  C   UNL A   1      33.279  27.803  23.539  1.00  0.00     0.236 C 
ATOM     18  C   UNL A   1      31.585  26.332  23.138  1.00  0.00     0.256 C 
ATOM     19  O   UNL A   1      34.314  28.286  23.981  1.00  0.00    -0.274 OA
ATOM     20  C   UNL A   1      32.244  28.613  22.820  1.00  0.00     0.136 C 
ATOM     21  O   UNL A   1      30.822  25.406  23.382  1.00  0.00    -0.272 OA
BRANCH  16  22
ATOM     22  C   UNL A   1      33.642  25.448  24.107  1.00  0.00     0.094 A 
ATOM     23  C   UNL A   1      33.569  25.136  25.470  1.00  0.00     0.144 A 
ATOM     24  C   UNL A   1      34.342  24.111  26.011  1.00  0.00     0.069 A 
ATOM     25  C   UNL A   1      35.187  23.374  25.181  1.00  0.00     0.047 A 
ATOM     26  C   UNL A   1      34.472  24.689  23.275  1.00  0.00     0.035 A 
ATOM     27  Cl  UNL A   1      36.098  22.084  25.884  1.00  0.00    -0.084 Cl
ATOM     28  C   UNL A   1      35.277  23.666  23.807  1.00  0.00    -0.030 A 
ATOM     29  C   UNL A   1      36.221  22.926  22.902  1.00  0.00     0.046 C 
BRANCH  23  30
ATOM     30  O   UNL A   1      32.734  25.817  26.314  1.00  0.00    -0.495 OA
ATOM     31  C   UNL A   1      31.573  25.058  26.650  1.00  0.00     0.278 C 
ENDBRANCH  23  30
ENDBRANCH  16  22
ENDBRANCH  13  15
ENDBRANCH   7  13
ENDBRANCH   3   6
ENDBRANCH   1   2
BRANCH   1  32
ATOM     32  C   UNL A   1      34.043  29.409  27.674  1.00  0.00     0.042 C 
BRANCH  32  33
ATOM     33  C   UNL A   1      35.091  30.439  27.266  1.00  0.00     0.118 C 
BRANCH  33  34
ATOM     34  N   UNL A   1      35.693  31.194  28.363  1.00  0.00    -0.352 N 
ATOM     35  C   UNL A   1      36.690  30.763  29.241  1.00  0.00     0.251 C 
ATOM     36  H   UNL A   1      35.358  32.109  28.498  1.00  0.00     0.163 HD
ATOM     37  O   UNL A   1      37.073  31.379  30.202  1.00  0.00    -0.269 OA
BRANCH  35  38
ATOM     38  C   UNL A   1      37.372  29.508  28.849  1.00  0.00     0.039 A 
ATOM     39  C   UNL A   1      37.623  28.603  29.888  1.00  0.00     0.014 A 
ATOM     40  C   UNL A   1      38.104  29.491  27.666  1.00  0.00     0.014 A 
ATOM     41  C   UNL A   1      38.785  27.850  29.845  1.00  0.00     0.010 A 
ATOM     42  C   UNL A   1      39.309  28.815  27.670  1.00  0.00     0.010 A 
ATOM     43  C   UNL A   1      39.679  28.067  28.794  1.00  0.00    -0.014 A 
BRANCH  43  44
ATOM     44  C   UNL A   1      41.060  27.611  28.865  1.00  0.00     0.031 A 
ATOM     45  C   UNL A   1      41.352  26.218  28.475  1.00  0.00     0.074 A 
ATOM     46  C   UNL A   1      42.035  28.422  29.338  1.00  0.00     0.049 A 
ATOM     47  N   UNL A   1      42.265  25.476  29.007  1.00  0.00    -0.248 NA
ATOM     48  C   UNL A   1      40.537  25.519  27.490  1.00  0.00     0.031 C 
ATOM     49  C   UNL A   1      43.464  28.124  29.391  1.00  0.00     0.029 A 
ATOM     50  N   UNL A   1      41.906  29.588  30.101  1.00  0.00    -0.354 N 
ATOM     51  C   UNL A   1      42.359  24.339  28.233  1.00  0.00     0.074 A 
ATOM     52  C   UNL A   1      41.183  24.358  27.396  1.00  0.00     0.031 C 
ATOM     53  C   UNL A   1      44.009  28.847  30.383  1.00  0.00     0.029 A 
ATOM     54  C   UNL A   1      42.923  29.535  31.065  1.00  0.00     0.049 A 
ATOM     55  H   UNL A   1      41.237  30.302  29.985  1.00  0.00     0.167 HD
ATOM     56  C   UNL A   1      43.505  23.599  28.254  1.00  0.00     0.031 A 
ATOM     57  C   UNL A   1      42.687  29.485  32.408  1.00  0.00     0.031 A 
ATOM     58  C   UNL A   1      44.423  24.073  29.291  1.00  0.00     0.049 A 
ATOM     59  C   UNL A   1      43.242  28.230  33.055  1.00  0.00     0.074 A 
ATOM     60  C   UNL A   1      45.555  24.872  29.255  1.00  0.00     0.029 A 
ATOM     61  N   UNL A   1      44.031  24.017  30.627  1.00  0.00    -0.354 N 
ATOM     62  N   UNL A   1      43.620  27.170  32.391  1.00  0.00    -0.248 NA
ATOM     63  C   UNL A   1      43.395  28.060  34.497  1.00  0.00     0.031 C 
ATOM     64  C   UNL A   1      45.769  25.390  30.561  1.00  0.00     0.029 A 
ATOM     65  C   UNL A   1      44.798  24.871  31.400  1.00  0.00     0.049 A 
ATOM     66  H   UNL A   1      43.306  23.448  30.973  1.00  0.00     0.167 HD
ATOM     67  C   UNL A   1      44.076  26.211  33.259  1.00  0.00     0.074 A 
ATOM     68  C   UNL A   1      43.921  26.823  34.569  1.00  0.00     0.031 C 
ATOM     69  C   UNL A   1      44.548  24.999  32.835  1.00  0.00     0.031 A 
BRANCH  56  70
ATOM     70  C   UNL A   1      43.898  22.708  27.085  1.00  0.00    -0.014 A 
ATOM     71  C   UNL A   1      43.026  21.691  26.645  1.00  0.00     0.010 A 
ATOM     72  C   UNL A   1      45.155  22.748  26.448  1.00  0.00     0.010 A 
ATOM     73  C   UNL A   1      43.434  20.704  25.727  1.00  0.00     0.020 A 
ATOM     74  C   UNL A   1      45.596  21.745  25.573  1.00  0.00     0.020 A 
ATOM     75  C   UNL A   1      44.733  20.715  25.226  1.00  0.00     0.054 A 
BRANCH  75  76
ATOM     76  S   UNL A   1      45.290  19.383  24.130  1.00  0.00     0.124 S 
ATOM     77  O   UNL A   1      44.785  18.188  24.799  1.00  0.00    -0.237 OA
ATOM     78  O   UNL A   1      44.640  19.724  22.869  1.00  0.00    -0.237 OA
ATOM     79  O   UNL A   1      46.746  19.517  24.132  1.00  0.00    -0.744 OA
ENDBRANCH  75  76
ENDBRANCH  56  70
BRANCH  57  80
ATOM     80  C   UNL A   1      41.519  30.278  32.883  1.00  0.00    -0.014 A 
ATOM     81  C   UNL A   1      40.285  29.603  32.997  1.00  0.00     0.010 A 
ATOM     82  C   UNL A   1      41.670  31.514  33.534  1.00  0.00     0.010 A 
ATOM     83  C   UNL A   1      39.281  30.075  33.847  1.00  0.00     0.020 A 
ATOM     84  C   UNL A   1      40.665  31.988  34.397  1.00  0.00     0.020 A 
ATOM     85  C   UNL A   1      39.504  31.233  34.590  1.00  0.00     0.054 A 
BRANCH  85  86
ATOM     86  S   UNL A   1      38.307  31.655  35.894  1.00  0.00     0.124 S 
ATOM     87  O   UNL A   1      37.141  32.088  35.126  1.00  0.00    -0.237 OA
ATOM     88  O   UNL A   1      38.156  30.372  36.578  1.00  0.00    -0.237 OA
ATOM     89  O   UNL A   1      38.985  32.705  36.646  1.00  0.00    -0.744 OA
ENDBRANCH  85  86
ENDBRANCH  57  80
BRANCH  69  90
ATOM     90  C   UNL A   1      44.910  23.824  33.720  1.00  0.00    -0.014 A 
ATOM     91  C   UNL A   1      44.070  22.730  33.975  1.00  0.00     0.010 A 
ATOM     92  C   UNL A   1      46.227  23.745  34.239  1.00  0.00     0.010 A 
ATOM     93  C   UNL A   1      44.498  21.643  34.755  1.00  0.00     0.020 A 
ATOM     94  C   UNL A   1      46.682  22.647  34.973  1.00  0.00     0.020 A 
ATOM     95  C   UNL A   1      45.803  21.609  35.250  1.00  0.00     0.054 A 
BRANCH  95  96
ATOM     96  S   UNL A   1      46.375  20.168  36.186  1.00  0.00     0.124 S 
ATOM     97  O   UNL A   1      47.818  20.222  35.968  1.00  0.00    -0.237 OA
ATOM     98  O   UNL A   1      45.936  20.465  37.547  1.00  0.00    -0.237 OA
ATOM     99  O   UNL A   1      45.684  19.051  35.548  1.00  0.00    -0.744 OA
ENDBRANCH  95  96
ENDBRANCH  69  90
ENDBRANCH  43  44
ENDBRANCH  35  38
ENDBRANCH  33  34
ENDBRANCH  32  33
ENDBRANCH   1  32
TORSDOF 17
ENDMDL
MODEL 2
REMARK VINA RESULT:     -13.7      4.669      8.101
REMARK SMILES COc1cc(Cl)c(C)cc1N1C(=O)C[C@H](Nc2cc(C(=O)NCCCNC(=O)c3ccc(-c4c5nc(c(-c6ccc(S(=O)(=O)[O-])cc6)c6ccc([nH]6)c(-c6ccc(S(=O)(=O)[O-])cc6)c6nc(c(-c7ccc(S(=O)(=O)[O-])cc7)c7ccc4[nH]7)C=C6)C=C5)cc3)ccc2C)C1=O
REMARK SMILES IDX 23 1 22 2 20 3 21 4 19 6 17 7 18 8 91 9 90 10 92 11 89 12
REMARK SMILES IDX 16 13 15 15 11 16 12 17 93 18 13 19 14 20 94 21 10 22 3 23
REMARK SMILES IDX 4 24 5 25 9 26 6 27 7 28 8 29 2 30 1 31 24 32 25 33 26 34
REMARK SMILES IDX 27 35 28 37 29 38 30 39 88 40 31 41 87 42 32 43 33 44 34 45
REMARK SMILES IDX 81 46 35 47 86 48 80 49 82 50 36 51 85 52 79 53 78 54 37 56
REMARK SMILES IDX 67 57 48 58 66 59 49 60 52 61 65 62 83 63 50 64 51 65 64 67
REMARK SMILES IDX 84 68 53 69 38 70 39 71 47 72 40 73 46 74 41 75 42 76 43 77
REMARK SMILES IDX 44 78 45 79 68 80 69 81 77 82 70 83 76 84 71 85 72 86 73 87
REMARK SMILES IDX 74 88 75 89 54 90 55 91 63 92 56 93 62 94 57 95 58 96 59 97
REMARK SMILES IDX 60 98 61 99
REMARK H PARENT 22 5 16 14 26 36 82 55 52 66
REMARK Flexibility Score: inf
ROOT
ATOM      1  C   UNL A   1      40.376  34.090  29.900  1.00  0.00     0.118 C 
ENDROOT
BRANCH   1   2
ATOM      2  N   UNL A   1      41.710  34.450  30.382  1.00  0.00    -0.352 N 
ATOM      3  C   UNL A   1      42.954  34.568  29.821  1.00  0.00     0.251 C 
ATOM      4  O   UNL A   1      43.866  34.912  30.579  1.00  0.00    -0.269 OA
ATOM      5  H   UNL A   1      41.714  34.658  31.344  1.00  0.00     0.163 HD
BRANCH   3   6
ATOM      6  C   UNL A   1      43.299  34.317  28.387  1.00  0.00     0.041 A 
ATOM      7  C   UNL A   1      44.189  33.013  26.508  1.00  0.00     0.038 A 
ATOM      8  C   UNL A   1      43.957  33.193  27.886  1.00  0.00     0.039 A 
ATOM      9  C   UNL A   1      43.823  34.031  25.611  1.00  0.00    -0.028 A 
ATOM     10  C   UNL A   1      43.166  35.165  26.100  1.00  0.00     0.006 A 
ATOM     11  C   UNL A   1      44.046  33.919  24.127  1.00  0.00     0.046 C 
ATOM     12  C   UNL A   1      42.906  35.301  27.466  1.00  0.00     0.014 A 
BRANCH   7  13
ATOM     13  N   UNL A   1      44.927  31.919  26.049  1.00  0.00    -0.373 N 
ATOM     14  H   UNL A   1      45.308  31.921  25.141  1.00  0.00     0.161 HD
BRANCH  13  15
ATOM     15  C   UNL A   1      45.129  30.765  26.936  1.00  0.00     0.179 C 
ATOM     16  N   UNL A   1      46.379  28.817  26.621  1.00  0.00    -0.245 N 
ATOM     17  C   UNL A   1      45.092  28.447  26.352  1.00  0.00     0.236 C 
ATOM     18  C   UNL A   1      46.518  30.173  26.782  1.00  0.00     0.256 C 
ATOM     19  O   UNL A   1      44.675  27.339  26.038  1.00  0.00    -0.274 OA
ATOM     20  C   UNL A   1      44.198  29.638  26.516  1.00  0.00     0.136 C 
ATOM     21  O   UNL A   1      47.538  30.841  26.667  1.00  0.00    -0.272 OA
BRANCH  16  22
ATOM     22  C   UNL A   1      47.468  27.929  26.652  1.00  0.00     0.094 A 
ATOM     23  C   UNL A   1      48.135  27.599  25.465  1.00  0.00     0.144 A 
ATOM     24  C   UNL A   1      49.203  26.703  25.471  1.00  0.00     0.069 A 
ATOM     25  C   UNL A   1      49.623  26.141  26.677  1.00  0.00     0.047 A 
ATOM     26  C   UNL A   1      47.910  27.382  27.861  1.00  0.00     0.035 A 
ATOM     27  Cl  UNL A   1      50.977  25.067  26.647  1.00  0.00    -0.084 Cl
ATOM     28  C   UNL A   1      48.971  26.459  27.883  1.00  0.00    -0.030 A 
ATOM     29  C   UNL A   1      49.366  25.824  29.187  1.00  0.00     0.046 C 
BRANCH  23  30
ATOM     30  O   UNL A   1      47.771  28.148  24.266  1.00  0.00    -0.495 OA
ATOM     31  C   UNL A   1      48.384  27.483  23.162  1.00  0.00     0.278 C 
ENDBRANCH  23  30
ENDBRANCH  16  22
ENDBRANCH  13  15
ENDBRANCH   7  13
ENDBRANCH   3   6
ENDBRANCH   1   2
BRANCH   1  32
ATOM     32  C   UNL A   1      39.731  32.997  30.751  1.00  0.00     0.042 C 
BRANCH  32  33
ATOM     33  C   UNL A   1      39.085  31.904  29.907  1.00  0.00     0.118 C 
BRANCH  33  34
ATOM     34  N   UNL A   1      37.625  31.930  29.851  1.00  0.00    -0.352 N 
ATOM     35  C   UNL A   1      36.782  30.974  29.282  1.00  0.00     0.251 C 
ATOM     36  H   UNL A   1      37.186  32.710  30.262  1.00  0.00     0.163 HD
ATOM     37  O   UNL A   1      35.590  31.095  29.158  1.00  0.00    -0.269 OA
BRANCH  35  38
ATOM     38  C   UNL A   1      37.433  29.692  28.929  1.00  0.00     0.039 A 
ATOM     39  C   UNL A   1      37.691  28.827  30.000  1.00  0.00     0.014 A 
ATOM     40  C   UNL A   1      38.137  29.611  27.731  1.00  0.00     0.014 A 
ATOM     41  C   UNL A   1      38.839  28.051  29.963  1.00  0.00     0.010 A 
ATOM     42  C   UNL A   1      39.329  28.913  27.737  1.00  0.00     0.010 A 
ATOM     43  C   UNL A   1      39.712  28.207  28.884  1.00  0.00    -0.014 A 
BRANCH  43  44
ATOM     44  C   UNL A   1      41.086  27.728  28.942  1.00  0.00     0.031 A 
ATOM     45  C   UNL A   1      41.353  26.332  28.550  1.00  0.00     0.074 A 
ATOM     46  C   UNL A   1      42.078  28.523  29.408  1.00  0.00     0.049 A 
ATOM     47  N   UNL A   1      42.257  25.575  29.073  1.00  0.00    -0.248 NA
ATOM     48  C   UNL A   1      40.518  25.646  27.571  1.00  0.00     0.031 C 
ATOM     49  C   UNL A   1      43.502  28.203  29.449  1.00  0.00     0.029 A 
ATOM     50  N   UNL A   1      41.974  29.691  30.173  1.00  0.00    -0.354 N 
ATOM     51  C   UNL A   1      42.327  24.437  28.298  1.00  0.00     0.074 A 
ATOM     52  C   UNL A   1      41.145  24.475  27.471  1.00  0.00     0.031 C 
ATOM     53  C   UNL A   1      44.067  28.916  30.437  1.00  0.00     0.029 A 
ATOM     54  C   UNL A   1      42.998  29.621  31.129  1.00  0.00     0.049 A 
ATOM     55  H   UNL A   1      41.315  30.416  30.063  1.00  0.00     0.167 HD
ATOM     56  C   UNL A   1      43.461  23.678  28.309  1.00  0.00     0.031 A 
ATOM     57  C   UNL A   1      42.772  29.574  32.473  1.00  0.00     0.031 A 
ATOM     58  C   UNL A   1      44.395  24.137  29.339  1.00  0.00     0.049 A 
ATOM     59  C   UNL A   1      43.312  28.310  33.115  1.00  0.00     0.074 A 
ATOM     60  C   UNL A   1      45.540  24.917  29.294  1.00  0.00     0.029 A 
ATOM     61  N   UNL A   1      44.013  24.086  30.678  1.00  0.00    -0.354 N 
ATOM     62  N   UNL A   1      43.668  27.244  32.447  1.00  0.00    -0.248 NA
ATOM     63  C   UNL A   1      43.474  28.136  34.555  1.00  0.00     0.031 C 
ATOM     64  C   UNL A   1      45.772  25.431  30.599  1.00  0.00     0.029 A 
ATOM     65  C   UNL A   1      44.800  24.927  31.445  1.00  0.00     0.049 A 
ATOM     66  H   UNL A   1      43.282  23.529  31.030  1.00  0.00     0.167 HD
ATOM     67  C   UNL A   1      44.115  26.278  33.311  1.00  0.00     0.074 A 
ATOM     68  C   UNL A   1      43.981  26.891  34.623  1.00  0.00     0.031 C 
ATOM     69  C   UNL A   1      44.564  25.058  32.882  1.00  0.00     0.031 A 
BRANCH  56  70
ATOM     70  C   UNL A   1      43.830  22.782  27.136  1.00  0.00    -0.014 A 
ATOM     71  C   UNL A   1      42.952  21.759  26.723  1.00  0.00     0.010 A 
ATOM     72  C   UNL A   1      45.071  22.824  26.470  1.00  0.00     0.010 A 
ATOM     73  C   UNL A   1      43.342  20.769  25.801  1.00  0.00     0.020 A 
ATOM     74  C   UNL A   1      45.496  21.817  25.591  1.00  0.00     0.020 A 
ATOM     75  C   UNL A   1      44.629  20.782  25.270  1.00  0.00     0.054 A 
BRANCH  75  76
ATOM     76  S   UNL A   1      45.165  19.445  24.169  1.00  0.00     0.124 S 
ATOM     77  O   UNL A   1      44.625  18.257  24.823  1.00  0.00    -0.237 OA
ATOM     78  O   UNL A   1      44.536  19.811  22.904  1.00  0.00    -0.237 OA
ATOM     79  O   UNL A   1      46.624  19.544  24.187  1.00  0.00    -0.744 OA
ENDBRANCH  75  76
ENDBRANCH  56  70
BRANCH  57  80
ATOM     80  C   UNL A   1      41.621  30.385  32.958  1.00  0.00    -0.014 A 
ATOM     81  C   UNL A   1      40.379  29.728  33.086  1.00  0.00     0.010 A 
ATOM     82  C   UNL A   1      41.797  31.620  33.604  1.00  0.00     0.010 A 
ATOM     83  C   UNL A   1      39.391  30.218  33.946  1.00  0.00     0.020 A 
ATOM     84  C   UNL A   1      40.808  32.111  34.477  1.00  0.00     0.020 A 
ATOM     85  C   UNL A   1      39.638  31.374  34.684  1.00  0.00     0.054 A 
BRANCH  85  86
ATOM     86  S   UNL A   1      38.461  31.817  35.999  1.00  0.00     0.124 S 
ATOM     87  O   UNL A   1      38.468  30.625  36.846  1.00  0.00    -0.237 OA
ATOM     88  O   UNL A   1      39.103  32.994  36.581  1.00  0.00    -0.237 OA
ATOM     89  O   UNL A   1      37.220  32.060  35.272  1.00  0.00    -0.744 OA
ENDBRANCH  85  86
ENDBRANCH  57  80
BRANCH  69  90
ATOM     90  C   UNL A   1      44.915  23.877  33.764  1.00  0.00    -0.014 A 
ATOM     91  C   UNL A   1      44.077  22.774  33.988  1.00  0.00     0.010 A 
ATOM     92  C   UNL A   1      46.220  23.802  34.312  1.00  0.00     0.010 A 
ATOM     93  C   UNL A   1      44.496  21.683  34.767  1.00  0.00     0.020 A 
ATOM     94  C   UNL A   1      46.666  22.700  35.045  1.00  0.00     0.020 A 
ATOM     95  C   UNL A   1      45.789  21.653  35.291  1.00  0.00     0.054 A 
BRANCH  95  96
ATOM     96  S   UNL A   1      46.350  20.207  36.225  1.00  0.00     0.124 S 
ATOM     97  O   UNL A   1      45.880  20.517  37.572  1.00  0.00    -0.237 OA
ATOM     98  O   UNL A   1      45.664  19.100  35.562  1.00  0.00    -0.237 OA
ATOM     99  O   UNL A   1      47.799  20.226  36.045  1.00  0.00    -0.744 OA
ENDBRANCH  95  96
ENDBRANCH  69  90
ENDBRANCH  43  44
ENDBRANCH  35  38
ENDBRANCH  33  34
ENDBRANCH  32  33
ENDBRANCH   1  32
TORSDOF 17
ENDMDL
MODEL 3
REMARK VINA RESULT:     -12.6      4.698     11.035
REMARK SMILES COc1cc(Cl)c(C)cc1N1C(=O)C[C@H](Nc2cc(C(=O)NCCCNC(=O)c3ccc(-c4c5nc(c(-c6ccc(S(=O)(=O)[O-])cc6)c6ccc([nH]6)c(-c6ccc(S(=O)(=O)[O-])cc6)c6nc(c(-c7ccc(S(=O)(=O)[O-])cc7)c7ccc4[nH]7)C=C6)C=C5)cc3)ccc2C)C1=O
REMARK SMILES IDX 23 1 22 2 20 3 21 4 19 6 17 7 18 8 91 9 90 10 92 11 89 12
REMARK SMILES IDX 16 13 15 15 11 16 12 17 93 18 13 19 14 20 94 21 10 22 3 23
REMARK SMILES IDX 4 24 5 25 9 26 6 27 7 28 8 29 2 30 1 31 24 32 25 33 26 34
REMARK SMILES IDX 27 35 28 37 29 38 30 39 88 40 31 41 87 42 32 43 33 44 34 45
REMARK SMILES IDX 81 46 35 47 86 48 80 49 82 50 36 51 85 52 79 53 78 54 37 56
REMARK SMILES IDX 67 57 48 58 66 59 49 60 52 61 65 62 83 63 50 64 51 65 64 67
REMARK SMILES IDX 84 68 53 69 38 70 39 71 47 72 40 73 46 74 41 75 42 76 43 77
REMARK SMILES IDX 44 78 45 79 68 80 69 81 77 82 70 83 76 84 71 85 72 86 73 87
REMARK SMILES IDX 74 88 75 89 54 90 55 91 63 92 56 93 62 94 57 95 58 96 59 97
REMARK SMILES IDX 60 98 61 99
REMARK H PARENT 22 5 16 14 26 36 82 55 52 66
REMARK Flexibility Score: inf
ROOT
ATOM      1  C   UNL A   1      36.843  22.459  25.879  1.00  0.00     0.118 C 
ENDROOT
BRANCH   1   2
ATOM      2  N   UNL A   1      35.733  22.055  26.743  1.00  0.00    -0.352 N 
ATOM      3  C   UNL A   1      34.436  21.659  26.549  1.00  0.00     0.251 C 
ATOM      4  O   UNL A   1      33.789  21.386  27.564  1.00  0.00    -0.269 OA
ATOM      5  H   UNL A   1      35.978  22.074  27.696  1.00  0.00     0.163 HD
BRANCH   3   6
ATOM      6  C   UNL A   1      33.745  21.531  25.228  1.00  0.00     0.041 A 
ATOM      7  C   UNL A   1      33.021  22.297  23.012  1.00  0.00     0.038 A 
ATOM      8  C   UNL A   1      33.642  22.527  24.256  1.00  0.00     0.039 A 
ATOM      9  C   UNL A   1      32.410  21.056  22.767  1.00  0.00    -0.028 A 
ATOM     10  C   UNL A   1      32.502  20.049  23.735  1.00  0.00     0.006 A 
ATOM     11  C   UNL A   1      31.718  20.737  21.469  1.00  0.00     0.046 C 
ATOM     12  C   UNL A   1      33.163  20.285  24.943  1.00  0.00     0.014 A 
BRANCH   7  13
ATOM     13  N   UNL A   1      32.858  23.341  22.097  1.00  0.00    -0.373 N 
ATOM     14  H   UNL A   1      33.454  23.416  21.317  1.00  0.00     0.161 HD
BRANCH  13  15
ATOM     15  C   UNL A   1      31.790  24.327  22.311  1.00  0.00     0.179 C 
ATOM     16  N   UNL A   1      31.577  25.998  23.929  1.00  0.00    -0.245 N 
ATOM     17  C   UNL A   1      30.793  24.976  24.384  1.00  0.00     0.236 C 
ATOM     18  C   UNL A   1      32.334  25.640  22.841  1.00  0.00     0.256 C 
ATOM     19  O   UNL A   1      30.109  24.945  25.399  1.00  0.00    -0.274 OA
ATOM     20  C   UNL A   1      30.866  23.836  23.415  1.00  0.00     0.136 C 
ATOM     21  O   UNL A   1      33.363  26.167  22.439  1.00  0.00    -0.272 OA
BRANCH  16  22
ATOM     22  C   UNL A   1      31.672  27.257  24.544  1.00  0.00     0.094 A 
ATOM     23  C   UNL A   1      30.929  28.336  24.048  1.00  0.00     0.144 A 
ATOM     24  C   UNL A   1      31.026  29.598  24.630  1.00  0.00     0.069 A 
ATOM     25  C   UNL A   1      31.861  29.786  25.733  1.00  0.00     0.047 A 
ATOM     26  C   UNL A   1      32.487  27.446  25.665  1.00  0.00     0.035 A 
ATOM     27  Cl  UNL A   1      31.921  31.357  26.451  1.00  0.00    -0.084 Cl
ATOM     28  C   UNL A   1      32.615  28.717  26.252  1.00  0.00    -0.030 A 
ATOM     29  C   UNL A   1      33.565  28.906  27.401  1.00  0.00     0.046 C 
BRANCH  23  30
ATOM     30  O   UNL A   1      30.079  28.188  22.986  1.00  0.00    -0.495 OA
ATOM     31  C   UNL A   1      28.719  28.057  23.398  1.00  0.00     0.278 C 
ENDBRANCH  23  30
ENDBRANCH  16  22
ENDBRANCH  13  15
ENDBRANCH   7  13
ENDBRANCH   3   6
ENDBRANCH   1   2
BRANCH   1  32
ATOM     32  C   UNL A   1      37.322  23.878  26.183  1.00  0.00     0.042 C 
BRANCH  32  33
ATOM     33  C   UNL A   1      38.763  23.914  26.682  1.00  0.00     0.118 C 
BRANCH  33  34
ATOM     34  N   UNL A   1      39.711  24.619  25.821  1.00  0.00    -0.352 N 
ATOM     35  C   UNL A   1      40.503  25.718  26.157  1.00  0.00     0.251 C 
ATOM     36  H   UNL A   1      39.800  24.282  24.902  1.00  0.00     0.163 HD
ATOM     37  O   UNL A   1      41.184  26.338  25.381  1.00  0.00    -0.269 OA
BRANCH  35  38
ATOM     38  C   UNL A   1      40.566  26.029  27.604  1.00  0.00     0.039 A 
ATOM     39  C   UNL A   1      39.336  26.270  28.228  1.00  0.00     0.014 A 
ATOM     40  C   UNL A   1      41.764  26.504  28.130  1.00  0.00     0.014 A 
ATOM     41  C   UNL A   1      39.281  27.214  29.241  1.00  0.00     0.010 A 
ATOM     42  C   UNL A   1      41.693  27.513  29.070  1.00  0.00     0.010 A 
ATOM     43  C   UNL A   1      40.445  27.920  29.557  1.00  0.00    -0.014 A 
BRANCH  43  44
ATOM     44  C   UNL A   1      40.399  29.159  30.321  1.00  0.00     0.031 A 
ATOM     45  C   UNL A   1      39.400  30.174  29.939  1.00  0.00     0.074 A 
ATOM     46  C   UNL A   1      41.293  29.397  31.309  1.00  0.00     0.049 A 
ATOM     47  N   UNL A   1      39.572  31.450  30.021  1.00  0.00    -0.248 NA
ATOM     48  C   UNL A   1      38.131  29.798  29.326  1.00  0.00     0.031 C 
ATOM     49  C   UNL A   1      41.315  30.553  32.201  1.00  0.00     0.029 A 
ATOM     50  N   UNL A   1      42.518  28.763  31.549  1.00  0.00    -0.354 N 
ATOM     51  C   UNL A   1      38.349  32.037  29.775  1.00  0.00     0.074 A 
ATOM     52  C   UNL A   1      37.532  30.983  29.222  1.00  0.00     0.031 C 
ATOM     53  C   UNL A   1      42.577  30.738  32.620  1.00  0.00     0.029 A 
ATOM     54  C   UNL A   1      43.414  29.778  31.915  1.00  0.00     0.049 A 
ATOM     55  H   UNL A   1      42.713  27.800  31.475  1.00  0.00     0.167 HD
ATOM     56  C   UNL A   1      38.100  33.300  30.229  1.00  0.00     0.031 A 
ATOM     57  C   UNL A   1      44.531  30.093  31.197  1.00  0.00     0.031 A 
ATOM     58  C   UNL A   1      39.311  33.914  30.777  1.00  0.00     0.049 A 
ATOM     59  C   UNL A   1      44.519  31.523  30.691  1.00  0.00     0.074 A 
ATOM     60  C   UNL A   1      39.771  34.098  32.072  1.00  0.00     0.029 A 
ATOM     61  N   UNL A   1      40.405  34.128  29.942  1.00  0.00    -0.354 N 
ATOM     62  N   UNL A   1      43.453  32.279  30.658  1.00  0.00    -0.248 NA
ATOM     63  C   UNL A   1      45.695  32.208  30.163  1.00  0.00     0.031 C 
ATOM     64  C   UNL A   1      41.176  34.308  32.012  1.00  0.00     0.029 A 
ATOM     65  C   UNL A   1      41.562  34.299  30.683  1.00  0.00     0.049 A 
ATOM     66  H   UNL A   1      40.362  34.154  28.959  1.00  0.00     0.167 HD
ATOM     67  C   UNL A   1      43.771  33.514  30.152  1.00  0.00     0.074 A 
ATOM     68  C   UNL A   1      45.193  33.421  29.865  1.00  0.00     0.031 C 
ATOM     69  C   UNL A   1      42.845  34.513  30.016  1.00  0.00     0.031 A 
BRANCH  56  70
ATOM     70  C   UNL A   1      36.682  33.786  30.491  1.00  0.00    -0.014 A 
ATOM     71  C   UNL A   1      35.836  34.117  29.413  1.00  0.00     0.010 A 
ATOM     72  C   UNL A   1      36.160  34.042  31.774  1.00  0.00     0.010 A 
ATOM     73  C   UNL A   1      34.609  34.780  29.604  1.00  0.00     0.020 A 
ATOM     74  C   UNL A   1      34.966  34.749  31.981  1.00  0.00     0.020 A 
ATOM     75  C   UNL A   1      34.200  35.127  30.889  1.00  0.00     0.054 A 
BRANCH  75  76
ATOM     76  S   UNL A   1      32.673  36.077  31.124  1.00  0.00     0.124 S 
ATOM     77  O   UNL A   1      31.964  35.296  32.134  1.00  0.00    -0.237 OA
ATOM     78  O   UNL A   1      33.176  37.373  31.565  1.00  0.00    -0.237 OA
ATOM     79  O   UNL A   1      32.053  36.071  29.800  1.00  0.00    -0.744 OA
ENDBRANCH  75  76
ENDBRANCH  56  70
BRANCH  57  80
ATOM     80  C   UNL A   1      45.233  28.942  30.566  1.00  0.00    -0.014 A 
ATOM     81  C   UNL A   1      45.344  27.759  31.328  1.00  0.00     0.010 A 
ATOM     82  C   UNL A   1      45.456  28.871  29.181  1.00  0.00     0.010 A 
ATOM     83  C   UNL A   1      45.534  26.520  30.710  1.00  0.00     0.020 A 
ATOM     84  C   UNL A   1      45.639  27.624  28.555  1.00  0.00     0.020 A 
ATOM     85  C   UNL A   1      45.617  26.454  29.320  1.00  0.00     0.054 A 
BRANCH  85  86
ATOM     86  S   UNL A   1      45.569  24.812  28.537  1.00  0.00     0.124 S 
ATOM     87  O   UNL A   1      45.010  23.972  29.595  1.00  0.00    -0.237 OA
ATOM     88  O   UNL A   1      44.678  25.055  27.404  1.00  0.00    -0.237 OA
ATOM     89  O   UNL A   1      46.967  24.556  28.208  1.00  0.00    -0.744 OA
ENDBRANCH  85  86
ENDBRANCH  57  80
BRANCH  69  90
ATOM     90  C   UNL A   1      43.062  35.840  29.317  1.00  0.00    -0.014 A 
ATOM     91  C   UNL A   1      42.620  36.138  28.019  1.00  0.00     0.010 A 
ATOM     92  C   UNL A   1      43.642  36.906  30.049  1.00  0.00     0.010 A 
ATOM     93  C   UNL A   1      42.800  37.413  27.459  1.00  0.00     0.020 A 
ATOM     94  C   UNL A   1      43.781  38.192  29.522  1.00  0.00     0.020 A 
ATOM     95  C   UNL A   1      43.380  38.433  28.214  1.00  0.00     0.054 A 
BRANCH  95  96
ATOM     96  S   UNL A   1      43.535  40.097  27.516  1.00  0.00     0.124 S 
ATOM     97  O   UNL A   1      44.974  40.330  27.610  1.00  0.00    -0.237 OA
ATOM     98  O   UNL A   1      43.015  39.934  26.160  1.00  0.00    -0.237 OA
ATOM     99  O   UNL A   1      42.707  40.915  28.397  1.00  0.00    -0.744 OA
ENDBRANCH  95  96
ENDBRANCH  69  90
ENDBRANCH  43  44
ENDBRANCH  35  38
ENDBRANCH  33  34
ENDBRANCH  32  33
ENDBRANCH   1  32
TORSDOF 17
ENDMDL
