MODEL 1
REMARK VINA RESULT:     -10.5      0.000      0.000
REMARK SMILES C[NH2+][C@]1(C(=O)NCCCNC(=O)c2ccc(-c3c4nc(c(-c5ccc(S(=O)(=O)[O-])cc5)c5ccc([nH]5)c(-c5ccc(S(=O)(=O)[O-])cc5)c5nc(c(-c6ccc(S(=O)(=O)[O-])cc6)c6ccc3[nH]6)C=C5)C=C4)cc2)CCC[C@@H](Sc2nncs2)C1
REMARK SMILES IDX 8 1 7 2 6 3 4 4 5 5 3 7 73 8 83 9 74 10 76 11 75 12 2 13
REMARK SMILES IDX 1 14 77 17 78 18 79 19 82 20 80 21 81 22 9 23 10 24 11 25
REMARK SMILES IDX 12 27 13 28 14 29 72 30 15 31 71 32 16 33 17 34 18 35 65 36
REMARK SMILES IDX 19 37 70 38 64 39 66 40 20 41 69 42 63 43 62 44 21 46 51 47
REMARK SMILES IDX 32 48 50 49 33 50 36 51 49 52 67 53 34 54 35 55 48 57 68 58
REMARK SMILES IDX 37 59 22 60 23 61 31 62 24 63 30 64 25 65 26 66 27 67 28 68
REMARK SMILES IDX 29 69 52 70 53 71 61 72 54 73 60 74 55 75 56 76 57 77 58 78
REMARK SMILES IDX 59 79 38 80 39 81 47 82 40 83 46 84 41 85 42 86 43 87 44 88
REMARK SMILES IDX 45 89
REMARK H PARENT 6 6 2 15 2 16 10 26 66 45 36 56
REMARK Flexibility Score: inf
ROOT
ATOM      1  C   UNL A   1      32.685  28.070  25.971  1.00  0.00     0.042 C 
ENDROOT
BRANCH   1   2
ATOM      2  C   UNL A   1      32.739  26.622  25.508  1.00  0.00     0.118 C 
BRANCH   2   3
ATOM      3  N   UNL A   1      31.968  25.736  26.369  1.00  0.00    -0.351 N 
ATOM      4  C   UNL A   1      31.881  24.378  26.430  1.00  0.00     0.281 C 
ATOM      5  O   UNL A   1      31.071  23.915  27.245  1.00  0.00    -0.268 OA
ATOM      6  H   UNL A   1      31.407  26.205  27.029  1.00  0.00     0.163 HD
BRANCH   4   7
ATOM      7  C   UNL A   1      32.719  23.416  25.496  1.00  0.00     0.176 C 
ATOM      8  C   UNL A   1      34.217  23.695  25.776  1.00  0.00     0.079 C 
ATOM      9  C   UNL A   1      32.269  21.950  25.744  1.00  0.00     0.094 C 
ATOM     10  C   UNL A   1      35.185  22.587  25.376  1.00  0.00     0.008 C 
ATOM     11  C   UNL A   1      33.313  20.893  25.376  1.00  0.00     0.061 C 
ATOM     12  C   UNL A   1      34.723  21.225  25.872  1.00  0.00     0.015 C 
BRANCH   7  13
ATOM     13  N   UNL A   1      32.280  23.738  24.101  1.00  0.00    -0.336 N 
ATOM     14  C   UNL A   1      30.868  23.773  23.792  1.00  0.00     0.331 C 
ATOM     15  H   UNL A   1      32.656  24.659  23.875  1.00  0.00     0.346 HD
ATOM     16  H   UNL A   1      32.628  22.953  23.551  1.00  0.00     0.346 HD
ENDBRANCH   7  13
BRANCH  11  17
ATOM     17  S   UNL A   1      32.795  19.202  25.890  1.00  0.00    -0.090 SA
BRANCH  17  18
ATOM     18  C   UNL A   1      33.257  18.227  24.514  1.00  0.00     0.174 A 
ATOM     19  N   UNL A   1      32.731  18.390  23.319  1.00  0.00    -0.132 NA
ATOM     20  S   UNL A   1      34.416  16.965  24.606  1.00  0.00    -0.094 S 
ATOM     21  N   UNL A   1      33.204  17.469  22.407  1.00  0.00    -0.146 NA
ATOM     22  C   UNL A   1      34.093  16.663  22.948  1.00  0.00     0.203 A 
ENDBRANCH  17  18
ENDBRANCH  11  17
ENDBRANCH   4   7
ENDBRANCH   2   3
ENDBRANCH   1   2
BRANCH   1  23
ATOM     23  C   UNL A   1      33.719  28.418  27.031  1.00  0.00     0.118 C 
BRANCH  23  24
ATOM     24  N   UNL A   1      33.640  29.807  27.460  1.00  0.00    -0.352 N 
ATOM     25  C   UNL A   1      34.551  30.573  28.145  1.00  0.00     0.251 C 
ATOM     26  H   UNL A   1      32.804  30.269  27.220  1.00  0.00     0.163 HD
ATOM     27  O   UNL A   1      34.219  31.675  28.573  1.00  0.00    -0.269 OA
BRANCH  25  28
ATOM     28  C   UNL A   1      35.917  30.065  28.394  1.00  0.00     0.039 A 
ATOM     29  C   UNL A   1      36.864  30.143  27.371  1.00  0.00     0.014 A 
ATOM     30  C   UNL A   1      36.268  29.509  29.627  1.00  0.00     0.014 A 
ATOM     31  C   UNL A   1      38.178  29.733  27.609  1.00  0.00     0.010 A 
ATOM     32  C   UNL A   1      37.595  29.192  29.893  1.00  0.00     0.010 A 
ATOM     33  C   UNL A   1      38.566  29.293  28.886  1.00  0.00    -0.014 A 
BRANCH  33  34
ATOM     34  C   UNL A   1      39.974  28.931  29.187  1.00  0.00     0.031 A 
ATOM     35  C   UNL A   1      40.898  29.942  29.814  1.00  0.00     0.074 A 
ATOM     36  C   UNL A   1      40.440  27.713  28.839  1.00  0.00     0.049 A 
ATOM     37  N   UNL A   1      42.172  29.833  30.091  1.00  0.00    -0.248 NA
ATOM     38  C   UNL A   1      40.323  31.255  30.148  1.00  0.00     0.031 C 
ATOM     39  C   UNL A   1      39.657  26.660  28.188  1.00  0.00     0.029 A 
ATOM     40  N   UNL A   1      41.688  27.158  28.977  1.00  0.00    -0.354 N 
ATOM     41  C   UNL A   1      42.553  31.064  30.613  1.00  0.00     0.074 A 
ATOM     42  C   UNL A   1      41.390  31.923  30.564  1.00  0.00     0.031 C 
ATOM     43  C   UNL A   1      40.432  25.577  28.015  1.00  0.00     0.029 A 
ATOM     44  C   UNL A   1      41.779  25.873  28.493  1.00  0.00     0.049 A 
ATOM     45  H   UNL A   1      42.447  27.634  29.385  1.00  0.00     0.167 HD
ATOM     46  C   UNL A   1      43.755  31.440  31.110  1.00  0.00     0.031 A 
ATOM     47  C   UNL A   1      42.828  25.031  28.432  1.00  0.00     0.031 A 
ATOM     48  C   UNL A   1      44.906  30.579  31.169  1.00  0.00     0.049 A 
ATOM     49  C   UNL A   1      44.158  25.478  28.975  1.00  0.00     0.074 A 
ATOM     50  C   UNL A   1      46.153  30.848  31.704  1.00  0.00     0.029 A 
ATOM     51  N   UNL A   1      44.953  29.284  30.675  1.00  0.00    -0.354 N 
ATOM     52  N   UNL A   1      44.479  26.625  29.525  1.00  0.00    -0.248 NA
ATOM     53  C   UNL A   1      45.264  24.515  28.899  1.00  0.00     0.031 C 
ATOM     54  C   UNL A   1      46.973  29.739  31.479  1.00  0.00     0.029 A 
ATOM     55  C   UNL A   1      46.216  28.751  30.868  1.00  0.00     0.049 A 
ATOM     56  H   UNL A   1      44.200  28.814  30.249  1.00  0.00     0.167 HD
ATOM     57  C   UNL A   1      45.816  26.508  29.891  1.00  0.00     0.074 A 
ATOM     58  C   UNL A   1      46.237  25.174  29.512  1.00  0.00     0.031 C 
ATOM     59  C   UNL A   1      46.621  27.420  30.489  1.00  0.00     0.031 A 
BRANCH  46  60
ATOM     60  C   UNL A   1      43.889  32.850  31.627  1.00  0.00    -0.014 A 
ATOM     61  C   UNL A   1      43.609  33.165  32.969  1.00  0.00     0.010 A 
ATOM     62  C   UNL A   1      44.351  33.867  30.770  1.00  0.00     0.010 A 
ATOM     63  C   UNL A   1      43.752  34.474  33.434  1.00  0.00     0.020 A 
ATOM     64  C   UNL A   1      44.525  35.172  31.240  1.00  0.00     0.020 A 
ATOM     65  C   UNL A   1      44.209  35.470  32.566  1.00  0.00     0.054 A 
BRANCH  65  66
ATOM     66  S   UNL A   1      44.417  37.153  33.209  1.00  0.00     0.124 S 
ATOM     67  O   UNL A   1      43.926  37.015  34.578  1.00  0.00    -0.237 OA
ATOM     68  O   UNL A   1      45.855  37.371  33.077  1.00  0.00    -0.237 OA
ATOM     69  O   UNL A   1      43.583  37.967  32.329  1.00  0.00    -0.744 OA
ENDBRANCH  65  66
ENDBRANCH  46  60
BRANCH  47  70
ATOM     70  C   UNL A   1      42.661  23.673  27.841  1.00  0.00    -0.014 A 
ATOM     71  C   UNL A   1      42.282  22.583  28.644  1.00  0.00     0.010 A 
ATOM     72  C   UNL A   1      42.878  23.463  26.466  1.00  0.00     0.010 A 
ATOM     73  C   UNL A   1      42.145  21.306  28.090  1.00  0.00     0.020 A 
ATOM     74  C   UNL A   1      42.711  22.195  25.902  1.00  0.00     0.020 A 
ATOM     75  C   UNL A   1      42.358  21.121  26.721  1.00  0.00     0.054 A 
BRANCH  75  76
ATOM     76  S   UNL A   1      42.131  19.466  26.016  1.00  0.00     0.124 S 
ATOM     77  O   UNL A   1      42.653  18.610  27.076  1.00  0.00    -0.237 OA
ATOM     78  O   UNL A   1      40.687  19.408  25.808  1.00  0.00    -0.237 OA
ATOM     79  O   UNL A   1      42.928  19.503  24.791  1.00  0.00    -0.744 OA
ENDBRANCH  75  76
ENDBRANCH  47  70
BRANCH  59  80
ATOM     80  C   UNL A   1      48.029  26.999  30.816  1.00  0.00    -0.014 A 
ATOM     81  C   UNL A   1      49.105  27.311  29.965  1.00  0.00     0.010 A 
ATOM     82  C   UNL A   1      48.286  26.330  32.028  1.00  0.00     0.010 A 
ATOM     83  C   UNL A   1      50.406  26.933  30.307  1.00  0.00     0.020 A 
ATOM     84  C   UNL A   1      49.589  25.980  32.388  1.00  0.00     0.020 A 
ATOM     85  C   UNL A   1      50.640  26.272  31.517  1.00  0.00     0.054 A 
BRANCH  85  86
ATOM     86  S   UNL A   1      52.344  25.836  31.957  1.00  0.00     0.124 S 
ATOM     87  O   UNL A   1      52.170  24.536  32.599  1.00  0.00    -0.237 OA
ATOM     88  O   UNL A   1      53.014  25.812  30.659  1.00  0.00    -0.237 OA
ATOM     89  O   UNL A   1      52.761  26.918  32.846  1.00  0.00    -0.744 OA
ENDBRANCH  85  86
ENDBRANCH  59  80
ENDBRANCH  33  34
ENDBRANCH  25  28
ENDBRANCH  23  24
ENDBRANCH   1  23
TORSDOF 16
ENDMDL
MODEL 2
REMARK VINA RESULT:     -10.4      1.725      2.247
REMARK SMILES C[NH2+][C@]1(C(=O)NCCCNC(=O)c2ccc(-c3c4nc(c(-c5ccc(S(=O)(=O)[O-])cc5)c5ccc([nH]5)c(-c5ccc(S(=O)(=O)[O-])cc5)c5nc(c(-c6ccc(S(=O)(=O)[O-])cc6)c6ccc3[nH]6)C=C5)C=C4)cc2)CCC[C@@H](Sc2nncs2)C1
REMARK SMILES IDX 8 1 7 2 6 3 4 4 5 5 3 7 73 8 83 9 74 10 76 11 75 12 2 13
REMARK SMILES IDX 1 14 77 17 78 18 79 19 82 20 80 21 81 22 9 23 10 24 11 25
REMARK SMILES IDX 12 27 13 28 14 29 72 30 15 31 71 32 16 33 17 34 18 35 65 36
REMARK SMILES IDX 19 37 70 38 64 39 66 40 20 41 69 42 63 43 62 44 21 46 51 47
REMARK SMILES IDX 32 48 50 49 33 50 36 51 49 52 67 53 34 54 35 55 48 57 68 58
REMARK SMILES IDX 37 59 22 60 23 61 31 62 24 63 30 64 25 65 26 66 27 67 28 68
REMARK SMILES IDX 29 69 52 70 53 71 61 72 54 73 60 74 55 75 56 76 57 77 58 78
REMARK SMILES IDX 59 79 38 80 39 81 47 82 40 83 46 84 41 85 42 86 43 87 44 88
REMARK SMILES IDX 45 89
REMARK H PARENT 6 6 2 15 2 16 10 26 66 45 36 56
REMARK Flexibility Score: inf
ROOT
ATOM      1  C   UNL A   1      34.069  28.267  25.762  1.00  0.00     0.042 C 
ENDROOT
BRANCH   1   2
ATOM      2  C   UNL A   1      32.940  27.870  24.823  1.00  0.00     0.118 C 
BRANCH   2   3
ATOM      3  N   UNL A   1      33.410  27.609  23.470  1.00  0.00    -0.351 N 
ATOM      4  C   UNL A   1      33.378  26.487  22.698  1.00  0.00     0.281 C 
ATOM      5  O   UNL A   1      33.930  26.566  21.591  1.00  0.00    -0.268 OA
ATOM      6  H   UNL A   1      33.828  28.386  23.033  1.00  0.00     0.163 HD
BRANCH   4   7
ATOM      7  C   UNL A   1      32.723  25.130  23.174  1.00  0.00     0.176 C 
ATOM      8  C   UNL A   1      32.986  24.079  22.066  1.00  0.00     0.079 C 
ATOM      9  C   UNL A   1      33.285  24.759  24.574  1.00  0.00     0.094 C 
ATOM     10  C   UNL A   1      32.888  22.620  22.496  1.00  0.00     0.008 C 
ATOM     11  C   UNL A   1      33.209  23.268  24.915  1.00  0.00     0.061 C 
ATOM     12  C   UNL A   1      33.667  22.354  23.776  1.00  0.00     0.015 C 
BRANCH   7  13
ATOM     13  N   UNL A   1      31.275  25.446  23.396  1.00  0.00    -0.336 N 
ATOM     14  C   UNL A   1      30.310  24.370  23.421  1.00  0.00     0.331 C 
ATOM     15  H   UNL A   1      31.209  25.925  24.294  1.00  0.00     0.346 HD
ATOM     16  H   UNL A   1      31.016  25.983  22.569  1.00  0.00     0.346 HD
ENDBRANCH   7  13
BRANCH  11  17
ATOM     17  S   UNL A   1      34.079  22.876  26.490  1.00  0.00    -0.090 SA
BRANCH  17  18
ATOM     18  C   UNL A   1      35.670  22.402  25.940  1.00  0.00     0.174 A 
ATOM     19  N   UNL A   1      36.005  21.147  25.732  1.00  0.00    -0.132 NA
ATOM     20  S   UNL A   1      36.933  23.525  25.644  1.00  0.00    -0.094 S 
ATOM     21  N   UNL A   1      37.328  21.011  25.360  1.00  0.00    -0.146 NA
ATOM     22  C   UNL A   1      37.929  22.178  25.275  1.00  0.00     0.203 A 
ENDBRANCH  17  18
ENDBRANCH  11  17
ENDBRANCH   4   7
ENDBRANCH   2   3
ENDBRANCH   1   2
BRANCH   1  23
ATOM     23  C   UNL A   1      33.631  28.461  27.205  1.00  0.00     0.118 C 
BRANCH  23  24
ATOM     24  N   UNL A   1      33.576  29.863  27.593  1.00  0.00    -0.352 N 
ATOM     25  C   UNL A   1      34.512  30.640  28.231  1.00  0.00     0.251 C 
ATOM     26  H   UNL A   1      32.739  30.326  27.360  1.00  0.00     0.163 HD
ATOM     27  O   UNL A   1      34.201  31.758  28.634  1.00  0.00    -0.269 OA
BRANCH  25  28
ATOM     28  C   UNL A   1      35.878  30.125  28.462  1.00  0.00     0.039 A 
ATOM     29  C   UNL A   1      36.806  30.179  27.419  1.00  0.00     0.014 A 
ATOM     30  C   UNL A   1      36.249  29.587  29.697  1.00  0.00     0.014 A 
ATOM     31  C   UNL A   1      38.121  29.762  27.638  1.00  0.00     0.010 A 
ATOM     32  C   UNL A   1      37.579  29.265  29.943  1.00  0.00     0.010 A 
ATOM     33  C   UNL A   1      38.531  29.341  28.915  1.00  0.00    -0.014 A 
BRANCH  33  34
ATOM     34  C   UNL A   1      39.942  28.973  29.194  1.00  0.00     0.031 A 
ATOM     35  C   UNL A   1      40.882  29.983  29.798  1.00  0.00     0.074 A 
ATOM     36  C   UNL A   1      40.395  27.750  28.846  1.00  0.00     0.049 A 
ATOM     37  N   UNL A   1      42.160  29.868  30.055  1.00  0.00    -0.248 NA
ATOM     38  C   UNL A   1      40.320  31.302  30.134  1.00  0.00     0.031 C 
ATOM     39  C   UNL A   1      39.595  26.697  28.216  1.00  0.00     0.029 A 
ATOM     40  N   UNL A   1      41.642  27.189  28.967  1.00  0.00    -0.354 N 
ATOM     41  C   UNL A   1      42.556  31.101  30.562  1.00  0.00     0.074 A 
ATOM     42  C   UNL A   1      41.398  31.965  30.527  1.00  0.00     0.031 C 
ATOM     43  C   UNL A   1      40.361  25.609  28.037  1.00  0.00     0.029 A 
ATOM     44  C   UNL A   1      41.717  25.901  28.490  1.00  0.00     0.049 A 
ATOM     45  H   UNL A   1      42.410  27.663  29.358  1.00  0.00     0.167 HD
ATOM     46  C   UNL A   1      43.769  31.473  31.035  1.00  0.00     0.031 A 
ATOM     47  C   UNL A   1      42.761  25.051  28.416  1.00  0.00     0.031 A 
ATOM     48  C   UNL A   1      44.916  30.606  31.080  1.00  0.00     0.049 A 
ATOM     49  C   UNL A   1      44.102  25.495  28.933  1.00  0.00     0.074 A 
ATOM     50  C   UNL A   1      46.174  30.871  31.592  1.00  0.00     0.029 A 
ATOM     51  N   UNL A   1      44.948  29.307  30.595  1.00  0.00    -0.354 N 
ATOM     52  N   UNL A   1      44.439  26.644  29.471  1.00  0.00    -0.248 NA
ATOM     53  C   UNL A   1      45.201  24.525  28.845  1.00  0.00     0.031 C 
ATOM     54  C   UNL A   1      46.983  29.756  31.361  1.00  0.00     0.029 A 
ATOM     55  C   UNL A   1      46.211  28.769  30.769  1.00  0.00     0.049 A 
ATOM     56  H   UNL A   1      44.185  28.839  30.185  1.00  0.00     0.167 HD
ATOM     57  C   UNL A   1      45.781  26.521  29.814  1.00  0.00     0.074 A 
ATOM     58  C   UNL A   1      46.188  25.183  29.437  1.00  0.00     0.031 C 
ATOM     59  C   UNL A   1      46.601  27.432  30.392  1.00  0.00     0.031 A 
BRANCH  46  60
ATOM     60  C   UNL A   1      43.920  32.886  31.541  1.00  0.00    -0.014 A 
ATOM     61  C   UNL A   1      43.635  33.216  32.878  1.00  0.00     0.010 A 
ATOM     62  C   UNL A   1      44.402  33.888  30.678  1.00  0.00     0.010 A 
ATOM     63  C   UNL A   1      43.793  34.528  33.332  1.00  0.00     0.020 A 
ATOM     64  C   UNL A   1      44.592  35.194  31.137  1.00  0.00     0.020 A 
ATOM     65  C   UNL A   1      44.271  35.509  32.459  1.00  0.00     0.054 A 
BRANCH  65  66
ATOM     66  S   UNL A   1      44.498  37.195  33.088  1.00  0.00     0.124 S 
ATOM     67  O   UNL A   1      43.803  37.989  32.078  1.00  0.00    -0.237 OA
ATOM     68  O   UNL A   1      43.851  37.138  34.396  1.00  0.00    -0.237 OA
ATOM     69  O   UNL A   1      45.948  37.362  33.120  1.00  0.00    -0.744 OA
ENDBRANCH  65  66
ENDBRANCH  46  60
BRANCH  47  70
ATOM     70  C   UNL A   1      42.576  23.691  27.837  1.00  0.00    -0.014 A 
ATOM     71  C   UNL A   1      42.854  23.446  26.481  1.00  0.00     0.010 A 
ATOM     72  C   UNL A   1      42.120  22.630  28.642  1.00  0.00     0.010 A 
ATOM     73  C   UNL A   1      42.660  22.172  25.935  1.00  0.00     0.020 A 
ATOM     74  C   UNL A   1      41.955  21.349  28.108  1.00  0.00     0.020 A 
ATOM     75  C   UNL A   1      42.214  21.131  26.754  1.00  0.00     0.054 A 
BRANCH  75  76
ATOM     76  S   UNL A   1      42.013  19.478  26.036  1.00  0.00     0.124 S 
ATOM     77  O   UNL A   1      42.527  18.620  27.098  1.00  0.00    -0.237 OA
ATOM     78  O   UNL A   1      40.572  19.408  25.806  1.00  0.00    -0.237 OA
ATOM     79  O   UNL A   1      42.826  19.530  24.823  1.00  0.00    -0.744 OA
ENDBRANCH  75  76
ENDBRANCH  47  70
BRANCH  59  80
ATOM     80  C   UNL A   1      48.013  27.006  30.697  1.00  0.00    -0.014 A 
ATOM     81  C   UNL A   1      49.073  27.295  29.821  1.00  0.00     0.010 A 
ATOM     82  C   UNL A   1      48.289  26.355  31.915  1.00  0.00     0.010 A 
ATOM     83  C   UNL A   1      50.378  26.913  30.142  1.00  0.00     0.020 A 
ATOM     84  C   UNL A   1      49.596  26.000  32.255  1.00  0.00     0.020 A 
ATOM     85  C   UNL A   1      50.631  26.270  31.358  1.00  0.00     0.054 A 
BRANCH  85  86
ATOM     86  S   UNL A   1      52.340  25.827  31.771  1.00  0.00     0.124 S 
ATOM     87  O   UNL A   1      53.018  25.998  30.489  1.00  0.00    -0.237 OA
ATOM     88  O   UNL A   1      52.684  26.806  32.800  1.00  0.00    -0.237 OA
ATOM     89  O   UNL A   1      52.238  24.447  32.242  1.00  0.00    -0.744 OA
ENDBRANCH  85  86
ENDBRANCH  59  80
ENDBRANCH  33  34
ENDBRANCH  25  28
ENDBRANCH  23  24
ENDBRANCH   1  23
TORSDOF 16
ENDMDL
MODEL 3
REMARK VINA RESULT:     -10.4      3.000      4.883
REMARK SMILES C[NH2+][C@]1(C(=O)NCCCNC(=O)c2ccc(-c3c4nc(c(-c5ccc(S(=O)(=O)[O-])cc5)c5ccc([nH]5)c(-c5ccc(S(=O)(=O)[O-])cc5)c5nc(c(-c6ccc(S(=O)(=O)[O-])cc6)c6ccc3[nH]6)C=C5)C=C4)cc2)CCC[C@@H](Sc2nncs2)C1
REMARK SMILES IDX 8 1 7 2 6 3 4 4 5 5 3 7 73 8 83 9 74 10 76 11 75 12 2 13
REMARK SMILES IDX 1 14 77 17 78 18 79 19 82 20 80 21 81 22 9 23 10 24 11 25
REMARK SMILES IDX 12 27 13 28 14 29 72 30 15 31 71 32 16 33 17 34 18 35 65 36
REMARK SMILES IDX 19 37 70 38 64 39 66 40 20 41 69 42 63 43 62 44 21 46 51 47
REMARK SMILES IDX 32 48 50 49 33 50 36 51 49 52 67 53 34 54 35 55 48 57 68 58
REMARK SMILES IDX 37 59 22 60 23 61 31 62 24 63 30 64 25 65 26 66 27 67 28 68
REMARK SMILES IDX 29 69 52 70 53 71 61 72 54 73 60 74 55 75 56 76 57 77 58 78
REMARK SMILES IDX 59 79 38 80 39 81 47 82 40 83 46 84 41 85 42 86 43 87 44 88
REMARK SMILES IDX 45 89
REMARK H PARENT 6 6 2 15 2 16 10 26 66 45 36 56
REMARK Flexibility Score: inf
ROOT
ATOM      1  C   UNL A   1      34.024  28.407  25.666  1.00  0.00     0.042 C 
ENDROOT
BRANCH   1   2
ATOM      2  C   UNL A   1      33.525  27.111  25.044  1.00  0.00     0.118 C 
BRANCH   2   3
ATOM      3  N   UNL A   1      32.401  26.543  25.775  1.00  0.00    -0.351 N 
ATOM      4  C   UNL A   1      31.063  26.534  25.519  1.00  0.00     0.281 C 
ATOM      5  O   UNL A   1      30.341  26.015  26.383  1.00  0.00    -0.268 OA
ATOM      6  H   UNL A   1      32.654  26.081  26.607  1.00  0.00     0.163 HD
BRANCH   4   7
ATOM      7  C   UNL A   1      30.426  27.180  24.225  1.00  0.00     0.176 C 
ATOM      8  C   UNL A   1      28.993  26.607  24.082  1.00  0.00     0.079 C 
ATOM      9  C   UNL A   1      30.504  28.727  24.340  1.00  0.00     0.094 C 
ATOM     10  C   UNL A   1      28.034  27.423  23.223  1.00  0.00     0.008 C 
ATOM     11  C   UNL A   1      29.471  29.480  23.497  1.00  0.00     0.061 C 
ATOM     12  C   UNL A   1      28.059  28.899  23.593  1.00  0.00     0.015 C 
BRANCH   7  13
ATOM     13  N   UNL A   1      31.352  26.816  23.105  1.00  0.00    -0.336 N 
ATOM     14  C   UNL A   1      31.319  25.476  22.564  1.00  0.00     0.331 C 
ATOM     15  H   UNL A   1      31.152  27.453  22.334  1.00  0.00     0.346 HD
ATOM     16  H   UNL A   1      32.279  26.883  23.526  1.00  0.00     0.346 HD
ENDBRANCH   7  13
BRANCH  11  17
ATOM     17  S   UNL A   1      29.485  31.289  23.843  1.00  0.00    -0.090 SA
BRANCH  17  18
ATOM     18  C   UNL A   1      28.731  31.957  22.413  1.00  0.00     0.174 A 
ATOM     19  N   UNL A   1      28.294  33.196  22.353  1.00  0.00    -0.132 NA
ATOM     20  S   UNL A   1      28.477  31.052  20.978  1.00  0.00    -0.094 S 
ATOM     21  N   UNL A   1      27.682  33.480  21.149  1.00  0.00    -0.146 NA
ATOM     22  C   UNL A   1      27.709  32.446  20.336  1.00  0.00     0.203 A 
ENDBRANCH  17  18
ENDBRANCH  11  17
ENDBRANCH   4   7
ENDBRANCH   2   3
ENDBRANCH   1   2
BRANCH   1  23
ATOM     23  C   UNL A   1      33.653  28.571  27.131  1.00  0.00     0.118 C 
BRANCH  23  24
ATOM     24  N   UNL A   1      33.579  29.966  27.540  1.00  0.00    -0.352 N 
ATOM     25  C   UNL A   1      34.492  30.739  28.214  1.00  0.00     0.251 C 
ATOM     26  H   UNL A   1      32.744  30.427  27.294  1.00  0.00     0.163 HD
ATOM     27  O   UNL A   1      34.163  31.848  28.627  1.00  0.00    -0.269 OA
BRANCH  25  28
ATOM     28  C   UNL A   1      35.856  30.230  28.471  1.00  0.00     0.039 A 
ATOM     29  C   UNL A   1      36.801  30.283  27.445  1.00  0.00     0.014 A 
ATOM     30  C   UNL A   1      36.207  29.698  29.715  1.00  0.00     0.014 A 
ATOM     31  C   UNL A   1      38.114  29.871  27.688  1.00  0.00     0.010 A 
ATOM     32  C   UNL A   1      37.534  29.380  29.985  1.00  0.00     0.010 A 
ATOM     33  C   UNL A   1      38.502  29.456  28.973  1.00  0.00    -0.014 A 
BRANCH  33  34
ATOM     34  C   UNL A   1      39.910  29.093  29.278  1.00  0.00     0.031 A 
ATOM     35  C   UNL A   1      40.831  30.103  29.912  1.00  0.00     0.074 A 
ATOM     36  C   UNL A   1      40.378  27.877  28.929  1.00  0.00     0.049 A 
ATOM     37  N   UNL A   1      42.104  29.993  30.194  1.00  0.00    -0.248 NA
ATOM     38  C   UNL A   1      40.254  31.415  30.248  1.00  0.00     0.031 C 
ATOM     39  C   UNL A   1      39.598  26.825  28.272  1.00  0.00     0.029 A 
ATOM     40  N   UNL A   1      41.625  27.322  29.070  1.00  0.00    -0.354 N 
ATOM     41  C   UNL A   1      42.482  31.223  30.721  1.00  0.00     0.074 A 
ATOM     42  C   UNL A   1      41.319  32.082  30.669  1.00  0.00     0.031 C 
ATOM     43  C   UNL A   1      40.374  25.743  28.099  1.00  0.00     0.029 A 
ATOM     44  C   UNL A   1      41.718  26.039  28.583  1.00  0.00     0.049 A 
ATOM     45  H   UNL A   1      42.382  27.797  29.482  1.00  0.00     0.167 HD
ATOM     46  C   UNL A   1      43.683  31.599  31.223  1.00  0.00     0.031 A 
ATOM     47  C   UNL A   1      42.768  25.196  28.523  1.00  0.00     0.031 A 
ATOM     48  C   UNL A   1      44.833  30.738  31.284  1.00  0.00     0.049 A 
ATOM     49  C   UNL A   1      44.096  25.643  29.072  1.00  0.00     0.074 A 
ATOM     50  C   UNL A   1      46.079  31.006  31.825  1.00  0.00     0.029 A 
ATOM     51  N   UNL A   1      44.883  29.444  30.787  1.00  0.00    -0.354 N 
ATOM     52  N   UNL A   1      44.414  26.788  29.628  1.00  0.00    -0.248 NA
ATOM     53  C   UNL A   1      45.202  24.680  28.998  1.00  0.00     0.031 C 
ATOM     54  C   UNL A   1      46.899  29.897  31.600  1.00  0.00     0.029 A 
ATOM     55  C   UNL A   1      46.145  28.911  30.983  1.00  0.00     0.049 A 
ATOM     56  H   UNL A   1      44.132  28.975  30.357  1.00  0.00     0.167 HD
ATOM     57  C   UNL A   1      45.750  26.670  29.998  1.00  0.00     0.074 A 
ATOM     58  C   UNL A   1      46.173  25.338  29.617  1.00  0.00     0.031 C 
ATOM     59  C   UNL A   1      46.552  27.581  30.602  1.00  0.00     0.031 A 
BRANCH  46  60
ATOM     60  C   UNL A   1      43.814  33.007  31.745  1.00  0.00    -0.014 A 
ATOM     61  C   UNL A   1      44.230  34.058  30.909  1.00  0.00     0.010 A 
ATOM     62  C   UNL A   1      43.467  33.293  33.079  1.00  0.00     0.010 A 
ATOM     63  C   UNL A   1      44.334  35.360  31.405  1.00  0.00     0.020 A 
ATOM     64  C   UNL A   1      43.539  34.599  33.571  1.00  0.00     0.020 A 
ATOM     65  C   UNL A   1      43.987  35.622  32.734  1.00  0.00     0.054 A 
BRANCH  65  66
ATOM     66  S   UNL A   1      44.099  37.328  33.340  1.00  0.00     0.124 S 
ATOM     67  O   UNL A   1      42.983  37.387  34.281  1.00  0.00    -0.237 OA
ATOM     68  O   UNL A   1      45.429  37.368  33.941  1.00  0.00    -0.237 OA
ATOM     69  O   UNL A   1      43.938  38.137  32.135  1.00  0.00    -0.744 OA
ENDBRANCH  65  66
ENDBRANCH  46  60
BRANCH  47  70
ATOM     70  C   UNL A   1      42.604  23.841  27.928  1.00  0.00    -0.014 A 
ATOM     71  C   UNL A   1      42.944  23.602  26.585  1.00  0.00     0.010 A 
ATOM     72  C   UNL A   1      42.106  22.777  28.704  1.00  0.00     0.010 A 
ATOM     73  C   UNL A   1      42.769  22.333  26.022  1.00  0.00     0.020 A 
ATOM     74  C   UNL A   1      41.961  21.500  28.155  1.00  0.00     0.020 A 
ATOM     75  C   UNL A   1      42.281  21.289  26.813  1.00  0.00     0.054 A 
BRANCH  75  76
ATOM     76  S   UNL A   1      42.105  19.641  26.076  1.00  0.00     0.124 S 
ATOM     77  O   UNL A   1      40.678  19.592  25.778  1.00  0.00    -0.237 OA
ATOM     78  O   UNL A   1      42.992  19.718  24.918  1.00  0.00    -0.237 OA
ATOM     79  O   UNL A   1      42.556  18.742  27.136  1.00  0.00    -0.744 OA
ENDBRANCH  75  76
ENDBRANCH  47  70
BRANCH  59  80
ATOM     80  C   UNL A   1      47.959  27.160  30.933  1.00  0.00    -0.014 A 
ATOM     81  C   UNL A   1      48.256  26.449  32.109  1.00  0.00     0.010 A 
ATOM     82  C   UNL A   1      48.994  27.431  30.016  1.00  0.00     0.010 A 
ATOM     83  C   UNL A   1      49.567  26.045  32.377  1.00  0.00     0.020 A 
ATOM     84  C   UNL A   1      50.298  27.001  30.266  1.00  0.00     0.020 A 
ATOM     85  C   UNL A   1      50.579  26.322  31.452  1.00  0.00     0.054 A 
BRANCH  85  86
ATOM     86  S   UNL A   1      52.262  25.745  31.803  1.00  0.00     0.124 S 
ATOM     87  O   UNL A   1      52.664  26.624  32.898  1.00  0.00    -0.237 OA
ATOM     88  O   UNL A   1      52.051  24.345  32.165  1.00  0.00    -0.237 OA
ATOM     89  O   UNL A   1      52.971  25.956  30.543  1.00  0.00    -0.744 OA
ENDBRANCH  85  86
ENDBRANCH  59  80
ENDBRANCH  33  34
ENDBRANCH  25  28
ENDBRANCH  23  24
ENDBRANCH   1  23
TORSDOF 16
ENDMDL
