MODEL 1
REMARK VINA RESULT:     -15.2      0.000      0.000
REMARK SMILES Cc1coc2cc3c(cc12)[C@@H](C)[C@H](CCC(=O)N[C@@H](Cc1c[nH]c2ccccc12)C(=O)NCCCNC(=O)c1ccc(-c2c4nc(c(-c5ccc(S(=O)(=O)[O-])cc5)c5ccc([nH]5)c(-c5ccc(S(=O)(=O)[O-])cc5)c5nc(c(-c6ccc(S(=O)(=O)[O-])cc6)c6ccc2[nH]6)C=C5)C=C4)cc1)C(=O)O3
REMARK SMILES IDX 33 1 32 2 30 3 31 4 19 6 18 7 16 8 17 9 15 11 14 12 13 13
REMARK SMILES IDX 1 14 2 15 3 16 10 17 4 18 5 19 9 20 6 21 8 22 7 23 11 24
REMARK SMILES IDX 101 25 12 26 99 27 100 28 20 29 21 30 22 31 29 32 23 33
REMARK SMILES IDX 24 34 28 35 25 37 27 38 26 39 34 40 35 41 36 42 37 43 38 45
REMARK SMILES IDX 39 46 40 47 98 48 41 49 97 50 42 51 43 52 44 53 91 54 45 55
REMARK SMILES IDX 96 56 90 57 92 58 46 59 95 60 89 61 88 62 47 64 77 65 58 66
REMARK SMILES IDX 76 67 59 68 62 69 75 70 93 71 60 72 61 73 74 75 94 76 63 77
REMARK SMILES IDX 48 78 49 79 57 80 50 81 56 82 51 83 52 84 53 85 54 86 55 87
REMARK SMILES IDX 78 88 79 89 87 90 80 91 86 92 81 93 82 94 83 95 84 96 85 97
REMARK SMILES IDX 64 98 65 99 73 100 66 101 72 102 67 103 68 104 69 105 70 106
REMARK SMILES IDX 71 107
REMARK H PARENT 32 5 18 10 23 36 36 44 92 63 62 74
REMARK Flexibility Score: inf
ROOT
ATOM      1  C   UNL A   1      32.031  28.929  27.502  1.00  0.00     0.117 C 
ENDROOT
BRANCH   1   2
ATOM      2  N   UNL A   1      32.726  27.521  27.306  1.00  0.00    -0.354 N 
ATOM      3  C   UNL A   1      32.406  26.178  26.534  1.00  0.00     0.242 C 
ATOM      4  O   UNL A   1      33.544  25.903  26.081  1.00  0.00    -0.273 OA
ATOM      5  H   UNL A   1      33.582  27.467  27.790  1.00  0.00     0.163 HD
BRANCH   3   6
ATOM      6  C   UNL A   1      30.460  25.282  26.138  1.00  0.00     0.175 C 
BRANCH   6   7
ATOM      7  N   UNL A   1      29.425  24.422  26.835  1.00  0.00    -0.344 N 
ATOM      8  C   UNL A   1      29.697  23.069  26.961  1.00  0.00     0.220 C 
ATOM      9  O   UNL A   1      28.855  22.298  27.408  1.00  0.00    -0.275 OA
ATOM     10  H   UNL A   1      28.591  24.810  27.186  1.00  0.00     0.164 HD
BRANCH   8  11
ATOM     11  C   UNL A   1      31.173  22.636  26.615  1.00  0.00     0.101 C 
BRANCH  11  12
ATOM     12  C   UNL A   1      31.510  21.496  25.424  1.00  0.00     0.026 C 
BRANCH  12  13
ATOM     13  C   UNL A   1      32.488  21.902  23.923  1.00  0.00     0.107 C 
ATOM     14  C   UNL A   1      39.325  24.846  26.813  1.00  0.00     0.048 C 
ATOM     15  C   UNL A   1      38.995  23.479  26.382  1.00  0.00    -0.005 A 
ATOM     16  C   UNL A   1      39.865  22.409  26.384  1.00  0.00     0.199 A 
ATOM     17  C   UNL A   1      37.749  23.025  25.817  1.00  0.00     0.024 A 
ATOM     18  O   UNL A   1      39.234  21.284  26.015  1.00  0.00    -0.464 OA
ATOM     19  C   UNL A   1      37.962  21.627  25.693  1.00  0.00     0.137 A 
ATOM     20  C   UNL A   1      36.524  23.747  25.367  1.00  0.00     0.020 A 
ATOM     21  C   UNL A   1      37.076  20.651  25.313  1.00  0.00     0.095 A 
ATOM     22  C   UNL A   1      35.637  23.014  24.604  1.00  0.00    -0.001 A 
ATOM     23  C   UNL A   1      36.000  21.325  24.829  1.00  0.00     0.138 A 
ATOM     24  C   UNL A   1      33.846  23.414  23.710  1.00  0.00     0.034 C 
ATOM     25  O   UNL A   1      34.725  20.171  24.550  1.00  0.00    -0.426 OA
ATOM     26  C   UNL A   1      33.429  23.823  22.199  1.00  0.00     0.014 C 
ATOM     27  C   UNL A   1      33.163  20.157  24.001  1.00  0.00     0.314 C 
ATOM     28  O   UNL A   1      32.532  19.117  23.881  1.00  0.00    -0.251 OA
ENDBRANCH  12  13
ENDBRANCH  11  12
ENDBRANCH   8  11
ENDBRANCH   6   7
BRANCH   6  29
ATOM     29  C   UNL A   1      29.151  25.899  24.846  1.00  0.00     0.072 C 
BRANCH  29  30
ATOM     30  C   UNL A   1      29.408  26.981  23.654  1.00  0.00    -0.020 A 
ATOM     31  C   UNL A   1      28.504  27.895  23.159  1.00  0.00     0.087 A 
ATOM     32  C   UNL A   1      30.728  27.391  23.053  1.00  0.00     0.003 A 
ATOM     33  N   UNL A   1      29.198  28.923  22.559  1.00  0.00    -0.361 N 
ATOM     34  C   UNL A   1      30.555  28.696  22.585  1.00  0.00     0.046 A 
ATOM     35  C   UNL A   1      32.071  26.904  23.061  1.00  0.00     0.010 A 
ATOM     36  H   UNL A   1      28.776  29.719  22.162  1.00  0.00     0.166 HD
ATOM     37  C   UNL A   1      31.620  29.554  22.237  1.00  0.00     0.026 A 
ATOM     38  C   UNL A   1      33.148  27.741  22.681  1.00  0.00     0.001 A 
ATOM     39  C   UNL A   1      32.924  29.060  22.305  1.00  0.00     0.002 A 
ENDBRANCH  29  30
ENDBRANCH   6  29
ENDBRANCH   3   6
ENDBRANCH   1   2
BRANCH   1  40
ATOM     40  C   UNL A   1      32.131  30.000  26.388  1.00  0.00     0.042 C 
BRANCH  40  41
ATOM     41  C   UNL A   1      33.144  31.121  26.455  1.00  0.00     0.118 C 
BRANCH  41  42
ATOM     42  N   UNL A   1      33.473  31.521  27.794  1.00  0.00    -0.352 N 
ATOM     43  C   UNL A   1      34.619  31.659  28.517  1.00  0.00     0.251 C 
ATOM     44  H   UNL A   1      32.673  31.753  28.319  1.00  0.00     0.163 HD
ATOM     45  O   UNL A   1      34.476  32.300  29.564  1.00  0.00    -0.269 OA
BRANCH  43  46
ATOM     46  C   UNL A   1      35.961  31.075  28.229  1.00  0.00     0.039 A 
ATOM     47  C   UNL A   1      36.250  29.803  27.726  1.00  0.00     0.014 A 
ATOM     48  C   UNL A   1      37.028  31.874  28.685  1.00  0.00     0.014 A 
ATOM     49  C   UNL A   1      37.556  29.291  27.839  1.00  0.00     0.010 A 
ATOM     50  C   UNL A   1      38.313  31.375  28.796  1.00  0.00     0.010 A 
ATOM     51  C   UNL A   1      38.557  30.051  28.463  1.00  0.00    -0.014 A 
BRANCH  51  52
ATOM     52  C   UNL A   1      39.891  29.505  28.725  1.00  0.00     0.031 A 
ATOM     53  C   UNL A   1      40.272  29.454  30.168  1.00  0.00     0.074 A 
ATOM     54  C   UNL A   1      40.624  28.906  27.752  1.00  0.00     0.049 A 
ATOM     55  N   UNL A   1      41.300  29.988  30.739  1.00  0.00    -0.248 NA
ATOM     56  C   UNL A   1      39.331  28.830  31.117  1.00  0.00     0.031 C 
ATOM     57  C   UNL A   1      40.242  28.630  26.359  1.00  0.00     0.029 A 
ATOM     58  N   UNL A   1      41.848  28.310  27.829  1.00  0.00    -0.354 N 
ATOM     59  C   UNL A   1      41.236  29.632  32.087  1.00  0.00     0.074 A 
ATOM     60  C   UNL A   1      39.940  29.036  32.285  1.00  0.00     0.031 C 
ATOM     61  C   UNL A   1      41.088  27.716  25.823  1.00  0.00     0.029 A 
ATOM     62  C   UNL A   1      42.161  27.457  26.766  1.00  0.00     0.049 A 
ATOM     63  H   UNL A   1      42.466  28.467  28.578  1.00  0.00     0.167 HD
ATOM     64  C   UNL A   1      42.318  29.707  32.911  1.00  0.00     0.031 A 
ATOM     65  C   UNL A   1      43.207  26.587  26.684  1.00  0.00     0.031 A 
ATOM     66  C   UNL A   1      43.355  30.521  32.341  1.00  0.00     0.049 A 
ATOM     67  C   UNL A   1      44.205  27.034  27.688  1.00  0.00     0.074 A 
ATOM     68  C   UNL A   1      43.464  31.863  32.039  1.00  0.00     0.029 A 
ATOM     69  N   UNL A   1      44.336  29.885  31.617  1.00  0.00    -0.354 N 
ATOM     70  N   UNL A   1      44.832  28.174  27.613  1.00  0.00    -0.248 NA
ATOM     71  C   UNL A   1      44.118  26.442  29.014  1.00  0.00     0.031 C 
ATOM     72  C   UNL A   1      44.141  31.896  30.788  1.00  0.00     0.029 A 
ATOM     73  C   UNL A   1      44.504  30.589  30.450  1.00  0.00     0.049 A 
ATOM     74  H   UNL A   1      44.826  29.076  31.885  1.00  0.00     0.167 HD
ATOM     75  C   UNL A   1      44.832  28.657  28.914  1.00  0.00     0.074 A 
ATOM     76  C   UNL A   1      44.423  27.520  29.742  1.00  0.00     0.031 C 
ATOM     77  C   UNL A   1      44.880  29.994  29.181  1.00  0.00     0.031 A 
BRANCH  64  78
ATOM     78  C   UNL A   1      42.552  28.825  34.110  1.00  0.00    -0.014 A 
ATOM     79  C   UNL A   1      42.107  29.151  35.407  1.00  0.00     0.010 A 
ATOM     80  C   UNL A   1      43.030  27.510  33.915  1.00  0.00     0.010 A 
ATOM     81  C   UNL A   1      42.153  28.235  36.460  1.00  0.00     0.020 A 
ATOM     82  C   UNL A   1      43.046  26.570  34.956  1.00  0.00     0.020 A 
ATOM     83  C   UNL A   1      42.615  26.944  36.226  1.00  0.00     0.054 A 
BRANCH  83  84
ATOM     84  S   UNL A   1      42.594  25.764  37.599  1.00  0.00     0.124 S 
ATOM     85  O   UNL A   1      43.426  26.442  38.589  1.00  0.00    -0.237 OA
ATOM     86  O   UNL A   1      41.172  25.682  37.920  1.00  0.00    -0.237 OA
ATOM     87  O   UNL A   1      43.172  24.554  37.021  1.00  0.00    -0.744 OA
ENDBRANCH  83  84
ENDBRANCH  64  78
BRANCH  65  88
ATOM     88  C   UNL A   1      43.193  25.170  26.201  1.00  0.00    -0.014 A 
ATOM     89  C   UNL A   1      43.136  24.120  27.139  1.00  0.00     0.010 A 
ATOM     90  C   UNL A   1      43.584  24.839  24.884  1.00  0.00     0.010 A 
ATOM     91  C   UNL A   1      43.539  22.818  26.808  1.00  0.00     0.020 A 
ATOM     92  C   UNL A   1      43.984  23.530  24.542  1.00  0.00     0.020 A 
ATOM     93  C   UNL A   1      43.999  22.538  25.522  1.00  0.00     0.054 A 
BRANCH  93  94
ATOM     94  S   UNL A   1      44.705  20.890  25.202  1.00  0.00     0.124 S 
ATOM     95  O   UNL A   1      44.592  20.789  23.749  1.00  0.00    -0.237 OA
ATOM     96  O   UNL A   1      46.067  21.023  25.715  1.00  0.00    -0.237 OA
ATOM     97  O   UNL A   1      43.843  19.987  25.960  1.00  0.00    -0.744 OA
ENDBRANCH  93  94
ENDBRANCH  65  88
BRANCH  77  98
ATOM     98  C   UNL A   1      45.122  30.971  28.045  1.00  0.00    -0.014 A 
ATOM     99  C   UNL A   1      46.366  31.627  28.028  1.00  0.00     0.010 A 
ATOM    100  C   UNL A   1      44.116  31.425  27.166  1.00  0.00     0.010 A 
ATOM    101  C   UNL A   1      46.587  32.736  27.212  1.00  0.00     0.020 A 
ATOM    102  C   UNL A   1      44.343  32.526  26.318  1.00  0.00     0.020 A 
ATOM    103  C   UNL A   1      45.570  33.191  26.372  1.00  0.00     0.054 A 
BRANCH 103 104
ATOM    104  S   UNL A   1      45.885  34.685  25.393  1.00  0.00     0.124 S 
ATOM    105  O   UNL A   1      45.418  35.741  26.289  1.00  0.00    -0.237 OA
ATOM    106  O   UNL A   1      47.331  34.634  25.186  1.00  0.00    -0.237 OA
ATOM    107  O   UNL A   1      45.079  34.494  24.190  1.00  0.00    -0.744 OA
ENDBRANCH 103 104
ENDBRANCH  77  98
ENDBRANCH  51  52
ENDBRANCH  43  46
ENDBRANCH  41  42
ENDBRANCH  40  41
ENDBRANCH   1  40
TORSDOF 19
ENDMDL
MODEL 2
REMARK VINA RESULT:     -14.9      1.527      2.537
REMARK SMILES Cc1coc2cc3c(cc12)[C@@H](C)[C@H](CCC(=O)N[C@@H](Cc1c[nH]c2ccccc12)C(=O)NCCCNC(=O)c1ccc(-c2c4nc(c(-c5ccc(S(=O)(=O)[O-])cc5)c5ccc([nH]5)c(-c5ccc(S(=O)(=O)[O-])cc5)c5nc(c(-c6ccc(S(=O)(=O)[O-])cc6)c6ccc2[nH]6)C=C5)C=C4)cc1)C(=O)O3
REMARK SMILES IDX 33 1 32 2 30 3 31 4 19 6 18 7 16 8 17 9 15 11 14 12 13 13
REMARK SMILES IDX 1 14 2 15 3 16 10 17 4 18 5 19 9 20 6 21 8 22 7 23 11 24
REMARK SMILES IDX 101 25 12 26 99 27 100 28 20 29 21 30 22 31 29 32 23 33
REMARK SMILES IDX 24 34 28 35 25 37 27 38 26 39 34 40 35 41 36 42 37 43 38 45
REMARK SMILES IDX 39 46 40 47 98 48 41 49 97 50 42 51 43 52 44 53 91 54 45 55
REMARK SMILES IDX 96 56 90 57 92 58 46 59 95 60 89 61 88 62 47 64 77 65 58 66
REMARK SMILES IDX 76 67 59 68 62 69 75 70 93 71 60 72 61 73 74 75 94 76 63 77
REMARK SMILES IDX 48 78 49 79 57 80 50 81 56 82 51 83 52 84 53 85 54 86 55 87
REMARK SMILES IDX 78 88 79 89 87 90 80 91 86 92 81 93 82 94 83 95 84 96 85 97
REMARK SMILES IDX 64 98 65 99 73 100 66 101 72 102 67 103 68 104 69 105 70 106
REMARK SMILES IDX 71 107
REMARK H PARENT 32 5 18 10 23 36 36 44 92 63 62 74
REMARK Flexibility Score: inf
ROOT
ATOM      1  C   UNL A   1      31.739  27.093  26.562  1.00  0.00     0.117 C 
ENDROOT
BRANCH   1   2
ATOM      2  N   UNL A   1      31.336  25.629  27.004  1.00  0.00    -0.354 N 
ATOM      3  C   UNL A   1      31.654  24.155  26.527  1.00  0.00     0.242 C 
ATOM      4  O   UNL A   1      31.796  23.586  27.638  1.00  0.00    -0.273 OA
ATOM      5  H   UNL A   1      30.728  25.637  27.779  1.00  0.00     0.163 HD
BRANCH   3   6
ATOM      6  C   UNL A   1      32.041  23.446  24.504  1.00  0.00     0.175 C 
BRANCH   6   7
ATOM      7  N   UNL A   1      31.793  22.220  23.647  1.00  0.00    -0.344 N 
ATOM      8  C   UNL A   1      32.354  21.024  24.063  1.00  0.00     0.220 C 
ATOM      9  O   UNL A   1      32.292  20.022  23.358  1.00  0.00    -0.275 OA
ATOM     10  H   UNL A   1      31.254  22.274  22.825  1.00  0.00     0.164 HD
BRANCH   8  11
ATOM     11  C   UNL A   1      32.945  21.021  25.525  1.00  0.00     0.101 C 
BRANCH  11  12
ATOM     12  C   UNL A   1      34.602  21.070  25.814  1.00  0.00     0.026 C 
BRANCH  12  13
ATOM     13  C   UNL A   1      35.806  21.619  24.540  1.00  0.00     0.107 C 
ATOM     14  C   UNL A   1      41.184  25.847  28.659  1.00  0.00     0.048 C 
ATOM     15  C   UNL A   1      41.206  24.433  28.253  1.00  0.00    -0.005 A 
ATOM     16  C   UNL A   1      42.229  23.544  28.512  1.00  0.00     0.199 A 
ATOM     17  C   UNL A   1      40.220  23.743  27.460  1.00  0.00     0.024 A 
ATOM     18  O   UNL A   1      41.907  22.313  28.086  1.00  0.00    -0.464 OA
ATOM     19  C   UNL A   1      40.699  22.407  27.473  1.00  0.00     0.137 A 
ATOM     20  C   UNL A   1      39.021  24.214  26.710  1.00  0.00     0.020 A 
ATOM     21  C   UNL A   1      40.110  21.275  26.971  1.00  0.00     0.095 A 
ATOM     22  C   UNL A   1      38.473  23.312  25.819  1.00  0.00    -0.001 A 
ATOM     23  C   UNL A   1      39.068  21.726  26.223  1.00  0.00     0.138 A 
ATOM     24  C   UNL A   1      36.888  23.353  24.533  1.00  0.00     0.034 C 
ATOM     25  O   UNL A   1      38.114  20.349  25.746  1.00  0.00    -0.426 OA
ATOM     26  C   UNL A   1      36.758  23.644  22.944  1.00  0.00     0.014 C 
ATOM     27  C   UNL A   1      36.744  20.032  24.871  1.00  0.00     0.314 C 
ATOM     28  O   UNL A   1      36.350  18.891  24.683  1.00  0.00    -0.251 OA
ENDBRANCH  12  13
ENDBRANCH  11  12
ENDBRANCH   8  11
ENDBRANCH   6   7
BRANCH   6  29
ATOM     29  C   UNL A   1      32.334  24.548  22.935  1.00  0.00     0.072 C 
BRANCH  29  30
ATOM     30  C   UNL A   1      32.247  26.175  22.869  1.00  0.00    -0.020 A 
ATOM     31  C   UNL A   1      33.188  27.032  22.343  1.00  0.00     0.087 A 
ATOM     32  C   UNL A   1      31.037  27.041  23.106  1.00  0.00     0.003 A 
ATOM     33  N   UNL A   1      32.571  28.218  22.014  1.00  0.00    -0.361 N 
ATOM     34  C   UNL A   1      31.240  28.206  22.361  1.00  0.00     0.046 A 
ATOM     35  C   UNL A   1      29.732  26.876  23.664  1.00  0.00     0.010 A 
ATOM     36  H   UNL A   1      33.025  28.979  21.585  1.00  0.00     0.166 HD
ATOM     37  C   UNL A   1      30.219  29.133  22.060  1.00  0.00     0.026 A 
ATOM     38  C   UNL A   1      28.707  27.816  23.399  1.00  0.00     0.001 A 
ATOM     39  C   UNL A   1      28.943  28.913  22.580  1.00  0.00     0.002 A 
ENDBRANCH  29  30
ENDBRANCH   6  29
ENDBRANCH   3   6
ENDBRANCH   1   2
BRANCH   1  40
ATOM     40  C   UNL A   1      32.465  28.028  27.560  1.00  0.00     0.042 C 
BRANCH  40  41
ATOM     41  C   UNL A   1      33.807  28.646  27.236  1.00  0.00     0.118 C 
BRANCH  41  42
ATOM     42  N   UNL A   1      33.872  30.056  27.498  1.00  0.00    -0.352 N 
ATOM     43  C   UNL A   1      34.838  30.932  27.888  1.00  0.00     0.251 C 
ATOM     44  H   UNL A   1      33.002  30.498  27.364  1.00  0.00     0.163 HD
ATOM     45  O   UNL A   1      34.532  32.119  27.728  1.00  0.00    -0.269 OA
BRANCH  43  46
ATOM     46  C   UNL A   1      36.147  30.626  28.533  1.00  0.00     0.039 A 
ATOM     47  C   UNL A   1      37.001  31.512  29.198  1.00  0.00     0.014 A 
ATOM     48  C   UNL A   1      36.608  29.320  28.275  1.00  0.00     0.014 A 
ATOM     49  C   UNL A   1      38.336  31.141  29.440  1.00  0.00     0.010 A 
ATOM     50  C   UNL A   1      37.919  28.951  28.513  1.00  0.00     0.010 A 
ATOM     51  C   UNL A   1      38.809  29.894  29.008  1.00  0.00    -0.014 A 
BRANCH  51  52
ATOM     52  C   UNL A   1      40.222  29.523  29.115  1.00  0.00     0.031 A 
ATOM     53  C   UNL A   1      40.678  29.199  30.500  1.00  0.00     0.074 A 
ATOM     54  C   UNL A   1      40.988  29.293  28.019  1.00  0.00     0.049 A 
ATOM     55  N   UNL A   1      41.640  29.743  31.169  1.00  0.00    -0.248 NA
ATOM     56  C   UNL A   1      39.893  28.228  31.284  1.00  0.00     0.031 C 
ATOM     57  C   UNL A   1      40.584  29.292  26.605  1.00  0.00     0.029 A 
ATOM     58  N   UNL A   1      42.291  28.899  27.936  1.00  0.00    -0.354 N 
ATOM     59  C   UNL A   1      41.699  29.076  32.394  1.00  0.00     0.074 A 
ATOM     60  C   UNL A   1      40.521  28.250  32.460  1.00  0.00     0.031 C 
ATOM     61  C   UNL A   1      41.531  28.676  25.856  1.00  0.00     0.029 A 
ATOM     62  C   UNL A   1      42.677  28.380  26.696  1.00  0.00     0.049 A 
ATOM     63  H   UNL A   1      42.914  28.975  28.693  1.00  0.00     0.167 HD
ATOM     64  C   UNL A   1      42.797  29.129  33.199  1.00  0.00     0.031 A 
ATOM     65  C   UNL A   1      43.838  27.731  26.397  1.00  0.00     0.031 A 
ATOM     66  C   UNL A   1      43.668  30.209  32.825  1.00  0.00     0.049 A 
ATOM     67  C   UNL A   1      44.805  28.086  27.465  1.00  0.00     0.074 A 
ATOM     68  C   UNL A   1      43.555  31.583  32.851  1.00  0.00     0.029 A 
ATOM     69  N   UNL A   1      44.696  29.925  31.959  1.00  0.00    -0.354 N 
ATOM     70  N   UNL A   1      45.246  29.298  27.657  1.00  0.00    -0.248 NA
ATOM     71  C   UNL A   1      44.877  27.195  28.613  1.00  0.00     0.031 C 
ATOM     72  C   UNL A   1      44.155  32.016  31.636  1.00  0.00     0.029 A 
ATOM     73  C   UNL A   1      44.696  30.900  30.992  1.00  0.00     0.049 A 
ATOM     74  H   UNL A   1      45.317  29.165  32.020  1.00  0.00     0.167 HD
ATOM     75  C   UNL A   1      45.238  29.457  29.035  1.00  0.00     0.074 A 
ATOM     76  C   UNL A   1      45.050  28.108  29.573  1.00  0.00     0.031 C 
ATOM     77  C   UNL A   1      45.094  30.685  29.613  1.00  0.00     0.031 A 
BRANCH  64  78
ATOM     78  C   UNL A   1      43.223  28.041  34.149  1.00  0.00    -0.014 A 
ATOM     79  C   UNL A   1      43.738  26.800  33.722  1.00  0.00     0.010 A 
ATOM     80  C   UNL A   1      43.337  28.335  35.526  1.00  0.00     0.010 A 
ATOM     81  C   UNL A   1      44.313  25.889  34.611  1.00  0.00     0.020 A 
ATOM     82  C   UNL A   1      43.946  27.444  36.422  1.00  0.00     0.020 A 
ATOM     83  C   UNL A   1      44.422  26.220  35.957  1.00  0.00     0.054 A 
BRANCH  83  84
ATOM     84  S   UNL A   1      45.236  25.043  37.066  1.00  0.00     0.124 S 
ATOM     85  O   UNL A   1      46.411  25.797  37.493  1.00  0.00    -0.237 OA
ATOM     86  O   UNL A   1      44.219  24.827  38.092  1.00  0.00    -0.237 OA
ATOM     87  O   UNL A   1      45.509  23.894  36.208  1.00  0.00    -0.744 OA
ENDBRANCH  83  84
ENDBRANCH  64  78
BRANCH  65  88
ATOM     88  C   UNL A   1      44.016  26.483  25.590  1.00  0.00    -0.014 A 
ATOM     89  C   UNL A   1      42.907  25.645  25.359  1.00  0.00     0.010 A 
ATOM     90  C   UNL A   1      45.298  25.937  25.355  1.00  0.00     0.010 A 
ATOM     91  C   UNL A   1      43.065  24.298  25.001  1.00  0.00     0.020 A 
ATOM     92  C   UNL A   1      45.465  24.585  24.987  1.00  0.00     0.020 A 
ATOM     93  C   UNL A   1      44.345  23.764  24.855  1.00  0.00     0.054 A 
BRANCH  93  94
ATOM     94  S   UNL A   1      44.502  21.969  24.596  1.00  0.00     0.124 S 
ATOM     95  O   UNL A   1      43.267  21.468  25.193  1.00  0.00    -0.237 OA
ATOM     96  O   UNL A   1      44.580  21.864  23.141  1.00  0.00    -0.237 OA
ATOM     97  O   UNL A   1      45.727  21.618  25.309  1.00  0.00    -0.744 OA
ENDBRANCH  93  94
ENDBRANCH  65  88
BRANCH  77  98
ATOM     98  C   UNL A   1      45.127  31.926  28.739  1.00  0.00    -0.014 A 
ATOM     99  C   UNL A   1      46.317  32.676  28.749  1.00  0.00     0.010 A 
ATOM    100  C   UNL A   1      43.990  32.487  28.120  1.00  0.00     0.010 A 
ATOM    101  C   UNL A   1      46.363  33.965  28.218  1.00  0.00     0.020 A 
ATOM    102  C   UNL A   1      44.037  33.775  27.557  1.00  0.00     0.020 A 
ATOM    103  C   UNL A   1      45.220  34.516  27.639  1.00  0.00     0.054 A 
BRANCH 103 104
ATOM    104  S   UNL A   1      45.314  36.225  27.038  1.00  0.00     0.124 S 
ATOM    105  O   UNL A   1      46.319  36.122  25.982  1.00  0.00    -0.237 OA
ATOM    106  O   UNL A   1      43.950  36.481  26.582  1.00  0.00    -0.237 OA
ATOM    107  O   UNL A   1      45.730  36.988  28.213  1.00  0.00    -0.744 OA
ENDBRANCH 103 104
ENDBRANCH  77  98
ENDBRANCH  51  52
ENDBRANCH  43  46
ENDBRANCH  41  42
ENDBRANCH  40  41
ENDBRANCH   1  40
TORSDOF 19
ENDMDL
MODEL 3
REMARK VINA RESULT:     -13.9      3.419      9.281
REMARK SMILES Cc1coc2cc3c(cc12)[C@@H](C)[C@H](CCC(=O)N[C@@H](Cc1c[nH]c2ccccc12)C(=O)NCCCNC(=O)c1ccc(-c2c4nc(c(-c5ccc(S(=O)(=O)[O-])cc5)c5ccc([nH]5)c(-c5ccc(S(=O)(=O)[O-])cc5)c5nc(c(-c6ccc(S(=O)(=O)[O-])cc6)c6ccc2[nH]6)C=C5)C=C4)cc1)C(=O)O3
REMARK SMILES IDX 33 1 32 2 30 3 31 4 19 6 18 7 16 8 17 9 15 11 14 12 13 13
REMARK SMILES IDX 1 14 2 15 3 16 10 17 4 18 5 19 9 20 6 21 8 22 7 23 11 24
REMARK SMILES IDX 101 25 12 26 99 27 100 28 20 29 21 30 22 31 29 32 23 33
REMARK SMILES IDX 24 34 28 35 25 37 27 38 26 39 34 40 35 41 36 42 37 43 38 45
REMARK SMILES IDX 39 46 40 47 98 48 41 49 97 50 42 51 43 52 44 53 91 54 45 55
REMARK SMILES IDX 96 56 90 57 92 58 46 59 95 60 89 61 88 62 47 64 77 65 58 66
REMARK SMILES IDX 76 67 59 68 62 69 75 70 93 71 60 72 61 73 74 75 94 76 63 77
REMARK SMILES IDX 48 78 49 79 57 80 50 81 56 82 51 83 52 84 53 85 54 86 55 87
REMARK SMILES IDX 78 88 79 89 87 90 80 91 86 92 81 93 82 94 83 95 84 96 85 97
REMARK SMILES IDX 64 98 65 99 73 100 66 101 72 102 67 103 68 104 69 105 70 106
REMARK SMILES IDX 71 107
REMARK H PARENT 32 5 18 10 23 36 36 44 92 63 62 74
REMARK Flexibility Score: inf
ROOT
ATOM      1  C   UNL A   1      30.914  26.588  26.137  1.00  0.00     0.117 C 
ENDROOT
BRANCH   1   2
ATOM      2  N   UNL A   1      30.646  25.059  26.443  1.00  0.00    -0.354 N 
ATOM      3  C   UNL A   1      31.423  23.694  26.254  1.00  0.00     0.242 C 
ATOM      4  O   UNL A   1      31.154  23.131  27.343  1.00  0.00    -0.273 OA
ATOM      5  H   UNL A   1      29.764  24.921  26.860  1.00  0.00     0.163 HD
BRANCH   3   6
ATOM      6  C   UNL A   1      32.811  23.141  24.669  1.00  0.00     0.175 C 
BRANCH   6   7
ATOM      7  N   UNL A   1      34.269  22.766  24.495  1.00  0.00    -0.344 N 
ATOM      8  C   UNL A   1      35.216  23.749  24.733  1.00  0.00     0.220 C 
ATOM      9  O   UNL A   1      36.403  23.548  24.499  1.00  0.00    -0.275 OA
ATOM     10  H   UNL A   1      34.533  21.857  24.223  1.00  0.00     0.164 HD
BRANCH   8  11
ATOM     11  C   UNL A   1      34.679  25.058  25.429  1.00  0.00     0.101 C 
BRANCH  11  12
ATOM     12  C   UNL A   1      34.468  26.494  24.579  1.00  0.00     0.026 C 
BRANCH  12  13
ATOM     13  C   UNL A   1      33.830  26.533  22.857  1.00  0.00     0.107 C 
ATOM     14  C   UNL A   1      25.995  27.805  23.727  1.00  0.00     0.048 C 
ATOM     15  C   UNL A   1      27.084  28.763  23.480  1.00  0.00    -0.005 A 
ATOM     16  C   UNL A   1      26.930  30.125  23.327  1.00  0.00     0.199 A 
ATOM     17  C   UNL A   1      28.478  28.457  23.279  1.00  0.00     0.024 A 
ATOM     18  O   UNL A   1      28.123  30.726  23.201  1.00  0.00    -0.464 OA
ATOM     19  C   UNL A   1      29.063  29.747  23.192  1.00  0.00     0.137 A 
ATOM     20  C   UNL A   1      29.214  27.171  23.111  1.00  0.00     0.020 A 
ATOM     21  C   UNL A   1      30.389  30.089  23.110  1.00  0.00     0.095 A 
ATOM     22  C   UNL A   1      30.510  27.274  22.645  1.00  0.00    -0.001 A 
ATOM     23  C   UNL A   1      31.038  28.918  22.874  1.00  0.00     0.138 A 
ATOM     24  C   UNL A   1      31.986  25.932  22.212  1.00  0.00     0.034 C 
ATOM     25  O   UNL A   1      32.749  29.217  23.001  1.00  0.00    -0.426 OA
ATOM     26  C   UNL A   1      32.489  25.244  20.834  1.00  0.00     0.014 C 
ATOM     27  C   UNL A   1      34.168  28.375  22.868  1.00  0.00     0.314 C 
ATOM     28  O   UNL A   1      35.255  28.923  22.977  1.00  0.00    -0.251 OA
ENDBRANCH  12  13
ENDBRANCH  11  12
ENDBRANCH   8  11
ENDBRANCH   6   7
BRANCH   6  29
ATOM     29  C   UNL A   1      32.349  22.347  22.961  1.00  0.00     0.072 C 
BRANCH  29  30
ATOM     30  C   UNL A   1      32.059  20.767  22.678  1.00  0.00    -0.020 A 
ATOM     31  C   UNL A   1      31.796  20.180  21.460  1.00  0.00     0.087 A 
ATOM     32  C   UNL A   1      32.289  19.609  23.615  1.00  0.00     0.003 A 
ATOM     33  N   UNL A   1      32.103  18.841  21.540  1.00  0.00    -0.361 N 
ATOM     34  C   UNL A   1      32.515  18.493  22.805  1.00  0.00     0.046 A 
ATOM     35  C   UNL A   1      32.550  19.433  25.008  1.00  0.00     0.010 A 
ATOM     36  H   UNL A   1      32.036  18.211  20.786  1.00  0.00     0.166 HD
ATOM     37  C   UNL A   1      33.071  17.283  23.274  1.00  0.00     0.026 A 
ATOM     38  C   UNL A   1      33.076  18.214  25.498  1.00  0.00     0.001 A 
ATOM     39  C   UNL A   1      33.362  17.165  24.633  1.00  0.00     0.002 A 
ENDBRANCH  29  30
ENDBRANCH   6  29
ENDBRANCH   3   6
ENDBRANCH   1   2
BRANCH   1  40
ATOM     40  C   UNL A   1      31.734  27.442  27.136  1.00  0.00     0.042 C 
BRANCH  40  41
ATOM     41  C   UNL A   1      32.686  28.518  26.663  1.00  0.00     0.118 C 
BRANCH  41  42
ATOM     42  N   UNL A   1      32.114  29.834  26.664  1.00  0.00    -0.352 N 
ATOM     43  C   UNL A   1      32.557  31.090  26.950  1.00  0.00     0.251 C 
ATOM     44  H   UNL A   1      31.168  29.828  26.393  1.00  0.00     0.163 HD
ATOM     45  O   UNL A   1      31.807  31.989  26.552  1.00  0.00    -0.269 OA
BRANCH  43  46
ATOM     46  C   UNL A   1      33.769  31.480  27.727  1.00  0.00     0.039 A 
ATOM     47  C   UNL A   1      34.455  32.698  27.687  1.00  0.00     0.014 A 
ATOM     48  C   UNL A   1      34.342  30.413  28.445  1.00  0.00     0.014 A 
ATOM     49  C   UNL A   1      35.758  32.780  28.211  1.00  0.00     0.010 A 
ATOM     50  C   UNL A   1      35.621  30.490  28.964  1.00  0.00     0.010 A 
ATOM     51  C   UNL A   1      36.366  31.642  28.763  1.00  0.00    -0.014 A 
BRANCH  51  52
ATOM     52  C   UNL A   1      37.766  31.647  29.194  1.00  0.00     0.031 A 
ATOM     53  C   UNL A   1      38.471  30.339  29.041  1.00  0.00     0.074 A 
ATOM     54  C   UNL A   1      38.416  32.797  29.507  1.00  0.00     0.049 A 
ATOM     55  N   UNL A   1      39.071  29.647  29.952  1.00  0.00    -0.248 NA
ATOM     56  C   UNL A   1      38.400  29.657  27.735  1.00  0.00     0.031 C 
ATOM     57  C   UNL A   1      37.922  34.179  29.416  1.00  0.00     0.029 A 
ATOM     58  N   UNL A   1      39.714  32.989  29.878  1.00  0.00    -0.354 N 
ATOM     59  C   UNL A   1      39.602  28.525  29.313  1.00  0.00     0.074 A 
ATOM     60  C   UNL A   1      39.046  28.517  27.984  1.00  0.00     0.031 C 
ATOM     61  C   UNL A   1      38.965  35.045  29.471  1.00  0.00     0.029 A 
ATOM     62  C   UNL A   1      40.178  34.302  29.757  1.00  0.00     0.049 A 
ATOM     63  H   UNL A   1      40.283  32.256  30.206  1.00  0.00     0.167 HD
ATOM     64  C   UNL A   1      40.589  27.769  29.871  1.00  0.00     0.031 A 
ATOM     65  C   UNL A   1      41.467  34.736  29.858  1.00  0.00     0.031 A 
ATOM     66  C   UNL A   1      40.718  28.034  31.277  1.00  0.00     0.049 A 
ATOM     67  C   UNL A   1      42.214  33.673  30.576  1.00  0.00     0.074 A 
ATOM     68  C   UNL A   1      39.905  27.820  32.371  1.00  0.00     0.029 A 
ATOM     69  N   UNL A   1      41.643  28.975  31.664  1.00  0.00    -0.354 N 
ATOM     70  N   UNL A   1      41.972  33.342  31.813  1.00  0.00    -0.248 NA
ATOM     71  C   UNL A   1      42.864  32.658  29.762  1.00  0.00     0.031 C 
ATOM     72  C   UNL A   1      40.055  28.993  33.163  1.00  0.00     0.029 A 
ATOM     73  C   UNL A   1      41.027  29.803  32.570  1.00  0.00     0.049 A 
ATOM     74  H   UNL A   1      42.572  29.042  31.350  1.00  0.00     0.167 HD
ATOM     75  C   UNL A   1      42.030  31.956  31.820  1.00  0.00     0.074 A 
ATOM     76  C   UNL A   1      42.636  31.594  30.536  1.00  0.00     0.031 C 
ATOM     77  C   UNL A   1      41.328  31.214  32.725  1.00  0.00     0.031 A 
BRANCH  64  78
ATOM     78  C   UNL A   1      41.621  26.991  29.097  1.00  0.00    -0.014 A 
ATOM     79  C   UNL A   1      41.431  25.657  28.683  1.00  0.00     0.010 A 
ATOM     80  C   UNL A   1      42.733  27.672  28.555  1.00  0.00     0.010 A 
ATOM     81  C   UNL A   1      42.307  25.023  27.799  1.00  0.00     0.020 A 
ATOM     82  C   UNL A   1      43.597  27.058  27.637  1.00  0.00     0.020 A 
ATOM     83  C   UNL A   1      43.382  25.731  27.272  1.00  0.00     0.054 A 
BRANCH  83  84
ATOM     84  S   UNL A   1      44.455  24.897  26.076  1.00  0.00     0.124 S 
ATOM     85  O   UNL A   1      45.501  25.894  25.865  1.00  0.00    -0.237 OA
ATOM     86  O   UNL A   1      44.862  23.699  26.804  1.00  0.00    -0.237 OA
ATOM     87  O   UNL A   1      43.577  24.662  24.933  1.00  0.00    -0.744 OA
ENDBRANCH  83  84
ENDBRANCH  64  78
BRANCH  65  88
ATOM     88  C   UNL A   1      42.184  35.708  28.974  1.00  0.00    -0.014 A 
ATOM     89  C   UNL A   1      43.134  36.584  29.536  1.00  0.00     0.010 A 
ATOM     90  C   UNL A   1      41.701  36.022  27.683  1.00  0.00     0.010 A 
ATOM     91  C   UNL A   1      43.516  37.768  28.888  1.00  0.00     0.020 A 
ATOM     92  C   UNL A   1      42.087  37.206  27.021  1.00  0.00     0.020 A 
ATOM     93  C   UNL A   1      42.961  38.093  27.650  1.00  0.00     0.054 A 
BRANCH  93  94
ATOM     94  S   UNL A   1      43.329  39.732  26.949  1.00  0.00     0.124 S 
ATOM     95  O   UNL A   1      42.133  39.996  26.152  1.00  0.00    -0.237 OA
ATOM     96  O   UNL A   1      43.480  40.562  28.142  1.00  0.00    -0.237 OA
ATOM     97  O   UNL A   1      44.554  39.518  26.184  1.00  0.00    -0.744 OA
ENDBRANCH  93  94
ENDBRANCH  65  88
BRANCH  77  98
ATOM     98  C   UNL A   1      40.611  31.916  33.864  1.00  0.00    -0.014 A 
ATOM     99  C   UNL A   1      41.102  31.681  35.161  1.00  0.00     0.010 A 
ATOM    100  C   UNL A   1      39.374  32.580  33.729  1.00  0.00     0.010 A 
ATOM    101  C   UNL A   1      40.362  32.036  36.289  1.00  0.00     0.020 A 
ATOM    102  C   UNL A   1      38.636  32.968  34.863  1.00  0.00     0.020 A 
ATOM    103  C   UNL A   1      39.126  32.664  36.136  1.00  0.00     0.054 A 
BRANCH 103 104
ATOM    104  S   UNL A   1      38.171  33.031  37.634  1.00  0.00     0.124 S 
ATOM    105  O   UNL A   1      38.540  31.920  38.510  1.00  0.00    -0.237 OA
ATOM    106  O   UNL A   1      38.687  34.339  38.032  1.00  0.00    -0.237 OA
ATOM    107  O   UNL A   1      36.784  33.023  37.178  1.00  0.00    -0.744 OA
ENDBRANCH 103 104
ENDBRANCH  77  98
ENDBRANCH  51  52
ENDBRANCH  43  46
ENDBRANCH  41  42
ENDBRANCH  40  41
ENDBRANCH   1  40
TORSDOF 19
ENDMDL
