MODEL 1
REMARK VINA RESULT:     -10.2      0.000      0.000
REMARK SMILES C[C@@H]1[C@H](C(=O)NCCCNC(=O)c2ccc(-c3c4nc(c(-c5ccc(S(=O)(=O)[O-])cc5)c5ccc([nH]5)c(-c5ccc(S(=O)(=O)[O-])cc5)c5nc(c(-c6ccc(S(=O)(=O)[O-])cc6)c6ccc3[nH]6)C=C5)C=C4)cc2)CCN1S(=O)(=O)c1cc(F)cc(F)c1
REMARK SMILES IDX 8 1 7 2 6 3 4 4 5 5 3 7 1 8 2 9 75 10 73 11 74 12 76 13
REMARK SMILES IDX 77 14 78 15 79 16 80 17 86 18 81 19 84 20 82 21 83 22 85 23
REMARK SMILES IDX 9 24 10 25 11 26 12 28 13 29 14 30 72 31 15 32 71 33 16 34
REMARK SMILES IDX 17 35 18 36 65 37 19 38 70 39 64 40 66 41 20 42 69 43 63 44
REMARK SMILES IDX 62 45 21 47 51 48 32 49 50 50 33 51 36 52 49 53 67 54 34 55
REMARK SMILES IDX 35 56 48 58 68 59 37 60 22 61 23 62 31 63 24 64 30 65 25 66
REMARK SMILES IDX 26 67 27 68 28 69 29 70 52 71 53 72 61 73 54 74 60 75 55 76
REMARK SMILES IDX 56 77 57 78 58 79 59 80 38 81 39 82 47 83 40 84 46 85 41 86
REMARK SMILES IDX 42 87 43 88 44 89 45 90
REMARK H PARENT 6 6 10 27 66 46 36 57
REMARK Flexibility Score: inf
ROOT
ATOM      1  C   UNL A   1      34.049  34.286  27.817  1.00  0.00     0.042 C 
ENDROOT
BRANCH   1   2
ATOM      2  C   UNL A   1      34.443  35.455  28.727  1.00  0.00     0.117 C 
BRANCH   2   3
ATOM      3  N   UNL A   1      33.868  35.386  30.066  1.00  0.00    -0.356 N 
ATOM      4  C   UNL A   1      34.128  34.683  31.194  1.00  0.00     0.224 C 
ATOM      5  O   UNL A   1      33.412  34.963  32.165  1.00  0.00    -0.275 OA
ATOM      6  H   UNL A   1      33.107  36.002  30.177  1.00  0.00     0.163 HD
BRANCH   4   7
ATOM      7  C   UNL A   1      35.163  33.577  31.362  1.00  0.00     0.098 C 
ATOM      8  C   UNL A   1      36.431  34.953  33.105  1.00  0.00     0.026 C 
ATOM      9  C   UNL A   1      36.523  33.952  31.980  1.00  0.00     0.082 C 
ATOM     10  N   UNL A   1      37.157  32.630  32.346  1.00  0.00    -0.194 NA
ATOM     11  C   UNL A   1      34.778  32.290  32.052  1.00  0.00     0.032 C 
ATOM     12  C   UNL A   1      36.114  31.564  32.126  1.00  0.00     0.104 C 
BRANCH  10  13
ATOM     13  S   UNL A   1      38.048  32.342  33.771  1.00  0.00     0.243 S 
ATOM     14  O   UNL A   1      38.974  33.448  33.917  1.00  0.00    -0.207 OA
ATOM     15  O   UNL A   1      37.073  32.067  34.805  1.00  0.00    -0.207 OA
BRANCH  13  16
ATOM     16  C   UNL A   1      39.018  30.867  33.625  1.00  0.00     0.088 A 
ATOM     17  C   UNL A   1      40.369  30.984  33.980  1.00  0.00     0.061 A 
ATOM     18  C   UNL A   1      38.535  29.657  33.133  1.00  0.00     0.061 A 
ATOM     19  C   UNL A   1      41.231  29.913  33.774  1.00  0.00     0.127 A 
ATOM     20  C   UNL A   1      39.433  28.619  32.888  1.00  0.00     0.127 A 
ATOM     21  F   UNL A   1      42.517  30.030  34.125  1.00  0.00    -0.207 F 
ATOM     22  C   UNL A   1      40.781  28.735  33.200  1.00  0.00     0.078 A 
ATOM     23  F   UNL A   1      38.984  27.493  32.318  1.00  0.00    -0.207 F 
ENDBRANCH  13  16
ENDBRANCH  10  13
ENDBRANCH   4   7
ENDBRANCH   2   3
ENDBRANCH   1   2
BRANCH   1  24
ATOM     24  C   UNL A   1      34.863  33.013  28.009  1.00  0.00     0.118 C 
BRANCH  24  25
ATOM     25  N   UNL A   1      34.017  31.834  27.987  1.00  0.00    -0.352 N 
ATOM     26  C   UNL A   1      34.344  30.503  27.882  1.00  0.00     0.251 C 
ATOM     27  H   UNL A   1      33.052  32.019  28.059  1.00  0.00     0.163 HD
ATOM     28  O   UNL A   1      33.451  29.711  27.582  1.00  0.00    -0.269 OA
BRANCH  26  29
ATOM     29  C   UNL A   1      35.723  29.996  28.112  1.00  0.00     0.039 A 
ATOM     30  C   UNL A   1      36.037  29.469  29.372  1.00  0.00     0.014 A 
ATOM     31  C   UNL A   1      36.743  30.139  27.167  1.00  0.00     0.014 A 
ATOM     32  C   UNL A   1      37.348  29.078  29.674  1.00  0.00     0.010 A 
ATOM     33  C   UNL A   1      38.035  29.676  27.442  1.00  0.00     0.010 A 
ATOM     34  C   UNL A   1      38.361  29.168  28.708  1.00  0.00    -0.014 A 
BRANCH  34  35
ATOM     35  C   UNL A   1      39.772  28.805  29.026  1.00  0.00     0.031 A 
ATOM     36  C   UNL A   1      40.680  29.808  29.695  1.00  0.00     0.074 A 
ATOM     37  C   UNL A   1      40.256  27.592  28.690  1.00  0.00     0.049 A 
ATOM     38  N   UNL A   1      41.953  29.704  29.990  1.00  0.00    -0.248 NA
ATOM     39  C   UNL A   1      40.087  31.104  30.059  1.00  0.00     0.031 C 
ATOM     40  C   UNL A   1      39.501  26.531  28.022  1.00  0.00     0.029 A 
ATOM     41  N   UNL A   1      41.507  27.051  28.863  1.00  0.00    -0.354 N 
ATOM     42  C   UNL A   1      42.317  30.927  30.545  1.00  0.00     0.074 A 
ATOM     43  C   UNL A   1      41.141  31.769  30.511  1.00  0.00     0.031 C 
ATOM     44  C   UNL A   1      40.296  25.459  27.864  1.00  0.00     0.029 A 
ATOM     45  C   UNL A   1      41.625  25.766  28.386  1.00  0.00     0.049 A 
ATOM     46  H   UNL A   1      42.251  27.537  29.288  1.00  0.00     0.167 HD
ATOM     47  C   UNL A   1      43.512  31.314  31.053  1.00  0.00     0.031 A 
ATOM     48  C   UNL A   1      42.681  24.929  28.365  1.00  0.00     0.031 A 
ATOM     49  C   UNL A   1      44.676  30.473  31.122  1.00  0.00     0.049 A 
ATOM     50  C   UNL A   1      43.995  25.373  28.947  1.00  0.00     0.074 A 
ATOM     51  C   UNL A   1      45.917  30.762  31.665  1.00  0.00     0.029 A 
ATOM     52  N   UNL A   1      44.743  29.175  30.642  1.00  0.00    -0.354 N 
ATOM     53  N   UNL A   1      44.305  26.523  29.495  1.00  0.00    -0.248 NA
ATOM     54  C   UNL A   1      45.098  24.402  28.913  1.00  0.00     0.031 C 
ATOM     55  C   UNL A   1      46.744  29.648  31.485  1.00  0.00     0.029 A 
ATOM     56  C   UNL A   1      46.006  28.652  30.867  1.00  0.00     0.049 A 
ATOM     57  H   UNL A   1      44.003  28.694  30.206  1.00  0.00     0.167 HD
ATOM     58  C   UNL A   1      45.632  26.405  29.894  1.00  0.00     0.074 A 
ATOM     59  C   UNL A   1      46.062  25.070  29.533  1.00  0.00     0.031 C 
ATOM     60  C   UNL A   1      46.422  27.321  30.505  1.00  0.00     0.031 A 
BRANCH  47  61
ATOM     61  C   UNL A   1      43.618  32.722  31.577  1.00  0.00    -0.014 A 
ATOM     62  C   UNL A   1      43.457  33.002  32.945  1.00  0.00     0.010 A 
ATOM     63  C   UNL A   1      43.910  33.777  30.691  1.00  0.00     0.010 A 
ATOM     64  C   UNL A   1      43.536  34.316  33.414  1.00  0.00     0.020 A 
ATOM     65  C   UNL A   1      44.014  35.090  31.160  1.00  0.00     0.020 A 
ATOM     66  C   UNL A   1      43.805  35.354  32.516  1.00  0.00     0.054 A 
BRANCH  66  67
ATOM     67  S   UNL A   1      43.908  37.051  33.148  1.00  0.00     0.124 S 
ATOM     68  O   UNL A   1      43.864  37.832  31.915  1.00  0.00    -0.237 OA
ATOM     69  O   UNL A   1      42.724  37.153  33.998  1.00  0.00    -0.237 OA
ATOM     70  O   UNL A   1      45.184  37.077  33.859  1.00  0.00    -0.744 OA
ENDBRANCH  66  67
ENDBRANCH  47  61
BRANCH  48  71
ATOM     71  C   UNL A   1      42.532  23.566  27.787  1.00  0.00    -0.014 A 
ATOM     72  C   UNL A   1      42.998  23.292  26.489  1.00  0.00     0.010 A 
ATOM     73  C   UNL A   1      41.937  22.535  28.535  1.00  0.00     0.010 A 
ATOM     74  C   UNL A   1      42.861  22.013  25.945  1.00  0.00     0.020 A 
ATOM     75  C   UNL A   1      41.818  21.248  28.001  1.00  0.00     0.020 A 
ATOM     76  C   UNL A   1      42.272  20.998  26.704  1.00  0.00     0.054 A 
BRANCH  76  77
ATOM     77  S   UNL A   1      42.157  19.329  26.001  1.00  0.00     0.124 S 
ATOM     78  O   UNL A   1      40.727  19.213  25.731  1.00  0.00    -0.237 OA
ATOM     79  O   UNL A   1      43.019  19.419  24.825  1.00  0.00    -0.237 OA
ATOM     80  O   UNL A   1      42.665  18.475  27.072  1.00  0.00    -0.744 OA
ENDBRANCH  76  77
ENDBRANCH  48  71
BRANCH  60  81
ATOM     81  C   UNL A   1      47.824  26.906  30.854  1.00  0.00    -0.014 A 
ATOM     82  C   UNL A   1      48.907  27.242  30.023  1.00  0.00     0.010 A 
ATOM     83  C   UNL A   1      48.067  26.216  32.055  1.00  0.00     0.010 A 
ATOM     84  C   UNL A   1      50.209  26.872  30.376  1.00  0.00     0.020 A 
ATOM     85  C   UNL A   1      49.368  25.863  32.421  1.00  0.00     0.020 A 
ATOM     86  C   UNL A   1      50.430  26.182  31.573  1.00  0.00     0.054 A 
BRANCH  86  87
ATOM     87  S   UNL A   1      52.131  25.753  32.035  1.00  0.00     0.124 S 
ATOM     88  O   UNL A   1      52.838  25.907  30.767  1.00  0.00    -0.237 OA
ATOM     89  O   UNL A   1      52.450  26.747  33.057  1.00  0.00    -0.237 OA
ATOM     90  O   UNL A   1      52.020  24.380  32.525  1.00  0.00    -0.744 OA
ENDBRANCH  86  87
ENDBRANCH  60  81
ENDBRANCH  34  35
ENDBRANCH  26  29
ENDBRANCH  24  25
ENDBRANCH   1  24
TORSDOF 15
ENDMDL
MODEL 2
REMARK VINA RESULT:      -9.7      5.021     11.968
REMARK SMILES C[C@@H]1[C@H](C(=O)NCCCNC(=O)c2ccc(-c3c4nc(c(-c5ccc(S(=O)(=O)[O-])cc5)c5ccc([nH]5)c(-c5ccc(S(=O)(=O)[O-])cc5)c5nc(c(-c6ccc(S(=O)(=O)[O-])cc6)c6ccc3[nH]6)C=C5)C=C4)cc2)CCN1S(=O)(=O)c1cc(F)cc(F)c1
REMARK SMILES IDX 8 1 7 2 6 3 4 4 5 5 3 7 1 8 2 9 75 10 73 11 74 12 76 13
REMARK SMILES IDX 77 14 78 15 79 16 80 17 86 18 81 19 84 20 82 21 83 22 85 23
REMARK SMILES IDX 9 24 10 25 11 26 12 28 13 29 14 30 72 31 15 32 71 33 16 34
REMARK SMILES IDX 17 35 18 36 65 37 19 38 70 39 64 40 66 41 20 42 69 43 63 44
REMARK SMILES IDX 62 45 21 47 51 48 32 49 50 50 33 51 36 52 49 53 67 54 34 55
REMARK SMILES IDX 35 56 48 58 68 59 37 60 22 61 23 62 31 63 24 64 30 65 25 66
REMARK SMILES IDX 26 67 27 68 28 69 29 70 52 71 53 72 61 73 54 74 60 75 55 76
REMARK SMILES IDX 56 77 57 78 58 79 59 80 38 81 39 82 47 83 40 84 46 85 41 86
REMARK SMILES IDX 42 87 43 88 44 89 45 90
REMARK H PARENT 6 6 10 27 66 46 36 57
REMARK Flexibility Score: inf
ROOT
ATOM      1  C   UNL A   1      39.481  22.008  26.577  1.00  0.00     0.042 C 
ENDROOT
BRANCH   1   2
ATOM      2  C   UNL A   1      38.316  22.426  25.673  1.00  0.00     0.117 C 
BRANCH   2   3
ATOM      3  N   UNL A   1      37.077  21.699  25.927  1.00  0.00    -0.356 N 
ATOM      4  C   UNL A   1      35.759  22.013  25.946  1.00  0.00     0.224 C 
ATOM      5  O   UNL A   1      34.995  21.063  26.164  1.00  0.00    -0.275 OA
ATOM      6  H   UNL A   1      37.237  20.749  26.132  1.00  0.00     0.163 HD
BRANCH   4   7
ATOM      7  C   UNL A   1      35.148  23.398  25.771  1.00  0.00     0.098 C 
ATOM      8  C   UNL A   1      34.920  23.040  23.249  1.00  0.00     0.026 C 
ATOM      9  C   UNL A   1      35.175  24.024  24.364  1.00  0.00     0.082 C 
ATOM     10  N   UNL A   1      34.201  25.178  24.438  1.00  0.00    -0.194 NA
ATOM     11  C   UNL A   1      33.752  23.670  26.277  1.00  0.00     0.032 C 
ATOM     12  C   UNL A   1      33.506  25.085  25.772  1.00  0.00     0.104 C 
BRANCH  10  13
ATOM     13  S   UNL A   1      33.112  25.611  23.200  1.00  0.00     0.243 S 
ATOM     14  O   UNL A   1      33.901  25.809  21.998  1.00  0.00    -0.207 OA
ATOM     15  O   UNL A   1      32.061  24.617  23.225  1.00  0.00    -0.207 OA
BRANCH  13  16
ATOM     16  C   UNL A   1      32.320  27.153  23.561  1.00  0.00     0.088 A 
ATOM     17  C   UNL A   1      33.064  28.061  24.327  1.00  0.00     0.061 A 
ATOM     18  C   UNL A   1      31.016  27.469  23.187  1.00  0.00     0.061 A 
ATOM     19  C   UNL A   1      32.472  29.240  24.766  1.00  0.00     0.127 A 
ATOM     20  C   UNL A   1      30.433  28.634  23.685  1.00  0.00     0.127 A 
ATOM     21  F   UNL A   1      33.193  30.104  25.488  1.00  0.00    -0.207 F 
ATOM     22  C   UNL A   1      31.147  29.523  24.477  1.00  0.00     0.078 A 
ATOM     23  F   UNL A   1      29.146  28.885  23.410  1.00  0.00    -0.207 F 
ENDBRANCH  13  16
ENDBRANCH  10  13
ENDBRANCH   4   7
ENDBRANCH   2   3
ENDBRANCH   1   2
BRANCH   1  24
ATOM     24  C   UNL A   1      40.253  23.158  27.213  1.00  0.00     0.118 C 
BRANCH  24  25
ATOM     25  N   UNL A   1      41.038  23.877  26.229  1.00  0.00    -0.352 N 
ATOM     26  C   UNL A   1      41.262  25.225  26.076  1.00  0.00     0.251 C 
ATOM     27  H   UNL A   1      41.485  23.306  25.562  1.00  0.00     0.163 HD
ATOM     28  O   UNL A   1      41.710  25.618  25.000  1.00  0.00    -0.269 OA
BRANCH  26  29
ATOM     29  C   UNL A   1      40.978  26.211  27.154  1.00  0.00     0.039 A 
ATOM     30  C   UNL A   1      41.717  27.402  27.177  1.00  0.00     0.014 A 
ATOM     31  C   UNL A   1      40.100  25.941  28.207  1.00  0.00     0.014 A 
ATOM     32  C   UNL A   1      41.564  28.314  28.229  1.00  0.00     0.010 A 
ATOM     33  C   UNL A   1      39.890  26.887  29.217  1.00  0.00     0.010 A 
ATOM     34  C   UNL A   1      40.641  28.071  29.257  1.00  0.00    -0.014 A 
BRANCH  34  35
ATOM     35  C   UNL A   1      40.501  29.004  30.412  1.00  0.00     0.031 A 
ATOM     36  C   UNL A   1      41.403  28.863  31.614  1.00  0.00     0.074 A 
ATOM     37  C   UNL A   1      39.549  29.959  30.406  1.00  0.00     0.049 A 
ATOM     38  N   UNL A   1      41.391  29.532  32.741  1.00  0.00    -0.248 NA
ATOM     39  C   UNL A   1      42.438  27.819  31.551  1.00  0.00     0.031 C 
ATOM     40  C   UNL A   1      38.594  30.199  29.323  1.00  0.00     0.029 A 
ATOM     41  N   UNL A   1      39.226  30.904  31.349  1.00  0.00    -0.354 N 
ATOM     42  C   UNL A   1      42.393  28.971  33.528  1.00  0.00     0.074 A 
ATOM     43  C   UNL A   1      42.966  27.884  32.765  1.00  0.00     0.031 C 
ATOM     44  C   UNL A   1      37.810  31.240  29.653  1.00  0.00     0.029 A 
ATOM     45  C   UNL A   1      38.180  31.718  30.981  1.00  0.00     0.049 A 
ATOM     46  H   UNL A   1      39.699  30.991  32.209  1.00  0.00     0.167 HD
ATOM     47  C   UNL A   1      42.812  29.333  34.765  1.00  0.00     0.031 A 
ATOM     48  C   UNL A   1      37.582  32.733  31.637  1.00  0.00     0.031 A 
ATOM     49  C   UNL A   1      42.271  30.433  35.516  1.00  0.00     0.049 A 
ATOM     50  C   UNL A   1      38.073  33.127  33.003  1.00  0.00     0.074 A 
ATOM     51  C   UNL A   1      42.666  30.907  36.756  1.00  0.00     0.029 A 
ATOM     52  N   UNL A   1      41.225  31.239  35.097  1.00  0.00    -0.354 N 
ATOM     53  N   UNL A   1      39.042  32.603  33.713  1.00  0.00    -0.248 NA
ATOM     54  C   UNL A   1      37.391  34.257  33.652  1.00  0.00     0.031 C 
ATOM     55  C   UNL A   1      41.837  31.980  37.100  1.00  0.00     0.029 A 
ATOM     56  C   UNL A   1      40.953  32.200  36.056  1.00  0.00     0.049 A 
ATOM     57  H   UNL A   1      40.745  31.143  34.242  1.00  0.00     0.167 HD
ATOM     58  C   UNL A   1      39.104  33.355  34.881  1.00  0.00     0.074 A 
ATOM     59  C   UNL A   1      38.081  34.375  34.779  1.00  0.00     0.031 C 
ATOM     60  C   UNL A   1      39.934  33.212  35.942  1.00  0.00     0.031 A 
BRANCH  47  61
ATOM     61  C   UNL A   1      43.919  28.522  35.385  1.00  0.00    -0.014 A 
ATOM     62  C   UNL A   1      45.268  28.865  35.189  1.00  0.00     0.010 A 
ATOM     63  C   UNL A   1      43.604  27.417  36.198  1.00  0.00     0.010 A 
ATOM     64  C   UNL A   1      46.285  28.091  35.752  1.00  0.00     0.020 A 
ATOM     65  C   UNL A   1      44.619  26.654  36.784  1.00  0.00     0.020 A 
ATOM     66  C   UNL A   1      45.954  26.983  36.539  1.00  0.00     0.054 A 
BRANCH  66  67
ATOM     67  S   UNL A   1      47.292  25.996  37.265  1.00  0.00     0.124 S 
ATOM     68  O   UNL A   1      47.254  24.791  36.440  1.00  0.00    -0.237 OA
ATOM     69  O   UNL A   1      48.464  26.848  37.077  1.00  0.00    -0.237 OA
ATOM     70  O   UNL A   1      46.874  25.816  38.653  1.00  0.00    -0.744 OA
ENDBRANCH  66  67
ENDBRANCH  47  61
BRANCH  48  71
ATOM     71  C   UNL A   1      36.457  33.465  30.996  1.00  0.00    -0.014 A 
ATOM     72  C   UNL A   1      35.273  33.713  31.712  1.00  0.00     0.010 A 
ATOM     73  C   UNL A   1      36.570  33.930  29.674  1.00  0.00     0.010 A 
ATOM     74  C   UNL A   1      34.216  34.403  31.113  1.00  0.00     0.020 A 
ATOM     75  C   UNL A   1      35.523  34.640  29.079  1.00  0.00     0.020 A 
ATOM     76  C   UNL A   1      34.347  34.862  29.799  1.00  0.00     0.054 A 
BRANCH  76  77
ATOM     77  S   UNL A   1      32.986  35.807  29.060  1.00  0.00     0.124 S 
ATOM     78  O   UNL A   1      32.368  34.814  28.187  1.00  0.00    -0.237 OA
ATOM     79  O   UNL A   1      32.201  36.202  30.227  1.00  0.00    -0.237 OA
ATOM     80  O   UNL A   1      33.668  36.905  28.378  1.00  0.00    -0.744 OA
ENDBRANCH  76  77
ENDBRANCH  48  71
BRANCH  60  81
ATOM     81  C   UNL A   1      39.797  34.199  37.068  1.00  0.00    -0.014 A 
ATOM     82  C   UNL A   1      38.996  33.914  38.188  1.00  0.00     0.010 A 
ATOM     83  C   UNL A   1      40.522  35.403  37.029  1.00  0.00     0.010 A 
ATOM     84  C   UNL A   1      38.901  34.831  39.239  1.00  0.00     0.020 A 
ATOM     85  C   UNL A   1      40.446  36.313  38.087  1.00  0.00     0.020 A 
ATOM     86  C   UNL A   1      39.626  36.027  39.180  1.00  0.00     0.054 A 
BRANCH  86  87
ATOM     87  S   UNL A   1      39.526  37.181  40.576  1.00  0.00     0.124 S 
ATOM     88  O   UNL A   1      39.458  36.273  41.717  1.00  0.00    -0.237 OA
ATOM     89  O   UNL A   1      40.766  37.945  40.455  1.00  0.00    -0.237 OA
ATOM     90  O   UNL A   1      38.307  37.941  40.309  1.00  0.00    -0.744 OA
ENDBRANCH  86  87
ENDBRANCH  60  81
ENDBRANCH  34  35
ENDBRANCH  26  29
ENDBRANCH  24  25
ENDBRANCH   1  24
TORSDOF 15
ENDMDL
MODEL 3
REMARK VINA RESULT:      -9.7      3.159     10.964
REMARK SMILES C[C@@H]1[C@H](C(=O)NCCCNC(=O)c2ccc(-c3c4nc(c(-c5ccc(S(=O)(=O)[O-])cc5)c5ccc([nH]5)c(-c5ccc(S(=O)(=O)[O-])cc5)c5nc(c(-c6ccc(S(=O)(=O)[O-])cc6)c6ccc3[nH]6)C=C5)C=C4)cc2)CCN1S(=O)(=O)c1cc(F)cc(F)c1
REMARK SMILES IDX 8 1 7 2 6 3 4 4 5 5 3 7 1 8 2 9 75 10 73 11 74 12 76 13
REMARK SMILES IDX 77 14 78 15 79 16 80 17 86 18 81 19 84 20 82 21 83 22 85 23
REMARK SMILES IDX 9 24 10 25 11 26 12 28 13 29 14 30 72 31 15 32 71 33 16 34
REMARK SMILES IDX 17 35 18 36 65 37 19 38 70 39 64 40 66 41 20 42 69 43 63 44
REMARK SMILES IDX 62 45 21 47 51 48 32 49 50 50 33 51 36 52 49 53 67 54 34 55
REMARK SMILES IDX 35 56 48 58 68 59 37 60 22 61 23 62 31 63 24 64 30 65 25 66
REMARK SMILES IDX 26 67 27 68 28 69 29 70 52 71 53 72 61 73 54 74 60 75 55 76
REMARK SMILES IDX 56 77 57 78 58 79 59 80 38 81 39 82 47 83 40 84 46 85 41 86
REMARK SMILES IDX 42 87 43 88 44 89 45 90
REMARK H PARENT 6 6 10 27 66 46 36 57
REMARK Flexibility Score: inf
ROOT
ATOM      1  C   UNL A   1      42.590  22.073  25.576  1.00  0.00     0.042 C 
ENDROOT
BRANCH   1   2
ATOM      2  C   UNL A   1      43.988  22.016  26.202  1.00  0.00     0.117 C 
BRANCH   2   3
ATOM      3  N   UNL A   1      44.051  22.538  27.563  1.00  0.00    -0.356 N 
ATOM      4  C   UNL A   1      44.783  23.483  28.202  1.00  0.00     0.224 C 
ATOM      5  O   UNL A   1      44.485  23.663  29.391  1.00  0.00    -0.275 OA
ATOM      6  H   UNL A   1      43.405  22.099  28.162  1.00  0.00     0.163 HD
BRANCH   4   7
ATOM      7  C   UNL A   1      45.936  24.293  27.622  1.00  0.00     0.098 C 
ATOM      8  C   UNL A   1      44.342  25.556  26.072  1.00  0.00     0.026 C 
ATOM      9  C   UNL A   1      45.722  24.974  26.258  1.00  0.00     0.082 C 
ATOM     10  N   UNL A   1      46.858  25.964  26.140  1.00  0.00    -0.194 NA
ATOM     11  C   UNL A   1      46.612  25.346  28.467  1.00  0.00     0.032 C 
ATOM     12  C   UNL A   1      47.570  25.981  27.469  1.00  0.00     0.104 C 
BRANCH  10  13
ATOM     13  S   UNL A   1      46.714  27.535  25.493  1.00  0.00     0.243 S 
ATOM     14  O   UNL A   1      48.053  28.093  25.446  1.00  0.00    -0.207 OA
ATOM     15  O   UNL A   1      45.938  27.400  24.279  1.00  0.00    -0.207 OA
BRANCH  13  16
ATOM     16  C   UNL A   1      45.756  28.575  26.559  1.00  0.00     0.088 A 
ATOM     17  C   UNL A   1      44.384  28.644  26.279  1.00  0.00     0.061 A 
ATOM     18  C   UNL A   1      46.291  29.349  27.586  1.00  0.00     0.061 A 
ATOM     19  C   UNL A   1      43.581  29.534  26.981  1.00  0.00     0.127 A 
ATOM     20  C   UNL A   1      45.471  30.270  28.238  1.00  0.00     0.127 A 
ATOM     21  F   UNL A   1      42.271  29.586  26.713  1.00  0.00    -0.207 F 
ATOM     22  C   UNL A   1      44.118  30.375  27.943  1.00  0.00     0.078 A 
ATOM     23  F   UNL A   1      46.011  31.086  29.152  1.00  0.00    -0.207 F 
ENDBRANCH  13  16
ENDBRANCH  10  13
ENDBRANCH   4   7
ENDBRANCH   2   3
ENDBRANCH   1   2
BRANCH   1  24
ATOM     24  C   UNL A   1      41.436  21.867  26.549  1.00  0.00     0.118 C 
BRANCH  24  25
ATOM     25  N   UNL A   1      40.154  22.057  25.899  1.00  0.00    -0.352 N 
ATOM     26  C   UNL A   1      39.183  23.010  26.099  1.00  0.00     0.251 C 
ATOM     27  H   UNL A   1      39.945  21.396  25.199  1.00  0.00     0.163 HD
ATOM     28  O   UNL A   1      38.059  22.794  25.647  1.00  0.00    -0.269 OA
BRANCH  26  29
ATOM     29  C   UNL A   1      39.442  24.274  26.840  1.00  0.00     0.039 A 
ATOM     30  C   UNL A   1      40.209  25.266  26.214  1.00  0.00     0.014 A 
ATOM     31  C   UNL A   1      39.060  24.456  28.172  1.00  0.00     0.014 A 
ATOM     32  C   UNL A   1      40.571  26.428  26.906  1.00  0.00     0.010 A 
ATOM     33  C   UNL A   1      39.356  25.651  28.838  1.00  0.00     0.010 A 
ATOM     34  C   UNL A   1      40.140  26.639  28.225  1.00  0.00    -0.014 A 
BRANCH  34  35
ATOM     35  C   UNL A   1      40.558  27.844  28.996  1.00  0.00     0.031 A 
ATOM     36  C   UNL A   1      41.916  27.891  29.654  1.00  0.00     0.074 A 
ATOM     37  C   UNL A   1      39.716  28.888  29.138  1.00  0.00     0.049 A 
ATOM     38  N   UNL A   1      42.433  28.819  30.421  1.00  0.00    -0.248 NA
ATOM     39  C   UNL A   1      42.798  26.733  29.441  1.00  0.00     0.031 C 
ATOM     40  C   UNL A   1      38.368  28.974  28.577  1.00  0.00     0.029 A 
ATOM     41  N   UNL A   1      39.874  30.078  29.808  1.00  0.00    -0.354 N 
ATOM     42  C   UNL A   1      43.684  28.345  30.803  1.00  0.00     0.074 A 
ATOM     43  C   UNL A   1      43.832  27.031  30.216  1.00  0.00     0.031 C 
ATOM     44  C   UNL A   1      37.831  30.163  28.904  1.00  0.00     0.029 A 
ATOM     45  C   UNL A   1      38.780  30.908  29.727  1.00  0.00     0.049 A 
ATOM     46  H   UNL A   1      40.693  30.314  30.301  1.00  0.00     0.167 HD
ATOM     47  C   UNL A   1      44.633  28.948  31.560  1.00  0.00     0.031 A 
ATOM     48  C   UNL A   1      38.560  32.128  30.255  1.00  0.00     0.031 A 
ATOM     49  C   UNL A   1      44.508  30.266  32.119  1.00  0.00     0.049 A 
ATOM     50  C   UNL A   1      39.632  32.785  31.080  1.00  0.00     0.074 A 
ATOM     51  C   UNL A   1      45.437  30.980  32.857  1.00  0.00     0.029 A 
ATOM     52  N   UNL A   1      43.390  31.075  31.997  1.00  0.00    -0.354 N 
ATOM     53  N   UNL A   1      40.819  32.330  31.401  1.00  0.00    -0.248 NA
ATOM     54  C   UNL A   1      39.336  34.126  31.606  1.00  0.00     0.031 C 
ATOM     55  C   UNL A   1      44.869  32.210  33.208  1.00  0.00     0.029 A 
ATOM     56  C   UNL A   1      43.601  32.277  32.653  1.00  0.00     0.049 A 
ATOM     57  H   UNL A   1      42.567  30.833  31.514  1.00  0.00     0.167 HD
ATOM     58  C   UNL A   1      41.421  33.339  32.147  1.00  0.00     0.074 A 
ATOM     59  C   UNL A   1      40.472  34.430  32.221  1.00  0.00     0.031 C 
ATOM     60  C   UNL A   1      42.650  33.357  32.718  1.00  0.00     0.031 A 
BRANCH  47  61
ATOM     61  C   UNL A   1      45.898  28.177  31.827  1.00  0.00    -0.014 A 
ATOM     62  C   UNL A   1      47.024  28.318  30.997  1.00  0.00     0.010 A 
ATOM     63  C   UNL A   1      45.972  27.318  32.940  1.00  0.00     0.010 A 
ATOM     64  C   UNL A   1      48.184  27.579  31.244  1.00  0.00     0.020 A 
ATOM     65  C   UNL A   1      47.139  26.596  33.205  1.00  0.00     0.020 A 
ATOM     66  C   UNL A   1      48.231  26.715  32.342  1.00  0.00     0.054 A 
BRANCH  66  67
ATOM     67  S   UNL A   1      49.750  25.771  32.646  1.00  0.00     0.124 S 
ATOM     68  O   UNL A   1      49.880  25.008  31.407  1.00  0.00    -0.237 OA
ATOM     69  O   UNL A   1      50.749  26.817  32.847  1.00  0.00    -0.237 OA
ATOM     70  O   UNL A   1      49.433  24.981  33.834  1.00  0.00    -0.744 OA
ENDBRANCH  66  67
ENDBRANCH  47  61
BRANCH  48  71
ATOM     71  C   UNL A   1      37.269  32.821  30.001  1.00  0.00    -0.014 A 
ATOM     72  C   UNL A   1      36.233  32.759  30.949  1.00  0.00     0.010 A 
ATOM     73  C   UNL A   1      37.075  33.557  28.818  1.00  0.00     0.010 A 
ATOM     74  C   UNL A   1      35.019  33.412  30.713  1.00  0.00     0.020 A 
ATOM     75  C   UNL A   1      35.870  34.228  28.590  1.00  0.00     0.020 A 
ATOM     76  C   UNL A   1      34.845  34.142  29.535  1.00  0.00     0.054 A 
BRANCH  76  77
ATOM     77  S   UNL A   1      33.284  35.031  29.274  1.00  0.00     0.124 S 
ATOM     78  O   UNL A   1      32.693  34.998  30.608  1.00  0.00    -0.237 OA
ATOM     79  O   UNL A   1      33.737  36.341  28.813  1.00  0.00    -0.237 OA
ATOM     80  O   UNL A   1      32.601  34.225  28.265  1.00  0.00    -0.744 OA
ENDBRANCH  76  77
ENDBRANCH  48  71
BRANCH  60  81
ATOM     81  C   UNL A   1      43.057  34.607  33.447  1.00  0.00    -0.014 A 
ATOM     82  C   UNL A   1      42.814  34.754  34.824  1.00  0.00     0.010 A 
ATOM     83  C   UNL A   1      43.738  35.625  32.756  1.00  0.00     0.010 A 
ATOM     84  C   UNL A   1      43.225  35.911  35.493  1.00  0.00     0.020 A 
ATOM     85  C   UNL A   1      44.168  36.773  33.426  1.00  0.00     0.020 A 
ATOM     86  C   UNL A   1      43.897  36.915  34.788  1.00  0.00     0.054 A 
BRANCH  86  87
ATOM     87  S   UNL A   1      44.462  38.387  35.685  1.00  0.00     0.124 S 
ATOM     88  O   UNL A   1      45.913  38.252  35.605  1.00  0.00    -0.237 OA
ATOM     89  O   UNL A   1      43.890  39.482  34.905  1.00  0.00    -0.237 OA
ATOM     90  O   UNL A   1      43.891  38.218  37.020  1.00  0.00    -0.744 OA
ENDBRANCH  86  87
ENDBRANCH  60  81
ENDBRANCH  34  35
ENDBRANCH  26  29
ENDBRANCH  24  25
ENDBRANCH   1  24
TORSDOF 15
ENDMDL
