MODEL 1
REMARK VINA RESULT:     -11.7      0.000      0.000
REMARK SMILES CC1(C)CCC[C@H]1NC(=O)N[C@@H]1COC[C@@]1(C)C(=O)NCCCNC(=O)c1ccc(-c2c3nc(c(-c4ccc(S(=O)(=O)[O-])cc4)c4ccc([nH]4)c(-c4ccc(S(=O)(=O)[O-])cc4)c4nc(c(-c5ccc(S(=O)(=O)[O-])cc5)c5ccc2[nH]5)C=C4)C=C3)cc1
REMARK SMILES IDX 22 1 21 2 20 3 18 4 19 5 16 7 12 8 13 9 14 10 15 11 17 12
REMARK SMILES IDX 11 13 8 14 9 15 10 17 7 19 1 20 2 21 3 22 4 23 5 24 6 25
REMARK SMILES IDX 23 26 24 27 25 28 26 30 27 31 28 32 86 33 29 34 85 35 30 36
REMARK SMILES IDX 31 37 32 38 79 39 33 40 84 41 78 42 80 43 34 44 83 45 77 46
REMARK SMILES IDX 76 47 35 49 65 50 46 51 64 52 47 53 50 54 63 55 81 56 48 57
REMARK SMILES IDX 49 58 62 60 82 61 51 62 36 63 37 64 45 65 38 66 44 67 39 68
REMARK SMILES IDX 40 69 41 70 42 71 43 72 66 73 67 74 75 75 68 76 74 77 69 78
REMARK SMILES IDX 70 79 71 80 72 81 73 82 52 83 53 84 61 85 54 86 60 87 55 88
REMARK SMILES IDX 56 89 57 90 58 91 59 92
REMARK H PARENT 20 6 8 16 11 18 24 29 80 48 50 59
REMARK Flexibility Score: inf
ROOT
ATOM      1  C   UNL A   1      31.675  27.964  27.348  1.00  0.00     0.042 C 
ENDROOT
BRANCH   1   2
ATOM      2  C   UNL A   1      31.272  26.921  26.305  1.00  0.00     0.117 C 
BRANCH   2   3
ATOM      3  N   UNL A   1      31.287  27.338  24.910  1.00  0.00    -0.355 N 
ATOM      4  C   UNL A   1      31.566  26.658  23.759  1.00  0.00     0.230 C 
ATOM      5  O   UNL A   1      31.170  27.179  22.712  1.00  0.00    -0.274 OA
ATOM      6  H   UNL A   1      31.052  28.284  24.771  1.00  0.00     0.163 HD
BRANCH   4   7
ATOM      7  C   UNL A   1      32.413  25.377  23.741  1.00  0.00     0.092 C 
ATOM      8  C   UNL A   1      31.720  24.109  24.273  1.00  0.00     0.127 C 
ATOM      9  C   UNL A   1      31.959  23.006  23.245  1.00  0.00     0.186 C 
ATOM     10  O   UNL A   1      32.855  23.537  22.269  1.00  0.00    -0.378 OA
ATOM     11  C   UNL A   1      32.660  24.960  22.273  1.00  0.00     0.179 C 
ATOM     12  C   UNL A   1      33.753  25.736  24.352  1.00  0.00     0.026 C 
BRANCH   8  13
ATOM     13  N   UNL A   1      31.909  23.665  25.659  1.00  0.00    -0.332 N 
ATOM     14  N   UNL A   1      33.963  22.551  26.141  1.00  0.00    -0.335 N 
ATOM     15  C   UNL A   1      32.781  23.065  26.462  1.00  0.00     0.315 C 
ATOM     16  H   UNL A   1      34.511  22.387  26.943  1.00  0.00     0.165 HD
ATOM     17  O   UNL A   1      32.451  23.007  27.651  1.00  0.00    -0.249 OA
ATOM     18  H   UNL A   1      31.104  23.893  26.179  1.00  0.00     0.165 HD
BRANCH  14  19
ATOM     19  C   UNL A   1      34.672  22.162  24.924  1.00  0.00     0.089 C 
ATOM     20  C   UNL A   1      36.512  23.903  25.694  1.00  0.00     0.013 C 
ATOM     21  C   UNL A   1      36.170  22.635  24.894  1.00  0.00    -0.015 C 
ATOM     22  C   UNL A   1      36.654  22.830  23.435  1.00  0.00     0.013 C 
ATOM     23  C   UNL A   1      36.911  21.440  25.517  1.00  0.00     0.008 C 
ATOM     24  C   UNL A   1      36.219  20.229  24.923  1.00  0.00     0.003 C 
ATOM     25  C   UNL A   1      34.744  20.614  24.870  1.00  0.00     0.025 C 
ENDBRANCH  14  19
ENDBRANCH   8  13
ENDBRANCH   4   7
ENDBRANCH   2   3
ENDBRANCH   1   2
BRANCH   1  26
ATOM     26  C   UNL A   1      33.125  28.434  27.311  1.00  0.00     0.118 C 
BRANCH  26  27
ATOM     27  N   UNL A   1      33.249  29.863  27.520  1.00  0.00    -0.352 N 
ATOM     28  C   UNL A   1      34.259  30.627  28.046  1.00  0.00     0.251 C 
ATOM     29  H   UNL A   1      32.461  30.381  27.233  1.00  0.00     0.163 HD
ATOM     30  O   UNL A   1      33.991  31.788  28.357  1.00  0.00    -0.269 OA
BRANCH  28  31
ATOM     31  C   UNL A   1      35.645  30.125  28.238  1.00  0.00     0.039 A 
ATOM     32  C   UNL A   1      36.008  29.691  29.519  1.00  0.00     0.014 A 
ATOM     33  C   UNL A   1      36.626  30.190  27.243  1.00  0.00     0.014 A 
ATOM     34  C   UNL A   1      37.327  29.321  29.798  1.00  0.00     0.010 A 
ATOM     35  C   UNL A   1      37.930  29.753  27.503  1.00  0.00     0.010 A 
ATOM     36  C   UNL A   1      38.303  29.340  28.791  1.00  0.00    -0.014 A 
BRANCH  36  37
ATOM     37  C   UNL A   1      39.705  28.940  29.096  1.00  0.00     0.031 A 
ATOM     38  C   UNL A   1      40.652  29.887  29.789  1.00  0.00     0.074 A 
ATOM     39  C   UNL A   1      40.137  27.716  28.738  1.00  0.00     0.049 A 
ATOM     40  N   UNL A   1      41.883  29.680  30.188  1.00  0.00    -0.248 NA
ATOM     41  C   UNL A   1      40.164  31.251  30.042  1.00  0.00     0.031 C 
ATOM     42  C   UNL A   1      39.346  26.725  28.006  1.00  0.00     0.029 A 
ATOM     43  N   UNL A   1      41.344  27.095  28.941  1.00  0.00    -0.354 N 
ATOM     44  C   UNL A   1      42.319  30.886  30.726  1.00  0.00     0.074 A 
ATOM     45  C   UNL A   1      41.238  31.832  30.557  1.00  0.00     0.031 C 
ATOM     46  C   UNL A   1      40.078  25.612  27.844  1.00  0.00     0.029 A 
ATOM     47  C   UNL A   1      41.396  25.817  28.439  1.00  0.00     0.049 A 
ATOM     48  H   UNL A   1      42.101  27.525  29.401  1.00  0.00     0.167 HD
ATOM     49  C   UNL A   1      43.505  31.178  31.318  1.00  0.00     0.031 A 
ATOM     50  C   UNL A   1      42.385  24.904  28.458  1.00  0.00     0.031 A 
ATOM     51  C   UNL A   1      44.582  30.236  31.484  1.00  0.00     0.049 A 
ATOM     52  C   UNL A   1      43.673  25.228  29.159  1.00  0.00     0.074 A 
ATOM     53  C   UNL A   1      45.792  30.412  32.134  1.00  0.00     0.029 A 
ATOM     54  N   UNL A   1      44.585  28.940  30.986  1.00  0.00    -0.354 N 
ATOM     55  N   UNL A   1      44.031  26.344  29.746  1.00  0.00    -0.248 NA
ATOM     56  C   UNL A   1      44.678  24.159  29.223  1.00  0.00     0.031 C 
ATOM     57  C   UNL A   1      46.546  29.242  31.984  1.00  0.00     0.029 A 
ATOM     58  C   UNL A   1      45.785  28.317  31.287  1.00  0.00     0.049 A 
ATOM     59  H   UNL A   1      43.843  28.526  30.491  1.00  0.00     0.167 HD
ATOM     60  C   UNL A   1      45.304  26.113  30.255  1.00  0.00     0.074 A 
ATOM     61  C   UNL A   1      45.636  24.738  29.932  1.00  0.00     0.031 C 
ATOM     62  C   UNL A   1      46.121  26.961  30.929  1.00  0.00     0.031 A 
BRANCH  49  63
ATOM     63  C   UNL A   1      43.698  32.592  31.809  1.00  0.00    -0.014 A 
ATOM     64  C   UNL A   1      44.267  33.582  30.986  1.00  0.00     0.010 A 
ATOM     65  C   UNL A   1      43.310  32.936  33.117  1.00  0.00     0.010 A 
ATOM     66  C   UNL A   1      44.507  34.867  31.483  1.00  0.00     0.020 A 
ATOM     67  C   UNL A   1      43.522  34.229  33.609  1.00  0.00     0.020 A 
ATOM     68  C   UNL A   1      44.145  35.178  32.796  1.00  0.00     0.054 A 
BRANCH  68  69
ATOM     69  S   UNL A   1      44.495  36.843  33.428  1.00  0.00     0.124 S 
ATOM     70  O   UNL A   1      44.850  37.559  32.206  1.00  0.00    -0.237 OA
ATOM     71  O   UNL A   1      43.227  37.231  34.037  1.00  0.00    -0.237 OA
ATOM     72  O   UNL A   1      45.594  36.632  34.368  1.00  0.00    -0.744 OA
ENDBRANCH  68  69
ENDBRANCH  49  63
BRANCH  50  73
ATOM     73  C   UNL A   1      42.165  23.584  27.806  1.00  0.00    -0.014 A 
ATOM     74  C   UNL A   1      42.723  23.302  26.549  1.00  0.00     0.010 A 
ATOM     75  C   UNL A   1      41.458  22.574  28.487  1.00  0.00     0.010 A 
ATOM     76  C   UNL A   1      42.587  22.030  25.985  1.00  0.00     0.020 A 
ATOM     77  C   UNL A   1      41.341  21.296  27.937  1.00  0.00     0.020 A 
ATOM     78  C   UNL A   1      41.906  21.031  26.688  1.00  0.00     0.054 A 
BRANCH  78  79
ATOM     79  S   UNL A   1      41.838  19.357  25.990  1.00  0.00     0.124 S 
ATOM     80  O   UNL A   1      42.700  19.480  24.819  1.00  0.00    -0.237 OA
ATOM     81  O   UNL A   1      42.362  18.538  27.080  1.00  0.00    -0.237 OA
ATOM     82  O   UNL A   1      40.417  19.164  25.706  1.00  0.00    -0.744 OA
ENDBRANCH  78  79
ENDBRANCH  50  73
BRANCH  62  83
ATOM     83  C   UNL A   1      47.461  26.419  31.354  1.00  0.00    -0.014 A 
ATOM     84  C   UNL A   1      48.603  26.593  30.550  1.00  0.00     0.010 A 
ATOM     85  C   UNL A   1      47.582  25.729  32.573  1.00  0.00     0.010 A 
ATOM     86  C   UNL A   1      49.828  26.036  30.930  1.00  0.00     0.020 A 
ATOM     87  C   UNL A   1      48.812  25.196  32.970  1.00  0.00     0.020 A 
ATOM     88  C   UNL A   1      49.921  25.332  32.133  1.00  0.00     0.054 A 
BRANCH  88  89
ATOM     89  S   UNL A   1      51.518  24.613  32.606  1.00  0.00     0.124 S 
ATOM     90  O   UNL A   1      52.430  25.255  31.664  1.00  0.00    -0.237 OA
ATOM     91  O   UNL A   1      51.660  25.027  34.000  1.00  0.00    -0.237 OA
ATOM     92  O   UNL A   1      51.323  23.178  32.406  1.00  0.00    -0.744 OA
ENDBRANCH  88  89
ENDBRANCH  62  83
ENDBRANCH  36  37
ENDBRANCH  28  31
ENDBRANCH  26  27
ENDBRANCH   1  26
TORSDOF 15
ENDMDL
MODEL 2
REMARK VINA RESULT:     -11.1      2.436      2.975
REMARK SMILES CC1(C)CCC[C@H]1NC(=O)N[C@@H]1COC[C@@]1(C)C(=O)NCCCNC(=O)c1ccc(-c2c3nc(c(-c4ccc(S(=O)(=O)[O-])cc4)c4ccc([nH]4)c(-c4ccc(S(=O)(=O)[O-])cc4)c4nc(c(-c5ccc(S(=O)(=O)[O-])cc5)c5ccc2[nH]5)C=C4)C=C3)cc1
REMARK SMILES IDX 22 1 21 2 20 3 18 4 19 5 16 7 12 8 13 9 14 10 15 11 17 12
REMARK SMILES IDX 11 13 8 14 9 15 10 17 7 19 1 20 2 21 3 22 4 23 5 24 6 25
REMARK SMILES IDX 23 26 24 27 25 28 26 30 27 31 28 32 86 33 29 34 85 35 30 36
REMARK SMILES IDX 31 37 32 38 79 39 33 40 84 41 78 42 80 43 34 44 83 45 77 46
REMARK SMILES IDX 76 47 35 49 65 50 46 51 64 52 47 53 50 54 63 55 81 56 48 57
REMARK SMILES IDX 49 58 62 60 82 61 51 62 36 63 37 64 45 65 38 66 44 67 39 68
REMARK SMILES IDX 40 69 41 70 42 71 43 72 66 73 67 74 75 75 68 76 74 77 69 78
REMARK SMILES IDX 70 79 71 80 72 81 73 82 52 83 53 84 61 85 54 86 60 87 55 88
REMARK SMILES IDX 56 89 57 90 58 91 59 92
REMARK H PARENT 20 6 8 16 11 18 24 29 80 48 50 59
REMARK Flexibility Score: inf
ROOT
ATOM      1  C   UNL A   1      32.420  28.099  26.994  1.00  0.00     0.042 C 
ENDROOT
BRANCH   1   2
ATOM      2  C   UNL A   1      31.402  27.425  26.073  1.00  0.00     0.117 C 
BRANCH   2   3
ATOM      3  N   UNL A   1      31.450  27.778  24.661  1.00  0.00    -0.355 N 
ATOM      4  C   UNL A   1      31.668  27.028  23.541  1.00  0.00     0.230 C 
ATOM      5  O   UNL A   1      31.316  27.535  22.472  1.00  0.00    -0.274 OA
ATOM      6  H   UNL A   1      31.296  28.734  24.481  1.00  0.00     0.163 HD
BRANCH   4   7
ATOM      7  C   UNL A   1      32.403  25.681  23.580  1.00  0.00     0.092 C 
ATOM      8  C   UNL A   1      31.590  24.490  24.122  1.00  0.00     0.127 C 
ATOM      9  C   UNL A   1      31.763  23.344  23.129  1.00  0.00     0.186 C 
ATOM     10  O   UNL A   1      32.728  23.770  22.168  1.00  0.00    -0.378 OA
ATOM     11  C   UNL A   1      32.654  25.204  22.130  1.00  0.00     0.179 C 
ATOM     12  C   UNL A   1      33.751  25.942  24.223  1.00  0.00     0.026 C 
BRANCH   8  13
ATOM     13  N   UNL A   1      31.701  24.070  25.524  1.00  0.00    -0.332 N 
ATOM     14  N   UNL A   1      33.655  22.827  26.102  1.00  0.00    -0.335 N 
ATOM     15  C   UNL A   1      32.502  23.430  26.369  1.00  0.00     0.315 C 
ATOM     16  H   UNL A   1      34.163  22.646  26.925  1.00  0.00     0.165 HD
ATOM     17  O   UNL A   1      32.130  23.426  27.548  1.00  0.00    -0.249 OA
ATOM     18  H   UNL A   1      30.898  24.366  26.009  1.00  0.00     0.165 HD
BRANCH  14  19
ATOM     19  C   UNL A   1      34.374  22.359  24.919  1.00  0.00     0.089 C 
ATOM     20  C   UNL A   1      36.333  23.935  25.748  1.00  0.00     0.013 C 
ATOM     21  C   UNL A   1      35.909  22.693  24.947  1.00  0.00    -0.015 C 
ATOM     22  C   UNL A   1      36.468  22.823  23.508  1.00  0.00     0.013 C 
ATOM     23  C   UNL A   1      36.512  21.443  25.612  1.00  0.00     0.008 C 
ATOM     24  C   UNL A   1      35.737  20.294  25.001  1.00  0.00     0.003 C 
ATOM     25  C   UNL A   1      34.306  20.810  24.883  1.00  0.00     0.025 C 
ENDBRANCH  14  19
ENDBRANCH   8  13
ENDBRANCH   4   7
ENDBRANCH   2   3
ENDBRANCH   1   2
BRANCH   1  26
ATOM     26  C   UNL A   1      33.513  28.916  26.314  1.00  0.00     0.118 C 
BRANCH  26  27
ATOM     27  N   UNL A   1      33.466  30.317  26.682  1.00  0.00    -0.352 N 
ATOM     28  C   UNL A   1      34.221  31.060  27.552  1.00  0.00     0.251 C 
ATOM     29  H   UNL A   1      32.760  30.829  26.223  1.00  0.00     0.163 HD
ATOM     30  O   UNL A   1      33.790  32.168  27.876  1.00  0.00    -0.269 OA
BRANCH  28  31
ATOM     31  C   UNL A   1      35.524  30.599  28.099  1.00  0.00     0.039 A 
ATOM     32  C   UNL A   1      35.497  29.705  29.177  1.00  0.00     0.014 A 
ATOM     33  C   UNL A   1      36.755  31.113  27.678  1.00  0.00     0.014 A 
ATOM     34  C   UNL A   1      36.681  29.327  29.817  1.00  0.00     0.010 A 
ATOM     35  C   UNL A   1      37.946  30.679  28.272  1.00  0.00     0.010 A 
ATOM     36  C   UNL A   1      37.921  29.803  29.367  1.00  0.00    -0.014 A 
BRANCH  36  37
ATOM     37  C   UNL A   1      39.177  29.390  30.052  1.00  0.00     0.031 A 
ATOM     38  C   UNL A   1      39.620  30.051  31.333  1.00  0.00     0.074 A 
ATOM     39  C   UNL A   1      39.937  28.417  29.512  1.00  0.00     0.049 A 
ATOM     40  N   UNL A   1      40.649  29.772  32.094  1.00  0.00    -0.248 NA
ATOM     41  C   UNL A   1      38.819  31.189  31.806  1.00  0.00     0.031 C 
ATOM     42  C   UNL A   1      39.660  27.739  28.245  1.00  0.00     0.029 A 
ATOM     43  N   UNL A   1      41.094  27.830  29.960  1.00  0.00    -0.354 N 
ATOM     44  C   UNL A   1      40.627  30.704  33.126  1.00  0.00     0.074 A 
ATOM     45  C   UNL A   1      39.510  31.587  32.865  1.00  0.00     0.031 C 
ATOM     46  C   UNL A   1      40.604  26.810  28.029  1.00  0.00     0.029 A 
ATOM     47  C   UNL A   1      41.565  26.842  29.128  1.00  0.00     0.049 A 
ATOM     48  H   UNL A   1      41.543  28.091  30.795  1.00  0.00     0.167 HD
ATOM     49  C   UNL A   1      41.450  30.811  34.199  1.00  0.00     0.031 A 
ATOM     50  C   UNL A   1      42.643  26.042  29.235  1.00  0.00     0.031 A 
ATOM     51  C   UNL A   1      42.563  29.933  34.457  1.00  0.00     0.049 A 
ATOM     52  C   UNL A   1      43.516  26.142  30.453  1.00  0.00     0.074 A 
ATOM     53  C   UNL A   1      43.412  29.912  35.552  1.00  0.00     0.029 A 
ATOM     54  N   UNL A   1      42.992  28.926  33.604  1.00  0.00    -0.354 N 
ATOM     55  N   UNL A   1      43.423  26.969  31.466  1.00  0.00    -0.248 NA
ATOM     56  C   UNL A   1      44.624  25.183  30.553  1.00  0.00     0.031 C 
ATOM     57  C   UNL A   1      44.383  28.927  35.336  1.00  0.00     0.029 A 
ATOM     58  C   UNL A   1      44.109  28.297  34.132  1.00  0.00     0.049 A 
ATOM     59  H   UNL A   1      42.565  28.692  32.749  1.00  0.00     0.167 HD
ATOM     60  C   UNL A   1      44.456  26.628  32.330  1.00  0.00     0.074 A 
ATOM     61  C   UNL A   1      45.142  25.499  31.732  1.00  0.00     0.031 C 
ATOM     62  C   UNL A   1      44.806  27.198  33.512  1.00  0.00     0.031 A 
BRANCH  49  63
ATOM     63  C   UNL A   1      41.181  31.941  35.163  1.00  0.00    -0.014 A 
ATOM     64  C   UNL A   1      40.306  31.782  36.254  1.00  0.00     0.010 A 
ATOM     65  C   UNL A   1      41.811  33.185  34.973  1.00  0.00     0.010 A 
ATOM     66  C   UNL A   1      40.011  32.861  37.092  1.00  0.00     0.020 A 
ATOM     67  C   UNL A   1      41.542  34.259  35.827  1.00  0.00     0.020 A 
ATOM     68  C   UNL A   1      40.622  34.097  36.865  1.00  0.00     0.054 A 
BRANCH  68  69
ATOM     69  S   UNL A   1      40.200  35.492  37.948  1.00  0.00     0.124 S 
ATOM     70  O   UNL A   1      39.048  34.968  38.676  1.00  0.00    -0.237 OA
ATOM     71  O   UNL A   1      41.416  35.667  38.737  1.00  0.00    -0.237 OA
ATOM     72  O   UNL A   1      39.906  36.577  37.015  1.00  0.00    -0.744 OA
ENDBRANCH  68  69
ENDBRANCH  49  63
BRANCH  50  73
ATOM     73  C   UNL A   1      42.925  25.060  28.155  1.00  0.00    -0.014 A 
ATOM     74  C   UNL A   1      43.777  25.390  27.088  1.00  0.00     0.010 A 
ATOM     75  C   UNL A   1      42.402  23.755  28.237  1.00  0.00     0.010 A 
ATOM     76  C   UNL A   1      44.109  24.431  26.126  1.00  0.00     0.020 A 
ATOM     77  C   UNL A   1      42.749  22.789  27.290  1.00  0.00     0.020 A 
ATOM     78  C   UNL A   1      43.601  23.133  26.239  1.00  0.00     0.054 A 
BRANCH  78  79
ATOM     79  S   UNL A   1      44.133  21.875  25.043  1.00  0.00     0.124 S 
ATOM     80  O   UNL A   1      43.963  22.572  23.773  1.00  0.00    -0.237 OA
ATOM     81  O   UNL A   1      45.513  21.619  25.447  1.00  0.00    -0.237 OA
ATOM     82  O   UNL A   1      43.209  20.767  25.281  1.00  0.00    -0.744 OA
ENDBRANCH  78  79
ENDBRANCH  50  73
BRANCH  62  83
ATOM     83  C   UNL A   1      45.992  26.606  34.227  1.00  0.00    -0.014 A 
ATOM     84  C   UNL A   1      47.294  27.085  33.995  1.00  0.00     0.010 A 
ATOM     85  C   UNL A   1      45.802  25.558  35.146  1.00  0.00     0.010 A 
ATOM     86  C   UNL A   1      48.391  26.489  34.625  1.00  0.00     0.020 A 
ATOM     87  C   UNL A   1      46.894  24.978  35.799  1.00  0.00     0.020 A 
ATOM     88  C   UNL A   1      48.183  25.432  35.515  1.00  0.00     0.054 A 
BRANCH  88  89
ATOM     89  S   UNL A   1      49.620  24.668  36.317  1.00  0.00     0.124 S 
ATOM     90  O   UNL A   1      49.885  23.529  35.441  1.00  0.00    -0.237 OA
ATOM     91  O   UNL A   1      50.617  25.735  36.280  1.00  0.00    -0.237 OA
ATOM     92  O   UNL A   1      49.130  24.328  37.651  1.00  0.00    -0.744 OA
ENDBRANCH  88  89
ENDBRANCH  62  83
ENDBRANCH  36  37
ENDBRANCH  28  31
ENDBRANCH  26  27
ENDBRANCH   1  26
TORSDOF 15
ENDMDL
MODEL 3
REMARK VINA RESULT:     -11.0      4.514     10.251
REMARK SMILES CC1(C)CCC[C@H]1NC(=O)N[C@@H]1COC[C@@]1(C)C(=O)NCCCNC(=O)c1ccc(-c2c3nc(c(-c4ccc(S(=O)(=O)[O-])cc4)c4ccc([nH]4)c(-c4ccc(S(=O)(=O)[O-])cc4)c4nc(c(-c5ccc(S(=O)(=O)[O-])cc5)c5ccc2[nH]5)C=C4)C=C3)cc1
REMARK SMILES IDX 22 1 21 2 20 3 18 4 19 5 16 7 12 8 13 9 14 10 15 11 17 12
REMARK SMILES IDX 11 13 8 14 9 15 10 17 7 19 1 20 2 21 3 22 4 23 5 24 6 25
REMARK SMILES IDX 23 26 24 27 25 28 26 30 27 31 28 32 86 33 29 34 85 35 30 36
REMARK SMILES IDX 31 37 32 38 79 39 33 40 84 41 78 42 80 43 34 44 83 45 77 46
REMARK SMILES IDX 76 47 35 49 65 50 46 51 64 52 47 53 50 54 63 55 81 56 48 57
REMARK SMILES IDX 49 58 62 60 82 61 51 62 36 63 37 64 45 65 38 66 44 67 39 68
REMARK SMILES IDX 40 69 41 70 42 71 43 72 66 73 67 74 75 75 68 76 74 77 69 78
REMARK SMILES IDX 70 79 71 80 72 81 73 82 52 83 53 84 61 85 54 86 60 87 55 88
REMARK SMILES IDX 56 89 57 90 58 91 59 92
REMARK H PARENT 20 6 8 16 11 18 24 29 80 48 50 59
REMARK Flexibility Score: inf
ROOT
ATOM      1  C   UNL A   1      38.425  22.729  26.228  1.00  0.00     0.042 C 
ENDROOT
BRANCH   1   2
ATOM      2  C   UNL A   1      37.095  22.316  25.598  1.00  0.00     0.117 C 
BRANCH   2   3
ATOM      3  N   UNL A   1      36.063  23.338  25.496  1.00  0.00    -0.355 N 
ATOM      4  C   UNL A   1      34.763  23.366  25.915  1.00  0.00     0.230 C 
ATOM      5  O   UNL A   1      34.242  24.482  25.991  1.00  0.00    -0.274 OA
ATOM      6  H   UNL A   1      36.356  24.161  25.042  1.00  0.00     0.163 HD
BRANCH   4   7
ATOM      7  C   UNL A   1      33.953  22.088  26.177  1.00  0.00     0.092 C 
ATOM      8  C   UNL A   1      32.511  22.088  25.636  1.00  0.00     0.127 C 
ATOM      9  C   UNL A   1      32.319  20.777  24.879  1.00  0.00     0.186 C 
ATOM     10  O   UNL A   1      33.496  19.998  25.092  1.00  0.00    -0.378 OA
ATOM     11  C   UNL A   1      34.558  20.932  25.345  1.00  0.00     0.179 C 
ATOM     12  C   UNL A   1      34.139  21.750  27.643  1.00  0.00     0.026 C 
BRANCH   8  13
ATOM     13  N   UNL A   1      31.376  22.433  26.501  1.00  0.00    -0.332 N 
ATOM     14  N   UNL A   1      30.467  24.623  26.229  1.00  0.00    -0.335 N 
ATOM     15  C   UNL A   1      30.515  23.409  26.767  1.00  0.00     0.315 C 
ATOM     16  H   UNL A   1      29.605  25.061  26.410  1.00  0.00     0.165 HD
ATOM     17  O   UNL A   1      29.643  23.132  27.597  1.00  0.00    -0.249 OA
ATOM     18  H   UNL A   1      31.187  21.672  27.096  1.00  0.00     0.165 HD
BRANCH  14  19
ATOM     19  C   UNL A   1      31.346  25.485  25.442  1.00  0.00     0.089 C 
ATOM     20  C   UNL A   1      30.507  24.080  23.360  1.00  0.00     0.013 C 
ATOM     21  C   UNL A   1      31.083  25.402  23.894  1.00  0.00    -0.015 C 
ATOM     22  C   UNL A   1      32.371  25.733  23.100  1.00  0.00     0.013 C 
ATOM     23  C   UNL A   1      30.050  26.520  23.671  1.00  0.00     0.008 C 
ATOM     24  C   UNL A   1      30.535  27.650  24.556  1.00  0.00     0.003 C 
ATOM     25  C   UNL A   1      31.052  26.960  25.815  1.00  0.00     0.025 C 
ENDBRANCH  14  19
ENDBRANCH   8  13
ENDBRANCH   4   7
ENDBRANCH   2   3
ENDBRANCH   1   2
BRANCH   1  26
ATOM     26  C   UNL A   1      38.588  24.208  26.558  1.00  0.00     0.118 C 
BRANCH  26  27
ATOM     27  N   UNL A   1      39.771  24.783  25.949  1.00  0.00    -0.352 N 
ATOM     28  C   UNL A   1      40.475  25.928  26.220  1.00  0.00     0.251 C 
ATOM     29  H   UNL A   1      40.136  24.254  25.202  1.00  0.00     0.163 HD
ATOM     30  O   UNL A   1      41.281  26.314  25.372  1.00  0.00    -0.269 OA
BRANCH  28  31
ATOM     31  C   UNL A   1      40.321  26.701  27.480  1.00  0.00     0.039 A 
ATOM     32  C   UNL A   1      40.977  27.935  27.572  1.00  0.00     0.014 A 
ATOM     33  C   UNL A   1      39.668  26.197  28.610  1.00  0.00     0.014 A 
ATOM     34  C   UNL A   1      40.974  28.656  28.770  1.00  0.00     0.010 A 
ATOM     35  C   UNL A   1      39.604  26.951  29.788  1.00  0.00     0.010 A 
ATOM     36  C   UNL A   1      40.280  28.176  29.891  1.00  0.00    -0.014 A 
BRANCH  36  37
ATOM     37  C   UNL A   1      40.278  28.953  31.161  1.00  0.00     0.031 A 
ATOM     38  C   UNL A   1      41.334  28.729  32.214  1.00  0.00     0.074 A 
ATOM     39  C   UNL A   1      39.310  29.865  31.379  1.00  0.00     0.049 A 
ATOM     40  N   UNL A   1      41.520  29.361  33.346  1.00  0.00    -0.248 NA
ATOM     41  C   UNL A   1      42.289  27.637  31.976  1.00  0.00     0.031 C 
ATOM     42  C   UNL A   1      38.192  30.136  30.474  1.00  0.00     0.029 A 
ATOM     43  N   UNL A   1      39.111  30.730  32.425  1.00  0.00    -0.354 N 
ATOM     44  C   UNL A   1      42.600  28.737  33.961  1.00  0.00     0.074 A 
ATOM     45  C   UNL A   1      42.997  27.646  33.097  1.00  0.00     0.031 C 
ATOM     46  C   UNL A   1      37.439  31.120  30.990  1.00  0.00     0.029 A 
ATOM     47  C   UNL A   1      38.006  31.532  32.271  1.00  0.00     0.049 A 
ATOM     48  H   UNL A   1      39.702  30.772  33.211  1.00  0.00     0.167 HD
ATOM     49  C   UNL A   1      43.216  29.050  35.129  1.00  0.00     0.031 A 
ATOM     50  C   UNL A   1      37.503  32.499  33.063  1.00  0.00     0.031 A 
ATOM     51  C   UNL A   1      42.820  30.135  35.990  1.00  0.00     0.049 A 
ATOM     52  C   UNL A   1      38.225  32.863  34.329  1.00  0.00     0.074 A 
ATOM     53  C   UNL A   1      43.422  30.578  37.155  1.00  0.00     0.029 A 
ATOM     54  N   UNL A   1      41.710  30.943  35.784  1.00  0.00    -0.354 N 
ATOM     55  N   UNL A   1      39.301  32.322  34.846  1.00  0.00    -0.248 NA
ATOM     56  C   UNL A   1      37.676  33.984  35.103  1.00  0.00     0.031 C 
ATOM     57  C   UNL A   1      42.648  31.619  37.681  1.00  0.00     0.029 A 
ATOM     58  C   UNL A   1      41.593  31.862  36.816  1.00  0.00     0.049 A 
ATOM     59  H   UNL A   1      41.096  30.874  35.019  1.00  0.00     0.167 HD
ATOM     60  C   UNL A   1      39.566  33.041  36.006  1.00  0.00     0.074 A 
ATOM     61  C   UNL A   1      38.552  34.074  36.095  1.00  0.00     0.031 C 
ATOM     62  C   UNL A   1      40.559  32.862  36.914  1.00  0.00     0.031 A 
BRANCH  49  63
ATOM     63  C   UNL A   1      44.376  28.180  35.549  1.00  0.00    -0.014 A 
ATOM     64  C   UNL A   1      44.185  27.046  36.362  1.00  0.00     0.010 A 
ATOM     65  C   UNL A   1      45.680  28.503  35.129  1.00  0.00     0.010 A 
ATOM     66  C   UNL A   1      45.279  26.296  36.803  1.00  0.00     0.020 A 
ATOM     67  C   UNL A   1      46.774  27.737  35.544  1.00  0.00     0.020 A 
ATOM     68  C   UNL A   1      46.568  26.655  36.402  1.00  0.00     0.054 A 
BRANCH  68  69
ATOM     69  S   UNL A   1      47.975  25.683  37.012  1.00  0.00     0.124 S 
ATOM     70  O   UNL A   1      48.385  24.962  35.810  1.00  0.00    -0.237 OA
ATOM     71  O   UNL A   1      48.902  26.712  37.475  1.00  0.00    -0.237 OA
ATOM     72  O   UNL A   1      47.392  24.855  38.066  1.00  0.00    -0.744 OA
ENDBRANCH  68  69
ENDBRANCH  49  63
BRANCH  50  73
ATOM     73  C   UNL A   1      36.259  33.200  32.648  1.00  0.00    -0.014 A 
ATOM     74  C   UNL A   1      35.049  32.979  33.326  1.00  0.00     0.010 A 
ATOM     75  C   UNL A   1      36.304  34.158  31.617  1.00  0.00     0.010 A 
ATOM     76  C   UNL A   1      33.906  33.710  32.987  1.00  0.00     0.020 A 
ATOM     77  C   UNL A   1      35.170  34.906  31.292  1.00  0.00     0.020 A 
ATOM     78  C   UNL A   1      33.976  34.677  31.979  1.00  0.00     0.054 A 
BRANCH  78  79
ATOM     79  S   UNL A   1      32.512  35.692  31.633  1.00  0.00     0.124 S 
ATOM     80  O   UNL A   1      32.262  35.396  30.226  1.00  0.00    -0.237 OA
ATOM     81  O   UNL A   1      31.530  35.163  32.576  1.00  0.00    -0.237 OA
ATOM     82  O   UNL A   1      32.965  37.052  31.918  1.00  0.00    -0.744 OA
ENDBRANCH  78  79
ENDBRANCH  50  73
BRANCH  62  83
ATOM     83  C   UNL A   1      40.585  33.807  38.088  1.00  0.00    -0.014 A 
ATOM     84  C   UNL A   1      41.293  35.021  38.027  1.00  0.00     0.010 A 
ATOM     85  C   UNL A   1      39.889  33.478  39.265  1.00  0.00     0.010 A 
ATOM     86  C   UNL A   1      41.354  35.861  39.143  1.00  0.00     0.020 A 
ATOM     87  C   UNL A   1      39.924  34.330  40.373  1.00  0.00     0.020 A 
ATOM     88  C   UNL A   1      40.677  35.504  40.312  1.00  0.00     0.054 A 
BRANCH  88  89
ATOM     89  S   UNL A   1      40.773  36.605  41.751  1.00  0.00     0.124 S 
ATOM     90  O   UNL A   1      41.429  35.754  42.740  1.00  0.00    -0.237 OA
ATOM     91  O   UNL A   1      41.574  37.720  41.252  1.00  0.00    -0.237 OA
ATOM     92  O   UNL A   1      39.376  36.927  42.033  1.00  0.00    -0.744 OA
ENDBRANCH  88  89
ENDBRANCH  62  83
ENDBRANCH  36  37
ENDBRANCH  28  31
ENDBRANCH  26  27
ENDBRANCH   1  26
TORSDOF 15
ENDMDL
