MODEL 1
REMARK VINA RESULT:     -10.6      0.000      0.000
REMARK SMILES CC(C)(C(=O)NCCCNC(=O)c1ccc(-c2c3nc(c(-c4ccc(S(=O)(=O)[O-])cc4)c4ccc([nH]4)c(-c4ccc(S(=O)(=O)[O-])cc4)c4nc(c(-c5ccc(S(=O)(=O)[O-])cc5)c5ccc2[nH]5)C=C4)C=C3)cc1)c1ccc(C(=O)CCCCl)cc1
REMARK SMILES IDX 7 1 6 2 4 3 5 4 2 6 1 7 3 8 73 9 74 10 84 11 75 12 83 13
REMARK SMILES IDX 76 14 77 15 78 16 79 17 80 18 81 19 82 20 8 21 9 22 10 23
REMARK SMILES IDX 11 24 12 26 13 27 14 28 72 29 15 30 71 31 16 32 17 33 18 34
REMARK SMILES IDX 65 35 19 36 70 37 64 38 66 39 20 40 69 41 63 42 62 43 21 45
REMARK SMILES IDX 51 46 32 47 50 48 33 49 36 50 49 51 67 52 34 53 35 54 48 56
REMARK SMILES IDX 68 57 37 58 22 59 23 60 31 61 24 62 30 63 25 64 26 65 27 66
REMARK SMILES IDX 28 67 29 68 52 69 53 70 61 71 54 72 60 73 55 74 56 75 57 76
REMARK SMILES IDX 58 77 59 78 38 79 39 80 47 81 40 82 46 83 41 84 42 85 43 86
REMARK SMILES IDX 44 87 45 88
REMARK H PARENT 6 5 10 25 66 44 36 55
REMARK Flexibility Score: inf
ROOT
ATOM      1  C   UNL A   1      31.542  27.753  26.420  1.00  0.00     0.117 C 
ENDROOT
BRANCH   1   2
ATOM      2  N   UNL A   1      31.524  26.402  26.944  1.00  0.00    -0.355 N 
ATOM      3  C   UNL A   1      31.416  25.180  26.364  1.00  0.00     0.230 C 
ATOM      4  O   UNL A   1      31.280  24.244  27.161  1.00  0.00    -0.274 OA
ATOM      5  H   UNL A   1      31.608  26.362  27.923  1.00  0.00     0.163 HD
BRANCH   3   6
ATOM      6  C   UNL A   1      31.479  24.954  24.824  1.00  0.00     0.068 C 
ATOM      7  C   UNL A   1      32.939  25.034  24.336  1.00  0.00     0.026 C 
ATOM      8  C   UNL A   1      30.911  23.562  24.445  1.00  0.00     0.026 C 
BRANCH   6   9
ATOM      9  C   UNL A   1      30.581  26.016  24.129  1.00  0.00    -0.033 A 
ATOM     10  C   UNL A   1      29.207  26.146  24.385  1.00  0.00     0.005 A 
ATOM     11  C   UNL A   1      31.149  26.886  23.177  1.00  0.00     0.005 A 
ATOM     12  C   UNL A   1      28.461  27.176  23.803  1.00  0.00     0.012 A 
ATOM     13  C   UNL A   1      30.405  27.903  22.581  1.00  0.00     0.012 A 
ATOM     14  C   UNL A   1      29.072  28.089  22.939  1.00  0.00     0.018 A 
BRANCH  14  15
ATOM     15  C   UNL A   1      28.292  29.275  22.490  1.00  0.00     0.162 C 
ATOM     16  O   UNL A   1      27.108  29.380  22.810  1.00  0.00    -0.294 OA
BRANCH  15  17
ATOM     17  C   UNL A   1      28.994  30.392  21.737  1.00  0.00     0.082 C 
BRANCH  17  18
ATOM     18  C   UNL A   1      28.024  31.256  20.924  1.00  0.00     0.024 C 
BRANCH  18  19
ATOM     19  C   UNL A   1      28.016  32.750  21.244  1.00  0.00     0.110 C 
ATOM     20  Cl  UNL A   1      28.685  33.092  22.857  1.00  0.00    -0.127 Cl
ENDBRANCH  18  19
ENDBRANCH  17  18
ENDBRANCH  15  17
ENDBRANCH  14  15
ENDBRANCH   6   9
ENDBRANCH   3   6
ENDBRANCH   1   2
BRANCH   1  21
ATOM     21  C   UNL A   1      32.955  28.197  26.068  1.00  0.00     0.042 C 
BRANCH  21  22
ATOM     22  C   UNL A   1      33.806  28.539  27.286  1.00  0.00     0.118 C 
BRANCH  22  23
ATOM     23  N   UNL A   1      33.787  29.963  27.596  1.00  0.00    -0.352 N 
ATOM     24  C   UNL A   1      34.725  30.727  28.252  1.00  0.00     0.251 C 
ATOM     25  H   UNL A   1      32.988  30.450  27.292  1.00  0.00     0.163 HD
ATOM     26  O   UNL A   1      34.450  31.865  28.609  1.00  0.00    -0.269 OA
BRANCH  24  27
ATOM     27  C   UNL A   1      36.055  30.152  28.538  1.00  0.00     0.039 A 
ATOM     28  C   UNL A   1      37.034  30.161  27.541  1.00  0.00     0.014 A 
ATOM     29  C   UNL A   1      36.336  29.629  29.802  1.00  0.00     0.014 A 
ATOM     30  C   UNL A   1      38.325  29.719  27.842  1.00  0.00     0.010 A 
ATOM     31  C   UNL A   1      37.640  29.272  30.122  1.00  0.00     0.010 A 
ATOM     32  C   UNL A   1      38.648  29.314  29.147  1.00  0.00    -0.014 A 
BRANCH  32  33
ATOM     33  C   UNL A   1      40.026  28.921  29.535  1.00  0.00     0.031 A 
ATOM     34  C   UNL A   1      40.909  29.914  30.240  1.00  0.00     0.074 A 
ATOM     35  C   UNL A   1      40.516  27.724  29.154  1.00  0.00     0.049 A 
ATOM     36  N   UNL A   1      42.188  29.838  30.508  1.00  0.00    -0.248 NA
ATOM     37  C   UNL A   1      40.279  31.173  30.669  1.00  0.00     0.031 C 
ATOM     38  C   UNL A   1      39.771  26.687  28.438  1.00  0.00     0.029 A 
ATOM     39  N   UNL A   1      41.772  27.187  29.300  1.00  0.00    -0.354 N 
ATOM     40  C   UNL A   1      42.519  31.050  31.102  1.00  0.00     0.074 A 
ATOM     41  C   UNL A   1      41.320  31.858  31.119  1.00  0.00     0.031 C 
ATOM     42  C   UNL A   1      40.577  25.636  28.220  1.00  0.00     0.029 A 
ATOM     43  C   UNL A   1      41.908  25.941  28.733  1.00  0.00     0.049 A 
ATOM     44  H   UNL A   1      42.505  27.650  29.765  1.00  0.00     0.167 HD
ATOM     45  C   UNL A   1      43.713  31.449  31.602  1.00  0.00     0.031 A 
ATOM     46  C   UNL A   1      42.988  25.143  28.621  1.00  0.00     0.031 A 
ATOM     47  C   UNL A   1      44.895  30.632  31.605  1.00  0.00     0.049 A 
ATOM     48  C   UNL A   1      44.304  25.605  29.187  1.00  0.00     0.074 A 
ATOM     49  C   UNL A   1      46.140  30.921  32.136  1.00  0.00     0.029 A 
ATOM     50  N   UNL A   1      44.977  29.360  31.057  1.00  0.00    -0.354 N 
ATOM     51  N   UNL A   1      44.589  26.738  29.784  1.00  0.00    -0.248 NA
ATOM     52  C   UNL A   1      45.440  24.680  29.072  1.00  0.00     0.031 C 
ATOM     53  C   UNL A   1      46.987  29.841  31.871  1.00  0.00     0.029 A 
ATOM     54  C   UNL A   1      46.255  28.857  31.227  1.00  0.00     0.049 A 
ATOM     55  H   UNL A   1      44.238  28.887  30.613  1.00  0.00     0.167 HD
ATOM     56  C   UNL A   1      45.927  26.646  30.150  1.00  0.00     0.074 A 
ATOM     57  C   UNL A   1      46.394  25.348  29.708  1.00  0.00     0.031 C 
ATOM     58  C   UNL A   1      46.696  27.553  30.798  1.00  0.00     0.031 A 
BRANCH  45  59
ATOM     59  C   UNL A   1      43.796  32.835  32.183  1.00  0.00    -0.014 A 
ATOM     60  C   UNL A   1      43.606  33.059  33.559  1.00  0.00     0.010 A 
ATOM     61  C   UNL A   1      44.097  33.926  31.348  1.00  0.00     0.010 A 
ATOM     62  C   UNL A   1      43.672  34.353  34.081  1.00  0.00     0.020 A 
ATOM     63  C   UNL A   1      44.193  35.219  31.872  1.00  0.00     0.020 A 
ATOM     64  C   UNL A   1      43.961  35.426  33.232  1.00  0.00     0.054 A 
BRANCH  64  65
ATOM     65  S   UNL A   1      44.056  37.093  33.941  1.00  0.00     0.124 S 
ATOM     66  O   UNL A   1      45.161  37.677  33.185  1.00  0.00    -0.237 OA
ATOM     67  O   UNL A   1      42.736  37.643  33.648  1.00  0.00    -0.237 OA
ATOM     68  O   UNL A   1      44.328  36.852  35.356  1.00  0.00    -0.744 OA
ENDBRANCH  64  65
ENDBRANCH  45  59
BRANCH  46  69
ATOM     69  C   UNL A   1      42.865  23.817  27.957  1.00  0.00    -0.014 A 
ATOM     70  C   UNL A   1      42.333  22.718  28.656  1.00  0.00     0.010 A 
ATOM     71  C   UNL A   1      43.260  23.647  26.617  1.00  0.00     0.010 A 
ATOM     72  C   UNL A   1      42.212  21.472  28.034  1.00  0.00     0.020 A 
ATOM     73  C   UNL A   1      43.117  22.409  25.984  1.00  0.00     0.020 A 
ATOM     74  C   UNL A   1      42.604  21.326  26.700  1.00  0.00     0.054 A 
BRANCH  74  75
ATOM     75  S   UNL A   1      42.387  19.714  25.896  1.00  0.00     0.124 S 
ATOM     76  O   UNL A   1      40.976  19.746  25.529  1.00  0.00    -0.237 OA
ATOM     77  O   UNL A   1      43.334  19.785  24.786  1.00  0.00    -0.237 OA
ATOM     78  O   UNL A   1      42.742  18.760  26.945  1.00  0.00    -0.744 OA
ENDBRANCH  74  75
ENDBRANCH  46  69
BRANCH  58  79
ATOM     79  C   UNL A   1      48.110  27.162  31.131  1.00  0.00    -0.014 A 
ATOM     80  C   UNL A   1      48.397  26.286  32.192  1.00  0.00     0.010 A 
ATOM     81  C   UNL A   1      49.157  27.610  30.305  1.00  0.00     0.010 A 
ATOM     82  C   UNL A   1      49.711  25.874  32.427  1.00  0.00     0.020 A 
ATOM     83  C   UNL A   1      50.468  27.181  30.522  1.00  0.00     0.020 A 
ATOM     84  C   UNL A   1      50.738  26.320  31.587  1.00  0.00     0.054 A 
BRANCH  84  85
ATOM     85  S   UNL A   1      52.423  25.709  31.865  1.00  0.00     0.124 S 
ATOM     86  O   UNL A   1      52.925  26.648  32.865  1.00  0.00    -0.237 OA
ATOM     87  O   UNL A   1      52.196  24.347  32.341  1.00  0.00    -0.237 OA
ATOM     88  O   UNL A   1      53.049  25.805  30.549  1.00  0.00    -0.744 OA
ENDBRANCH  84  85
ENDBRANCH  58  79
ENDBRANCH  32  33
ENDBRANCH  24  27
ENDBRANCH  22  23
ENDBRANCH  21  22
ENDBRANCH   1  21
TORSDOF 18
ENDMDL
MODEL 2
REMARK VINA RESULT:     -10.5      2.407      4.090
REMARK SMILES CC(C)(C(=O)NCCCNC(=O)c1ccc(-c2c3nc(c(-c4ccc(S(=O)(=O)[O-])cc4)c4ccc([nH]4)c(-c4ccc(S(=O)(=O)[O-])cc4)c4nc(c(-c5ccc(S(=O)(=O)[O-])cc5)c5ccc2[nH]5)C=C4)C=C3)cc1)c1ccc(C(=O)CCCCl)cc1
REMARK SMILES IDX 7 1 6 2 4 3 5 4 2 6 1 7 3 8 73 9 74 10 84 11 75 12 83 13
REMARK SMILES IDX 76 14 77 15 78 16 79 17 80 18 81 19 82 20 8 21 9 22 10 23
REMARK SMILES IDX 11 24 12 26 13 27 14 28 72 29 15 30 71 31 16 32 17 33 18 34
REMARK SMILES IDX 65 35 19 36 70 37 64 38 66 39 20 40 69 41 63 42 62 43 21 45
REMARK SMILES IDX 51 46 32 47 50 48 33 49 36 50 49 51 67 52 34 53 35 54 48 56
REMARK SMILES IDX 68 57 37 58 22 59 23 60 31 61 24 62 30 63 25 64 26 65 27 66
REMARK SMILES IDX 28 67 29 68 52 69 53 70 61 71 54 72 60 73 55 74 56 75 57 76
REMARK SMILES IDX 58 77 59 78 38 79 39 80 47 81 40 82 46 83 41 84 42 85 43 86
REMARK SMILES IDX 44 87 45 88
REMARK H PARENT 6 5 10 25 66 44 36 55
REMARK Flexibility Score: inf
ROOT
ATOM      1  C   UNL A   1      31.752  27.163  26.150  1.00  0.00     0.117 C 
ENDROOT
BRANCH   1   2
ATOM      2  N   UNL A   1      32.298  27.792  24.964  1.00  0.00    -0.355 N 
ATOM      3  C   UNL A   1      32.350  27.430  23.657  1.00  0.00     0.230 C 
ATOM      4  O   UNL A   1      33.045  28.166  22.948  1.00  0.00    -0.274 OA
ATOM      5  H   UNL A   1      32.717  28.665  25.143  1.00  0.00     0.163 HD
BRANCH   3   6
ATOM      6  C   UNL A   1      31.584  26.204  23.078  1.00  0.00     0.068 C 
ATOM      7  C   UNL A   1      30.136  26.183  23.607  1.00  0.00     0.026 C 
ATOM      8  C   UNL A   1      31.539  26.261  21.530  1.00  0.00     0.026 C 
BRANCH   6   9
ATOM      9  C   UNL A   1      32.356  24.909  23.463  1.00  0.00    -0.033 A 
ATOM     10  C   UNL A   1      33.702  24.907  23.860  1.00  0.00     0.005 A 
ATOM     11  C   UNL A   1      31.696  23.666  23.395  1.00  0.00     0.005 A 
ATOM     12  C   UNL A   1      34.324  23.729  24.284  1.00  0.00     0.012 A 
ATOM     13  C   UNL A   1      32.320  22.486  23.800  1.00  0.00     0.012 A 
ATOM     14  C   UNL A   1      33.618  22.524  24.304  1.00  0.00     0.018 A 
BRANCH  14  15
ATOM     15  C   UNL A   1      34.255  21.336  24.936  1.00  0.00     0.162 C 
ATOM     16  O   UNL A   1      34.008  20.212  24.502  1.00  0.00    -0.294 OA
BRANCH  15  17
ATOM     17  C   UNL A   1      35.283  21.534  26.037  1.00  0.00     0.082 C 
BRANCH  17  18
ATOM     18  C   UNL A   1      36.721  21.343  25.542  1.00  0.00     0.024 C 
BRANCH  18  19
ATOM     19  C   UNL A   1      37.547  22.613  25.352  1.00  0.00     0.110 C 
ATOM     20  Cl  UNL A   1      39.020  22.609  26.350  1.00  0.00    -0.127 Cl
ENDBRANCH  18  19
ENDBRANCH  17  18
ENDBRANCH  15  17
ENDBRANCH  14  15
ENDBRANCH   6   9
ENDBRANCH   3   6
ENDBRANCH   1   2
BRANCH   1  21
ATOM     21  C   UNL A   1      32.190  27.884  27.417  1.00  0.00     0.042 C 
BRANCH  21  22
ATOM     22  C   UNL A   1      33.572  28.517  27.310  1.00  0.00     0.118 C 
BRANCH  22  23
ATOM     23  N   UNL A   1      33.558  29.941  27.626  1.00  0.00    -0.352 N 
ATOM     24  C   UNL A   1      34.522  30.710  28.237  1.00  0.00     0.251 C 
ATOM     25  H   UNL A   1      32.741  30.422  27.364  1.00  0.00     0.163 HD
ATOM     26  O   UNL A   1      34.256  31.844  28.611  1.00  0.00    -0.269 OA
BRANCH  24  27
ATOM     27  C   UNL A   1      35.869  30.144  28.453  1.00  0.00     0.039 A 
ATOM     28  C   UNL A   1      36.783  30.125  27.396  1.00  0.00     0.014 A 
ATOM     29  C   UNL A   1      36.232  29.657  29.710  1.00  0.00     0.014 A 
ATOM     30  C   UNL A   1      38.091  29.693  27.626  1.00  0.00     0.010 A 
ATOM     31  C   UNL A   1      37.555  29.311  29.956  1.00  0.00     0.010 A 
ATOM     32  C   UNL A   1      38.498  29.326  28.918  1.00  0.00    -0.014 A 
BRANCH  32  33
ATOM     33  C   UNL A   1      39.899  28.945  29.228  1.00  0.00     0.031 A 
ATOM     34  C   UNL A   1      40.839  29.974  29.795  1.00  0.00     0.074 A 
ATOM     35  C   UNL A   1      40.353  27.720  28.895  1.00  0.00     0.049 A 
ATOM     36  N   UNL A   1      42.133  29.902  29.971  1.00  0.00    -0.248 NA
ATOM     37  C   UNL A   1      40.249  31.266  30.183  1.00  0.00     0.031 C 
ATOM     38  C   UNL A   1      39.549  26.645  28.309  1.00  0.00     0.029 A 
ATOM     39  N   UNL A   1      41.613  27.181  28.982  1.00  0.00    -0.354 N 
ATOM     40  C   UNL A   1      42.515  31.148  30.455  1.00  0.00     0.074 A 
ATOM     41  C   UNL A   1      41.325  31.969  30.505  1.00  0.00     0.031 C 
ATOM     42  C   UNL A   1      40.331  25.572  28.104  1.00  0.00     0.029 A 
ATOM     43  C   UNL A   1      41.699  25.897  28.493  1.00  0.00     0.049 A 
ATOM     44  H   UNL A   1      42.381  27.666  29.359  1.00  0.00     0.167 HD
ATOM     45  C   UNL A   1      43.745  31.568  30.835  1.00  0.00     0.031 A 
ATOM     46  C   UNL A   1      42.762  25.082  28.356  1.00  0.00     0.031 A 
ATOM     47  C   UNL A   1      44.919  30.740  30.806  1.00  0.00     0.049 A 
ATOM     48  C   UNL A   1      44.120  25.567  28.789  1.00  0.00     0.074 A 
ATOM     49  C   UNL A   1      46.203  31.051  31.221  1.00  0.00     0.029 A 
ATOM     50  N   UNL A   1      44.953  29.433  30.342  1.00  0.00    -0.354 N 
ATOM     51  N   UNL A   1      44.455  26.734  29.284  1.00  0.00    -0.248 NA
ATOM     52  C   UNL A   1      45.238  24.624  28.654  1.00  0.00     0.031 C 
ATOM     53  C   UNL A   1      47.021  29.946  30.969  1.00  0.00     0.029 A 
ATOM     54  C   UNL A   1      46.238  28.929  30.450  1.00  0.00     0.049 A 
ATOM     55  H   UNL A   1      44.180  28.939  29.988  1.00  0.00     0.167 HD
ATOM     56  C   UNL A   1      45.817  26.653  29.554  1.00  0.00     0.074 A 
ATOM     57  C   UNL A   1      46.242  25.323  29.168  1.00  0.00     0.031 C 
ATOM     58  C   UNL A   1      46.637  27.594  30.080  1.00  0.00     0.031 A 
BRANCH  45  59
ATOM     59  C   UNL A   1      43.880  32.989  31.312  1.00  0.00    -0.014 A 
ATOM     60  C   UNL A   1      44.007  34.053  30.401  1.00  0.00     0.010 A 
ATOM     61  C   UNL A   1      43.848  33.269  32.690  1.00  0.00     0.010 A 
ATOM     62  C   UNL A   1      44.146  35.365  30.860  1.00  0.00     0.020 A 
ATOM     63  C   UNL A   1      43.957  34.584  33.153  1.00  0.00     0.020 A 
ATOM     64  C   UNL A   1      44.124  35.621  32.235  1.00  0.00     0.054 A 
BRANCH  64  65
ATOM     65  S   UNL A   1      44.289  37.337  32.801  1.00  0.00     0.124 S 
ATOM     66  O   UNL A   1      43.109  37.487  33.649  1.00  0.00    -0.237 OA
ATOM     67  O   UNL A   1      45.569  37.321  33.504  1.00  0.00    -0.237 OA
ATOM     68  O   UNL A   1      44.270  38.113  31.564  1.00  0.00    -0.744 OA
ENDBRANCH  64  65
ENDBRANCH  45  59
BRANCH  46  69
ATOM     69  C   UNL A   1      42.582  23.715  27.796  1.00  0.00    -0.014 A 
ATOM     70  C   UNL A   1      42.237  22.642  28.637  1.00  0.00     0.010 A 
ATOM     71  C   UNL A   1      42.735  23.480  26.417  1.00  0.00     0.010 A 
ATOM     72  C   UNL A   1      42.063  21.358  28.113  1.00  0.00     0.020 A 
ATOM     73  C   UNL A   1      42.536  22.203  25.885  1.00  0.00     0.020 A 
ATOM     74  C   UNL A   1      42.212  21.147  26.739  1.00  0.00     0.054 A 
BRANCH  74  75
ATOM     75  S   UNL A   1      41.927  19.483  26.073  1.00  0.00     0.124 S 
ATOM     76  O   UNL A   1      42.784  19.478  24.893  1.00  0.00    -0.237 OA
ATOM     77  O   UNL A   1      42.359  18.624  27.174  1.00  0.00    -0.237 OA
ATOM     78  O   UNL A   1      40.490  19.464  25.807  1.00  0.00    -0.744 OA
ENDBRANCH  74  75
ENDBRANCH  46  69
BRANCH  58  79
ATOM     79  C   UNL A   1      48.070  27.211  30.332  1.00  0.00    -0.014 A 
ATOM     80  C   UNL A   1      49.078  27.485  29.392  1.00  0.00     0.010 A 
ATOM     81  C   UNL A   1      48.421  26.652  31.575  1.00  0.00     0.010 A 
ATOM     82  C   UNL A   1      50.412  27.195  29.687  1.00  0.00     0.020 A 
ATOM     83  C   UNL A   1      49.756  26.384  31.882  1.00  0.00     0.020 A 
ATOM     84  C   UNL A   1      50.744  26.651  30.933  1.00  0.00     0.054 A 
BRANCH  84  85
ATOM     85  S   UNL A   1      52.490  26.355  31.322  1.00  0.00     0.124 S 
ATOM     86  O   UNL A   1      52.424  25.121  32.100  1.00  0.00    -0.237 OA
ATOM     87  O   UNL A   1      53.097  26.232  29.999  1.00  0.00    -0.237 OA
ATOM     88  O   UNL A   1      52.885  27.545  32.072  1.00  0.00    -0.744 OA
ENDBRANCH  84  85
ENDBRANCH  58  79
ENDBRANCH  32  33
ENDBRANCH  24  27
ENDBRANCH  22  23
ENDBRANCH  21  22
ENDBRANCH   1  21
TORSDOF 18
ENDMDL
MODEL 3
REMARK VINA RESULT:     -10.3      4.410     10.123
REMARK SMILES CC(C)(C(=O)NCCCNC(=O)c1ccc(-c2c3nc(c(-c4ccc(S(=O)(=O)[O-])cc4)c4ccc([nH]4)c(-c4ccc(S(=O)(=O)[O-])cc4)c4nc(c(-c5ccc(S(=O)(=O)[O-])cc5)c5ccc2[nH]5)C=C4)C=C3)cc1)c1ccc(C(=O)CCCCl)cc1
REMARK SMILES IDX 7 1 6 2 4 3 5 4 2 6 1 7 3 8 73 9 74 10 84 11 75 12 83 13
REMARK SMILES IDX 76 14 77 15 78 16 79 17 80 18 81 19 82 20 8 21 9 22 10 23
REMARK SMILES IDX 11 24 12 26 13 27 14 28 72 29 15 30 71 31 16 32 17 33 18 34
REMARK SMILES IDX 65 35 19 36 70 37 64 38 66 39 20 40 69 41 63 42 62 43 21 45
REMARK SMILES IDX 51 46 32 47 50 48 33 49 36 50 49 51 67 52 34 53 35 54 48 56
REMARK SMILES IDX 68 57 37 58 22 59 23 60 31 61 24 62 30 63 25 64 26 65 27 66
REMARK SMILES IDX 28 67 29 68 52 69 53 70 61 71 54 72 60 73 55 74 56 75 57 76
REMARK SMILES IDX 58 77 59 78 38 79 39 80 47 81 40 82 46 83 41 84 42 85 43 86
REMARK SMILES IDX 44 87 45 88
REMARK H PARENT 6 5 10 25 66 44 36 55
REMARK Flexibility Score: inf
ROOT
ATOM      1  C   UNL A   1      36.720  23.611  25.839  1.00  0.00     0.117 C 
ENDROOT
BRANCH   1   2
ATOM      2  N   UNL A   1      35.780  22.780  26.563  1.00  0.00    -0.355 N 
ATOM      3  C   UNL A   1      34.480  22.446  26.356  1.00  0.00     0.230 C 
ATOM      4  O   UNL A   1      33.955  21.826  27.289  1.00  0.00    -0.274 OA
ATOM      5  H   UNL A   1      36.163  22.371  27.372  1.00  0.00     0.163 HD
BRANCH   3   6
ATOM      6  C   UNL A   1      33.706  22.788  25.049  1.00  0.00     0.068 C 
ATOM      7  C   UNL A   1      34.474  22.254  23.822  1.00  0.00     0.026 C 
ATOM      8  C   UNL A   1      32.294  22.149  25.059  1.00  0.00     0.026 C 
BRANCH   6   9
ATOM      9  C   UNL A   1      33.508  24.329  24.977  1.00  0.00    -0.033 A 
ATOM     10  C   UNL A   1      33.776  25.085  23.825  1.00  0.00     0.005 A 
ATOM     11  C   UNL A   1      33.059  25.021  26.119  1.00  0.00     0.005 A 
ATOM     12  C   UNL A   1      33.495  26.454  23.783  1.00  0.00     0.012 A 
ATOM     13  C   UNL A   1      32.795  26.390  26.086  1.00  0.00     0.012 A 
ATOM     14  C   UNL A   1      32.954  27.099  24.898  1.00  0.00     0.018 A 
BRANCH  14  15
ATOM     15  C   UNL A   1      32.497  28.509  24.752  1.00  0.00     0.162 C 
ATOM     16  O   UNL A   1      33.328  29.409  24.641  1.00  0.00    -0.294 OA
BRANCH  15  17
ATOM     17  C   UNL A   1      31.011  28.806  24.633  1.00  0.00     0.082 C 
BRANCH  17  18
ATOM     18  C   UNL A   1      30.469  28.549  23.223  1.00  0.00     0.024 C 
BRANCH  18  19
ATOM     19  C   UNL A   1      29.053  27.983  23.134  1.00  0.00     0.110 C 
ATOM     20  Cl  UNL A   1      27.857  29.236  22.727  1.00  0.00    -0.127 Cl
ENDBRANCH  18  19
ENDBRANCH  17  18
ENDBRANCH  15  17
ENDBRANCH  14  15
ENDBRANCH   6   9
ENDBRANCH   3   6
ENDBRANCH   1   2
BRANCH   1  21
ATOM     21  C   UNL A   1      38.107  22.985  25.803  1.00  0.00     0.042 C 
BRANCH  21  22
ATOM     22  C   UNL A   1      39.081  23.604  26.799  1.00  0.00     0.118 C 
BRANCH  22  23
ATOM     23  N   UNL A   1      40.438  23.688  26.272  1.00  0.00    -0.352 N 
ATOM     24  C   UNL A   1      41.368  24.692  26.410  1.00  0.00     0.251 C 
ATOM     25  H   UNL A   1      40.732  22.913  25.742  1.00  0.00     0.163 HD
ATOM     26  O   UNL A   1      42.383  24.688  25.726  1.00  0.00    -0.269 OA
BRANCH  24  27
ATOM     27  C   UNL A   1      41.118  25.782  27.374  1.00  0.00     0.039 A 
ATOM     28  C   UNL A   1      40.143  25.615  28.361  1.00  0.00     0.014 A 
ATOM     29  C   UNL A   1      41.869  26.958  27.314  1.00  0.00     0.014 A 
ATOM     30  C   UNL A   1      39.981  26.598  29.341  1.00  0.00     0.010 A 
ATOM     31  C   UNL A   1      41.766  27.892  28.338  1.00  0.00     0.010 A 
ATOM     32  C   UNL A   1      40.822  27.722  29.362  1.00  0.00    -0.014 A 
BRANCH  32  33
ATOM     33  C   UNL A   1      40.746  28.746  30.433  1.00  0.00     0.031 A 
ATOM     34  C   UNL A   1      41.633  28.623  31.642  1.00  0.00     0.074 A 
ATOM     35  C   UNL A   1      39.808  29.713  30.374  1.00  0.00     0.049 A 
ATOM     36  N   UNL A   1      41.605  29.301  32.760  1.00  0.00    -0.248 NA
ATOM     37  C   UNL A   1      42.666  27.575  31.600  1.00  0.00     0.031 C 
ATOM     38  C   UNL A   1      38.866  29.920  29.271  1.00  0.00     0.029 A 
ATOM     39  N   UNL A   1      39.478  30.693  31.278  1.00  0.00    -0.354 N 
ATOM     40  C   UNL A   1      42.588  28.739  33.565  1.00  0.00     0.074 A 
ATOM     41  C   UNL A   1      43.167  27.639  32.825  1.00  0.00     0.031 C 
ATOM     42  C   UNL A   1      38.077  30.968  29.557  1.00  0.00     0.029 A 
ATOM     43  C   UNL A   1      38.418  31.475  30.881  1.00  0.00     0.049 A 
ATOM     44  H   UNL A   1      39.954  30.823  32.129  1.00  0.00     0.167 HD
ATOM     45  C   UNL A   1      42.983  29.113  34.805  1.00  0.00     0.031 A 
ATOM     46  C   UNL A   1      37.781  32.477  31.519  1.00  0.00     0.031 A 
ATOM     47  C   UNL A   1      42.421  30.222  35.526  1.00  0.00     0.049 A 
ATOM     48  C   UNL A   1      38.239  32.878  32.895  1.00  0.00     0.074 A 
ATOM     49  C   UNL A   1      42.787  30.718  36.765  1.00  0.00     0.029 A 
ATOM     50  N   UNL A   1      41.377  31.013  35.069  1.00  0.00    -0.354 N 
ATOM     51  N   UNL A   1      39.200  32.362  33.624  1.00  0.00    -0.248 NA
ATOM     52  C   UNL A   1      37.535  34.001  33.530  1.00  0.00     0.031 C 
ATOM     53  C   UNL A   1      41.937  31.783  37.075  1.00  0.00     0.029 A 
ATOM     54  C   UNL A   1      41.079  31.986  36.007  1.00  0.00     0.049 A 
ATOM     55  H   UNL A   1      40.917  30.898  34.207  1.00  0.00     0.167 HD
ATOM     56  C   UNL A   1      39.240  33.122  34.788  1.00  0.00     0.074 A 
ATOM     57  C   UNL A   1      38.208  34.132  34.666  1.00  0.00     0.031 C 
ATOM     58  C   UNL A   1      40.062  32.996  35.858  1.00  0.00     0.031 A 
BRANCH  45  59
ATOM     59  C   UNL A   1      44.075  28.310  35.459  1.00  0.00    -0.014 A 
ATOM     60  C   UNL A   1      45.430  28.648  35.286  1.00  0.00     0.010 A 
ATOM     61  C   UNL A   1      43.743  27.221  36.285  1.00  0.00     0.010 A 
ATOM     62  C   UNL A   1      46.432  27.884  35.888  1.00  0.00     0.020 A 
ATOM     63  C   UNL A   1      44.742  26.471  36.913  1.00  0.00     0.020 A 
ATOM     64  C   UNL A   1      46.082  26.797  36.695  1.00  0.00     0.054 A 
BRANCH  64  65
ATOM     65  S   UNL A   1      47.404  25.834  37.478  1.00  0.00     0.124 S 
ATOM     66  O   UNL A   1      48.500  25.999  36.526  1.00  0.00    -0.237 OA
ATOM     67  O   UNL A   1      47.579  26.511  38.760  1.00  0.00    -0.237 OA
ATOM     68  O   UNL A   1      46.848  24.485  37.560  1.00  0.00    -0.744 OA
ENDBRANCH  64  65
ENDBRANCH  45  59
BRANCH  46  69
ATOM     69  C   UNL A   1      36.649  33.178  30.856  1.00  0.00    -0.014 A 
ATOM     70  C   UNL A   1      35.351  33.100  31.393  1.00  0.00     0.010 A 
ATOM     71  C   UNL A   1      36.862  33.945  29.695  1.00  0.00     0.010 A 
ATOM     72  C   UNL A   1      34.286  33.762  30.775  1.00  0.00     0.020 A 
ATOM     73  C   UNL A   1      35.805  34.629  29.088  1.00  0.00     0.020 A 
ATOM     74  C   UNL A   1      34.521  34.524  29.626  1.00  0.00     0.054 A 
BRANCH  74  75
ATOM     75  S   UNL A   1      33.134  35.419  28.872  1.00  0.00     0.124 S 
ATOM     76  O   UNL A   1      32.433  35.934  30.042  1.00  0.00    -0.237 OA
ATOM     77  O   UNL A   1      33.813  36.418  28.049  1.00  0.00    -0.237 OA
ATOM     78  O   UNL A   1      32.428  34.383  28.122  1.00  0.00    -0.744 OA
ENDBRANCH  74  75
ENDBRANCH  46  69
BRANCH  58  79
ATOM     79  C   UNL A   1      39.931  34.008  36.964  1.00  0.00    -0.014 A 
ATOM     80  C   UNL A   1      40.537  35.272  36.874  1.00  0.00     0.010 A 
ATOM     81  C   UNL A   1      39.109  33.715  38.067  1.00  0.00     0.010 A 
ATOM     82  C   UNL A   1      40.331  36.223  37.877  1.00  0.00     0.020 A 
ATOM     83  C   UNL A   1      38.881  34.671  39.058  1.00  0.00     0.020 A 
ATOM     84  C   UNL A   1      39.500  35.918  38.960  1.00  0.00     0.054 A 
BRANCH  84  85
ATOM     85  S   UNL A   1      39.186  37.196  40.209  1.00  0.00     0.124 S 
ATOM     86  O   UNL A   1      38.434  36.455  41.219  1.00  0.00    -0.237 OA
ATOM     87  O   UNL A   1      40.534  37.600  40.601  1.00  0.00    -0.237 OA
ATOM     88  O   UNL A   1      38.425  38.210  39.485  1.00  0.00    -0.744 OA
ENDBRANCH  84  85
ENDBRANCH  58  79
ENDBRANCH  32  33
ENDBRANCH  24  27
ENDBRANCH  22  23
ENDBRANCH  21  22
ENDBRANCH   1  21
TORSDOF 18
ENDMDL
