MODEL 1
REMARK VINA RESULT:     -10.8      0.000      0.000
REMARK SMILES Cc1ccc(F)c(C(=O)Nc2cccc(C(=O)NCCCNC(=O)c3ccc(-c4c5nc(c(-c6ccc(S(=O)(=O)[O-])cc6)c6ccc([nH]6)c(-c6ccc(S(=O)(=O)[O-])cc6)c6nc(c(-c7ccc(S(=O)(=O)[O-])cc7)c7ccc4[nH]7)C=C6)C=C5)cc3)c2)c1
REMARK SMILES IDX 20 1 19 2 18 3 16 4 17 5 15 7 11 8 12 9 85 10 13 11 14 12
REMARK SMILES IDX 10 13 8 14 9 15 7 17 1 18 2 19 3 20 86 21 4 22 5 23 6 24
REMARK SMILES IDX 21 25 22 26 23 27 24 29 25 30 26 31 84 32 27 33 83 34 28 35
REMARK SMILES IDX 29 36 30 37 77 38 31 39 82 40 76 41 78 42 32 43 81 44 75 45
REMARK SMILES IDX 74 46 33 48 63 49 44 50 62 51 45 52 48 53 61 54 79 55 46 56
REMARK SMILES IDX 47 57 60 59 80 60 49 61 34 62 35 63 43 64 36 65 42 66 37 67
REMARK SMILES IDX 38 68 39 69 40 70 41 71 64 72 65 73 73 74 66 75 72 76 67 77
REMARK SMILES IDX 68 78 69 79 70 80 71 81 50 82 51 83 59 84 52 85 58 86 53 87
REMARK SMILES IDX 54 88 55 89 56 90 57 91
REMARK H PARENT 18 6 10 16 22 28 78 47 48 58
REMARK Flexibility Score: inf
ROOT
ATOM      1  C   UNL A   1      33.963  33.953  28.123  1.00  0.00     0.042 C 
ENDROOT
BRANCH   1   2
ATOM      2  C   UNL A   1      34.520  35.189  28.815  1.00  0.00     0.118 C 
BRANCH   2   3
ATOM      3  N   UNL A   1      33.486  35.946  29.488  1.00  0.00    -0.352 N 
ATOM      4  C   UNL A   1      33.132  36.064  30.806  1.00  0.00     0.251 C 
ATOM      5  O   UNL A   1      32.234  36.867  31.070  1.00  0.00    -0.269 OA
ATOM      6  H   UNL A   1      32.928  36.481  28.879  1.00  0.00     0.163 HD
BRANCH   4   7
ATOM      7  C   UNL A   1      33.801  35.341  31.930  1.00  0.00     0.041 A 
ATOM      8  C   UNL A   1      34.852  33.426  32.991  1.00  0.00     0.042 A 
ATOM      9  C   UNL A   1      35.163  34.195  34.112  1.00  0.00     0.026 A 
ATOM     10  C   UNL A   1      34.082  33.971  31.960  1.00  0.00     0.040 A 
ATOM     11  C   UNL A   1      34.842  35.548  34.127  1.00  0.00     0.003 A 
ATOM     12  C   UNL A   1      34.194  36.121  33.031  1.00  0.00     0.014 A 
BRANCH   8  13
ATOM     13  N   UNL A   1      35.404  32.140  32.917  1.00  0.00    -0.322 N 
ATOM     14  C   UNL A   1      36.702  31.728  32.663  1.00  0.00     0.258 C 
ATOM     15  O   UNL A   1      36.904  30.520  32.540  1.00  0.00    -0.269 OA
ATOM     16  H   UNL A   1      34.763  31.409  33.071  1.00  0.00     0.170 HD
BRANCH  14  17
ATOM     17  C   UNL A   1      37.867  32.661  32.677  1.00  0.00     0.076 A 
ATOM     18  C   UNL A   1      40.700  33.793  34.969  1.00  0.00     0.044 C 
ATOM     19  C   UNL A   1      39.845  33.633  33.744  1.00  0.00    -0.050 A 
ATOM     20  C   UNL A   1      40.005  34.498  32.657  1.00  0.00     0.006 A 
ATOM     21  C   UNL A   1      38.826  32.665  33.705  1.00  0.00     0.020 A 
ATOM     22  C   UNL A   1      39.121  34.434  31.582  1.00  0.00     0.040 A 
ATOM     23  C   UNL A   1      38.050  33.539  31.605  1.00  0.00     0.135 A 
ATOM     24  F   UNL A   1      37.194  33.567  30.574  1.00  0.00    -0.206 F 
ENDBRANCH  14  17
ENDBRANCH   8  13
ENDBRANCH   4   7
ENDBRANCH   2   3
ENDBRANCH   1   2
BRANCH   1  25
ATOM     25  C   UNL A   1      34.708  32.690  28.521  1.00  0.00     0.118 C 
BRANCH  25  26
ATOM     26  N   UNL A   1      33.963  31.491  28.160  1.00  0.00    -0.352 N 
ATOM     27  C   UNL A   1      34.414  30.224  27.889  1.00  0.00     0.251 C 
ATOM     28  H   UNL A   1      32.988  31.607  28.101  1.00  0.00     0.163 HD
ATOM     29  O   UNL A   1      33.641  29.408  27.396  1.00  0.00    -0.269 OA
BRANCH  27  30
ATOM     30  C   UNL A   1      35.815  29.850  28.177  1.00  0.00     0.039 A 
ATOM     31  C   UNL A   1      36.126  29.335  29.439  1.00  0.00     0.014 A 
ATOM     32  C   UNL A   1      36.826  30.041  27.232  1.00  0.00     0.014 A 
ATOM     33  C   UNL A   1      37.444  28.986  29.738  1.00  0.00     0.010 A 
ATOM     34  C   UNL A   1      38.119  29.607  27.498  1.00  0.00     0.010 A 
ATOM     35  C   UNL A   1      38.448  29.103  28.764  1.00  0.00    -0.014 A 
BRANCH  35  36
ATOM     36  C   UNL A   1      39.857  28.749  29.066  1.00  0.00     0.031 A 
ATOM     37  C   UNL A   1      40.759  29.756  29.730  1.00  0.00     0.074 A 
ATOM     38  C   UNL A   1      40.334  27.544  28.698  1.00  0.00     0.049 A 
ATOM     39  N   UNL A   1      42.021  29.646  30.051  1.00  0.00    -0.248 NA
ATOM     40  C   UNL A   1      40.174  31.071  30.045  1.00  0.00     0.031 C 
ATOM     41  C   UNL A   1      39.573  26.509  27.997  1.00  0.00     0.029 A 
ATOM     42  N   UNL A   1      41.577  26.989  28.863  1.00  0.00    -0.354 N 
ATOM     43  C   UNL A   1      42.387  30.881  30.577  1.00  0.00     0.074 A 
ATOM     44  C   UNL A   1      41.229  31.740  30.483  1.00  0.00     0.031 C 
ATOM     45  C   UNL A   1      40.355  25.432  27.820  1.00  0.00     0.029 A 
ATOM     46  C   UNL A   1      41.680  25.713  28.366  1.00  0.00     0.049 A 
ATOM     47  H   UNL A   1      42.325  27.461  29.297  1.00  0.00     0.167 HD
ATOM     48  C   UNL A   1      43.572  31.258  31.112  1.00  0.00     0.031 A 
ATOM     49  C   UNL A   1      42.723  24.860  28.355  1.00  0.00     0.031 A 
ATOM     50  C   UNL A   1      44.711  30.388  31.228  1.00  0.00     0.049 A 
ATOM     51  C   UNL A   1      44.016  25.285  28.993  1.00  0.00     0.074 A 
ATOM     52  C   UNL A   1      45.935  30.646  31.819  1.00  0.00     0.029 A 
ATOM     53  N   UNL A   1      44.763  29.088  30.746  1.00  0.00    -0.354 N 
ATOM     54  N   UNL A   1      44.320  26.432  29.555  1.00  0.00    -0.248 NA
ATOM     55  C   UNL A   1      45.100  24.294  29.014  1.00  0.00     0.031 C 
ATOM     56  C   UNL A   1      46.744  29.515  31.654  1.00  0.00     0.029 A 
ATOM     57  C   UNL A   1      46.004  28.536  31.010  1.00  0.00     0.049 A 
ATOM     58  H   UNL A   1      44.025  28.628  30.284  1.00  0.00     0.167 HD
ATOM     59  C   UNL A   1      45.623  26.291  30.019  1.00  0.00     0.074 A 
ATOM     60  C   UNL A   1      46.041  24.944  29.686  1.00  0.00     0.031 C 
ATOM     61  C   UNL A   1      46.403  27.195  30.664  1.00  0.00     0.031 A 
BRANCH  48  62
ATOM     62  C   UNL A   1      43.691  32.677  31.607  1.00  0.00    -0.014 A 
ATOM     63  C   UNL A   1      43.789  32.965  32.981  1.00  0.00     0.010 A 
ATOM     64  C   UNL A   1      43.719  33.739  30.684  1.00  0.00     0.010 A 
ATOM     65  C   UNL A   1      43.860  34.288  33.425  1.00  0.00     0.020 A 
ATOM     66  C   UNL A   1      43.820  35.062  31.123  1.00  0.00     0.020 A 
ATOM     67  C   UNL A   1      43.869  35.329  32.493  1.00  0.00     0.054 A 
BRANCH  67  68
ATOM     68  S   UNL A   1      43.968  37.037  33.095  1.00  0.00     0.124 S 
ATOM     69  O   UNL A   1      44.052  37.792  31.846  1.00  0.00    -0.237 OA
ATOM     70  O   UNL A   1      42.718  37.190  33.836  1.00  0.00    -0.237 OA
ATOM     71  O   UNL A   1      45.178  37.047  33.912  1.00  0.00    -0.744 OA
ENDBRANCH  67  68
ENDBRANCH  48  62
BRANCH  49  72
ATOM     72  C   UNL A   1      42.566  23.511  27.748  1.00  0.00    -0.014 A 
ATOM     73  C   UNL A   1      42.961  23.277  26.419  1.00  0.00     0.010 A 
ATOM     74  C   UNL A   1      42.055  22.444  28.508  1.00  0.00     0.010 A 
ATOM     75  C   UNL A   1      42.834  22.002  25.857  1.00  0.00     0.020 A 
ATOM     76  C   UNL A   1      41.950  21.163  27.958  1.00  0.00     0.020 A 
ATOM     77  C   UNL A   1      42.332  20.953  26.632  1.00  0.00     0.054 A 
BRANCH  77  78
ATOM     78  S   UNL A   1      42.235  19.294  25.901  1.00  0.00     0.124 S 
ATOM     79  O   UNL A   1      42.754  18.458  26.977  1.00  0.00    -0.237 OA
ATOM     80  O   UNL A   1      40.808  19.155  25.623  1.00  0.00    -0.237 OA
ATOM     81  O   UNL A   1      43.085  19.394  24.716  1.00  0.00    -0.744 OA
ENDBRANCH  77  78
ENDBRANCH  49  72
BRANCH  61  82
ATOM     82  C   UNL A   1      47.776  26.744  31.079  1.00  0.00    -0.014 A 
ATOM     83  C   UNL A   1      48.891  26.936  30.244  1.00  0.00     0.010 A 
ATOM     84  C   UNL A   1      47.960  26.159  32.346  1.00  0.00     0.010 A 
ATOM     85  C   UNL A   1      50.159  26.513  30.651  1.00  0.00     0.020 A 
ATOM     86  C   UNL A   1      49.230  25.759  32.767  1.00  0.00     0.020 A 
ATOM     87  C   UNL A   1      50.318  25.925  31.910  1.00  0.00     0.054 A 
BRANCH  87  88
ATOM     88  S   UNL A   1      51.979  25.410  32.429  1.00  0.00     0.124 S 
ATOM     89  O   UNL A   1      52.816  25.988  31.380  1.00  0.00    -0.237 OA
ATOM     90  O   UNL A   1      52.109  26.025  33.747  1.00  0.00    -0.237 OA
ATOM     91  O   UNL A   1      51.903  23.951  32.433  1.00  0.00    -0.744 OA
ENDBRANCH  87  88
ENDBRANCH  61  82
ENDBRANCH  35  36
ENDBRANCH  27  30
ENDBRANCH  25  26
ENDBRANCH   1  25
TORSDOF 15
ENDMDL
MODEL 2
REMARK VINA RESULT:     -10.6      4.896      8.084
REMARK SMILES Cc1ccc(F)c(C(=O)Nc2cccc(C(=O)NCCCNC(=O)c3ccc(-c4c5nc(c(-c6ccc(S(=O)(=O)[O-])cc6)c6ccc([nH]6)c(-c6ccc(S(=O)(=O)[O-])cc6)c6nc(c(-c7ccc(S(=O)(=O)[O-])cc7)c7ccc4[nH]7)C=C6)C=C5)cc3)c2)c1
REMARK SMILES IDX 20 1 19 2 18 3 16 4 17 5 15 7 11 8 12 9 85 10 13 11 14 12
REMARK SMILES IDX 10 13 8 14 9 15 7 17 1 18 2 19 3 20 86 21 4 22 5 23 6 24
REMARK SMILES IDX 21 25 22 26 23 27 24 29 25 30 26 31 84 32 27 33 83 34 28 35
REMARK SMILES IDX 29 36 30 37 77 38 31 39 82 40 76 41 78 42 32 43 81 44 75 45
REMARK SMILES IDX 74 46 33 48 63 49 44 50 62 51 45 52 48 53 61 54 79 55 46 56
REMARK SMILES IDX 47 57 60 59 80 60 49 61 34 62 35 63 43 64 36 65 42 66 37 67
REMARK SMILES IDX 38 68 39 69 40 70 41 71 64 72 65 73 73 74 66 75 72 76 67 77
REMARK SMILES IDX 68 78 69 79 70 80 71 81 50 82 51 83 59 84 52 85 58 86 53 87
REMARK SMILES IDX 54 88 55 89 56 90 57 91
REMARK H PARENT 18 6 10 16 22 28 78 47 48 58
REMARK Flexibility Score: inf
ROOT
ATOM      1  C   UNL A   1      31.689  32.084  26.776  1.00  0.00     0.042 C 
ENDROOT
BRANCH   1   2
ATOM      2  C   UNL A   1      31.792  30.581  26.563  1.00  0.00     0.118 C 
BRANCH   2   3
ATOM      3  N   UNL A   1      32.607  30.251  25.413  1.00  0.00    -0.352 N 
ATOM      4  C   UNL A   1      32.526  29.259  24.472  1.00  0.00     0.251 C 
ATOM      5  O   UNL A   1      33.347  29.296  23.553  1.00  0.00    -0.269 OA
ATOM      6  H   UNL A   1      33.369  30.860  25.281  1.00  0.00     0.163 HD
BRANCH   4   7
ATOM      7  C   UNL A   1      31.479  28.192  24.456  1.00  0.00     0.041 A 
ATOM      8  C   UNL A   1      30.354  26.209  25.292  1.00  0.00     0.042 A 
ATOM      9  C   UNL A   1      29.354  26.349  24.331  1.00  0.00     0.026 A 
ATOM     10  C   UNL A   1      31.462  27.062  25.280  1.00  0.00     0.040 A 
ATOM     11  C   UNL A   1      29.382  27.436  23.464  1.00  0.00     0.003 A 
ATOM     12  C   UNL A   1      30.421  28.365  23.548  1.00  0.00     0.014 A 
BRANCH   8  13
ATOM     13  N   UNL A   1      30.159  25.246  26.292  1.00  0.00    -0.322 N 
ATOM     14  C   UNL A   1      30.749  24.006  26.480  1.00  0.00     0.258 C 
ATOM     15  O   UNL A   1      30.313  23.298  27.387  1.00  0.00    -0.269 OA
ATOM     16  H   UNL A   1      29.492  25.491  26.973  1.00  0.00     0.170 HD
BRANCH  14  17
ATOM     17  C   UNL A   1      31.965  23.566  25.735  1.00  0.00     0.076 A 
ATOM     18  C   UNL A   1      35.755  23.389  26.134  1.00  0.00     0.044 C 
ATOM     19  C   UNL A   1      34.379  23.197  25.563  1.00  0.00    -0.050 A 
ATOM     20  C   UNL A   1      34.220  22.777  24.239  1.00  0.00     0.006 A 
ATOM     21  C   UNL A   1      33.239  23.507  26.326  1.00  0.00     0.020 A 
ATOM     22  C   UNL A   1      32.947  22.732  23.672  1.00  0.00     0.040 A 
ATOM     23  C   UNL A   1      31.835  23.144  24.409  1.00  0.00     0.135 A 
ATOM     24  F   UNL A   1      30.646  23.141  23.791  1.00  0.00    -0.206 F 
ENDBRANCH  14  17
ENDBRANCH   8  13
ENDBRANCH   4   7
ENDBRANCH   2   3
ENDBRANCH   1   2
BRANCH   1  25
ATOM     25  C   UNL A   1      33.002  32.687  27.246  1.00  0.00     0.118 C 
BRANCH  25  26
ATOM     26  N   UNL A   1      32.829  34.061  27.703  1.00  0.00    -0.352 N 
ATOM     27  C   UNL A   1      33.409  34.716  28.759  1.00  0.00     0.251 C 
ATOM     28  H   UNL A   1      32.200  34.600  27.173  1.00  0.00     0.163 HD
ATOM     29  O   UNL A   1      32.967  35.808  29.100  1.00  0.00    -0.269 OA
BRANCH  27  30
ATOM     30  C   UNL A   1      34.547  34.109  29.483  1.00  0.00     0.039 A 
ATOM     31  C   UNL A   1      35.847  34.434  29.085  1.00  0.00     0.014 A 
ATOM     32  C   UNL A   1      34.342  33.195  30.520  1.00  0.00     0.014 A 
ATOM     33  C   UNL A   1      36.936  33.864  29.745  1.00  0.00     0.010 A 
ATOM     34  C   UNL A   1      35.425  32.701  31.237  1.00  0.00     0.010 A 
ATOM     35  C   UNL A   1      36.734  33.006  30.838  1.00  0.00    -0.014 A 
BRANCH  35  36
ATOM     36  C   UNL A   1      37.878  32.381  31.546  1.00  0.00     0.031 A 
ATOM     37  C   UNL A   1      38.301  32.899  32.895  1.00  0.00     0.074 A 
ATOM     38  C   UNL A   1      38.563  31.383  30.954  1.00  0.00     0.049 A 
ATOM     39  N   UNL A   1      39.288  32.505  33.657  1.00  0.00    -0.248 NA
ATOM     40  C   UNL A   1      37.535  34.031  33.445  1.00  0.00     0.031 C 
ATOM     41  C   UNL A   1      38.284  30.836  29.625  1.00  0.00     0.029 A 
ATOM     42  N   UNL A   1      39.637  30.654  31.395  1.00  0.00    -0.354 N 
ATOM     43  C   UNL A   1      39.278  33.356  34.757  1.00  0.00     0.074 A 
ATOM     44  C   UNL A   1      38.223  34.319  34.540  1.00  0.00     0.031 C 
ATOM     45  C   UNL A   1      39.144  29.836  29.371  1.00  0.00     0.029 A 
ATOM     46  C   UNL A   1      40.054  29.694  30.505  1.00  0.00     0.049 A 
ATOM     47  H   UNL A   1      40.070  30.805  32.267  1.00  0.00     0.167 HD
ATOM     48  C   UNL A   1      40.061  33.323  35.862  1.00  0.00     0.031 A 
ATOM     49  C   UNL A   1      41.053  28.795  30.592  1.00  0.00     0.031 A 
ATOM     50  C   UNL A   1      41.090  32.344  36.085  1.00  0.00     0.049 A 
ATOM     51  C   UNL A   1      41.882  28.749  31.846  1.00  0.00     0.074 A 
ATOM     52  C   UNL A   1      41.892  32.176  37.200  1.00  0.00     0.029 A 
ATOM     53  N   UNL A   1      41.456  31.363  35.175  1.00  0.00    -0.354 N 
ATOM     54  N   UNL A   1      41.808  29.513  32.911  1.00  0.00    -0.248 NA
ATOM     55  C   UNL A   1      42.914  27.707  31.919  1.00  0.00     0.031 C 
ATOM     56  C   UNL A   1      42.775  31.119  36.945  1.00  0.00     0.029 A 
ATOM     57  C   UNL A   1      42.485  30.596  35.695  1.00  0.00     0.049 A 
ATOM     58  H   UNL A   1      41.045  31.233  34.290  1.00  0.00     0.167 HD
ATOM     59  C   UNL A   1      42.768  29.028  33.791  1.00  0.00     0.074 A 
ATOM     60  C   UNL A   1      43.397  27.895  33.140  1.00  0.00     0.031 C 
ATOM     61  C   UNL A   1      43.100  29.477  35.027  1.00  0.00     0.031 A 
BRANCH  48  62
ATOM     62  C   UNL A   1      39.832  34.385  36.907  1.00  0.00    -0.014 A 
ATOM     63  C   UNL A   1      40.459  35.642  36.820  1.00  0.00     0.010 A 
ATOM     64  C   UNL A   1      38.967  34.128  37.986  1.00  0.00     0.010 A 
ATOM     65  C   UNL A   1      40.266  36.601  37.818  1.00  0.00     0.020 A 
ATOM     66  C   UNL A   1      38.747  35.096  38.971  1.00  0.00     0.020 A 
ATOM     67  C   UNL A   1      39.416  36.320  38.891  1.00  0.00     0.054 A 
BRANCH  67  68
ATOM     68  S   UNL A   1      39.178  37.584  40.169  1.00  0.00     0.124 S 
ATOM     69  O   UNL A   1      40.514  38.169  40.266  1.00  0.00    -0.237 OA
ATOM     70  O   UNL A   1      38.157  38.448  39.580  1.00  0.00    -0.237 OA
ATOM     71  O   UNL A   1      38.745  36.821  41.337  1.00  0.00    -0.744 OA
ENDBRANCH  67  68
ENDBRANCH  48  62
BRANCH  49  72
ATOM     72  C   UNL A   1      41.293  27.848  29.471  1.00  0.00    -0.014 A 
ATOM     73  C   UNL A   1      42.376  28.040  28.595  1.00  0.00     0.010 A 
ATOM     74  C   UNL A   1      40.462  26.727  29.295  1.00  0.00     0.010 A 
ATOM     75  C   UNL A   1      42.614  27.136  27.555  1.00  0.00     0.020 A 
ATOM     76  C   UNL A   1      40.712  25.808  28.273  1.00  0.00     0.020 A 
ATOM     77  C   UNL A   1      41.782  26.024  27.402  1.00  0.00     0.054 A 
BRANCH  77  78
ATOM     78  S   UNL A   1      42.147  24.831  26.084  1.00  0.00     0.124 S 
ATOM     79  O   UNL A   1      41.820  25.594  24.885  1.00  0.00    -0.237 OA
ATOM     80  O   UNL A   1      43.566  24.555  26.292  1.00  0.00    -0.237 OA
ATOM     81  O   UNL A   1      41.253  23.713  26.380  1.00  0.00    -0.744 OA
ENDBRANCH  77  78
ENDBRANCH  49  72
BRANCH  61  82
ATOM     82  C   UNL A   1      44.170  28.723  35.768  1.00  0.00    -0.014 A 
ATOM     83  C   UNL A   1      45.523  29.092  35.671  1.00  0.00     0.010 A 
ATOM     84  C   UNL A   1      43.807  27.655  36.610  1.00  0.00     0.010 A 
ATOM     85  C   UNL A   1      46.500  28.380  36.371  1.00  0.00     0.020 A 
ATOM     86  C   UNL A   1      44.778  26.958  37.332  1.00  0.00     0.020 A 
ATOM     87  C   UNL A   1      46.120  27.315  37.195  1.00  0.00     0.054 A 
BRANCH  87  88
ATOM     88  S   UNL A   1      47.403  26.424  38.118  1.00  0.00     0.124 S 
ATOM     89  O   UNL A   1      46.781  26.271  39.430  1.00  0.00    -0.237 OA
ATOM     90  O   UNL A   1      47.557  25.193  37.347  1.00  0.00    -0.237 OA
ATOM     91  O   UNL A   1      48.551  27.327  38.073  1.00  0.00    -0.744 OA
ENDBRANCH  87  88
ENDBRANCH  61  82
ENDBRANCH  35  36
ENDBRANCH  27  30
ENDBRANCH  25  26
ENDBRANCH   1  25
TORSDOF 15
ENDMDL
MODEL 3
REMARK VINA RESULT:     -10.5      4.198     11.055
REMARK SMILES Cc1ccc(F)c(C(=O)Nc2cccc(C(=O)NCCCNC(=O)c3ccc(-c4c5nc(c(-c6ccc(S(=O)(=O)[O-])cc6)c6ccc([nH]6)c(-c6ccc(S(=O)(=O)[O-])cc6)c6nc(c(-c7ccc(S(=O)(=O)[O-])cc7)c7ccc4[nH]7)C=C6)C=C5)cc3)c2)c1
REMARK SMILES IDX 20 1 19 2 18 3 16 4 17 5 15 7 11 8 12 9 85 10 13 11 14 12
REMARK SMILES IDX 10 13 8 14 9 15 7 17 1 18 2 19 3 20 86 21 4 22 5 23 6 24
REMARK SMILES IDX 21 25 22 26 23 27 24 29 25 30 26 31 84 32 27 33 83 34 28 35
REMARK SMILES IDX 29 36 30 37 77 38 31 39 82 40 76 41 78 42 32 43 81 44 75 45
REMARK SMILES IDX 74 46 33 48 63 49 44 50 62 51 45 52 48 53 61 54 79 55 46 56
REMARK SMILES IDX 47 57 60 59 80 60 49 61 34 62 35 63 43 64 36 65 42 66 37 67
REMARK SMILES IDX 38 68 39 69 40 70 41 71 64 72 65 73 73 74 66 75 72 76 67 77
REMARK SMILES IDX 68 78 69 79 70 80 71 81 50 82 51 83 59 84 52 85 58 86 53 87
REMARK SMILES IDX 54 88 55 89 56 90 57 91
REMARK H PARENT 18 6 10 16 22 28 78 47 48 58
REMARK Flexibility Score: inf
ROOT
ATOM      1  C   UNL A   1      35.191  23.222  25.582  1.00  0.00     0.042 C 
ENDROOT
BRANCH   1   2
ATOM      2  C   UNL A   1      34.940  22.261  24.428  1.00  0.00     0.118 C 
BRANCH   2   3
ATOM      3  N   UNL A   1      33.928  21.278  24.752  1.00  0.00    -0.352 N 
ATOM      4  C   UNL A   1      32.571  21.364  24.917  1.00  0.00     0.251 C 
ATOM      5  O   UNL A   1      31.968  20.307  25.117  1.00  0.00    -0.269 OA
ATOM      6  H   UNL A   1      34.285  20.370  24.877  1.00  0.00     0.163 HD
BRANCH   4   7
ATOM      7  C   UNL A   1      31.783  22.629  24.806  1.00  0.00     0.041 A 
ATOM      8  C   UNL A   1      30.874  24.728  25.623  1.00  0.00     0.042 A 
ATOM      9  C   UNL A   1      30.365  25.020  24.358  1.00  0.00     0.026 A 
ATOM     10  C   UNL A   1      31.482  23.492  25.864  1.00  0.00     0.040 A 
ATOM     11  C   UNL A   1      30.604  24.147  23.302  1.00  0.00     0.003 A 
ATOM     12  C   UNL A   1      31.334  22.976  23.520  1.00  0.00     0.014 A 
BRANCH   8  13
ATOM     13  N   UNL A   1      30.819  25.740  26.591  1.00  0.00    -0.322 N 
ATOM     14  C   UNL A   1      31.333  27.027  26.581  1.00  0.00     0.258 C 
ATOM     15  O   UNL A   1      31.242  27.685  27.617  1.00  0.00    -0.269 OA
ATOM     16  H   UNL A   1      30.337  25.496  27.413  1.00  0.00     0.170 HD
BRANCH  14  17
ATOM     17  C   UNL A   1      31.850  27.685  25.345  1.00  0.00     0.076 A 
ATOM     18  C   UNL A   1      30.590  29.497  22.232  1.00  0.00     0.044 C 
ATOM     19  C   UNL A   1      31.525  28.936  23.266  1.00  0.00    -0.050 A 
ATOM     20  C   UNL A   1      32.895  28.847  23.000  1.00  0.00     0.006 A 
ATOM     21  C   UNL A   1      31.028  28.427  24.479  1.00  0.00     0.020 A 
ATOM     22  C   UNL A   1      33.739  28.203  23.903  1.00  0.00     0.040 A 
ATOM     23  C   UNL A   1      33.214  27.609  25.053  1.00  0.00     0.135 A 
ATOM     24  F   UNL A   1      34.062  26.947  25.851  1.00  0.00    -0.206 F 
ENDBRANCH  14  17
ENDBRANCH   8  13
ENDBRANCH   4   7
ENDBRANCH   2   3
ENDBRANCH   1   2
BRANCH   1  25
ATOM     25  C   UNL A   1      36.569  23.857  25.509  1.00  0.00     0.118 C 
BRANCH  25  26
ATOM     26  N   UNL A   1      37.626  22.863  25.650  1.00  0.00    -0.352 N 
ATOM     27  C   UNL A   1      38.898  22.996  26.146  1.00  0.00     0.251 C 
ATOM     28  H   UNL A   1      37.392  21.958  25.343  1.00  0.00     0.163 HD
ATOM     29  O   UNL A   1      39.702  22.084  25.980  1.00  0.00    -0.269 OA
BRANCH  27  30
ATOM     30  C   UNL A   1      39.297  24.226  26.863  1.00  0.00     0.039 A 
ATOM     31  C   UNL A   1      40.095  25.161  26.200  1.00  0.00     0.014 A 
ATOM     32  C   UNL A   1      38.926  24.443  28.193  1.00  0.00     0.014 A 
ATOM     33  C   UNL A   1      40.495  26.324  26.860  1.00  0.00     0.010 A 
ATOM     34  C   UNL A   1      39.246  25.642  28.818  1.00  0.00     0.010 A 
ATOM     35  C   UNL A   1      40.059  26.581  28.170  1.00  0.00    -0.014 A 
BRANCH  35  36
ATOM     36  C   UNL A   1      40.482  27.805  28.894  1.00  0.00     0.031 A 
ATOM     37  C   UNL A   1      41.846  27.868  29.529  1.00  0.00     0.074 A 
ATOM     38  C   UNL A   1      39.623  28.835  29.020  1.00  0.00     0.049 A 
ATOM     39  N   UNL A   1      42.388  28.835  30.224  1.00  0.00    -0.248 NA
ATOM     40  C   UNL A   1      42.701  26.676  29.394  1.00  0.00     0.031 C 
ATOM     41  C   UNL A   1      38.255  28.866  28.499  1.00  0.00     0.029 A 
ATOM     42  N   UNL A   1      39.774  30.053  29.630  1.00  0.00    -0.354 N 
ATOM     43  C   UNL A   1      43.629  28.358  30.630  1.00  0.00     0.074 A 
ATOM     44  C   UNL A   1      43.739  26.999  30.151  1.00  0.00     0.031 C 
ATOM     45  C   UNL A   1      37.703  30.057  28.784  1.00  0.00     0.029 A 
ATOM     46  C   UNL A   1      38.666  30.859  29.534  1.00  0.00     0.049 A 
ATOM     47  H   UNL A   1      40.600  30.325  30.094  1.00  0.00     0.167 HD
ATOM     48  C   UNL A   1      44.601  29.001  31.320  1.00  0.00     0.031 A 
ATOM     49  C   UNL A   1      38.449  32.107  29.993  1.00  0.00     0.031 A 
ATOM     50  C   UNL A   1      44.496  30.363  31.769  1.00  0.00     0.049 A 
ATOM     51  C   UNL A   1      39.557  32.817  30.719  1.00  0.00     0.074 A 
ATOM     52  C   UNL A   1      45.449  31.134  32.411  1.00  0.00     0.029 A 
ATOM     53  N   UNL A   1      43.370  31.159  31.617  1.00  0.00    -0.354 N 
ATOM     54  N   UNL A   1      40.755  32.377  31.028  1.00  0.00    -0.248 NA
ATOM     55  C   UNL A   1      39.293  34.199  31.139  1.00  0.00     0.031 C 
ATOM     56  C   UNL A   1      44.881  32.384  32.689  1.00  0.00     0.029 A 
ATOM     57  C   UNL A   1      43.596  32.408  32.170  1.00  0.00     0.049 A 
ATOM     58  H   UNL A   1      42.534  30.876  31.182  1.00  0.00     0.167 HD
ATOM     59  C   UNL A   1      41.396  33.438  31.657  1.00  0.00     0.074 A 
ATOM     60  C   UNL A   1      40.459  34.544  31.669  1.00  0.00     0.031 C 
ATOM     61  C   UNL A   1      42.648  33.492  32.177  1.00  0.00     0.031 A 
BRANCH  48  62
ATOM     62  C   UNL A   1      45.858  28.230  31.631  1.00  0.00    -0.014 A 
ATOM     63  C   UNL A   1      46.005  27.533  32.846  1.00  0.00     0.010 A 
ATOM     64  C   UNL A   1      46.905  28.190  30.692  1.00  0.00     0.010 A 
ATOM     65  C   UNL A   1      47.192  26.855  33.135  1.00  0.00     0.020 A 
ATOM     66  C   UNL A   1      48.082  27.488  30.965  1.00  0.00     0.020 A 
ATOM     67  C   UNL A   1      48.226  26.842  32.195  1.00  0.00     0.054 A 
BRANCH  67  68
ATOM     68  S   UNL A   1      49.754  25.949  32.593  1.00  0.00     0.124 S 
ATOM     69  O   UNL A   1      49.893  25.062  31.440  1.00  0.00    -0.237 OA
ATOM     70  O   UNL A   1      50.741  27.024  32.678  1.00  0.00    -0.237 OA
ATOM     71  O   UNL A   1      49.449  25.286  33.857  1.00  0.00    -0.744 OA
ENDBRANCH  67  68
ENDBRANCH  48  62
BRANCH  49  72
ATOM     72  C   UNL A   1      37.139  32.767  29.744  1.00  0.00    -0.014 A 
ATOM     73  C   UNL A   1      36.189  32.875  30.774  1.00  0.00     0.010 A 
ATOM     74  C   UNL A   1      36.850  33.323  28.485  1.00  0.00     0.010 A 
ATOM     75  C   UNL A   1      34.966  33.516  30.545  1.00  0.00     0.020 A 
ATOM     76  C   UNL A   1      35.641  33.987  28.260  1.00  0.00     0.020 A 
ATOM     77  C   UNL A   1      34.702  34.071  29.290  1.00  0.00     0.054 A 
BRANCH  77  78
ATOM     78  S   UNL A   1      33.136  34.952  29.035  1.00  0.00     0.124 S 
ATOM     79  O   UNL A   1      32.497  34.143  28.003  1.00  0.00    -0.237 OA
ATOM     80  O   UNL A   1      32.521  34.893  30.358  1.00  0.00    -0.237 OA
ATOM     81  O   UNL A   1      33.561  36.286  28.613  1.00  0.00    -0.744 OA
ENDBRANCH  77  78
ENDBRANCH  49  72
BRANCH  61  82
ATOM     82  C   UNL A   1      43.087  34.801  32.775  1.00  0.00    -0.014 A 
ATOM     83  C   UNL A   1      42.906  35.076  34.142  1.00  0.00     0.010 A 
ATOM     84  C   UNL A   1      43.729  35.753  31.962  1.00  0.00     0.010 A 
ATOM     85  C   UNL A   1      43.325  36.296  34.678  1.00  0.00     0.020 A 
ATOM     86  C   UNL A   1      44.173  36.963  32.500  1.00  0.00     0.020 A 
ATOM     87  C   UNL A   1      43.953  37.233  33.851  1.00  0.00     0.054 A 
BRANCH  87  88
ATOM     88  S   UNL A   1      44.515  38.799  34.575  1.00  0.00     0.124 S 
ATOM     89  O   UNL A   1      45.912  38.844  34.151  1.00  0.00    -0.237 OA
ATOM     90  O   UNL A   1      43.634  39.779  33.944  1.00  0.00    -0.237 OA
ATOM     91  O   UNL A   1      44.303  38.612  36.009  1.00  0.00    -0.744 OA
ENDBRANCH  87  88
ENDBRANCH  61  82
ENDBRANCH  35  36
ENDBRANCH  27  30
ENDBRANCH  25  26
ENDBRANCH   1  25
TORSDOF 15
ENDMDL
