MODEL 1
REMARK VINA RESULT:     -10.6      0.000      0.000
REMARK SMILES COc1c(C)cc([C@H](C(=O)NCCCNC(=O)c2ccc(-c3c4nc(c(-c5ccc(S(=O)(=O)[O-])cc5)c5ccc([nH]5)c(-c5ccc(S(=O)(=O)[O-])cc5)c5nc(c(-c6ccc(S(=O)(=O)[O-])cc6)c6ccc3[nH]6)C=C5)C=C4)cc2)[N@@H+](C)CCN2CCCCC2=O)cc1C
REMARK SMILES IDX 12 1 11 2 9 3 10 4 8 6 7 7 3 8 4 9 90 10 5 11 6 12 89 13
REMARK SMILES IDX 91 14 2 15 1 16 78 17 79 18 80 20 81 21 82 22 83 23 87 24
REMARK SMILES IDX 84 25 86 26 88 27 85 28 13 29 14 30 15 31 16 32 17 34 18 35
REMARK SMILES IDX 19 36 77 37 20 38 76 39 21 40 22 41 23 42 70 43 24 44 75 45
REMARK SMILES IDX 69 46 71 47 25 48 74 49 68 50 67 51 26 53 56 54 37 55 55 56
REMARK SMILES IDX 38 57 41 58 54 59 72 60 39 61 40 62 53 64 73 65 42 66 27 67
REMARK SMILES IDX 28 68 36 69 29 70 35 71 30 72 31 73 32 74 33 75 34 76 57 77
REMARK SMILES IDX 58 78 66 79 59 80 65 81 60 82 61 83 62 84 63 85 64 86 43 87
REMARK SMILES IDX 44 88 52 89 45 90 51 91 46 92 47 93 48 94 49 95 50 96
REMARK H PARENT 11 5 78 19 15 33 71 52 41 63
REMARK Flexibility Score: inf
ROOT
ATOM      1  C   UNL A   1      32.724  27.003  26.408  1.00  0.00     0.118 C 
ENDROOT
BRANCH   1   2
ATOM      2  N   UNL A   1      31.341  26.586  26.718  1.00  0.00    -0.351 N 
ATOM      3  C   UNL A   1      30.312  26.069  25.918  1.00  0.00     0.283 C 
ATOM      4  O   UNL A   1      29.531  25.294  26.483  1.00  0.00    -0.268 OA
ATOM      5  H   UNL A   1      31.095  26.692  27.666  1.00  0.00     0.163 HD
BRANCH   3   6
ATOM      6  C   UNL A   1      30.214  26.365  24.398  1.00  0.00     0.305 C 
BRANCH   6   7
ATOM      7  C   UNL A   1      30.231  27.784  23.753  1.00  0.00     0.020 A 
ATOM      8  C   UNL A   1      29.478  30.514  23.612  1.00  0.00     0.124 A 
ATOM      9  C   UNL A   1      30.463  30.118  24.516  1.00  0.00    -0.008 A 
ATOM     10  C   UNL A   1      28.997  29.609  22.655  1.00  0.00    -0.008 A 
ATOM     11  C   UNL A   1      31.003  31.032  25.578  1.00  0.00     0.048 C 
ATOM     12  C   UNL A   1      30.889  28.779  24.511  1.00  0.00     0.017 A 
ATOM     13  C   UNL A   1      29.389  28.243  22.731  1.00  0.00     0.017 A 
ATOM     14  C   UNL A   1      27.915  30.034  21.698  1.00  0.00     0.048 C 
BRANCH   8  15
ATOM     15  O   UNL A   1      28.794  31.682  23.840  1.00  0.00    -0.496 OA
ATOM     16  C   UNL A   1      29.151  32.733  22.951  1.00  0.00     0.278 C 
ENDBRANCH   8  15
ENDBRANCH   6   7
BRANCH   6  17
ATOM     17  N   UNL A   1      31.147  25.500  23.676  1.00  0.00    -0.322 N 
ATOM     18  C   UNL A   1      32.338  26.153  23.164  1.00  0.00     0.333 C 
ATOM     19  H   UNL A   1      30.466  25.337  22.934  1.00  0.00     0.348 HD
BRANCH  17  20
ATOM     20  C   UNL A   1      31.138  24.038  23.753  1.00  0.00     0.284 C 
BRANCH  20  21
ATOM     21  C   UNL A   1      32.111  23.012  23.115  1.00  0.00     0.180 C 
BRANCH  21  22
ATOM     22  N   UNL A   1      33.286  22.481  23.841  1.00  0.00    -0.337 N 
ATOM     23  C   UNL A   1      33.290  21.214  24.544  1.00  0.00     0.119 C 
ATOM     24  C   UNL A   1      34.539  22.916  23.416  1.00  0.00     0.222 C 
ATOM     25  C   UNL A   1      34.126  21.316  25.810  1.00  0.00     0.022 C 
ATOM     26  C   UNL A   1      35.698  22.713  24.388  1.00  0.00     0.100 C 
ATOM     27  O   UNL A   1      34.710  23.533  22.366  1.00  0.00    -0.275 OA
ATOM     28  C   UNL A   1      35.562  21.651  25.469  1.00  0.00     0.012 C 
ENDBRANCH  21  22
ENDBRANCH  20  21
ENDBRANCH  17  20
ENDBRANCH   6  17
ENDBRANCH   3   6
ENDBRANCH   1   2
BRANCH   1  29
ATOM     29  C   UNL A   1      33.395  28.207  27.134  1.00  0.00     0.042 C 
BRANCH  29  30
ATOM     30  C   UNL A   1      34.357  29.125  26.361  1.00  0.00     0.118 C 
BRANCH  30  31
ATOM     31  N   UNL A   1      34.253  30.515  26.792  1.00  0.00    -0.352 N 
ATOM     32  C   UNL A   1      34.828  31.224  27.823  1.00  0.00     0.251 C 
ATOM     33  H   UNL A   1      33.649  31.055  26.232  1.00  0.00     0.163 HD
ATOM     34  O   UNL A   1      34.316  32.311  28.102  1.00  0.00    -0.269 OA
BRANCH  32  35
ATOM     35  C   UNL A   1      36.019  30.782  28.611  1.00  0.00     0.039 A 
ATOM     36  C   UNL A   1      37.252  31.394  28.328  1.00  0.00     0.014 A 
ATOM     37  C   UNL A   1      36.014  29.688  29.481  1.00  0.00     0.014 A 
ATOM     38  C   UNL A   1      38.445  30.939  28.913  1.00  0.00     0.010 A 
ATOM     39  C   UNL A   1      37.208  29.257  30.100  1.00  0.00     0.010 A 
ATOM     40  C   UNL A   1      38.444  29.869  29.820  1.00  0.00    -0.014 A 
BRANCH  40  41
ATOM     41  C   UNL A   1      39.722  29.411  30.463  1.00  0.00     0.031 A 
ATOM     42  C   UNL A   1      40.261  30.072  31.713  1.00  0.00     0.074 A 
ATOM     43  C   UNL A   1      40.426  28.395  29.917  1.00  0.00     0.049 A 
ATOM     44  N   UNL A   1      41.347  29.792  32.395  1.00  0.00    -0.248 NA
ATOM     45  C   UNL A   1      39.493  31.200  32.260  1.00  0.00     0.031 C 
ATOM     46  C   UNL A   1      40.059  27.674  28.697  1.00  0.00     0.029 A 
ATOM     47  N   UNL A   1      41.600  27.791  30.312  1.00  0.00    -0.354 N 
ATOM     48  C   UNL A   1      41.404  30.718  33.434  1.00  0.00     0.074 A 
ATOM     49  C   UNL A   1      40.257  31.587  33.275  1.00  0.00     0.031 C 
ATOM     50  C   UNL A   1      40.975  26.724  28.451  1.00  0.00     0.029 A 
ATOM     51  C   UNL A   1      42.016  26.782  29.473  1.00  0.00     0.049 A 
ATOM     52  H   UNL A   1      42.095  28.058  31.120  1.00  0.00     0.167 HD
ATOM     53  C   UNL A   1      42.316  30.832  34.434  1.00  0.00     0.031 A 
ATOM     54  C   UNL A   1      43.111  25.993  29.507  1.00  0.00     0.031 A 
ATOM     55  C   UNL A   1      43.448  29.959  34.616  1.00  0.00     0.049 A 
ATOM     56  C   UNL A   1      44.103  26.135  30.632  1.00  0.00     0.074 A 
ATOM     57  C   UNL A   1      44.373  29.958  35.650  1.00  0.00     0.029 A 
ATOM     58  N   UNL A   1      43.822  28.943  33.752  1.00  0.00    -0.354 N 
ATOM     59  N   UNL A   1      44.081  26.960  31.649  1.00  0.00    -0.248 NA
ATOM     60  C   UNL A   1      45.260  25.227  30.619  1.00  0.00     0.031 C 
ATOM     61  C   UNL A   1      45.337  28.982  35.379  1.00  0.00     0.029 A 
ATOM     62  C   UNL A   1      44.979  28.332  34.209  1.00  0.00     0.049 A 
ATOM     63  H   UNL A   1      43.336  28.692  32.933  1.00  0.00     0.167 HD
ATOM     64  C   UNL A   1      45.207  26.655  32.409  1.00  0.00     0.074 A 
ATOM     65  C   UNL A   1      45.876  25.555  31.746  1.00  0.00     0.031 C 
ATOM     66  C   UNL A   1      45.647  27.239  33.550  1.00  0.00     0.031 A 
BRANCH  53  67
ATOM     67  C   UNL A   1      42.144  31.957  35.426  1.00  0.00    -0.014 A 
ATOM     68  C   UNL A   1      41.439  31.769  36.629  1.00  0.00     0.010 A 
ATOM     69  C   UNL A   1      42.778  33.193  35.194  1.00  0.00     0.010 A 
ATOM     70  C   UNL A   1      41.345  32.804  37.564  1.00  0.00     0.020 A 
ATOM     71  C   UNL A   1      42.708  34.223  36.139  1.00  0.00     0.020 A 
ATOM     72  C   UNL A   1      41.980  34.024  37.314  1.00  0.00     0.054 A 
BRANCH  72  73
ATOM     73  S   UNL A   1      41.879  35.338  38.562  1.00  0.00     0.124 S 
ATOM     74  O   UNL A   1      42.612  34.745  39.681  1.00  0.00    -0.237 OA
ATOM     75  O   UNL A   1      42.556  36.457  37.900  1.00  0.00    -0.237 OA
ATOM     76  O   UNL A   1      40.453  35.515  38.774  1.00  0.00    -0.744 OA
ENDBRANCH  72  73
ENDBRANCH  53  67
BRANCH  54  77
ATOM     77  C   UNL A   1      43.341  24.991  28.426  1.00  0.00    -0.014 A 
ATOM     78  C   UNL A   1      42.855  23.676  28.543  1.00  0.00     0.010 A 
ATOM     79  C   UNL A   1      44.070  25.347  27.276  1.00  0.00     0.010 A 
ATOM     80  C   UNL A   1      43.113  22.733  27.543  1.00  0.00     0.020 A 
ATOM     81  C   UNL A   1      44.303  24.416  26.260  1.00  0.00     0.020 A 
ATOM     82  C   UNL A   1      43.837  23.109  26.407  1.00  0.00     0.054 A 
BRANCH  82  83
ATOM     83  S   UNL A   1      44.126  21.881  25.103  1.00  0.00     0.124 S 
ATOM     84  O   UNL A   1      43.095  20.888  25.387  1.00  0.00    -0.237 OA
ATOM     85  O   UNL A   1      43.935  22.662  23.884  1.00  0.00    -0.237 OA
ATOM     86  O   UNL A   1      45.500  21.445  25.344  1.00  0.00    -0.744 OA
ENDBRANCH  82  83
ENDBRANCH  54  77
BRANCH  66  87
ATOM     87  C   UNL A   1      46.899  26.685  34.183  1.00  0.00    -0.014 A 
ATOM     88  C   UNL A   1      46.858  25.549  35.011  1.00  0.00     0.010 A 
ATOM     89  C   UNL A   1      48.142  27.284  33.908  1.00  0.00     0.010 A 
ATOM     90  C   UNL A   1      48.032  25.044  35.581  1.00  0.00     0.020 A 
ATOM     91  C   UNL A   1      49.322  26.766  34.452  1.00  0.00     0.020 A 
ATOM     92  C   UNL A   1      49.256  25.657  35.299  1.00  0.00     0.054 A 
BRANCH  92  93
ATOM     93  S   UNL A   1      50.769  24.964  36.022  1.00  0.00     0.124 S 
ATOM     94  O   UNL A   1      50.939  25.785  37.217  1.00  0.00    -0.237 OA
ATOM     95  O   UNL A   1      50.400  23.571  36.263  1.00  0.00    -0.237 OA
ATOM     96  O   UNL A   1      51.775  25.163  34.981  1.00  0.00    -0.744 OA
ENDBRANCH  92  93
ENDBRANCH  66  87
ENDBRANCH  40  41
ENDBRANCH  32  35
ENDBRANCH  30  31
ENDBRANCH  29  30
ENDBRANCH   1  29
TORSDOF 19
ENDMDL
MODEL 2
REMARK VINA RESULT:     -10.6      5.103     10.084
REMARK SMILES COc1c(C)cc([C@H](C(=O)NCCCNC(=O)c2ccc(-c3c4nc(c(-c5ccc(S(=O)(=O)[O-])cc5)c5ccc([nH]5)c(-c5ccc(S(=O)(=O)[O-])cc5)c5nc(c(-c6ccc(S(=O)(=O)[O-])cc6)c6ccc3[nH]6)C=C5)C=C4)cc2)[N@@H+](C)CCN2CCCCC2=O)cc1C
REMARK SMILES IDX 12 1 11 2 9 3 10 4 8 6 7 7 3 8 4 9 90 10 5 11 6 12 89 13
REMARK SMILES IDX 91 14 2 15 1 16 78 17 79 18 80 20 81 21 82 22 83 23 87 24
REMARK SMILES IDX 84 25 86 26 88 27 85 28 13 29 14 30 15 31 16 32 17 34 18 35
REMARK SMILES IDX 19 36 77 37 20 38 76 39 21 40 22 41 23 42 70 43 24 44 75 45
REMARK SMILES IDX 69 46 71 47 25 48 74 49 68 50 67 51 26 53 56 54 37 55 55 56
REMARK SMILES IDX 38 57 41 58 54 59 72 60 39 61 40 62 53 64 73 65 42 66 27 67
REMARK SMILES IDX 28 68 36 69 29 70 35 71 30 72 31 73 32 74 33 75 34 76 57 77
REMARK SMILES IDX 58 78 66 79 59 80 65 81 60 82 61 83 62 84 63 85 64 86 43 87
REMARK SMILES IDX 44 88 52 89 45 90 51 91 46 92 47 93 48 94 49 95 50 96
REMARK H PARENT 11 5 78 19 15 33 71 52 41 63
REMARK Flexibility Score: inf
ROOT
ATOM      1  C   UNL A   1      37.079  21.421  25.250  1.00  0.00     0.118 C 
ENDROOT
BRANCH   1   2
ATOM      2  N   UNL A   1      36.552  22.041  24.016  1.00  0.00    -0.351 N 
ATOM      3  C   UNL A   1      35.515  22.958  23.792  1.00  0.00     0.283 C 
ATOM      4  O   UNL A   1      35.667  23.718  22.829  1.00  0.00    -0.268 OA
ATOM      5  H   UNL A   1      37.018  21.757  23.196  1.00  0.00     0.163 HD
BRANCH   3   6
ATOM      6  C   UNL A   1      34.298  23.083  24.748  1.00  0.00     0.305 C 
BRANCH   6   7
ATOM      7  C   UNL A   1      33.758  24.415  25.351  1.00  0.00     0.020 A 
ATOM      8  C   UNL A   1      32.029  26.662  25.392  1.00  0.00     0.124 A 
ATOM      9  C   UNL A   1      31.560  25.425  25.834  1.00  0.00    -0.008 A 
ATOM     10  C   UNL A   1      33.391  26.837  25.106  1.00  0.00    -0.008 A 
ATOM     11  C   UNL A   1      30.112  25.167  26.135  1.00  0.00     0.048 C 
ATOM     12  C   UNL A   1      32.455  24.343  25.892  1.00  0.00     0.017 A 
ATOM     13  C   UNL A   1      34.250  25.702  25.097  1.00  0.00     0.017 A 
ATOM     14  C   UNL A   1      33.887  28.167  24.606  1.00  0.00     0.048 C 
BRANCH   8  15
ATOM     15  O   UNL A   1      31.126  27.609  24.978  1.00  0.00    -0.496 OA
ATOM     16  C   UNL A   1      30.671  27.416  23.645  1.00  0.00     0.278 C 
ENDBRANCH   8  15
ENDBRANCH   6   7
BRANCH   6  17
ATOM     17  N   UNL A   1      33.177  22.315  24.205  1.00  0.00    -0.322 N 
ATOM     18  C   UNL A   1      32.692  22.747  22.907  1.00  0.00     0.333 C 
ATOM     19  H   UNL A   1      32.561  22.631  24.954  1.00  0.00     0.348 HD
BRANCH  17  20
ATOM     20  C   UNL A   1      32.780  20.991  24.686  1.00  0.00     0.284 C 
BRANCH  20  21
ATOM     21  C   UNL A   1      32.278  19.760  23.885  1.00  0.00     0.180 C 
BRANCH  21  22
ATOM     22  N   UNL A   1      32.775  18.391  24.149  1.00  0.00    -0.337 N 
ATOM     23  C   UNL A   1      32.528  17.672  25.382  1.00  0.00     0.119 C 
ATOM     24  C   UNL A   1      33.016  17.584  23.040  1.00  0.00     0.222 C 
ATOM     25  C   UNL A   1      33.740  16.834  25.756  1.00  0.00     0.022 C 
ATOM     26  C   UNL A   1      33.896  16.358  23.267  1.00  0.00     0.100 C 
ATOM     27  O   UNL A   1      32.644  17.880  21.905  1.00  0.00    -0.275 OA
ATOM     28  C   UNL A   1      34.026  15.808  24.680  1.00  0.00     0.012 C 
ENDBRANCH  21  22
ENDBRANCH  20  21
ENDBRANCH  17  20
ENDBRANCH   6  17
ENDBRANCH   3   6
ENDBRANCH   1   2
BRANCH   1  29
ATOM     29  C   UNL A   1      38.332  20.497  25.226  1.00  0.00     0.042 C 
BRANCH  29  30
ATOM     30  C   UNL A   1      39.289  20.475  26.430  1.00  0.00     0.118 C 
BRANCH  30  31
ATOM     31  N   UNL A   1      40.464  19.648  26.183  1.00  0.00    -0.352 N 
ATOM     32  C   UNL A   1      41.782  19.943  25.916  1.00  0.00     0.251 C 
ATOM     33  H   UNL A   1      40.276  18.681  26.212  1.00  0.00     0.163 HD
ATOM     34  O   UNL A   1      42.476  19.029  25.465  1.00  0.00    -0.269 OA
BRANCH  32  35
ATOM     35  C   UNL A   1      42.427  21.272  26.142  1.00  0.00     0.039 A 
ATOM     36  C   UNL A   1      42.647  21.673  27.472  1.00  0.00     0.014 A 
ATOM     37  C   UNL A   1      42.665  22.204  25.128  1.00  0.00     0.014 A 
ATOM     38  C   UNL A   1      43.111  22.964  27.779  1.00  0.00     0.010 A 
ATOM     39  C   UNL A   1      43.169  23.488  25.435  1.00  0.00     0.010 A 
ATOM     40  C   UNL A   1      43.392  23.891  26.764  1.00  0.00    -0.014 A 
BRANCH  40  41
ATOM     41  C   UNL A   1      43.916  25.258  27.104  1.00  0.00     0.031 A 
ATOM     42  C   UNL A   1      45.372  25.621  26.900  1.00  0.00     0.074 A 
ATOM     43  C   UNL A   1      43.084  26.192  27.615  1.00  0.00     0.049 A 
ATOM     44  N   UNL A   1      45.981  26.759  27.137  1.00  0.00    -0.248 NA
ATOM     45  C   UNL A   1      46.259  24.570  26.379  1.00  0.00     0.031 C 
ATOM     46  C   UNL A   1      41.663  25.990  27.901  1.00  0.00     0.029 A 
ATOM     47  N   UNL A   1      43.312  27.498  27.991  1.00  0.00    -0.354 N 
ATOM     48  C   UNL A   1      47.321  26.556  26.816  1.00  0.00     0.074 A 
ATOM     49  C   UNL A   1      47.440  25.176  26.395  1.00  0.00     0.031 C 
ATOM     50  C   UNL A   1      41.144  27.128  28.391  1.00  0.00     0.029 A 
ATOM     51  C   UNL A   1      42.197  28.135  28.490  1.00  0.00     0.049 A 
ATOM     52  H   UNL A   1      44.190  27.935  27.911  1.00  0.00     0.167 HD
ATOM     53  C   UNL A   1      48.356  27.434  26.856  1.00  0.00     0.031 A 
ATOM     54  C   UNL A   1      42.030  29.382  28.981  1.00  0.00     0.031 A 
ATOM     55  C   UNL A   1      48.246  28.816  27.252  1.00  0.00     0.049 A 
ATOM     56  C   UNL A   1      43.193  30.338  29.006  1.00  0.00     0.074 A 
ATOM     57  C   UNL A   1      49.232  29.792  27.242  1.00  0.00     0.029 A 
ATOM     58  N   UNL A   1      47.097  29.420  27.734  1.00  0.00    -0.354 N 
ATOM     59  N   UNL A   1      44.428  30.145  28.611  1.00  0.00    -0.248 NA
ATOM     60  C   UNL A   1      42.935  31.688  29.532  1.00  0.00     0.031 C 
ATOM     61  C   UNL A   1      48.693  30.968  27.774  1.00  0.00     0.029 A 
ATOM     62  C   UNL A   1      47.357  30.743  28.057  1.00  0.00     0.049 A 
ATOM     63  H   UNL A   1      46.224  28.975  27.833  1.00  0.00     0.167 HD
ATOM     64  C   UNL A   1      45.086  31.354  28.819  1.00  0.00     0.074 A 
ATOM     65  C   UNL A   1      44.109  32.278  29.352  1.00  0.00     0.031 C 
ATOM     66  C   UNL A   1      46.385  31.665  28.590  1.00  0.00     0.031 A 
BRANCH  53  67
ATOM     67  C   UNL A   1      49.727  26.933  26.468  1.00  0.00    -0.014 A 
ATOM     68  C   UNL A   1      50.568  26.307  27.405  1.00  0.00     0.010 A 
ATOM     69  C   UNL A   1      50.140  27.006  25.123  1.00  0.00     0.010 A 
ATOM     70  C   UNL A   1      51.808  25.793  27.012  1.00  0.00     0.020 A 
ATOM     71  C   UNL A   1      51.368  26.470  24.721  1.00  0.00     0.020 A 
ATOM     72  C   UNL A   1      52.201  25.878  25.673  1.00  0.00     0.054 A 
BRANCH  72  73
ATOM     73  S   UNL A   1      53.795  25.165  25.179  1.00  0.00     0.124 S 
ATOM     74  O   UNL A   1      54.684  25.663  26.230  1.00  0.00    -0.237 OA
ATOM     75  O   UNL A   1      53.527  23.725  25.224  1.00  0.00    -0.237 OA
ATOM     76  O   UNL A   1      54.030  25.710  23.854  1.00  0.00    -0.744 OA
ENDBRANCH  72  73
ENDBRANCH  53  67
BRANCH  54  77
ATOM     77  C   UNL A   1      40.699  29.804  29.505  1.00  0.00    -0.014 A 
ATOM     78  C   UNL A   1      40.517  30.084  30.872  1.00  0.00     0.010 A 
ATOM     79  C   UNL A   1      39.599  29.911  28.635  1.00  0.00     0.010 A 
ATOM     80  C   UNL A   1      39.255  30.438  31.361  1.00  0.00     0.020 A 
ATOM     81  C   UNL A   1      38.343  30.294  29.115  1.00  0.00     0.020 A 
ATOM     82  C   UNL A   1      38.175  30.540  30.478  1.00  0.00     0.054 A 
BRANCH  82  83
ATOM     83  S   UNL A   1      36.555  31.040  31.126  1.00  0.00     0.124 S 
ATOM     84  O   UNL A   1      35.912  29.752  31.362  1.00  0.00    -0.237 OA
ATOM     85  O   UNL A   1      36.912  31.799  32.321  1.00  0.00    -0.237 OA
ATOM     86  O   UNL A   1      35.985  31.837  30.041  1.00  0.00    -0.744 OA
ENDBRANCH  82  83
ENDBRANCH  54  77
BRANCH  66  87
ATOM     87  C   UNL A   1      46.831  33.075  28.886  1.00  0.00    -0.014 A 
ATOM     88  C   UNL A   1      47.370  33.422  30.138  1.00  0.00     0.010 A 
ATOM     89  C   UNL A   1      46.749  34.056  27.882  1.00  0.00     0.010 A 
ATOM     90  C   UNL A   1      47.787  34.734  30.390  1.00  0.00     0.020 A 
ATOM     91  C   UNL A   1      47.191  35.362  28.120  1.00  0.00     0.020 A 
ATOM     92  C   UNL A   1      47.693  35.696  29.380  1.00  0.00     0.054 A 
BRANCH  92  93
ATOM     93  S   UNL A   1      48.272  37.382  29.720  1.00  0.00     0.124 S 
ATOM     94  O   UNL A   1      49.710  37.260  29.499  1.00  0.00    -0.237 OA
ATOM     95  O   UNL A   1      47.548  38.176  28.731  1.00  0.00    -0.237 OA
ATOM     96  O   UNL A   1      47.872  37.613  31.107  1.00  0.00    -0.744 OA
ENDBRANCH  92  93
ENDBRANCH  66  87
ENDBRANCH  40  41
ENDBRANCH  32  35
ENDBRANCH  30  31
ENDBRANCH  29  30
ENDBRANCH   1  29
TORSDOF 19
ENDMDL
MODEL 3
REMARK VINA RESULT:     -10.5      4.932     10.211
REMARK SMILES COc1c(C)cc([C@H](C(=O)NCCCNC(=O)c2ccc(-c3c4nc(c(-c5ccc(S(=O)(=O)[O-])cc5)c5ccc([nH]5)c(-c5ccc(S(=O)(=O)[O-])cc5)c5nc(c(-c6ccc(S(=O)(=O)[O-])cc6)c6ccc3[nH]6)C=C5)C=C4)cc2)[N@@H+](C)CCN2CCCCC2=O)cc1C
REMARK SMILES IDX 12 1 11 2 9 3 10 4 8 6 7 7 3 8 4 9 90 10 5 11 6 12 89 13
REMARK SMILES IDX 91 14 2 15 1 16 78 17 79 18 80 20 81 21 82 22 83 23 87 24
REMARK SMILES IDX 84 25 86 26 88 27 85 28 13 29 14 30 15 31 16 32 17 34 18 35
REMARK SMILES IDX 19 36 77 37 20 38 76 39 21 40 22 41 23 42 70 43 24 44 75 45
REMARK SMILES IDX 69 46 71 47 25 48 74 49 68 50 67 51 26 53 56 54 37 55 55 56
REMARK SMILES IDX 38 57 41 58 54 59 72 60 39 61 40 62 53 64 73 65 42 66 27 67
REMARK SMILES IDX 28 68 36 69 29 70 35 71 30 72 31 73 32 74 33 75 34 76 57 77
REMARK SMILES IDX 58 78 66 79 59 80 65 81 60 82 61 83 62 84 63 85 64 86 43 87
REMARK SMILES IDX 44 88 52 89 45 90 51 91 46 92 47 93 48 94 49 95 50 96
REMARK H PARENT 11 5 78 19 15 33 71 52 41 63
REMARK Flexibility Score: inf
ROOT
ATOM      1  C   UNL A   1      36.966  20.889  24.593  1.00  0.00     0.118 C 
ENDROOT
BRANCH   1   2
ATOM      2  N   UNL A   1      35.767  20.310  25.233  1.00  0.00    -0.351 N 
ATOM      3  C   UNL A   1      34.515  20.854  25.553  1.00  0.00     0.283 C 
ATOM      4  O   UNL A   1      33.563  20.066  25.522  1.00  0.00    -0.268 OA
ATOM      5  H   UNL A   1      35.866  19.362  25.482  1.00  0.00     0.163 HD
BRANCH   3   6
ATOM      6  C   UNL A   1      34.315  22.368  25.831  1.00  0.00     0.305 C 
BRANCH   6   7
ATOM      7  C   UNL A   1      34.499  23.509  24.785  1.00  0.00     0.020 A 
ATOM      8  C   UNL A   1      33.712  25.896  23.473  1.00  0.00     0.124 A 
ATOM      9  C   UNL A   1      34.304  25.967  24.734  1.00  0.00    -0.008 A 
ATOM     10  C   UNL A   1      33.675  24.677  22.781  1.00  0.00    -0.008 A 
ATOM     11  C   UNL A   1      34.356  27.236  25.534  1.00  0.00     0.048 C 
ATOM     12  C   UNL A   1      34.770  24.784  25.331  1.00  0.00     0.017 A 
ATOM     13  C   UNL A   1      34.081  23.487  23.448  1.00  0.00     0.017 A 
ATOM     14  C   UNL A   1      33.012  24.600  21.431  1.00  0.00     0.048 C 
BRANCH   8  15
ATOM     15  O   UNL A   1      32.933  26.940  23.042  1.00  0.00    -0.496 OA
ATOM     16  C   UNL A   1      33.672  27.989  22.432  1.00  0.00     0.278 C 
ENDBRANCH   8  15
ENDBRANCH   6   7
BRANCH   6  17
ATOM     17  N   UNL A   1      33.048  22.566  26.536  1.00  0.00    -0.322 N 
ATOM     18  C   UNL A   1      33.099  22.387  27.976  1.00  0.00     0.333 C 
ATOM     19  H   UNL A   1      32.632  21.757  26.077  1.00  0.00     0.348 HD
BRANCH  17  20
ATOM     20  C   UNL A   1      31.889  23.255  25.966  1.00  0.00     0.284 C 
BRANCH  20  21
ATOM     21  C   UNL A   1      31.040  24.411  26.556  1.00  0.00     0.180 C 
BRANCH  21  22
ATOM     22  N   UNL A   1      30.624  25.578  25.746  1.00  0.00    -0.337 N 
ATOM     23  C   UNL A   1      29.508  25.556  24.822  1.00  0.00     0.119 C 
ATOM     24  C   UNL A   1      30.943  26.838  26.246  1.00  0.00     0.222 C 
ATOM     25  C   UNL A   1      29.821  26.402  23.598  1.00  0.00     0.022 C 
ATOM     26  C   UNL A   1      30.896  27.997  25.255  1.00  0.00     0.100 C 
ATOM     27  O   UNL A   1      31.353  27.017  27.393  1.00  0.00    -0.275 OA
ATOM     28  C   UNL A   1      30.054  27.843  23.997  1.00  0.00     0.012 C 
ENDBRANCH  21  22
ENDBRANCH  20  21
ENDBRANCH  17  20
ENDBRANCH   6  17
ENDBRANCH   3   6
ENDBRANCH   1   2
BRANCH   1  29
ATOM     29  C   UNL A   1      38.372  20.237  24.753  1.00  0.00     0.042 C 
BRANCH  29  30
ATOM     30  C   UNL A   1      38.845  19.773  26.141  1.00  0.00     0.118 C 
BRANCH  30  31
ATOM     31  N   UNL A   1      40.129  19.084  26.081  1.00  0.00    -0.352 N 
ATOM     32  C   UNL A   1      41.433  19.527  26.070  1.00  0.00     0.251 C 
ATOM     33  H   UNL A   1      40.047  18.104  26.039  1.00  0.00     0.163 HD
ATOM     34  O   UNL A   1      42.292  18.715  25.718  1.00  0.00    -0.269 OA
BRANCH  32  35
ATOM     35  C   UNL A   1      41.878  20.899  26.460  1.00  0.00     0.039 A 
ATOM     36  C   UNL A   1      42.093  21.832  25.431  1.00  0.00     0.014 A 
ATOM     37  C   UNL A   1      42.255  21.255  27.758  1.00  0.00     0.014 A 
ATOM     38  C   UNL A   1      42.652  23.095  25.694  1.00  0.00     0.010 A 
ATOM     39  C   UNL A   1      42.780  22.539  28.027  1.00  0.00     0.010 A 
ATOM     40  C   UNL A   1      42.994  23.476  27.000  1.00  0.00    -0.014 A 
BRANCH  40  41
ATOM     41  C   UNL A   1      43.563  24.840  27.272  1.00  0.00     0.031 A 
ATOM     42  C   UNL A   1      45.021  25.156  27.010  1.00  0.00     0.074 A 
ATOM     43  C   UNL A   1      42.773  25.813  27.775  1.00  0.00     0.049 A 
ATOM     44  N   UNL A   1      45.666  26.285  27.185  1.00  0.00    -0.248 NA
ATOM     45  C   UNL A   1      45.863  24.065  26.500  1.00  0.00     0.031 C 
ATOM     46  C   UNL A   1      41.357  25.660  28.112  1.00  0.00     0.029 A 
ATOM     47  N   UNL A   1      43.045  27.125  28.096  1.00  0.00    -0.354 N 
ATOM     48  C   UNL A   1      46.989  26.036  26.831  1.00  0.00     0.074 A 
ATOM     49  C   UNL A   1      47.059  24.638  26.456  1.00  0.00     0.031 C 
ATOM     50  C   UNL A   1      40.883  26.828  28.577  1.00  0.00     0.029 A 
ATOM     51  C   UNL A   1      41.964  27.809  28.606  1.00  0.00     0.049 A 
ATOM     52  H   UNL A   1      43.931  27.535  27.972  1.00  0.00     0.167 HD
ATOM     53  C   UNL A   1      48.047  26.887  26.806  1.00  0.00     0.031 A 
ATOM     54  C   UNL A   1      41.845  29.077  29.056  1.00  0.00     0.031 A 
ATOM     55  C   UNL A   1      47.986  28.284  27.154  1.00  0.00     0.049 A 
ATOM     56  C   UNL A   1      43.033  30.002  29.010  1.00  0.00     0.074 A 
ATOM     57  C   UNL A   1      48.995  29.233  27.077  1.00  0.00     0.029 A 
ATOM     58  N   UNL A   1      46.868  28.936  27.650  1.00  0.00    -0.354 N 
ATOM     59  N   UNL A   1      44.248  29.762  28.583  1.00  0.00    -0.248 NA
ATOM     60  C   UNL A   1      42.826  31.376  29.494  1.00  0.00     0.031 C 
ATOM     61  C   UNL A   1      48.504  30.441  27.583  1.00  0.00     0.029 A 
ATOM     62  C   UNL A   1      47.172  30.262  27.916  1.00  0.00     0.049 A 
ATOM     63  H   UNL A   1      45.988  28.517  27.792  1.00  0.00     0.167 HD
ATOM     64  C   UNL A   1      44.944  30.960  28.726  1.00  0.00     0.074 A 
ATOM     65  C   UNL A   1      44.008  31.928  29.256  1.00  0.00     0.031 C 
ATOM     66  C   UNL A   1      46.242  31.228  28.445  1.00  0.00     0.031 A 
BRANCH  53  67
ATOM     67  C   UNL A   1      49.392  26.336  26.394  1.00  0.00    -0.014 A 
ATOM     68  C   UNL A   1      49.879  26.500  25.085  1.00  0.00     0.010 A 
ATOM     69  C   UNL A   1      50.220  25.728  27.358  1.00  0.00     0.010 A 
ATOM     70  C   UNL A   1      51.153  26.039  24.739  1.00  0.00     0.020 A 
ATOM     71  C   UNL A   1      51.506  25.289  27.022  1.00  0.00     0.020 A 
ATOM     72  C   UNL A   1      51.958  25.436  25.710  1.00  0.00     0.054 A 
BRANCH  72  73
ATOM     73  S   UNL A   1      53.625  24.884  25.248  1.00  0.00     0.124 S 
ATOM     74  O   UNL A   1      53.871  25.662  24.032  1.00  0.00    -0.237 OA
ATOM     75  O   UNL A   1      54.424  25.281  26.411  1.00  0.00    -0.237 OA
ATOM     76  O   UNL A   1      53.481  23.453  25.054  1.00  0.00    -0.744 OA
ENDBRANCH  72  73
ENDBRANCH  53  67
BRANCH  54  77
ATOM     77  C   UNL A   1      40.543  29.553  29.606  1.00  0.00    -0.014 A 
ATOM     78  C   UNL A   1      39.523  30.014  28.754  1.00  0.00     0.010 A 
ATOM     79  C   UNL A   1      40.326  29.565  30.996  1.00  0.00     0.010 A 
ATOM     80  C   UNL A   1      38.322  30.499  29.282  1.00  0.00     0.020 A 
ATOM     81  C   UNL A   1      39.116  30.020  31.527  1.00  0.00     0.020 A 
ATOM     82  C   UNL A   1      38.127  30.499  30.667  1.00  0.00     0.054 A 
BRANCH  82  83
ATOM     83  S   UNL A   1      36.546  31.095  31.330  1.00  0.00     0.124 S 
ATOM     84  O   UNL A   1      36.933  32.360  31.946  1.00  0.00    -0.237 OA
ATOM     85  O   UNL A   1      35.719  31.201  30.131  1.00  0.00    -0.237 OA
ATOM     86  O   UNL A   1      36.147  30.040  32.260  1.00  0.00    -0.744 OA
ENDBRANCH  82  83
ENDBRANCH  54  77
BRANCH  66  87
ATOM     87  C   UNL A   1      46.733  32.635  28.675  1.00  0.00    -0.014 A 
ATOM     88  C   UNL A   1      47.322  33.012  29.896  1.00  0.00     0.010 A 
ATOM     89  C   UNL A   1      46.643  33.582  27.639  1.00  0.00     0.010 A 
ATOM     90  C   UNL A   1      47.780  34.320  30.087  1.00  0.00     0.020 A 
ATOM     91  C   UNL A   1      47.126  34.883  27.816  1.00  0.00     0.020 A 
ATOM     92  C   UNL A   1      47.677  35.248  29.046  1.00  0.00     0.054 A 
BRANCH  92  93
ATOM     93  S   UNL A   1      48.309  36.929  29.306  1.00  0.00     0.124 S 
ATOM     94  O   UNL A   1      47.691  37.293  30.578  1.00  0.00    -0.237 OA
ATOM     95  O   UNL A   1      49.755  36.725  29.346  1.00  0.00    -0.237 OA
ATOM     96  O   UNL A   1      47.823  37.667  28.143  1.00  0.00    -0.744 OA
ENDBRANCH  92  93
ENDBRANCH  66  87
ENDBRANCH  40  41
ENDBRANCH  32  35
ENDBRANCH  30  31
ENDBRANCH  29  30
ENDBRANCH   1  29
TORSDOF 19
ENDMDL
