MODEL 1
REMARK VINA RESULT:      -9.7      0.000      0.000
REMARK SMILES CS(=O)(=O)c1ccc(C(=O)N2C[C@@H](C(=O)NCCCNC(=O)c3ccc(-c4c5nc(c(-c6ccc(S(=O)(=O)[O-])cc6)c6ccc([nH]6)c(-c6ccc(S(=O)(=O)[O-])cc6)c6nc(c(-c7ccc(S(=O)(=O)[O-])cc7)c7ccc4[nH]7)C=C6)C=C5)cc3)[C@H](c3ccncc3)C2)cc1
REMARK SMILES IDX 18 1 17 2 16 3 14 4 15 5 13 7 11 8 12 9 90 10 83 11 9 12
REMARK SMILES IDX 10 13 8 14 5 15 6 16 92 17 7 18 91 19 2 20 1 21 3 22 4 23
REMARK SMILES IDX 84 24 85 25 89 26 86 27 88 28 87 29 19 30 20 31 21 32 22 34
REMARK SMILES IDX 23 35 24 36 82 37 25 38 81 39 26 40 27 41 28 42 75 43 29 44
REMARK SMILES IDX 80 45 74 46 76 47 30 48 79 49 73 50 72 51 31 53 61 54 42 55
REMARK SMILES IDX 60 56 43 57 46 58 59 59 77 60 44 61 45 62 58 64 78 65 47 66
REMARK SMILES IDX 32 67 33 68 41 69 34 70 40 71 35 72 36 73 37 74 38 75 39 76
REMARK SMILES IDX 62 77 63 78 71 79 64 80 70 81 65 82 66 83 67 84 68 85 69 86
REMARK SMILES IDX 48 87 49 88 57 89 50 90 56 91 51 92 52 93 53 94 54 95 55 96
REMARK H PARENT 16 6 20 33 76 52 46 63
REMARK Flexibility Score: inf
ROOT
ATOM      1  C   UNL A   1      41.751  22.217  27.839  1.00  0.00     0.042 C 
ENDROOT
BRANCH   1   2
ATOM      2  C   UNL A   1      43.145  22.721  28.190  1.00  0.00     0.117 C 
BRANCH   2   3
ATOM      3  N   UNL A   1      44.151  22.218  27.267  1.00  0.00    -0.356 N 
ATOM      4  C   UNL A   1      45.035  22.884  26.474  1.00  0.00     0.225 C 
ATOM      5  O   UNL A   1      45.807  22.224  25.779  1.00  0.00    -0.275 OA
ATOM      6  H   UNL A   1      44.200  21.237  27.205  1.00  0.00     0.163 HD
BRANCH   4   7
ATOM      7  C   UNL A   1      45.049  24.392  26.470  1.00  0.00     0.107 C 
ATOM      8  N   UNL A   1      44.297  26.269  25.386  1.00  0.00    -0.337 N 
ATOM      9  C   UNL A   1      43.868  24.918  25.677  1.00  0.00     0.134 C 
ATOM     10  C   UNL A   1      45.718  26.267  25.069  1.00  0.00     0.129 C 
ATOM     11  C   UNL A   1      46.290  24.995  25.749  1.00  0.00     0.053 C 
BRANCH   8  12
ATOM     12  C   UNL A   1      43.591  27.454  25.415  1.00  0.00     0.253 C 
ATOM     13  O   UNL A   1      42.698  27.688  24.601  1.00  0.00    -0.269 OA
BRANCH  12  14
ATOM     14  C   UNL A   1      43.996  28.552  26.342  1.00  0.00     0.040 A 
ATOM     15  C   UNL A   1      44.870  30.859  27.675  1.00  0.00     0.067 A 
ATOM     16  C   UNL A   1      43.572  30.799  27.152  1.00  0.00     0.021 A 
ATOM     17  C   UNL A   1      45.724  29.763  27.567  1.00  0.00     0.021 A 
ATOM     18  C   UNL A   1      43.138  29.648  26.490  1.00  0.00     0.015 A 
ATOM     19  C   UNL A   1      45.292  28.624  26.878  1.00  0.00     0.015 A 
BRANCH  15  20
ATOM     20  S   UNL A   1      45.396  32.412  28.368  1.00  0.00     0.175 S 
ATOM     21  C   UNL A   1      45.941  33.438  27.031  1.00  0.00     0.163 C 
ATOM     22  O   UNL A   1      46.542  32.102  29.199  1.00  0.00    -0.224 OA
ATOM     23  O   UNL A   1      44.199  33.015  28.920  1.00  0.00    -0.224 OA
ENDBRANCH  15  20
ENDBRANCH  12  14
ENDBRANCH   8  12
BRANCH  11  24
ATOM     24  C   UNL A   1      47.448  25.147  26.734  1.00  0.00    -0.039 A 
ATOM     25  C   UNL A   1      48.755  25.255  26.230  1.00  0.00     0.024 A 
ATOM     26  C   UNL A   1      47.304  25.172  28.124  1.00  0.00     0.024 A 
ATOM     27  C   UNL A   1      49.829  25.334  27.107  1.00  0.00     0.111 A 
ATOM     28  C   UNL A   1      48.439  25.270  28.923  1.00  0.00     0.111 A 
ATOM     29  N   UNL A   1      49.698  25.340  28.447  1.00  0.00    -0.265 NA
ENDBRANCH  11  24
ENDBRANCH   4   7
ENDBRANCH   2   3
ENDBRANCH   1   2
BRANCH   1  30
ATOM     30  C   UNL A   1      41.514  22.044  26.343  1.00  0.00     0.118 C 
BRANCH  30  31
ATOM     31  N   UNL A   1      40.100  22.018  25.999  1.00  0.00    -0.352 N 
ATOM     32  C   UNL A   1      39.102  22.915  26.291  1.00  0.00     0.251 C 
ATOM     33  H   UNL A   1      39.814  21.236  25.474  1.00  0.00     0.163 HD
ATOM     34  O   UNL A   1      37.935  22.610  26.061  1.00  0.00    -0.269 OA
BRANCH  32  35
ATOM     35  C   UNL A   1      39.423  24.227  26.896  1.00  0.00     0.039 A 
ATOM     36  C   UNL A   1      39.011  24.482  28.207  1.00  0.00     0.014 A 
ATOM     37  C   UNL A   1      40.105  25.210  26.174  1.00  0.00     0.014 A 
ATOM     38  C   UNL A   1      39.343  25.695  28.815  1.00  0.00     0.010 A 
ATOM     39  C   UNL A   1      40.497  26.387  26.804  1.00  0.00     0.010 A 
ATOM     40  C   UNL A   1      40.120  26.643  28.131  1.00  0.00    -0.014 A 
BRANCH  40  41
ATOM     41  C   UNL A   1      40.556  27.902  28.786  1.00  0.00     0.031 A 
ATOM     42  C   UNL A   1      41.922  27.999  29.410  1.00  0.00     0.074 A 
ATOM     43  C   UNL A   1      39.695  28.933  28.887  1.00  0.00     0.049 A 
ATOM     44  N   UNL A   1      42.447  28.983  30.094  1.00  0.00    -0.248 NA
ATOM     45  C   UNL A   1      42.803  26.828  29.271  1.00  0.00     0.031 C 
ATOM     46  C   UNL A   1      38.326  28.949  28.365  1.00  0.00     0.029 A 
ATOM     47  N   UNL A   1      39.838  30.165  29.475  1.00  0.00    -0.354 N 
ATOM     48  C   UNL A   1      43.705  28.543  30.488  1.00  0.00     0.074 A 
ATOM     49  C   UNL A   1      43.850  27.188  29.998  1.00  0.00     0.031 C 
ATOM     50  C   UNL A   1      37.763  30.136  28.640  1.00  0.00     0.029 A 
ATOM     51  C   UNL A   1      38.716  30.953  29.388  1.00  0.00     0.049 A 
ATOM     52  H   UNL A   1      40.668  30.455  29.919  1.00  0.00     0.167 HD
ATOM     53  C   UNL A   1      44.659  29.210  31.181  1.00  0.00     0.031 A 
ATOM     54  C   UNL A   1      38.474  32.191  29.861  1.00  0.00     0.031 A 
ATOM     55  C   UNL A   1      44.523  30.564  31.645  1.00  0.00     0.049 A 
ATOM     56  C   UNL A   1      39.555  32.919  30.607  1.00  0.00     0.074 A 
ATOM     57  C   UNL A   1      45.461  31.347  32.297  1.00  0.00     0.029 A 
ATOM     58  N   UNL A   1      43.382  31.338  31.507  1.00  0.00    -0.354 N 
ATOM     59  N   UNL A   1      40.761  32.507  30.914  1.00  0.00    -0.248 NA
ATOM     60  C   UNL A   1      39.248  34.283  31.056  1.00  0.00     0.031 C 
ATOM     61  C   UNL A   1      44.872  32.582  32.589  1.00  0.00     0.029 A 
ATOM     62  C   UNL A   1      43.584  32.584  32.076  1.00  0.00     0.049 A 
ATOM     63  H   UNL A   1      42.550  31.045  31.068  1.00  0.00     0.167 HD
ATOM     64  C   UNL A   1      41.365  33.570  31.576  1.00  0.00     0.074 A 
ATOM     65  C   UNL A   1      40.397  34.646  31.611  1.00  0.00     0.031 C 
ATOM     66  C   UNL A   1      42.611  33.645  32.105  1.00  0.00     0.031 A 
BRANCH  53  67
ATOM     67  C   UNL A   1      45.939  28.476  31.481  1.00  0.00    -0.014 A 
ATOM     68  C   UNL A   1      45.996  27.501  32.494  1.00  0.00     0.010 A 
ATOM     69  C   UNL A   1      47.089  28.737  30.714  1.00  0.00     0.010 A 
ATOM     70  C   UNL A   1      47.192  26.830  32.761  1.00  0.00     0.020 A 
ATOM     71  C   UNL A   1      48.281  28.049  30.963  1.00  0.00     0.020 A 
ATOM     72  C   UNL A   1      48.328  27.112  31.998  1.00  0.00     0.054 A 
BRANCH  72  73
ATOM     73  S   UNL A   1      49.863  26.213  32.353  1.00  0.00     0.124 S 
ATOM     74  O   UNL A   1      50.747  26.700  31.297  1.00  0.00    -0.237 OA
ATOM     75  O   UNL A   1      50.193  26.659  33.704  1.00  0.00    -0.237 OA
ATOM     76  O   UNL A   1      49.475  24.809  32.242  1.00  0.00    -0.744 OA
ENDBRANCH  72  73
ENDBRANCH  53  67
BRANCH  54  77
ATOM     77  C   UNL A   1      37.151  32.825  29.618  1.00  0.00    -0.014 A 
ATOM     78  C   UNL A   1      36.194  32.886  30.645  1.00  0.00     0.010 A 
ATOM     79  C   UNL A   1      36.854  33.398  28.368  1.00  0.00     0.010 A 
ATOM     80  C   UNL A   1      34.960  33.502  30.426  1.00  0.00     0.020 A 
ATOM     81  C   UNL A   1      35.630  34.035  28.152  1.00  0.00     0.020 A 
ATOM     82  C   UNL A   1      34.687  34.077  29.181  1.00  0.00     0.054 A 
BRANCH  82  83
ATOM     83  S   UNL A   1      33.107  34.937  28.943  1.00  0.00     0.124 S 
ATOM     84  O   UNL A   1      32.547  34.922  30.290  1.00  0.00    -0.237 OA
ATOM     85  O   UNL A   1      33.531  36.244  28.447  1.00  0.00    -0.237 OA
ATOM     86  O   UNL A   1      32.414  34.105  27.962  1.00  0.00    -0.744 OA
ENDBRANCH  82  83
ENDBRANCH  54  77
BRANCH  66  87
ATOM     87  C   UNL A   1      43.011  34.945  32.746  1.00  0.00    -0.014 A 
ATOM     88  C   UNL A   1      43.717  35.924  32.026  1.00  0.00     0.010 A 
ATOM     89  C   UNL A   1      42.625  35.212  34.073  1.00  0.00     0.010 A 
ATOM     90  C   UNL A   1      44.056  37.138  32.630  1.00  0.00     0.020 A 
ATOM     91  C   UNL A   1      42.941  36.434  34.672  1.00  0.00     0.020 A 
ATOM     92  C   UNL A   1      43.667  37.384  33.950  1.00  0.00     0.054 A 
BRANCH  92  93
ATOM     93  S   UNL A   1      44.076  38.984  34.700  1.00  0.00     0.124 S 
ATOM     94  O   UNL A   1      42.998  39.836  34.204  1.00  0.00    -0.237 OA
ATOM     95  O   UNL A   1      44.037  38.690  36.129  1.00  0.00    -0.237 OA
ATOM     96  O   UNL A   1      45.403  39.286  34.169  1.00  0.00    -0.744 OA
ENDBRANCH  92  93
ENDBRANCH  66  87
ENDBRANCH  40  41
ENDBRANCH  32  35
ENDBRANCH  30  31
ENDBRANCH   1  30
TORSDOF 17
ENDMDL
MODEL 2
REMARK VINA RESULT:      -8.9      5.172     11.855
REMARK SMILES CS(=O)(=O)c1ccc(C(=O)N2C[C@@H](C(=O)NCCCNC(=O)c3ccc(-c4c5nc(c(-c6ccc(S(=O)(=O)[O-])cc6)c6ccc([nH]6)c(-c6ccc(S(=O)(=O)[O-])cc6)c6nc(c(-c7ccc(S(=O)(=O)[O-])cc7)c7ccc4[nH]7)C=C6)C=C5)cc3)[C@H](c3ccncc3)C2)cc1
REMARK SMILES IDX 18 1 17 2 16 3 14 4 15 5 13 7 11 8 12 9 90 10 83 11 9 12
REMARK SMILES IDX 10 13 8 14 5 15 6 16 92 17 7 18 91 19 2 20 1 21 3 22 4 23
REMARK SMILES IDX 84 24 85 25 89 26 86 27 88 28 87 29 19 30 20 31 21 32 22 34
REMARK SMILES IDX 23 35 24 36 82 37 25 38 81 39 26 40 27 41 28 42 75 43 29 44
REMARK SMILES IDX 80 45 74 46 76 47 30 48 79 49 73 50 72 51 31 53 61 54 42 55
REMARK SMILES IDX 60 56 43 57 46 58 59 59 77 60 44 61 45 62 58 64 78 65 47 66
REMARK SMILES IDX 32 67 33 68 41 69 34 70 40 71 35 72 36 73 37 74 38 75 39 76
REMARK SMILES IDX 62 77 63 78 71 79 64 80 70 81 65 82 66 83 67 84 68 85 69 86
REMARK SMILES IDX 48 87 49 88 57 89 50 90 56 91 51 92 52 93 53 94 54 95 55 96
REMARK H PARENT 16 6 20 33 76 52 46 63
REMARK Flexibility Score: inf
ROOT
ATOM      1  C   UNL A   1      38.220  21.731  25.181  1.00  0.00     0.042 C 
ENDROOT
BRANCH   1   2
ATOM      2  C   UNL A   1      36.998  20.830  25.055  1.00  0.00     0.117 C 
BRANCH   2   3
ATOM      3  N   UNL A   1      36.045  21.056  26.131  1.00  0.00    -0.356 N 
ATOM      4  C   UNL A   1      34.744  21.452  26.089  1.00  0.00     0.225 C 
ATOM      5  O   UNL A   1      34.133  21.561  27.153  1.00  0.00    -0.275 OA
ATOM      6  H   UNL A   1      36.399  20.896  27.035  1.00  0.00     0.163 HD
BRANCH   4   7
ATOM      7  C   UNL A   1      34.089  21.740  24.762  1.00  0.00     0.107 C 
ATOM      8  N   UNL A   1      32.779  23.225  23.603  1.00  0.00    -0.337 N 
ATOM      9  C   UNL A   1      33.779  23.221  24.650  1.00  0.00     0.134 C 
ATOM     10  C   UNL A   1      31.888  22.088  23.780  1.00  0.00     0.129 C 
ATOM     11  C   UNL A   1      32.706  21.048  24.592  1.00  0.00     0.053 C 
BRANCH   8  12
ATOM     12  C   UNL A   1      32.615  24.078  22.530  1.00  0.00     0.253 C 
ATOM     13  O   UNL A   1      33.331  23.997  21.532  1.00  0.00    -0.269 OA
BRANCH  12  14
ATOM     14  C   UNL A   1      31.662  25.224  22.616  1.00  0.00     0.040 A 
ATOM     15  C   UNL A   1      30.252  27.623  22.960  1.00  0.00     0.067 A 
ATOM     16  C   UNL A   1      31.056  27.437  21.827  1.00  0.00     0.021 A 
ATOM     17  C   UNL A   1      30.120  26.608  23.905  1.00  0.00     0.021 A 
ATOM     18  C   UNL A   1      31.755  26.240  21.657  1.00  0.00     0.015 A 
ATOM     19  C   UNL A   1      30.847  25.422  23.741  1.00  0.00     0.015 A 
BRANCH  15  20
ATOM     20  S   UNL A   1      29.516  29.229  23.178  1.00  0.00     0.175 S 
ATOM     21  C   UNL A   1      29.754  30.136  21.675  1.00  0.00     0.163 C 
ATOM     22  O   UNL A   1      30.283  29.874  24.224  1.00  0.00    -0.224 OA
ATOM     23  O   UNL A   1      28.093  28.986  23.320  1.00  0.00    -0.224 OA
ENDBRANCH  15  20
ENDBRANCH  12  14
ENDBRANCH   8  12
BRANCH  11  24
ATOM     24  C   UNL A   1      32.888  19.645  24.015  1.00  0.00    -0.039 A 
ATOM     25  C   UNL A   1      33.770  18.759  24.657  1.00  0.00     0.024 A 
ATOM     26  C   UNL A   1      32.243  19.173  22.869  1.00  0.00     0.024 A 
ATOM     27  C   UNL A   1      33.997  17.500  24.118  1.00  0.00     0.111 A 
ATOM     28  C   UNL A   1      32.523  17.888  22.413  1.00  0.00     0.111 A 
ATOM     29  N   UNL A   1      33.394  17.046  23.004  1.00  0.00    -0.265 NA
ENDBRANCH  11  24
ENDBRANCH   4   7
ENDBRANCH   2   3
ENDBRANCH   1   2
BRANCH   1  30
ATOM     30  C   UNL A   1      39.123  21.387  26.361  1.00  0.00     0.118 C 
BRANCH  30  31
ATOM     31  N   UNL A   1      40.048  20.303  26.060  1.00  0.00    -0.352 N 
ATOM     32  C   UNL A   1      41.418  20.306  25.978  1.00  0.00     0.251 C 
ATOM     33  H   UNL A   1      39.624  19.431  25.889  1.00  0.00     0.163 HD
ATOM     34  O   UNL A   1      41.995  19.320  25.529  1.00  0.00    -0.269 OA
BRANCH  32  35
ATOM     35  C   UNL A   1      42.195  21.492  26.404  1.00  0.00     0.039 A 
ATOM     36  C   UNL A   1      42.495  22.475  25.456  1.00  0.00     0.014 A 
ATOM     37  C   UNL A   1      42.645  21.628  27.720  1.00  0.00     0.014 A 
ATOM     38  C   UNL A   1      43.186  23.625  25.846  1.00  0.00     0.010 A 
ATOM     39  C   UNL A   1      43.269  22.806  28.121  1.00  0.00     0.010 A 
ATOM     40  C   UNL A   1      43.547  23.817  27.189  1.00  0.00    -0.014 A 
BRANCH  40  41
ATOM     41  C   UNL A   1      44.206  25.067  27.641  1.00  0.00     0.031 A 
ATOM     42  C   UNL A   1      43.407  26.141  28.329  1.00  0.00     0.074 A 
ATOM     43  C   UNL A   1      45.509  25.271  27.364  1.00  0.00     0.049 A 
ATOM     44  N   UNL A   1      43.790  27.329  28.721  1.00  0.00    -0.248 NA
ATOM     45  C   UNL A   1      41.986  25.853  28.586  1.00  0.00     0.031 C 
ATOM     46  C   UNL A   1      46.384  24.329  26.662  1.00  0.00     0.029 A 
ATOM     47  N   UNL A   1      46.323  26.344  27.629  1.00  0.00    -0.354 N 
ATOM     48  C   UNL A   1      42.656  27.939  29.245  1.00  0.00     0.074 A 
ATOM     49  C   UNL A   1      41.563  27.003  29.088  1.00  0.00     0.031 C 
ATOM     50  C   UNL A   1      47.615  24.857  26.569  1.00  0.00     0.029 A 
ATOM     51  C   UNL A   1      47.610  26.187  27.171  1.00  0.00     0.049 A 
ATOM     52  H   UNL A   1      46.014  27.150  28.102  1.00  0.00     0.167 HD
ATOM     53  C   UNL A   1      42.538  29.160  29.820  1.00  0.00     0.031 A 
ATOM     54  C   UNL A   1      48.666  27.021  27.221  1.00  0.00     0.031 A 
ATOM     55  C   UNL A   1      43.630  30.079  29.998  1.00  0.00     0.049 A 
ATOM     56  C   UNL A   1      48.517  28.361  27.883  1.00  0.00     0.074 A 
ATOM     57  C   UNL A   1      43.622  31.311  30.629  1.00  0.00     0.029 A 
ATOM     58  N   UNL A   1      44.924  29.868  29.549  1.00  0.00    -0.354 N 
ATOM     59  N   UNL A   1      47.450  28.893  28.428  1.00  0.00    -0.248 NA
ATOM     60  C   UNL A   1      49.716  29.206  27.949  1.00  0.00     0.031 C 
ATOM     61  C   UNL A   1      44.904  31.863  30.526  1.00  0.00     0.029 A 
ATOM     62  C   UNL A   1      45.720  30.953  29.872  1.00  0.00     0.049 A 
ATOM     63  H   UNL A   1      45.232  29.064  29.070  1.00  0.00     0.167 HD
ATOM     64  C   UNL A   1      47.855  30.128  28.922  1.00  0.00     0.074 A 
ATOM     65  C   UNL A   1      49.266  30.257  28.622  1.00  0.00     0.031 C 
ATOM     66  C   UNL A   1      47.122  31.069  29.566  1.00  0.00     0.031 A 
BRANCH  53  67
ATOM     67  C   UNL A   1      41.172  29.573  30.296  1.00  0.00    -0.014 A 
ATOM     68  C   UNL A   1      40.770  29.354  31.627  1.00  0.00     0.010 A 
ATOM     69  C   UNL A   1      40.292  30.226  29.413  1.00  0.00     0.010 A 
ATOM     70  C   UNL A   1      39.497  29.742  32.053  1.00  0.00     0.020 A 
ATOM     71  C   UNL A   1      39.027  30.638  29.844  1.00  0.00     0.020 A 
ATOM     72  C   UNL A   1      38.632  30.377  31.158  1.00  0.00     0.054 A 
BRANCH  72  73
ATOM     73  S   UNL A   1      36.993  30.888  31.744  1.00  0.00     0.124 S 
ATOM     74  O   UNL A   1      36.456  29.633  32.263  1.00  0.00    -0.237 OA
ATOM     75  O   UNL A   1      37.311  31.899  32.749  1.00  0.00    -0.237 OA
ATOM     76  O   UNL A   1      36.338  31.395  30.541  1.00  0.00    -0.744 OA
ENDBRANCH  72  73
ENDBRANCH  53  67
BRANCH  54  77
ATOM     77  C   UNL A   1      49.968  26.595  26.642  1.00  0.00    -0.014 A 
ATOM     78  C   UNL A   1      50.282  26.893  25.305  1.00  0.00     0.010 A 
ATOM     79  C   UNL A   1      50.912  25.914  27.433  1.00  0.00     0.010 A 
ATOM     80  C   UNL A   1      51.514  26.513  24.766  1.00  0.00     0.020 A 
ATOM     81  C   UNL A   1      52.153  25.554  26.905  1.00  0.00     0.020 A 
ATOM     82  C   UNL A   1      52.443  25.849  25.571  1.00  0.00     0.054 A 
BRANCH  82  83
ATOM     83  S   UNL A   1      54.065  25.433  24.872  1.00  0.00     0.124 S 
ATOM     84  O   UNL A   1      54.976  26.061  25.824  1.00  0.00    -0.237 OA
ATOM     85  O   UNL A   1      54.047  23.972  24.881  1.00  0.00    -0.237 OA
ATOM     86  O   UNL A   1      54.026  26.039  23.543  1.00  0.00    -0.744 OA
ENDBRANCH  82  83
ENDBRANCH  54  77
BRANCH  66  87
ATOM     87  C   UNL A   1      47.838  32.312  30.016  1.00  0.00    -0.014 A 
ATOM     88  C   UNL A   1      48.458  32.379  31.276  1.00  0.00     0.010 A 
ATOM     89  C   UNL A   1      47.937  33.410  29.141  1.00  0.00     0.010 A 
ATOM     90  C   UNL A   1      49.143  33.534  31.665  1.00  0.00     0.020 A 
ATOM     91  C   UNL A   1      48.640  34.557  29.518  1.00  0.00     0.020 A 
ATOM     92  C   UNL A   1      49.228  34.616  30.784  1.00  0.00     0.054 A 
BRANCH  92  93
ATOM     93  S   UNL A   1      50.160  36.087  31.291  1.00  0.00     0.124 S 
ATOM     94  O   UNL A   1      50.918  36.397  30.082  1.00  0.00    -0.237 OA
ATOM     95  O   UNL A   1      49.105  37.036  31.632  1.00  0.00    -0.237 OA
ATOM     96  O   UNL A   1      50.957  35.618  32.423  1.00  0.00    -0.744 OA
ENDBRANCH  92  93
ENDBRANCH  66  87
ENDBRANCH  40  41
ENDBRANCH  32  35
ENDBRANCH  30  31
ENDBRANCH   1  30
TORSDOF 17
ENDMDL
MODEL 3
REMARK VINA RESULT:      -8.9      5.153      9.315
REMARK SMILES CS(=O)(=O)c1ccc(C(=O)N2C[C@@H](C(=O)NCCCNC(=O)c3ccc(-c4c5nc(c(-c6ccc(S(=O)(=O)[O-])cc6)c6ccc([nH]6)c(-c6ccc(S(=O)(=O)[O-])cc6)c6nc(c(-c7ccc(S(=O)(=O)[O-])cc7)c7ccc4[nH]7)C=C6)C=C5)cc3)[C@H](c3ccncc3)C2)cc1
REMARK SMILES IDX 18 1 17 2 16 3 14 4 15 5 13 7 11 8 12 9 90 10 83 11 9 12
REMARK SMILES IDX 10 13 8 14 5 15 6 16 92 17 7 18 91 19 2 20 1 21 3 22 4 23
REMARK SMILES IDX 84 24 85 25 89 26 86 27 88 28 87 29 19 30 20 31 21 32 22 34
REMARK SMILES IDX 23 35 24 36 82 37 25 38 81 39 26 40 27 41 28 42 75 43 29 44
REMARK SMILES IDX 80 45 74 46 76 47 30 48 79 49 73 50 72 51 31 53 61 54 42 55
REMARK SMILES IDX 60 56 43 57 46 58 59 59 77 60 44 61 45 62 58 64 78 65 47 66
REMARK SMILES IDX 32 67 33 68 41 69 34 70 40 71 35 72 36 73 37 74 38 75 39 76
REMARK SMILES IDX 62 77 63 78 71 79 64 80 70 81 65 82 66 83 67 84 68 85 69 86
REMARK SMILES IDX 48 87 49 88 57 89 50 90 56 91 51 92 52 93 53 94 54 95 55 96
REMARK H PARENT 16 6 20 33 76 52 46 63
REMARK Flexibility Score: inf
ROOT
ATOM      1  C   UNL A   1      38.241  21.858  25.243  1.00  0.00     0.042 C 
ENDROOT
BRANCH   1   2
ATOM      2  C   UNL A   1      37.029  20.947  25.103  1.00  0.00     0.117 C 
BRANCH   2   3
ATOM      3  N   UNL A   1      36.073  21.148  26.181  1.00  0.00    -0.356 N 
ATOM      4  C   UNL A   1      34.772  21.547  26.144  1.00  0.00     0.225 C 
ATOM      5  O   UNL A   1      34.158  21.631  27.208  1.00  0.00    -0.275 OA
ATOM      6  H   UNL A   1      36.423  20.967  27.082  1.00  0.00     0.163 HD
BRANCH   4   7
ATOM      7  C   UNL A   1      34.122  21.867  24.822  1.00  0.00     0.107 C 
ATOM      8  N   UNL A   1      32.803  23.372  23.699  1.00  0.00    -0.337 N 
ATOM      9  C   UNL A   1      33.797  23.347  24.751  1.00  0.00     0.134 C 
ATOM     10  C   UNL A   1      31.923  22.221  23.838  1.00  0.00     0.129 C 
ATOM     11  C   UNL A   1      32.747  21.166  24.624  1.00  0.00     0.053 C 
BRANCH   8  12
ATOM     12  C   UNL A   1      32.636  24.254  22.651  1.00  0.00     0.253 C 
ATOM     13  O   UNL A   1      33.201  24.080  21.571  1.00  0.00    -0.269 OA
BRANCH  12  14
ATOM     14  C   UNL A   1      31.887  25.529  22.850  1.00  0.00     0.040 A 
ATOM     15  C   UNL A   1      30.242  27.800  22.814  1.00  0.00     0.067 A 
ATOM     16  C   UNL A   1      29.760  26.592  23.334  1.00  0.00     0.021 A 
ATOM     17  C   UNL A   1      31.550  27.892  22.343  1.00  0.00     0.021 A 
ATOM     18  C   UNL A   1      30.581  25.462  23.353  1.00  0.00     0.015 A 
ATOM     19  C   UNL A   1      32.358  26.749  22.339  1.00  0.00     0.015 A 
BRANCH  15  20
ATOM     20  S   UNL A   1      29.087  29.148  22.686  1.00  0.00     0.175 S 
ATOM     21  C   UNL A   1      29.632  30.426  23.785  1.00  0.00     0.163 C 
ATOM     22  O   UNL A   1      27.826  28.633  23.180  1.00  0.00    -0.224 OA
ATOM     23  O   UNL A   1      29.225  29.649  21.333  1.00  0.00    -0.224 OA
ENDBRANCH  15  20
ENDBRANCH  12  14
ENDBRANCH   8  12
BRANCH  11  24
ATOM     24  C   UNL A   1      32.946  19.782  24.007  1.00  0.00    -0.039 A 
ATOM     25  C   UNL A   1      32.233  19.451  22.842  1.00  0.00     0.024 A 
ATOM     26  C   UNL A   1      33.787  18.798  24.532  1.00  0.00     0.024 A 
ATOM     27  C   UNL A   1      32.353  18.180  22.297  1.00  0.00     0.111 A 
ATOM     28  C   UNL A   1      33.854  17.557  23.907  1.00  0.00     0.111 A 
ATOM     29  N   UNL A   1      33.147  17.221  22.808  1.00  0.00    -0.265 NA
ENDBRANCH  11  24
ENDBRANCH   4   7
ENDBRANCH   2   3
ENDBRANCH   1   2
BRANCH   1  30
ATOM     30  C   UNL A   1      39.140  21.514  26.426  1.00  0.00     0.118 C 
BRANCH  30  31
ATOM     31  N   UNL A   1      40.110  20.475  26.109  1.00  0.00    -0.352 N 
ATOM     32  C   UNL A   1      41.476  20.546  25.992  1.00  0.00     0.251 C 
ATOM     33  H   UNL A   1      39.726  19.582  25.954  1.00  0.00     0.163 HD
ATOM     34  O   UNL A   1      42.090  19.586  25.535  1.00  0.00    -0.269 OA
BRANCH  32  35
ATOM     35  C   UNL A   1      42.203  21.771  26.392  1.00  0.00     0.039 A 
ATOM     36  C   UNL A   1      42.484  22.734  25.418  1.00  0.00     0.014 A 
ATOM     37  C   UNL A   1      42.626  21.965  27.710  1.00  0.00     0.014 A 
ATOM     38  C   UNL A   1      43.127  23.920  25.781  1.00  0.00     0.010 A 
ATOM     39  C   UNL A   1      43.201  23.177  28.083  1.00  0.00     0.010 A 
ATOM     40  C   UNL A   1      43.459  24.167  27.123  1.00  0.00    -0.014 A 
BRANCH  40  41
ATOM     41  C   UNL A   1      44.066  25.454  27.545  1.00  0.00     0.031 A 
ATOM     42  C   UNL A   1      45.536  25.703  27.341  1.00  0.00     0.074 A 
ATOM     43  C   UNL A   1      43.309  26.369  28.182  1.00  0.00     0.049 A 
ATOM     44  N   UNL A   1      46.257  26.729  27.717  1.00  0.00    -0.248 NA
ATOM     45  C   UNL A   1      46.301  24.654  26.649  1.00  0.00     0.031 C 
ATOM     46  C   UNL A   1      41.882  26.229  28.483  1.00  0.00     0.029 A 
ATOM     47  N   UNL A   1      43.638  27.595  28.705  1.00  0.00    -0.354 N 
ATOM     48  C   UNL A   1      47.560  26.437  27.332  1.00  0.00     0.074 A 
ATOM     49  C   UNL A   1      47.537  25.123  26.726  1.00  0.00     0.031 C 
ATOM     50  C   UNL A   1      41.456  27.331  29.119  1.00  0.00     0.029 A 
ATOM     51  C   UNL A   1      42.583  28.241  29.303  1.00  0.00     0.049 A 
ATOM     52  H   UNL A   1      44.545  27.975  28.655  1.00  0.00     0.167 HD
ATOM     53  C   UNL A   1      48.673  27.200  27.457  1.00  0.00     0.031 A 
ATOM     54  C   UNL A   1      42.527  29.428  29.937  1.00  0.00     0.031 A 
ATOM     55  C   UNL A   1      48.690  28.517  28.036  1.00  0.00     0.049 A 
ATOM     56  C   UNL A   1      43.769  30.267  30.043  1.00  0.00     0.074 A 
ATOM     57  C   UNL A   1      49.756  29.392  28.146  1.00  0.00     0.029 A 
ATOM     58  N   UNL A   1      47.593  29.147  28.602  1.00  0.00    -0.354 N 
ATOM     59  N   UNL A   1      44.980  29.998  29.616  1.00  0.00    -0.248 NA
ATOM     60  C   UNL A   1      43.635  31.572  30.703  1.00  0.00     0.031 C 
ATOM     61  C   UNL A   1      49.312  30.539  28.814  1.00  0.00     0.029 A 
ATOM     62  C   UNL A   1      47.959  30.395  29.077  1.00  0.00     0.049 A 
ATOM     63  H   UNL A   1      46.687  28.765  28.656  1.00  0.00     0.167 HD
ATOM     64  C   UNL A   1      45.748  31.112  29.937  1.00  0.00     0.074 A 
ATOM     65  C   UNL A   1      44.862  32.060  30.581  1.00  0.00     0.031 C 
ATOM     66  C   UNL A   1      47.068  31.327  29.717  1.00  0.00     0.031 A 
BRANCH  53  67
ATOM     67  C   UNL A   1      49.969  26.623  26.956  1.00  0.00    -0.014 A 
ATOM     68  C   UNL A   1      50.881  26.013  27.838  1.00  0.00     0.010 A 
ATOM     69  C   UNL A   1      50.263  26.654  25.581  1.00  0.00     0.010 A 
ATOM     70  C   UNL A   1      52.081  25.483  27.358  1.00  0.00     0.020 A 
ATOM     71  C   UNL A   1      51.452  26.102  25.094  1.00  0.00     0.020 A 
ATOM     72  C   UNL A   1      52.362  25.536  25.990  1.00  0.00     0.054 A 
BRANCH  72  73
ATOM     73  S   UNL A   1      53.918  24.823  25.391  1.00  0.00     0.124 S 
ATOM     74  O   UNL A   1      54.234  25.697  24.264  1.00  0.00    -0.237 OA
ATOM     75  O   UNL A   1      54.799  24.951  26.550  1.00  0.00    -0.237 OA
ATOM     76  O   UNL A   1      53.558  23.453  25.035  1.00  0.00    -0.744 OA
ENDBRANCH  72  73
ENDBRANCH  53  67
BRANCH  54  77
ATOM     77  C   UNL A   1      41.235  29.901  30.500  1.00  0.00    -0.014 A 
ATOM     78  C   UNL A   1      40.919  29.663  31.849  1.00  0.00     0.010 A 
ATOM     79  C   UNL A   1      40.327  30.618  29.699  1.00  0.00     0.010 A 
ATOM     80  C   UNL A   1      39.715  30.127  32.386  1.00  0.00     0.020 A 
ATOM     81  C   UNL A   1      39.134  31.103  30.238  1.00  0.00     0.020 A 
ATOM     82  C   UNL A   1      38.832  30.848  31.577  1.00  0.00     0.054 A 
BRANCH  82  83
ATOM     83  S   UNL A   1      37.310  31.504  32.315  1.00  0.00     0.124 S 
ATOM     84  O   UNL A   1      37.448  32.936  32.071  1.00  0.00    -0.237 OA
ATOM     85  O   UNL A   1      36.268  30.827  31.547  1.00  0.00    -0.237 OA
ATOM     86  O   UNL A   1      37.407  31.092  33.713  1.00  0.00    -0.744 OA
ENDBRANCH  82  83
ENDBRANCH  54  77
BRANCH  66  87
ATOM     87  C   UNL A   1      47.633  32.652  30.151  1.00  0.00    -0.014 A 
ATOM     88  C   UNL A   1      48.252  32.802  31.403  1.00  0.00     0.010 A 
ATOM     89  C   UNL A   1      47.591  33.746  29.267  1.00  0.00     0.010 A 
ATOM     90  C   UNL A   1      48.797  34.034  31.778  1.00  0.00     0.020 A 
ATOM     91  C   UNL A   1      48.155  34.972  29.629  1.00  0.00     0.020 A 
ATOM     92  C   UNL A   1      48.743  35.112  30.888  1.00  0.00     0.054 A 
BRANCH  92  93
ATOM     93  S   UNL A   1      49.496  36.688  31.376  1.00  0.00     0.124 S 
ATOM     94  O   UNL A   1      48.767  37.007  32.600  1.00  0.00    -0.237 OA
ATOM     95  O   UNL A   1      50.901  36.331  31.556  1.00  0.00    -0.237 OA
ATOM     96  O   UNL A   1      49.225  37.567  30.241  1.00  0.00    -0.744 OA
ENDBRANCH  92  93
ENDBRANCH  66  87
ENDBRANCH  40  41
ENDBRANCH  32  35
ENDBRANCH  30  31
ENDBRANCH   1  30
TORSDOF 17
ENDMDL
