MODEL 1
REMARK VINA RESULT:     -10.3      0.000      0.000
REMARK SMILES COc1ccc(-c2ccc(CCC(=O)NCCCNC(=O)c3ccc(-c4c5nc(c(-c6ccc(S(=O)(=O)[O-])cc6)c6ccc([nH]6)c(-c6ccc(S(=O)(=O)[O-])cc6)c6nc(c(-c7ccc(S(=O)(=O)[O-])cc7)c7ccc4[nH]7)C=C6)C=C5)cc3)n2-c2ccc(C(C)=O)cc2)cc1
REMARK SMILES IDX 16 1 15 2 13 3 14 4 12 6 11 7 10 8 7 9 8 10 82 11 9 12 6 13
REMARK SMILES IDX 3 14 4 15 93 16 5 17 92 18 2 19 1 20 83 21 84 22 91 23 85 24
REMARK SMILES IDX 90 25 86 26 87 27 88 28 89 29 17 30 18 31 19 32 20 33 21 35
REMARK SMILES IDX 22 36 23 37 81 38 24 39 80 40 25 41 26 42 27 43 74 44 28 45
REMARK SMILES IDX 79 46 73 47 75 48 29 49 78 50 72 51 71 52 30 54 60 55 41 56
REMARK SMILES IDX 59 57 42 58 45 59 58 60 76 61 43 62 44 63 57 65 77 66 46 67
REMARK SMILES IDX 31 68 32 69 40 70 33 71 39 72 34 73 35 74 36 75 37 76 38 77
REMARK SMILES IDX 61 78 62 79 70 80 63 81 69 82 64 83 65 84 66 85 67 86 68 87
REMARK SMILES IDX 47 88 48 89 56 90 49 91 55 92 50 93 51 94 52 95 53 96 54 97
REMARK H PARENT 15 5 19 34 75 53 45 64
REMARK Flexibility Score: inf
ROOT
ATOM      1  C   UNL A   1      34.790  33.831  30.557  1.00  0.00     0.117 C 
ENDROOT
BRANCH   1   2
ATOM      2  N   UNL A   1      34.868  35.044  31.355  1.00  0.00    -0.356 N 
ATOM      3  C   UNL A   1      34.718  35.199  32.702  1.00  0.00     0.220 C 
ATOM      4  O   UNL A   1      34.661  36.340  33.160  1.00  0.00    -0.275 OA
ATOM      5  H   UNL A   1      35.057  35.870  30.853  1.00  0.00     0.163 HD
BRANCH   3   6
ATOM      6  C   UNL A   1      34.683  33.991  33.619  1.00  0.00     0.106 C 
BRANCH   6   7
ATOM      7  C   UNL A   1      35.846  33.957  34.615  1.00  0.00     0.064 C 
BRANCH   7   8
ATOM      8  C   UNL A   1      37.050  33.200  34.109  1.00  0.00     0.024 A 
ATOM      9  C   UNL A   1      39.214  32.842  33.540  1.00  0.00     0.053 A 
ATOM     10  C   UNL A   1      38.423  31.906  32.884  1.00  0.00     0.029 A 
ATOM     11  N   UNL A   1      38.374  33.487  34.451  1.00  0.00    -0.314 N 
ATOM     12  C   UNL A   1      37.078  32.116  33.253  1.00  0.00     0.024 A 
BRANCH   9  13
ATOM     13  C   UNL A   1      40.676  32.906  33.491  1.00  0.00    -0.001 A 
ATOM     14  C   UNL A   1      43.465  33.318  33.481  1.00  0.00     0.118 A 
ATOM     15  C   UNL A   1      42.685  33.695  32.386  1.00  0.00     0.047 A 
ATOM     16  C   UNL A   1      42.849  32.729  34.584  1.00  0.00     0.047 A 
ATOM     17  C   UNL A   1      41.304  33.486  32.386  1.00  0.00     0.014 A 
ATOM     18  C   UNL A   1      41.459  32.528  34.589  1.00  0.00     0.014 A 
BRANCH  14  19
ATOM     19  O   UNL A   1      44.791  33.627  33.369  1.00  0.00    -0.497 OA
ATOM     20  C   UNL A   1      45.630  33.247  34.451  1.00  0.00     0.278 C 
ENDBRANCH  14  19
ENDBRANCH   9  13
BRANCH  11  21
ATOM     21  C   UNL A   1      38.780  34.070  35.677  1.00  0.00     0.046 A 
ATOM     22  C   UNL A   1      39.385  35.331  35.606  1.00  0.00     0.027 A 
ATOM     23  C   UNL A   1      38.506  33.488  36.911  1.00  0.00     0.027 A 
ATOM     24  C   UNL A   1      39.721  36.018  36.768  1.00  0.00     0.014 A 
ATOM     25  C   UNL A   1      38.869  34.174  38.079  1.00  0.00     0.014 A 
ATOM     26  C   UNL A   1      39.466  35.449  38.017  1.00  0.00     0.017 A 
BRANCH  26  27
ATOM     27  C   UNL A   1      39.793  36.149  39.298  1.00  0.00     0.159 C 
ATOM     28  C   UNL A   1      39.789  37.657  39.383  1.00  0.00     0.093 C 
ATOM     29  O   UNL A   1      40.051  35.480  40.300  1.00  0.00    -0.295 OA
ENDBRANCH  26  27
ENDBRANCH  11  21
ENDBRANCH   7   8
ENDBRANCH   6   7
ENDBRANCH   3   6
ENDBRANCH   1   2
BRANCH   1  30
ATOM     30  C   UNL A   1      35.937  33.771  29.562  1.00  0.00     0.042 C 
BRANCH  30  31
ATOM     31  C   UNL A   1      36.552  32.395  29.425  1.00  0.00     0.118 C 
BRANCH  31  32
ATOM     32  N   UNL A   1      35.671  31.466  28.748  1.00  0.00    -0.352 N 
ATOM     33  C   UNL A   1      35.966  30.238  28.200  1.00  0.00     0.251 C 
ATOM     34  H   UNL A   1      34.732  31.751  28.669  1.00  0.00     0.163 HD
ATOM     35  O   UNL A   1      35.143  29.716  27.463  1.00  0.00    -0.269 OA
BRANCH  33  36
ATOM     36  C   UNL A   1      37.260  29.556  28.484  1.00  0.00     0.039 A 
ATOM     37  C   UNL A   1      37.351  28.782  29.648  1.00  0.00     0.014 A 
ATOM     38  C   UNL A   1      38.393  29.728  27.681  1.00  0.00     0.014 A 
ATOM     39  C   UNL A   1      38.558  28.177  29.985  1.00  0.00     0.010 A 
ATOM     40  C   UNL A   1      39.579  29.080  27.975  1.00  0.00     0.010 A 
ATOM     41  C   UNL A   1      39.666  28.330  29.142  1.00  0.00    -0.014 A 
BRANCH  41  42
ATOM     42  C   UNL A   1      40.956  27.717  29.497  1.00  0.00     0.031 A 
ATOM     43  C   UNL A   1      41.314  26.552  28.585  1.00  0.00     0.074 A 
ATOM     44  C   UNL A   1      41.581  28.250  30.589  1.00  0.00     0.049 A 
ATOM     45  N   UNL A   1      41.858  25.420  28.892  1.00  0.00    -0.248 NA
ATOM     46  C   UNL A   1      40.910  26.589  27.155  1.00  0.00     0.031 C 
ATOM     47  C   UNL A   1      41.090  29.433  31.336  1.00  0.00     0.029 A 
ATOM     48  N   UNL A   1      42.725  27.944  31.292  1.00  0.00    -0.354 N 
ATOM     49  C   UNL A   1      41.986  24.663  27.708  1.00  0.00     0.074 A 
ATOM     50  C   UNL A   1      41.285  25.391  26.691  1.00  0.00     0.031 C 
ATOM     51  C   UNL A   1      41.872  29.693  32.401  1.00  0.00     0.029 A 
ATOM     52  C   UNL A   1      42.936  28.712  32.464  1.00  0.00     0.049 A 
ATOM     53  H   UNL A   1      43.351  27.242  31.001  1.00  0.00     0.167 HD
ATOM     54  C   UNL A   1      42.774  23.551  27.626  1.00  0.00     0.031 A 
ATOM     55  C   UNL A   1      43.853  28.536  33.462  1.00  0.00     0.031 A 
ATOM     56  C   UNL A   1      43.460  23.358  28.862  1.00  0.00     0.049 A 
ATOM     57  C   UNL A   1      44.680  27.385  33.063  1.00  0.00     0.074 A 
ATOM     58  C   UNL A   1      43.057  22.933  30.101  1.00  0.00     0.029 A 
ATOM     59  N   UNL A   1      44.672  24.003  28.977  1.00  0.00    -0.354 N 
ATOM     60  N   UNL A   1      45.569  27.389  32.119  1.00  0.00    -0.248 NA
ATOM     61  C   UNL A   1      44.429  26.083  33.699  1.00  0.00     0.031 C 
ATOM     62  C   UNL A   1      43.789  23.761  30.980  1.00  0.00     0.029 A 
ATOM     63  C   UNL A   1      44.739  24.493  30.258  1.00  0.00     0.049 A 
ATOM     64  H   UNL A   1      45.357  24.096  28.277  1.00  0.00     0.167 HD
ATOM     65  C   UNL A   1      45.667  26.056  31.799  1.00  0.00     0.074 A 
ATOM     66  C   UNL A   1      45.233  25.318  32.965  1.00  0.00     0.031 C 
ATOM     67  C   UNL A   1      45.546  25.670  30.502  1.00  0.00     0.031 A 
BRANCH  54  68
ATOM     68  C   UNL A   1      43.237  22.708  26.467  1.00  0.00    -0.014 A 
ATOM     69  C   UNL A   1      42.696  21.398  26.378  1.00  0.00     0.010 A 
ATOM     70  C   UNL A   1      44.360  22.997  25.684  1.00  0.00     0.010 A 
ATOM     71  C   UNL A   1      43.328  20.383  25.659  1.00  0.00     0.020 A 
ATOM     72  C   UNL A   1      44.983  21.988  24.926  1.00  0.00     0.020 A 
ATOM     73  C   UNL A   1      44.495  20.678  24.965  1.00  0.00     0.054 A 
BRANCH  73  74
ATOM     74  S   UNL A   1      45.397  19.310  24.189  1.00  0.00     0.124 S 
ATOM     75  O   UNL A   1      44.780  19.247  22.867  1.00  0.00    -0.237 OA
ATOM     76  O   UNL A   1      46.779  19.785  24.213  1.00  0.00    -0.237 OA
ATOM     77  O   UNL A   1      45.121  18.175  25.067  1.00  0.00    -0.744 OA
ENDBRANCH  73  74
ENDBRANCH  54  68
BRANCH  55  78
ATOM     78  C   UNL A   1      44.066  29.073  34.856  1.00  0.00    -0.014 A 
ATOM     79  C   UNL A   1      45.253  29.620  35.360  1.00  0.00     0.010 A 
ATOM     80  C   UNL A   1      42.941  29.138  35.723  1.00  0.00     0.010 A 
ATOM     81  C   UNL A   1      45.266  30.337  36.579  1.00  0.00     0.020 A 
ATOM     82  C   UNL A   1      42.927  29.879  36.905  1.00  0.00     0.020 A 
ATOM     83  C   UNL A   1      44.089  30.508  37.313  1.00  0.00     0.054 A 
BRANCH  83  84
ATOM     84  S   UNL A   1      44.024  31.653  38.719  1.00  0.00     0.124 S 
ATOM     85  O   UNL A   1      42.645  31.513  39.173  1.00  0.00    -0.237 OA
ATOM     86  O   UNL A   1      45.044  31.120  39.619  1.00  0.00    -0.237 OA
ATOM     87  O   UNL A   1      44.358  32.944  38.117  1.00  0.00    -0.744 OA
ENDBRANCH  83  84
ENDBRANCH  55  78
BRANCH  67  88
ATOM     88  C   UNL A   1      45.896  26.745  29.476  1.00  0.00    -0.014 A 
ATOM     89  C   UNL A   1      44.863  27.381  28.758  1.00  0.00     0.010 A 
ATOM     90  C   UNL A   1      47.219  27.063  29.107  1.00  0.00     0.010 A 
ATOM     91  C   UNL A   1      45.132  28.263  27.701  1.00  0.00     0.020 A 
ATOM     92  C   UNL A   1      47.502  27.953  28.053  1.00  0.00     0.020 A 
ATOM     93  C   UNL A   1      46.451  28.543  27.349  1.00  0.00     0.054 A 
BRANCH  93  94
ATOM     94  S   UNL A   1      46.761  29.670  25.955  1.00  0.00     0.124 S 
ATOM     95  O   UNL A   1      45.692  30.656  26.093  1.00  0.00    -0.237 OA
ATOM     96  O   UNL A   1      48.106  30.165  26.242  1.00  0.00    -0.237 OA
ATOM     97  O   UNL A   1      46.657  28.810  24.777  1.00  0.00    -0.744 OA
ENDBRANCH  93  94
ENDBRANCH  67  88
ENDBRANCH  41  42
ENDBRANCH  33  36
ENDBRANCH  31  32
ENDBRANCH  30  31
ENDBRANCH   1  30
TORSDOF 19
ENDMDL
MODEL 2
REMARK VINA RESULT:     -10.1      3.950     10.433
REMARK SMILES COc1ccc(-c2ccc(CCC(=O)NCCCNC(=O)c3ccc(-c4c5nc(c(-c6ccc(S(=O)(=O)[O-])cc6)c6ccc([nH]6)c(-c6ccc(S(=O)(=O)[O-])cc6)c6nc(c(-c7ccc(S(=O)(=O)[O-])cc7)c7ccc4[nH]7)C=C6)C=C5)cc3)n2-c2ccc(C(C)=O)cc2)cc1
REMARK SMILES IDX 16 1 15 2 13 3 14 4 12 6 11 7 10 8 7 9 8 10 82 11 9 12 6 13
REMARK SMILES IDX 3 14 4 15 93 16 5 17 92 18 2 19 1 20 83 21 84 22 91 23 85 24
REMARK SMILES IDX 90 25 86 26 87 27 88 28 89 29 17 30 18 31 19 32 20 33 21 35
REMARK SMILES IDX 22 36 23 37 81 38 24 39 80 40 25 41 26 42 27 43 74 44 28 45
REMARK SMILES IDX 79 46 73 47 75 48 29 49 78 50 72 51 71 52 30 54 60 55 41 56
REMARK SMILES IDX 59 57 42 58 45 59 58 60 76 61 43 62 44 63 57 65 77 66 46 67
REMARK SMILES IDX 31 68 32 69 40 70 33 71 39 72 34 73 35 74 36 75 37 76 38 77
REMARK SMILES IDX 61 78 62 79 70 80 63 81 69 82 64 83 65 84 66 85 67 86 68 87
REMARK SMILES IDX 47 88 48 89 56 90 49 91 55 92 50 93 51 94 52 95 53 96 54 97
REMARK H PARENT 15 5 19 34 75 53 45 64
REMARK Flexibility Score: inf
ROOT
ATOM      1  C   UNL A   1      42.665  22.397  25.317  1.00  0.00     0.117 C 
ENDROOT
BRANCH   1   2
ATOM      2  N   UNL A   1      43.955  21.783  25.045  1.00  0.00    -0.356 N 
ATOM      3  C   UNL A   1      45.128  22.374  24.673  1.00  0.00     0.220 C 
ATOM      4  O   UNL A   1      46.067  21.655  24.334  1.00  0.00    -0.275 OA
ATOM      5  H   UNL A   1      43.987  20.804  25.142  1.00  0.00     0.163 HD
BRANCH   3   6
ATOM      6  C   UNL A   1      45.287  23.882  24.738  1.00  0.00     0.106 C 
BRANCH   6   7
ATOM      7  C   UNL A   1      45.350  24.419  26.171  1.00  0.00     0.064 C 
BRANCH   7   8
ATOM      8  C   UNL A   1      45.380  25.927  26.248  1.00  0.00     0.024 A 
ATOM      9  C   UNL A   1      45.974  27.975  27.014  1.00  0.00     0.053 A 
ATOM     10  C   UNL A   1      44.778  28.093  26.315  1.00  0.00     0.029 A 
ATOM     11  N   UNL A   1      46.433  26.678  26.776  1.00  0.00    -0.314 N 
ATOM     12  C   UNL A   1      44.417  26.821  25.822  1.00  0.00     0.024 A 
BRANCH   9  13
ATOM     13  C   UNL A   1      46.727  29.082  27.607  1.00  0.00    -0.001 A 
ATOM     14  C   UNL A   1      47.951  31.392  28.660  1.00  0.00     0.118 A 
ATOM     15  C   UNL A   1      48.075  31.074  27.306  1.00  0.00     0.047 A 
ATOM     16  C   UNL A   1      47.216  30.550  29.492  1.00  0.00     0.047 A 
ATOM     17  C   UNL A   1      47.475  29.926  26.783  1.00  0.00     0.014 A 
ATOM     18  C   UNL A   1      46.603  29.401  28.965  1.00  0.00     0.014 A 
BRANCH  14  19
ATOM     19  O   UNL A   1      48.544  32.568  29.024  1.00  0.00    -0.497 OA
ATOM     20  C   UNL A   1      49.961  32.562  29.138  1.00  0.00     0.278 C 
ENDBRANCH  14  19
ENDBRANCH   9  13
BRANCH  11  21
ATOM     21  C   UNL A   1      47.790  26.271  26.776  1.00  0.00     0.046 A 
ATOM     22  C   UNL A   1      48.525  26.520  25.610  1.00  0.00     0.027 A 
ATOM     23  C   UNL A   1      48.414  25.743  27.903  1.00  0.00     0.027 A 
ATOM     24  C   UNL A   1      49.888  26.244  25.562  1.00  0.00     0.014 A 
ATOM     25  C   UNL A   1      49.783  25.443  27.841  1.00  0.00     0.014 A 
ATOM     26  C   UNL A   1      50.533  25.705  26.677  1.00  0.00     0.017 A 
BRANCH  26  27
ATOM     27  C   UNL A   1      51.997  25.402  26.685  1.00  0.00     0.159 C 
ATOM     28  C   UNL A   1      52.951  26.200  27.543  1.00  0.00     0.093 C 
ATOM     29  O   UNL A   1      52.424  24.476  25.994  1.00  0.00    -0.295 OA
ENDBRANCH  26  27
ENDBRANCH  11  21
ENDBRANCH   7   8
ENDBRANCH   6   7
ENDBRANCH   3   6
ENDBRANCH   1   2
BRANCH   1  30
ATOM     30  C   UNL A   1      41.713  21.387  25.934  1.00  0.00     0.042 C 
BRANCH  30  31
ATOM     31  C   UNL A   1      40.629  22.014  26.784  1.00  0.00     0.118 C 
BRANCH  31  32
ATOM     32  N   UNL A   1      39.502  22.462  25.992  1.00  0.00    -0.352 N 
ATOM     33  C   UNL A   1      38.786  23.634  26.091  1.00  0.00     0.251 C 
ATOM     34  H   UNL A   1      39.206  21.843  25.285  1.00  0.00     0.163 HD
ATOM     35  O   UNL A   1      37.724  23.721  25.494  1.00  0.00    -0.269 OA
BRANCH  33  36
ATOM     36  C   UNL A   1      39.283  24.774  26.911  1.00  0.00     0.039 A 
ATOM     37  C   UNL A   1      40.205  25.651  26.326  1.00  0.00     0.014 A 
ATOM     38  C   UNL A   1      38.925  24.947  28.253  1.00  0.00     0.014 A 
ATOM     39  C   UNL A   1      40.741  26.694  27.074  1.00  0.00     0.010 A 
ATOM     40  C   UNL A   1      39.406  26.017  28.986  1.00  0.00     0.010 A 
ATOM     41  C   UNL A   1      40.335  26.871  28.403  1.00  0.00    -0.014 A 
BRANCH  41  42
ATOM     42  C   UNL A   1      40.911  27.953  29.216  1.00  0.00     0.031 A 
ATOM     43  C   UNL A   1      42.251  27.569  29.826  1.00  0.00     0.074 A 
ATOM     44  C   UNL A   1      40.145  29.080  29.325  1.00  0.00     0.049 A 
ATOM     45  N   UNL A   1      42.708  27.829  31.008  1.00  0.00    -0.248 NA
ATOM     46  C   UNL A   1      43.170  26.674  29.075  1.00  0.00     0.031 C 
ATOM     47  C   UNL A   1      38.864  29.289  28.609  1.00  0.00     0.029 A 
ATOM     48  N   UNL A   1      40.259  30.260  30.025  1.00  0.00    -0.354 N 
ATOM     49  C   UNL A   1      43.994  27.258  31.112  1.00  0.00     0.074 A 
ATOM     50  C   UNL A   1      44.178  26.467  29.930  1.00  0.00     0.031 C 
ATOM     51  C   UNL A   1      38.300  30.462  28.958  1.00  0.00     0.029 A 
ATOM     52  C   UNL A   1      39.139  31.125  29.934  1.00  0.00     0.049 A 
ATOM     53  H   UNL A   1      41.059  30.487  30.551  1.00  0.00     0.167 HD
ATOM     54  C   UNL A   1      44.867  27.585  32.110  1.00  0.00     0.031 A 
ATOM     55  C   UNL A   1      38.861  32.260  30.642  1.00  0.00     0.031 A 
ATOM     56  C   UNL A   1      44.297  28.607  32.928  1.00  0.00     0.049 A 
ATOM     57  C   UNL A   1      40.017  32.488  31.525  1.00  0.00     0.074 A 
ATOM     58  C   UNL A   1      43.293  28.609  33.859  1.00  0.00     0.029 A 
ATOM     59  N   UNL A   1      44.538  29.900  32.520  1.00  0.00    -0.354 N 
ATOM     60  N   UNL A   1      41.186  32.900  31.143  1.00  0.00    -0.248 NA
ATOM     61  C   UNL A   1      39.899  32.130  32.947  1.00  0.00     0.031 C 
ATOM     62  C   UNL A   1      42.631  29.832  33.619  1.00  0.00     0.029 A 
ATOM     63  C   UNL A   1      43.373  30.600  32.712  1.00  0.00     0.049 A 
ATOM     64  H   UNL A   1      45.383  30.255  32.160  1.00  0.00     0.167 HD
ATOM     65  C   UNL A   1      42.001  32.468  32.162  1.00  0.00     0.074 A 
ATOM     66  C   UNL A   1      41.158  32.323  33.330  1.00  0.00     0.031 C 
ATOM     67  C   UNL A   1      43.114  31.746  31.868  1.00  0.00     0.031 A 
BRANCH  54  68
ATOM     68  C   UNL A   1      46.328  27.292  32.330  1.00  0.00    -0.014 A 
ATOM     69  C   UNL A   1      47.201  28.411  32.379  1.00  0.00     0.010 A 
ATOM     70  C   UNL A   1      46.907  26.028  32.175  1.00  0.00     0.010 A 
ATOM     71  C   UNL A   1      48.569  28.293  32.138  1.00  0.00     0.020 A 
ATOM     72  C   UNL A   1      48.293  25.896  31.968  1.00  0.00     0.020 A 
ATOM     73  C   UNL A   1      49.103  27.034  31.896  1.00  0.00     0.054 A 
BRANCH  73  74
ATOM     74  S   UNL A   1      50.846  26.924  31.407  1.00  0.00     0.124 S 
ATOM     75  O   UNL A   1      50.905  27.841  30.272  1.00  0.00    -0.237 OA
ATOM     76  O   UNL A   1      51.543  27.372  32.611  1.00  0.00    -0.237 OA
ATOM     77  O   UNL A   1      51.023  25.510  31.084  1.00  0.00    -0.744 OA
ENDBRANCH  73  74
ENDBRANCH  54  68
BRANCH  55  78
ATOM     78  C   UNL A   1      37.658  33.145  30.858  1.00  0.00    -0.014 A 
ATOM     79  C   UNL A   1      36.551  33.257  30.009  1.00  0.00     0.010 A 
ATOM     80  C   UNL A   1      37.571  33.861  32.083  1.00  0.00     0.010 A 
ATOM     81  C   UNL A   1      35.366  33.901  30.436  1.00  0.00     0.020 A 
ATOM     82  C   UNL A   1      36.395  34.462  32.536  1.00  0.00     0.020 A 
ATOM     83  C   UNL A   1      35.281  34.450  31.719  1.00  0.00     0.054 A 
BRANCH  83  84
ATOM     84  S   UNL A   1      33.694  35.024  32.384  1.00  0.00     0.124 S 
ATOM     85  O   UNL A   1      34.083  36.204  33.149  1.00  0.00    -0.237 OA
ATOM     86  O   UNL A   1      32.910  35.280  31.179  1.00  0.00    -0.237 OA
ATOM     87  O   UNL A   1      33.232  33.887  33.181  1.00  0.00    -0.744 OA
ENDBRANCH  83  84
ENDBRANCH  55  78
BRANCH  67  88
ATOM     88  C   UNL A   1      43.674  31.973  30.466  1.00  0.00    -0.014 A 
ATOM     89  C   UNL A   1      44.397  33.151  30.190  1.00  0.00     0.010 A 
ATOM     90  C   UNL A   1      43.406  31.118  29.378  1.00  0.00     0.010 A 
ATOM     91  C   UNL A   1      44.803  33.481  28.888  1.00  0.00     0.020 A 
ATOM     92  C   UNL A   1      43.814  31.435  28.067  1.00  0.00     0.020 A 
ATOM     93  C   UNL A   1      44.506  32.624  27.830  1.00  0.00     0.054 A 
BRANCH  93  94
ATOM     94  S   UNL A   1      45.024  33.098  26.152  1.00  0.00     0.124 S 
ATOM     95  O   UNL A   1      43.924  33.948  25.702  1.00  0.00    -0.237 OA
ATOM     96  O   UNL A   1      46.288  33.790  26.395  1.00  0.00    -0.237 OA
ATOM     97  O   UNL A   1      45.143  31.823  25.447  1.00  0.00    -0.744 OA
ENDBRANCH  93  94
ENDBRANCH  67  88
ENDBRANCH  41  42
ENDBRANCH  33  36
ENDBRANCH  31  32
ENDBRANCH  30  31
ENDBRANCH   1  30
TORSDOF 19
ENDMDL
MODEL 3
REMARK VINA RESULT:      -9.4      6.131     13.515
REMARK SMILES COc1ccc(-c2ccc(CCC(=O)NCCCNC(=O)c3ccc(-c4c5nc(c(-c6ccc(S(=O)(=O)[O-])cc6)c6ccc([nH]6)c(-c6ccc(S(=O)(=O)[O-])cc6)c6nc(c(-c7ccc(S(=O)(=O)[O-])cc7)c7ccc4[nH]7)C=C6)C=C5)cc3)n2-c2ccc(C(C)=O)cc2)cc1
REMARK SMILES IDX 16 1 15 2 13 3 14 4 12 6 11 7 10 8 7 9 8 10 82 11 9 12 6 13
REMARK SMILES IDX 3 14 4 15 93 16 5 17 92 18 2 19 1 20 83 21 84 22 91 23 85 24
REMARK SMILES IDX 90 25 86 26 87 27 88 28 89 29 17 30 18 31 19 32 20 33 21 35
REMARK SMILES IDX 22 36 23 37 81 38 24 39 80 40 25 41 26 42 27 43 74 44 28 45
REMARK SMILES IDX 79 46 73 47 75 48 29 49 78 50 72 51 71 52 30 54 60 55 41 56
REMARK SMILES IDX 59 57 42 58 45 59 58 60 76 61 43 62 44 63 57 65 77 66 46 67
REMARK SMILES IDX 31 68 32 69 40 70 33 71 39 72 34 73 35 74 36 75 37 76 38 77
REMARK SMILES IDX 61 78 62 79 70 80 63 81 69 82 64 83 65 84 66 85 67 86 68 87
REMARK SMILES IDX 47 88 48 89 56 90 49 91 55 92 50 93 51 94 52 95 53 96 54 97
REMARK H PARENT 15 5 19 34 75 53 45 64
REMARK Flexibility Score: inf
ROOT
ATOM      1  C   UNL A   1      46.168  25.726  39.645  1.00  0.00     0.117 C 
ENDROOT
BRANCH   1   2
ATOM      2  N   UNL A   1      45.717  24.438  40.146  1.00  0.00    -0.356 N 
ATOM      3  C   UNL A   1      45.518  23.271  39.466  1.00  0.00     0.220 C 
ATOM      4  O   UNL A   1      44.976  22.334  40.052  1.00  0.00    -0.275 OA
ATOM      5  H   UNL A   1      45.529  24.402  41.111  1.00  0.00     0.163 HD
BRANCH   3   6
ATOM      6  C   UNL A   1      46.012  23.115  38.040  1.00  0.00     0.106 C 
BRANCH   6   7
ATOM      7  C   UNL A   1      46.185  21.653  37.619  1.00  0.00     0.064 C 
BRANCH   7   8
ATOM      8  C   UNL A   1      47.582  21.125  37.840  1.00  0.00     0.024 A 
ATOM      9  C   UNL A   1      49.360  20.319  38.991  1.00  0.00     0.053 A 
ATOM     10  C   UNL A   1      49.813  20.844  37.786  1.00  0.00     0.029 A 
ATOM     11  N   UNL A   1      47.966  20.308  38.907  1.00  0.00    -0.314 N 
ATOM     12  C   UNL A   1      48.704  21.329  37.061  1.00  0.00     0.024 A 
BRANCH   9  13
ATOM     13  C   UNL A   1      50.189  19.640  39.989  1.00  0.00    -0.001 A 
ATOM     14  C   UNL A   1      52.019  18.475  41.788  1.00  0.00     0.118 A 
ATOM     15  C   UNL A   1      51.829  17.934  40.515  1.00  0.00     0.047 A 
ATOM     16  C   UNL A   1      51.289  19.600  42.166  1.00  0.00     0.047 A 
ATOM     17  C   UNL A   1      50.917  18.506  39.624  1.00  0.00     0.014 A 
ATOM     18  C   UNL A   1      50.380  20.182  41.267  1.00  0.00     0.014 A 
BRANCH  14  19
ATOM     19  O   UNL A   1      52.976  17.848  42.535  1.00  0.00    -0.497 OA
ATOM     20  C   UNL A   1      54.092  17.319  41.832  1.00  0.00     0.278 C 
ENDBRANCH  14  19
ENDBRANCH   9  13
BRANCH  11  21
ATOM     21  C   UNL A   1      47.106  19.401  39.576  1.00  0.00     0.046 A 
ATOM     22  C   UNL A   1      46.720  19.741  40.878  1.00  0.00     0.027 A 
ATOM     23  C   UNL A   1      46.573  18.276  38.953  1.00  0.00     0.027 A 
ATOM     24  C   UNL A   1      45.799  18.959  41.568  1.00  0.00     0.014 A 
ATOM     25  C   UNL A   1      45.664  17.477  39.662  1.00  0.00     0.014 A 
ATOM     26  C   UNL A   1      45.259  17.820  40.968  1.00  0.00     0.017 A 
BRANCH  26  27
ATOM     27  C   UNL A   1      44.256  16.952  41.657  1.00  0.00     0.159 C 
ATOM     28  C   UNL A   1      43.387  15.995  40.874  1.00  0.00     0.093 C 
ATOM     29  O   UNL A   1      44.152  17.008  42.883  1.00  0.00    -0.295 OA
ENDBRANCH  26  27
ENDBRANCH  11  21
ENDBRANCH   7   8
ENDBRANCH   6   7
ENDBRANCH   3   6
ENDBRANCH   1   2
BRANCH   1  30
ATOM     30  C   UNL A   1      45.084  26.383  38.808  1.00  0.00     0.042 C 
BRANCH  30  31
ATOM     31  C   UNL A   1      45.614  27.133  37.605  1.00  0.00     0.118 C 
BRANCH  31  32
ATOM     32  N   UNL A   1      46.906  26.639  37.177  1.00  0.00    -0.352 N 
ATOM     33  C   UNL A   1      47.269  26.105  35.961  1.00  0.00     0.251 C 
ATOM     34  H   UNL A   1      47.625  26.691  37.848  1.00  0.00     0.163 HD
ATOM     35  O   UNL A   1      48.341  25.526  35.874  1.00  0.00    -0.269 OA
BRANCH  33  36
ATOM     36  C   UNL A   1      46.378  26.219  34.772  1.00  0.00     0.039 A 
ATOM     37  C   UNL A   1      46.698  27.176  33.801  1.00  0.00     0.014 A 
ATOM     38  C   UNL A   1      45.204  25.468  34.637  1.00  0.00     0.014 A 
ATOM     39  C   UNL A   1      45.861  27.358  32.704  1.00  0.00     0.010 A 
ATOM     40  C   UNL A   1      44.399  25.600  33.521  1.00  0.00     0.010 A 
ATOM     41  C   UNL A   1      44.715  26.565  32.572  1.00  0.00    -0.014 A 
BRANCH  41  42
ATOM     42  C   UNL A   1      43.806  26.763  31.431  1.00  0.00     0.031 A 
ATOM     43  C   UNL A   1      42.692  27.753  31.743  1.00  0.00     0.074 A 
ATOM     44  C   UNL A   1      44.075  26.008  30.325  1.00  0.00     0.049 A 
ATOM     45  N   UNL A   1      41.444  27.700  31.409  1.00  0.00    -0.248 NA
ATOM     46  C   UNL A   1      42.964  28.901  32.647  1.00  0.00     0.031 C 
ATOM     47  C   UNL A   1      45.252  25.115  30.192  1.00  0.00     0.029 A 
ATOM     48  N   UNL A   1      43.459  25.825  29.107  1.00  0.00    -0.354 N 
ATOM     49  C   UNL A   1      40.805  28.844  31.934  1.00  0.00     0.074 A 
ATOM     50  C   UNL A   1      41.768  29.488  32.778  1.00  0.00     0.031 C 
ATOM     51  C   UNL A   1      45.225  24.450  29.021  1.00  0.00     0.029 A 
ATOM     52  C   UNL A   1      44.038  24.827  28.283  1.00  0.00     0.049 A 
ATOM     53  H   UNL A   1      42.674  26.348  28.829  1.00  0.00     0.167 HD
ATOM     54  C   UNL A   1      39.564  29.246  31.530  1.00  0.00     0.031 A 
ATOM     55  C   UNL A   1      43.566  24.282  27.121  1.00  0.00     0.031 A 
ATOM     56  C   UNL A   1      39.102  28.390  30.485  1.00  0.00     0.049 A 
ATOM     57  C   UNL A   1      42.312  24.990  26.814  1.00  0.00     0.074 A 
ATOM     58  C   UNL A   1      38.646  27.098  30.466  1.00  0.00     0.029 A 
ATOM     59  N   UNL A   1      39.456  28.763  29.208  1.00  0.00    -0.354 N 
ATOM     60  N   UNL A   1      42.224  26.212  26.386  1.00  0.00    -0.248 NA
ATOM     61  C   UNL A   1      41.036  24.320  27.102  1.00  0.00     0.031 C 
ATOM     62  C   UNL A   1      39.201  26.577  29.278  1.00  0.00     0.029 A 
ATOM     63  C   UNL A   1      39.784  27.612  28.535  1.00  0.00     0.049 A 
ATOM     64  H   UNL A   1      39.472  29.679  28.846  1.00  0.00     0.167 HD
ATOM     65  C   UNL A   1      40.942  26.557  26.740  1.00  0.00     0.074 A 
ATOM     66  C   UNL A   1      40.197  25.321  26.851  1.00  0.00     0.031 C 
ATOM     67  C   UNL A   1      40.727  27.701  27.442  1.00  0.00     0.031 A 
BRANCH  54  68
ATOM     68  C   UNL A   1      38.767  30.501  31.766  1.00  0.00    -0.014 A 
ATOM     69  C   UNL A   1      37.628  30.381  32.606  1.00  0.00     0.010 A 
ATOM     70  C   UNL A   1      38.879  31.661  30.992  1.00  0.00     0.010 A 
ATOM     71  C   UNL A   1      36.580  31.301  32.567  1.00  0.00     0.020 A 
ATOM     72  C   UNL A   1      37.843  32.613  30.975  1.00  0.00     0.020 A 
ATOM     73  C   UNL A   1      36.679  32.397  31.719  1.00  0.00     0.054 A 
BRANCH  73  74
ATOM     74  S   UNL A   1      35.233  33.479  31.549  1.00  0.00     0.124 S 
ATOM     75  O   UNL A   1      35.519  34.527  32.524  1.00  0.00    -0.237 OA
ATOM     76  O   UNL A   1      35.306  33.890  30.148  1.00  0.00    -0.237 OA
ATOM     77  O   UNL A   1      34.110  32.604  31.876  1.00  0.00    -0.744 OA
ENDBRANCH  73  74
ENDBRANCH  54  68
BRANCH  55  78
ATOM     78  C   UNL A   1      43.897  23.086  26.264  1.00  0.00    -0.014 A 
ATOM     79  C   UNL A   1      44.989  22.966  25.396  1.00  0.00     0.010 A 
ATOM     80  C   UNL A   1      43.099  21.918  26.415  1.00  0.00     0.010 A 
ATOM     81  C   UNL A   1      45.356  21.713  24.852  1.00  0.00     0.020 A 
ATOM     82  C   UNL A   1      43.472  20.667  25.922  1.00  0.00     0.020 A 
ATOM     83  C   UNL A   1      44.625  20.564  25.166  1.00  0.00     0.054 A 
BRANCH  83  84
ATOM     84  S   UNL A   1      45.237  18.917  24.714  1.00  0.00     0.124 S 
ATOM     85  O   UNL A   1      44.464  18.044  25.591  1.00  0.00    -0.237 OA
ATOM     86  O   UNL A   1      44.917  18.830  23.292  1.00  0.00    -0.237 OA
ATOM     87  O   UNL A   1      46.668  18.995  25.013  1.00  0.00    -0.744 OA
ENDBRANCH  83  84
ENDBRANCH  55  78
BRANCH  67  88
ATOM     88  C   UNL A   1      41.803  28.770  27.271  1.00  0.00    -0.014 A 
ATOM     89  C   UNL A   1      42.079  29.277  25.985  1.00  0.00     0.010 A 
ATOM     90  C   UNL A   1      42.637  29.205  28.320  1.00  0.00     0.010 A 
ATOM     91  C   UNL A   1      43.155  30.146  25.748  1.00  0.00     0.020 A 
ATOM     92  C   UNL A   1      43.716  30.082  28.097  1.00  0.00     0.020 A 
ATOM     93  C   UNL A   1      43.973  30.542  26.805  1.00  0.00     0.054 A 
BRANCH  93  94
ATOM     94  S   UNL A   1      45.375  31.647  26.455  1.00  0.00     0.124 S 
ATOM     95  O   UNL A   1      46.339  30.754  25.816  1.00  0.00    -0.237 OA
ATOM     96  O   UNL A   1      44.776  32.650  25.577  1.00  0.00    -0.237 OA
ATOM     97  O   UNL A   1      45.773  32.138  27.773  1.00  0.00    -0.744 OA
ENDBRANCH  93  94
ENDBRANCH  67  88
ENDBRANCH  41  42
ENDBRANCH  33  36
ENDBRANCH  31  32
ENDBRANCH  30  31
ENDBRANCH   1  30
TORSDOF 19
ENDMDL
