MODEL 1
REMARK VINA RESULT:      -8.6      0.000      0.000
REMARK SMILES O=C(CCCC[C@@H]1CCSS1)NCCCNC(=O)c1ccc(-c2c3nc(c(-c4ccc(S(=O)(=O)[O-])cc4)c4ccc([nH]4)c(-c4ccc(S(=O)(=O)[O-])cc4)c4nc(c(-c5ccc(S(=O)(=O)[O-])cc5)c5ccc2[nH]5)C=C4)C=C3)cc1
REMARK SMILES IDX 13 1 12 2 1 3 2 4 3 6 4 7 5 8 6 9 7 10 8 11 11 12 9 13 10 14
REMARK SMILES IDX 14 15 15 16 16 17 17 18 18 20 19 21 20 22 78 23 21 24 77 25
REMARK SMILES IDX 22 26 23 27 24 28 71 29 25 30 76 31 70 32 72 33 26 34 75 35
REMARK SMILES IDX 69 36 68 37 27 39 57 40 38 41 56 42 39 43 42 44 55 45 73 46
REMARK SMILES IDX 40 47 41 48 54 50 74 51 43 52 28 53 29 54 37 55 30 56 36 57
REMARK SMILES IDX 31 58 32 59 33 60 34 61 35 62 58 63 59 64 67 65 60 66 66 67
REMARK SMILES IDX 61 68 62 69 63 70 64 71 65 72 44 73 45 74 53 75 46 76 52 77
REMARK SMILES IDX 47 78 48 79 49 80 50 81 51 82
REMARK H PARENT 12 5 16 19 72 38 42 49
REMARK Flexibility Score: inf
ROOT
ATOM      1  C   UNL A   1      34.286  34.335  30.061  1.00  0.00     0.117 C 
ENDROOT
BRANCH   1   2
ATOM      2  N   UNL A   1      35.273  34.013  31.072  1.00  0.00    -0.356 N 
ATOM      3  O   UNL A   1      33.898  32.693  32.354  1.00  0.00    -0.275 OA
ATOM      4  C   UNL A   1      35.006  33.161  32.116  1.00  0.00     0.219 C 
ATOM      5  H   UNL A   1      36.167  34.420  31.008  1.00  0.00     0.163 HD
BRANCH   4   6
ATOM      6  C   UNL A   1      36.218  32.811  32.952  1.00  0.00     0.100 C 
BRANCH   6   7
ATOM      7  C   UNL A   1      37.518  33.321  32.323  1.00  0.00     0.010 C 
BRANCH   7   8
ATOM      8  C   UNL A   1      38.814  33.139  33.133  1.00  0.00     0.002 C 
BRANCH   8   9
ATOM      9  C   UNL A   1      39.544  34.404  33.609  1.00  0.00     0.015 C 
BRANCH   9  10
ATOM     10  C   UNL A   1      39.124  34.970  34.975  1.00  0.00     0.059 C 
ATOM     11  C   UNL A   1      40.171  35.803  35.717  1.00  0.00     0.027 C 
ATOM     12  S   UNL A   1      38.675  33.587  36.087  1.00  0.00    -0.091 SA
ATOM     13  C   UNL A   1      39.752  36.024  37.164  1.00  0.00     0.083 C 
ATOM     14  S   UNL A   1      39.403  34.384  37.828  1.00  0.00    -0.094 SA
ENDBRANCH   9  10
ENDBRANCH   8   9
ENDBRANCH   7   8
ENDBRANCH   6   7
ENDBRANCH   4   6
ENDBRANCH   1   2
BRANCH   1  15
ATOM     15  C   UNL A   1      34.891  34.478  28.672  1.00  0.00     0.042 C 
BRANCH  15  16
ATOM     16  C   UNL A   1      35.431  33.185  28.067  1.00  0.00     0.118 C 
BRANCH  16  17
ATOM     17  N   UNL A   1      34.408  32.173  27.844  1.00  0.00    -0.352 N 
ATOM     18  C   UNL A   1      34.532  30.800  27.815  1.00  0.00     0.251 C 
ATOM     19  H   UNL A   1      33.499  32.519  27.693  1.00  0.00     0.163 HD
ATOM     20  O   UNL A   1      33.579  30.105  27.500  1.00  0.00    -0.269 OA
BRANCH  18  21
ATOM     21  C   UNL A   1      35.838  30.178  28.133  1.00  0.00     0.039 A 
ATOM     22  C   UNL A   1      36.813  30.108  27.135  1.00  0.00     0.014 A 
ATOM     23  C   UNL A   1      36.110  29.703  29.417  1.00  0.00     0.014 A 
ATOM     24  C   UNL A   1      38.096  29.649  27.451  1.00  0.00     0.010 A 
ATOM     25  C   UNL A   1      37.404  29.311  29.748  1.00  0.00     0.010 A 
ATOM     26  C   UNL A   1      38.415  29.294  28.772  1.00  0.00    -0.014 A 
BRANCH  26  27
ATOM     27  C   UNL A   1      39.800  28.934  29.174  1.00  0.00     0.031 A 
ATOM     28  C   UNL A   1      40.690  29.961  29.817  1.00  0.00     0.074 A 
ATOM     29  C   UNL A   1      40.291  27.715  28.866  1.00  0.00     0.049 A 
ATOM     30  N   UNL A   1      41.964  29.885  30.106  1.00  0.00    -0.248 NA
ATOM     31  C   UNL A   1      40.072  31.253  30.159  1.00  0.00     0.031 C 
ATOM     32  C   UNL A   1      39.543  26.637  28.216  1.00  0.00     0.029 A 
ATOM     33  N   UNL A   1      41.546  27.186  29.042  1.00  0.00    -0.354 N 
ATOM     34  C   UNL A   1      42.307  31.122  30.636  1.00  0.00     0.074 A 
ATOM     35  C   UNL A   1      41.116  31.943  30.596  1.00  0.00     0.031 C 
ATOM     36  C   UNL A   1      40.348  25.574  28.060  1.00  0.00     0.029 A 
ATOM     37  C   UNL A   1      41.680  25.907  28.553  1.00  0.00     0.049 A 
ATOM     38  H   UNL A   1      42.281  27.675  29.478  1.00  0.00     0.167 HD
ATOM     39  C   UNL A   1      43.502  31.535  31.121  1.00  0.00     0.031 A 
ATOM     40  C   UNL A   1      42.757  25.100  28.487  1.00  0.00     0.031 A 
ATOM     41  C   UNL A   1      44.682  30.714  31.174  1.00  0.00     0.049 A 
ATOM     42  C   UNL A   1      44.077  25.584  29.020  1.00  0.00     0.074 A 
ATOM     43  C   UNL A   1      45.925  31.029  31.693  1.00  0.00     0.029 A 
ATOM     44  N   UNL A   1      44.767  29.417  30.689  1.00  0.00    -0.354 N 
ATOM     45  N   UNL A   1      44.370  26.743  29.561  1.00  0.00    -0.248 NA
ATOM     46  C   UNL A   1      45.211  24.653  28.941  1.00  0.00     0.031 C 
ATOM     47  C   UNL A   1      46.775  29.936  31.486  1.00  0.00     0.029 A 
ATOM     48  C   UNL A   1      46.045  28.924  30.884  1.00  0.00     0.049 A 
ATOM     49  H   UNL A   1      44.027  28.922  30.269  1.00  0.00     0.167 HD
ATOM     50  C   UNL A   1      45.712  26.667  29.915  1.00  0.00     0.074 A 
ATOM     51  C   UNL A   1      46.174  25.349  29.531  1.00  0.00     0.031 C 
ATOM     52  C   UNL A   1      46.488  27.604  30.510  1.00  0.00     0.031 A 
BRANCH  39  53
ATOM     53  C   UNL A   1      43.594  32.949  31.629  1.00  0.00    -0.014 A 
ATOM     54  C   UNL A   1      43.310  33.258  32.972  1.00  0.00     0.010 A 
ATOM     55  C   UNL A   1      44.007  33.979  30.763  1.00  0.00     0.010 A 
ATOM     56  C   UNL A   1      43.393  34.576  33.427  1.00  0.00     0.020 A 
ATOM     57  C   UNL A   1      44.118  35.293  31.221  1.00  0.00     0.020 A 
ATOM     58  C   UNL A   1      43.792  35.587  32.547  1.00  0.00     0.054 A 
BRANCH  58  59
ATOM     59  S   UNL A   1      43.905  37.287  33.168  1.00  0.00     0.124 S 
ATOM     60  O   UNL A   1      45.189  37.266  33.867  1.00  0.00    -0.237 OA
ATOM     61  O   UNL A   1      43.871  38.080  31.942  1.00  0.00    -0.237 OA
ATOM     62  O   UNL A   1      42.731  37.422  34.026  1.00  0.00    -0.744 OA
ENDBRANCH  58  59
ENDBRANCH  39  53
BRANCH  40  63
ATOM     63  C   UNL A   1      42.628  23.739  27.896  1.00  0.00    -0.014 A 
ATOM     64  C   UNL A   1      42.286  22.643  28.706  1.00  0.00     0.010 A 
ATOM     65  C   UNL A   1      42.830  23.536  26.519  1.00  0.00     0.010 A 
ATOM     66  C   UNL A   1      42.163  21.365  28.153  1.00  0.00     0.020 A 
ATOM     67  C   UNL A   1      42.683  22.264  25.958  1.00  0.00     0.020 A 
ATOM     68  C   UNL A   1      42.360  21.184  26.782  1.00  0.00     0.054 A 
BRANCH  68  69
ATOM     69  S   UNL A   1      42.141  19.526  26.076  1.00  0.00     0.124 S 
ATOM     70  O   UNL A   1      43.020  19.574  24.913  1.00  0.00    -0.237 OA
ATOM     71  O   UNL A   1      42.580  18.658  27.166  1.00  0.00    -0.237 OA
ATOM     72  O   UNL A   1      40.711  19.468  25.782  1.00  0.00    -0.744 OA
ENDBRANCH  68  69
ENDBRANCH  40  63
BRANCH  52  73
ATOM     73  C   UNL A   1      47.910  27.234  30.834  1.00  0.00    -0.014 A 
ATOM     74  C   UNL A   1      48.223  26.460  31.964  1.00  0.00     0.010 A 
ATOM     75  C   UNL A   1      48.936  27.592  29.940  1.00  0.00     0.010 A 
ATOM     76  C   UNL A   1      49.541  26.059  32.201  1.00  0.00     0.020 A 
ATOM     77  C   UNL A   1      50.251  27.176  30.162  1.00  0.00     0.020 A 
ATOM     78  C   UNL A   1      50.546  26.417  31.295  1.00  0.00     0.054 A 
BRANCH  78  79
ATOM     79  S   UNL A   1      52.236  25.821  31.583  1.00  0.00     0.124 S 
ATOM     80  O   UNL A   1      52.822  25.914  30.249  1.00  0.00    -0.237 OA
ATOM     81  O   UNL A   1      52.750  26.775  32.563  1.00  0.00    -0.237 OA
ATOM     82  O   UNL A   1      52.043  24.463  32.087  1.00  0.00    -0.744 OA
ENDBRANCH  78  79
ENDBRANCH  52  73
ENDBRANCH  26  27
ENDBRANCH  18  21
ENDBRANCH  16  17
ENDBRANCH  15  16
ENDBRANCH   1  15
TORSDOF 17
ENDMDL
MODEL 2
REMARK VINA RESULT:      -8.6      4.978     11.071
REMARK SMILES O=C(CCCC[C@@H]1CCSS1)NCCCNC(=O)c1ccc(-c2c3nc(c(-c4ccc(S(=O)(=O)[O-])cc4)c4ccc([nH]4)c(-c4ccc(S(=O)(=O)[O-])cc4)c4nc(c(-c5ccc(S(=O)(=O)[O-])cc5)c5ccc2[nH]5)C=C4)C=C3)cc1
REMARK SMILES IDX 13 1 12 2 1 3 2 4 3 6 4 7 5 8 6 9 7 10 8 11 11 12 9 13 10 14
REMARK SMILES IDX 14 15 15 16 16 17 17 18 18 20 19 21 20 22 78 23 21 24 77 25
REMARK SMILES IDX 22 26 23 27 24 28 71 29 25 30 76 31 70 32 72 33 26 34 75 35
REMARK SMILES IDX 69 36 68 37 27 39 57 40 38 41 56 42 39 43 42 44 55 45 73 46
REMARK SMILES IDX 40 47 41 48 54 50 74 51 43 52 28 53 29 54 37 55 30 56 36 57
REMARK SMILES IDX 31 58 32 59 33 60 34 61 35 62 58 63 59 64 67 65 60 66 66 67
REMARK SMILES IDX 61 68 62 69 63 70 64 71 65 72 44 73 45 74 53 75 46 76 52 77
REMARK SMILES IDX 47 78 48 79 49 80 50 81 51 82
REMARK H PARENT 12 5 16 19 72 38 42 49
REMARK Flexibility Score: inf
ROOT
ATOM      1  C   UNL A   1      37.204  22.029  24.840  1.00  0.00     0.117 C 
ENDROOT
BRANCH   1   2
ATOM      2  N   UNL A   1      35.787  21.849  24.603  1.00  0.00    -0.356 N 
ATOM      3  O   UNL A   1      35.075  22.930  26.502  1.00  0.00    -0.275 OA
ATOM      4  C   UNL A   1      34.829  22.373  25.438  1.00  0.00     0.219 C 
ATOM      5  H   UNL A   1      35.499  21.332  23.817  1.00  0.00     0.163 HD
BRANCH   4   6
ATOM      6  C   UNL A   1      33.415  22.233  24.917  1.00  0.00     0.100 C 
BRANCH   6   7
ATOM      7  C   UNL A   1      33.349  21.376  23.649  1.00  0.00     0.010 C 
BRANCH   7   8
ATOM      8  C   UNL A   1      32.370  20.189  23.648  1.00  0.00     0.002 C 
BRANCH   8   9
ATOM      9  C   UNL A   1      32.416  19.223  24.842  1.00  0.00     0.015 C 
BRANCH   9  10
ATOM     10  C   UNL A   1      32.827  17.773  24.540  1.00  0.00     0.059 C 
ATOM     11  C   UNL A   1      32.478  16.732  25.605  1.00  0.00     0.027 C 
ATOM     12  S   UNL A   1      34.641  17.697  24.312  1.00  0.00    -0.091 SA
ATOM     13  C   UNL A   1      33.212  15.424  25.336  1.00  0.00     0.083 C 
ATOM     14  S   UNL A   1      34.953  15.865  25.174  1.00  0.00    -0.094 SA
ENDBRANCH   9  10
ENDBRANCH   8   9
ENDBRANCH   7   8
ENDBRANCH   6   7
ENDBRANCH   4   6
ENDBRANCH   1   2
BRANCH   1  15
ATOM     15  C   UNL A   1      37.910  20.730  25.207  1.00  0.00     0.042 C 
BRANCH  15  16
ATOM     16  C   UNL A   1      39.219  20.901  25.970  1.00  0.00     0.118 C 
BRANCH  16  17
ATOM     17  N   UNL A   1      40.051  19.706  25.978  1.00  0.00    -0.352 N 
ATOM     18  C   UNL A   1      41.416  19.594  26.139  1.00  0.00     0.251 C 
ATOM     19  H   UNL A   1      39.570  18.857  25.851  1.00  0.00     0.163 HD
ATOM     20  O   UNL A   1      41.962  18.511  26.004  1.00  0.00    -0.269 OA
BRANCH  18  21
ATOM     21  C   UNL A   1      42.217  20.803  26.439  1.00  0.00     0.039 A 
ATOM     22  C   UNL A   1      42.721  21.560  25.378  1.00  0.00     0.014 A 
ATOM     23  C   UNL A   1      42.435  21.207  27.757  1.00  0.00     0.014 A 
ATOM     24  C   UNL A   1      43.362  22.775  25.637  1.00  0.00     0.010 A 
ATOM     25  C   UNL A   1      43.012  22.449  28.012  1.00  0.00     0.010 A 
ATOM     26  C   UNL A   1      43.468  23.253  26.954  1.00  0.00    -0.014 A 
BRANCH  26  27
ATOM     27  C   UNL A   1      44.018  24.600  27.257  1.00  0.00     0.031 A 
ATOM     28  C   UNL A   1      43.101  25.710  27.689  1.00  0.00     0.074 A 
ATOM     29  C   UNL A   1      45.327  24.853  27.044  1.00  0.00     0.049 A 
ATOM     30  N   UNL A   1      43.365  26.981  27.858  1.00  0.00    -0.248 NA
ATOM     31  C   UNL A   1      41.696  25.349  27.939  1.00  0.00     0.031 C 
ATOM     32  C   UNL A   1      46.319  23.872  26.598  1.00  0.00     0.029 A 
ATOM     33  N   UNL A   1      46.042  26.019  27.156  1.00  0.00    -0.354 N 
ATOM     34  C   UNL A   1      42.158  27.575  28.207  1.00  0.00     0.074 A 
ATOM     35  C   UNL A   1      41.154  26.532  28.191  1.00  0.00     0.031 C 
ATOM     36  C   UNL A   1      47.514  24.475  26.486  1.00  0.00     0.029 A 
ATOM     37  C   UNL A   1      47.366  25.891  26.805  1.00  0.00     0.049 A 
ATOM     38  H   UNL A   1      45.646  26.868  27.459  1.00  0.00     0.167 HD
ATOM     39  C   UNL A   1      41.910  28.868  28.523  1.00  0.00     0.031 A 
ATOM     40  C   UNL A   1      48.348  26.811  26.727  1.00  0.00     0.031 A 
ATOM     41  C   UNL A   1      42.911  29.901  28.553  1.00  0.00     0.049 A 
ATOM     42  C   UNL A   1      48.046  28.244  27.070  1.00  0.00     0.074 A 
ATOM     43  C   UNL A   1      42.764  31.229  28.909  1.00  0.00     0.029 A 
ATOM     44  N   UNL A   1      44.244  29.721  28.214  1.00  0.00    -0.354 N 
ATOM     45  N   UNL A   1      46.908  28.777  27.444  1.00  0.00    -0.248 NA
ATOM     46  C   UNL A   1      49.161  29.198  26.987  1.00  0.00     0.031 C 
ATOM     47  C   UNL A   1      44.000  31.865  28.746  1.00  0.00     0.029 A 
ATOM     48  C   UNL A   1      44.927  30.919  28.339  1.00  0.00     0.049 A 
ATOM     49  H   UNL A   1      44.645  28.869  27.928  1.00  0.00     0.167 HD
ATOM     50  C   UNL A   1      47.177  30.122  27.672  1.00  0.00     0.074 A 
ATOM     51  C   UNL A   1      48.585  30.321  27.398  1.00  0.00     0.031 C 
ATOM     52  C   UNL A   1      46.332  31.101  28.077  1.00  0.00     0.031 A 
BRANCH  39  53
ATOM     53  C   UNL A   1      40.490  29.242  28.854  1.00  0.00    -0.014 A 
ATOM     54  C   UNL A   1      40.089  29.463  30.185  1.00  0.00     0.010 A 
ATOM     55  C   UNL A   1      39.551  29.411  27.820  1.00  0.00     0.010 A 
ATOM     56  C   UNL A   1      38.767  29.802  30.477  1.00  0.00     0.020 A 
ATOM     57  C   UNL A   1      38.234  29.777  28.107  1.00  0.00     0.020 A 
ATOM     58  C   UNL A   1      37.845  29.953  29.437  1.00  0.00     0.054 A 
BRANCH  58  59
ATOM     59  S   UNL A   1      36.138  30.407  29.844  1.00  0.00     0.124 S 
ATOM     60  O   UNL A   1      35.963  29.774  31.150  1.00  0.00    -0.237 OA
ATOM     61  O   UNL A   1      36.188  31.868  29.857  1.00  0.00    -0.237 OA
ATOM     62  O   UNL A   1      35.354  29.824  28.759  1.00  0.00    -0.744 OA
ENDBRANCH  58  59
ENDBRANCH  39  53
BRANCH  40  63
ATOM     63  C   UNL A   1      49.717  26.400  26.311  1.00  0.00    -0.014 A 
ATOM     64  C   UNL A   1      50.158  26.627  24.996  1.00  0.00     0.010 A 
ATOM     65  C   UNL A   1      50.592  25.796  27.232  1.00  0.00     0.010 A 
ATOM     66  C   UNL A   1      51.444  26.244  24.604  1.00  0.00     0.020 A 
ATOM     67  C   UNL A   1      51.888  25.434  26.849  1.00  0.00     0.020 A 
ATOM     68  C   UNL A   1      52.302  25.651  25.534  1.00  0.00     0.054 A 
BRANCH  68  69
ATOM     69  S   UNL A   1      53.985  25.212  25.018  1.00  0.00     0.124 S 
ATOM     70  O   UNL A   1      54.098  25.900  23.736  1.00  0.00    -0.237 OA
ATOM     71  O   UNL A   1      54.800  25.755  26.102  1.00  0.00    -0.237 OA
ATOM     72  O   UNL A   1      53.950  23.753  24.947  1.00  0.00    -0.744 OA
ENDBRANCH  68  69
ENDBRANCH  40  63
BRANCH  52  73
ATOM     73  C   UNL A   1      46.907  32.474  28.301  1.00  0.00    -0.014 A 
ATOM     74  C   UNL A   1      46.928  33.432  27.273  1.00  0.00     0.010 A 
ATOM     75  C   UNL A   1      47.348  32.834  29.587  1.00  0.00     0.010 A 
ATOM     76  C   UNL A   1      47.393  34.726  27.527  1.00  0.00     0.020 A 
ATOM     77  C   UNL A   1      47.791  34.132  29.850  1.00  0.00     0.020 A 
ATOM     78  C   UNL A   1      47.817  35.069  28.815  1.00  0.00     0.054 A 
BRANCH  78  79
ATOM     79  S   UNL A   1      48.343  36.775  29.138  1.00  0.00     0.124 S 
ATOM     80  O   UNL A   1      47.112  37.383  29.636  1.00  0.00    -0.237 OA
ATOM     81  O   UNL A   1      49.404  36.602  30.128  1.00  0.00    -0.237 OA
ATOM     82  O   UNL A   1      48.791  37.253  27.832  1.00  0.00    -0.744 OA
ENDBRANCH  78  79
ENDBRANCH  52  73
ENDBRANCH  26  27
ENDBRANCH  18  21
ENDBRANCH  16  17
ENDBRANCH  15  16
ENDBRANCH   1  15
TORSDOF 17
ENDMDL
MODEL 3
REMARK VINA RESULT:      -8.5      3.003      6.202
REMARK SMILES O=C(CCCC[C@@H]1CCSS1)NCCCNC(=O)c1ccc(-c2c3nc(c(-c4ccc(S(=O)(=O)[O-])cc4)c4ccc([nH]4)c(-c4ccc(S(=O)(=O)[O-])cc4)c4nc(c(-c5ccc(S(=O)(=O)[O-])cc5)c5ccc2[nH]5)C=C4)C=C3)cc1
REMARK SMILES IDX 13 1 12 2 1 3 2 4 3 6 4 7 5 8 6 9 7 10 8 11 11 12 9 13 10 14
REMARK SMILES IDX 14 15 15 16 16 17 17 18 18 20 19 21 20 22 78 23 21 24 77 25
REMARK SMILES IDX 22 26 23 27 24 28 71 29 25 30 76 31 70 32 72 33 26 34 75 35
REMARK SMILES IDX 69 36 68 37 27 39 57 40 38 41 56 42 39 43 42 44 55 45 73 46
REMARK SMILES IDX 40 47 41 48 54 50 74 51 43 52 28 53 29 54 37 55 30 56 36 57
REMARK SMILES IDX 31 58 32 59 33 60 34 61 35 62 58 63 59 64 67 65 60 66 66 67
REMARK SMILES IDX 61 68 62 69 63 70 64 71 65 72 44 73 45 74 53 75 46 76 52 77
REMARK SMILES IDX 47 78 48 79 49 80 50 81 51 82
REMARK H PARENT 12 5 16 19 72 38 42 49
REMARK Flexibility Score: inf
ROOT
ATOM      1  C   UNL A   1      31.777  28.997  25.289  1.00  0.00     0.117 C 
ENDROOT
BRANCH   1   2
ATOM      2  N   UNL A   1      30.878  27.885  25.058  1.00  0.00    -0.356 N 
ATOM      3  O   UNL A   1      31.373  27.621  22.830  1.00  0.00    -0.275 OA
ATOM      4  C   UNL A   1      30.794  27.247  23.844  1.00  0.00     0.219 C 
ATOM      5  H   UNL A   1      30.306  27.577  25.797  1.00  0.00     0.163 HD
BRANCH   4   6
ATOM      6  C   UNL A   1      29.937  25.999  23.862  1.00  0.00     0.100 C 
BRANCH   6   7
ATOM      7  C   UNL A   1      30.738  24.755  24.257  1.00  0.00     0.010 C 
BRANCH   7   8
ATOM      8  C   UNL A   1      32.196  24.966  24.704  1.00  0.00     0.002 C 
BRANCH   8   9
ATOM      9  C   UNL A   1      32.826  23.901  25.614  1.00  0.00     0.015 C 
BRANCH   9  10
ATOM     10  C   UNL A   1      33.565  22.747  24.917  1.00  0.00     0.059 C 
ATOM     11  C   UNL A   1      33.322  21.345  25.479  1.00  0.00     0.027 C 
ATOM     12  S   UNL A   1      35.368  23.042  25.014  1.00  0.00    -0.091 SA
ATOM     13  C   UNL A   1      34.341  20.361  24.920  1.00  0.00     0.083 C 
ATOM     14  S   UNL A   1      35.957  21.093  25.242  1.00  0.00    -0.094 SA
ENDBRANCH   9  10
ENDBRANCH   8   9
ENDBRANCH   7   8
ENDBRANCH   6   7
ENDBRANCH   4   6
ENDBRANCH   1   2
BRANCH   1  15
ATOM     15  C   UNL A   1      33.200  28.551  25.595  1.00  0.00     0.042 C 
BRANCH  15  16
ATOM     16  C   UNL A   1      33.610  28.661  27.060  1.00  0.00     0.118 C 
BRANCH  16  17
ATOM     17  N   UNL A   1      33.585  30.023  27.573  1.00  0.00    -0.352 N 
ATOM     18  C   UNL A   1      34.564  30.718  28.250  1.00  0.00     0.251 C 
ATOM     19  H   UNL A   1      32.749  30.518  27.414  1.00  0.00     0.163 HD
ATOM     20  O   UNL A   1      34.325  31.824  28.708  1.00  0.00    -0.269 OA
BRANCH  18  21
ATOM     21  C   UNL A   1      35.894  30.098  28.450  1.00  0.00     0.039 A 
ATOM     22  C   UNL A   1      36.815  30.122  27.400  1.00  0.00     0.014 A 
ATOM     23  C   UNL A   1      36.241  29.533  29.679  1.00  0.00     0.014 A 
ATOM     24  C   UNL A   1      38.119  29.663  27.613  1.00  0.00     0.010 A 
ATOM     25  C   UNL A   1      37.557  29.140  29.910  1.00  0.00     0.010 A 
ATOM     26  C   UNL A   1      38.514  29.215  28.885  1.00  0.00    -0.014 A 
BRANCH  26  27
ATOM     27  C   UNL A   1      39.924  28.851  29.185  1.00  0.00     0.031 A 
ATOM     28  C   UNL A   1      40.865  29.880  29.748  1.00  0.00     0.074 A 
ATOM     29  C   UNL A   1      40.384  27.627  28.854  1.00  0.00     0.049 A 
ATOM     30  N   UNL A   1      42.157  29.799  29.940  1.00  0.00    -0.248 NA
ATOM     31  C   UNL A   1      40.281  31.179  30.121  1.00  0.00     0.031 C 
ATOM     32  C   UNL A   1      39.583  26.546  28.274  1.00  0.00     0.029 A 
ATOM     33  N   UNL A   1      41.646  27.092  28.941  1.00  0.00    -0.354 N 
ATOM     34  C   UNL A   1      42.545  31.040  30.430  1.00  0.00     0.074 A 
ATOM     35  C   UNL A   1      41.358  31.867  30.471  1.00  0.00     0.031 C 
ATOM     36  C   UNL A   1      40.368  25.477  28.069  1.00  0.00     0.029 A 
ATOM     37  C   UNL A   1      41.736  25.808  28.456  1.00  0.00     0.049 A 
ATOM     38  H   UNL A   1      42.414  27.581  29.315  1.00  0.00     0.167 HD
ATOM     39  C   UNL A   1      43.775  31.451  30.819  1.00  0.00     0.031 A 
ATOM     40  C   UNL A   1      42.801  24.993  28.318  1.00  0.00     0.031 A 
ATOM     41  C   UNL A   1      44.951  30.624  30.791  1.00  0.00     0.049 A 
ATOM     42  C   UNL A   1      44.160  25.475  28.745  1.00  0.00     0.074 A 
ATOM     43  C   UNL A   1      46.232  30.936  31.212  1.00  0.00     0.029 A 
ATOM     44  N   UNL A   1      44.992  29.321  30.315  1.00  0.00    -0.354 N 
ATOM     45  N   UNL A   1      44.498  26.637  29.250  1.00  0.00    -0.248 NA
ATOM     46  C   UNL A   1      45.279  24.536  28.591  1.00  0.00     0.031 C 
ATOM     47  C   UNL A   1      47.057  29.837  30.953  1.00  0.00     0.029 A 
ATOM     48  C   UNL A   1      46.279  28.822  30.419  1.00  0.00     0.049 A 
ATOM     49  H   UNL A   1      44.221  28.826  29.958  1.00  0.00     0.167 HD
ATOM     50  C   UNL A   1      45.863  26.557  29.503  1.00  0.00     0.074 A 
ATOM     51  C   UNL A   1      46.287  25.233  29.099  1.00  0.00     0.031 C 
ATOM     52  C   UNL A   1      46.687  27.496  30.027  1.00  0.00     0.031 A 
BRANCH  39  53
ATOM     53  C   UNL A   1      43.913  32.869  31.303  1.00  0.00    -0.014 A 
ATOM     54  C   UNL A   1      43.757  33.190  32.664  1.00  0.00     0.010 A 
ATOM     55  C   UNL A   1      44.238  33.891  30.392  1.00  0.00     0.010 A 
ATOM     56  C   UNL A   1      43.881  34.512  33.097  1.00  0.00     0.020 A 
ATOM     57  C   UNL A   1      44.390  35.211  30.826  1.00  0.00     0.020 A 
ATOM     58  C   UNL A   1      44.192  35.516  32.175  1.00  0.00     0.054 A 
BRANCH  58  59
ATOM     59  S   UNL A   1      44.360  37.221  32.767  1.00  0.00     0.124 S 
ATOM     60  O   UNL A   1      43.302  37.295  33.773  1.00  0.00    -0.237 OA
ATOM     61  O   UNL A   1      45.724  37.247  33.289  1.00  0.00    -0.237 OA
ATOM     62  O   UNL A   1      44.139  38.028  31.570  1.00  0.00    -0.744 OA
ENDBRANCH  58  59
ENDBRANCH  39  53
BRANCH  40  63
ATOM     63  C   UNL A   1      42.620  23.627  27.754  1.00  0.00    -0.014 A 
ATOM     64  C   UNL A   1      42.918  23.372  26.404  1.00  0.00     0.010 A 
ATOM     65  C   UNL A   1      42.167  22.572  28.566  1.00  0.00     0.010 A 
ATOM     66  C   UNL A   1      42.751  22.089  25.872  1.00  0.00     0.020 A 
ATOM     67  C   UNL A   1      42.023  21.283  28.043  1.00  0.00     0.020 A 
ATOM     68  C   UNL A   1      42.306  21.053  26.696  1.00  0.00     0.054 A 
BRANCH  68  69
ATOM     69  S   UNL A   1      42.150  19.385  25.999  1.00  0.00     0.124 S 
ATOM     70  O   UNL A   1      40.706  19.262  25.830  1.00  0.00    -0.237 OA
ATOM     71  O   UNL A   1      42.925  19.484  24.765  1.00  0.00    -0.237 OA
ATOM     72  O   UNL A   1      42.737  18.530  27.027  1.00  0.00    -0.744 OA
ENDBRANCH  68  69
ENDBRANCH  40  63
BRANCH  52  73
ATOM     73  C   UNL A   1      48.127  27.121  30.247  1.00  0.00    -0.014 A 
ATOM     74  C   UNL A   1      49.114  27.425  29.295  1.00  0.00     0.010 A 
ATOM     75  C   UNL A   1      48.507  26.535  31.469  1.00  0.00     0.010 A 
ATOM     76  C   UNL A   1      50.457  27.139  29.556  1.00  0.00     0.020 A 
ATOM     77  C   UNL A   1      49.850  26.268  31.743  1.00  0.00     0.020 A 
ATOM     78  C   UNL A   1      50.817  26.566  30.781  1.00  0.00     0.054 A 
BRANCH  78  79
ATOM     79  S   UNL A   1      52.574  26.274  31.128  1.00  0.00     0.124 S 
ATOM     80  O   UNL A   1      52.931  27.460  31.902  1.00  0.00    -0.237 OA
ATOM     81  O   UNL A   1      52.549  25.020  31.877  1.00  0.00    -0.237 OA
ATOM     82  O   UNL A   1      53.180  26.189  29.802  1.00  0.00    -0.744 OA
ENDBRANCH  78  79
ENDBRANCH  52  73
ENDBRANCH  26  27
ENDBRANCH  18  21
ENDBRANCH  16  17
ENDBRANCH  15  16
ENDBRANCH   1  15
TORSDOF 17
ENDMDL
