MODEL 1
REMARK VINA RESULT:     -11.6      0.000      0.000
REMARK SMILES CC(C)CSc1cc2c(cc1Cl)C=C(C(=O)NCCCNC(=O)c1ccc(-c3c4nc(c(-c5ccc(S(=O)(=O)[O-])cc5)c5ccc([nH]5)c(-c5ccc(S(=O)(=O)[O-])cc5)c5nc(c(-c6ccc(S(=O)(=O)[O-])cc6)c6ccc3[nH]6)C=C5)C=C4)cc1)[C@@H](C(F)(F)F)O2
REMARK SMILES IDX 19 1 18 2 17 3 15 4 16 5 14 7 6 8 7 9 11 10 8 11 10 12 12 13
REMARK SMILES IDX 9 14 89 15 13 16 84 17 5 18 4 19 2 20 1 21 3 22 85 23 86 24
REMARK SMILES IDX 87 25 88 26 20 27 21 28 22 29 23 31 24 32 25 33 83 34 26 35
REMARK SMILES IDX 82 36 27 37 28 38 29 39 76 40 30 41 81 42 75 43 77 44 31 45
REMARK SMILES IDX 80 46 74 47 73 48 32 50 62 51 43 52 61 53 44 54 47 55 60 56
REMARK SMILES IDX 78 57 45 58 46 59 59 61 79 62 48 63 33 64 34 65 42 66 35 67
REMARK SMILES IDX 41 68 36 69 37 70 38 71 39 72 40 73 63 74 64 75 72 76 65 77
REMARK SMILES IDX 71 78 66 79 67 80 68 81 69 82 70 83 49 84 50 85 58 86 51 87
REMARK SMILES IDX 57 88 52 89 53 90 54 91 55 92 56 93
REMARK H PARENT 17 6 21 30 77 49 47 60
REMARK Flexibility Score: inf
ROOT
ATOM      1  C   UNL A   1      33.521  29.097  24.488  1.00  0.00     0.042 C 
ENDROOT
BRANCH   1   2
ATOM      2  C   UNL A   1      32.075  28.634  24.403  1.00  0.00     0.118 C 
BRANCH   2   3
ATOM      3  N   UNL A   1      31.536  28.289  25.709  1.00  0.00    -0.352 N 
ATOM      4  C   UNL A   1      31.342  27.165  26.436  1.00  0.00     0.251 C 
ATOM      5  O   UNL A   1      30.851  27.344  27.555  1.00  0.00    -0.270 OA
ATOM      6  H   UNL A   1      31.232  29.089  26.195  1.00  0.00     0.163 HD
BRANCH   4   7
ATOM      7  C   UNL A   1      31.675  25.782  25.991  1.00  0.00     0.067 C 
ATOM      8  C   UNL A   1      34.038  21.413  25.111  1.00  0.00     0.030 A 
ATOM      9  C   UNL A   1      32.698  21.818  25.125  1.00  0.00     0.063 A 
ATOM     10  C   UNL A   1      35.035  22.366  25.391  1.00  0.00     0.055 A 
ATOM     11  C   UNL A   1      32.362  23.127  25.457  1.00  0.00     0.129 A 
ATOM     12  C   UNL A   1      34.688  23.678  25.740  1.00  0.00     0.033 A 
ATOM     13  Cl  UNL A   1      36.722  21.979  25.375  1.00  0.00    -0.083 Cl
ATOM     14  C   UNL A   1      33.347  24.057  25.784  1.00  0.00     0.019 A 
ATOM     15  O   UNL A   1      31.031  23.432  25.490  1.00  0.00    -0.475 OA
ATOM     16  C   UNL A   1      32.946  25.394  26.203  1.00  0.00     0.025 C 
ATOM     17  C   UNL A   1      30.709  24.843  25.323  1.00  0.00     0.314 C 
BRANCH   8  18
ATOM     18  S   UNL A   1      34.415  19.700  24.755  1.00  0.00    -0.124 SA
BRANCH  18  19
ATOM     19  C   UNL A   1      32.769  19.057  24.259  1.00  0.00     0.078 C 
BRANCH  19  20
ATOM     20  C   UNL A   1      32.710  17.529  24.068  1.00  0.00    -0.007 C 
ATOM     21  C   UNL A   1      33.910  16.966  23.303  1.00  0.00     0.008 C 
ATOM     22  C   UNL A   1      32.645  16.850  25.441  1.00  0.00     0.008 C 
ENDBRANCH  19  20
ENDBRANCH  18  19
ENDBRANCH   8  18
BRANCH  17  23
ATOM     23  C   UNL A   1      30.531  25.149  23.823  1.00  0.00     0.429 C 
ATOM     24  F   UNL A   1      29.621  26.138  23.644  1.00  0.00    -0.167 F 
ATOM     25  F   UNL A   1      31.677  25.569  23.236  1.00  0.00    -0.167 F 
ATOM     26  F   UNL A   1      30.107  24.076  23.117  1.00  0.00    -0.167 F 
ENDBRANCH  17  23
ENDBRANCH   4   7
ENDBRANCH   2   3
ENDBRANCH   1   2
BRANCH   1  27
ATOM     27  C   UNL A   1      34.090  28.980  25.895  1.00  0.00     0.118 C 
BRANCH  27  28
ATOM     28  N   UNL A   1      33.903  30.205  26.672  1.00  0.00    -0.352 N 
ATOM     29  C   UNL A   1      34.638  30.719  27.714  1.00  0.00     0.251 C 
ATOM     30  H   UNL A   1      33.127  30.748  26.404  1.00  0.00     0.163 HD
ATOM     31  O   UNL A   1      34.189  31.660  28.365  1.00  0.00    -0.269 OA
BRANCH  29  32
ATOM     32  C   UNL A   1      35.945  30.127  28.064  1.00  0.00     0.039 A 
ATOM     33  C   UNL A   1      36.124  29.501  29.297  1.00  0.00     0.014 A 
ATOM     34  C   UNL A   1      37.005  30.201  27.157  1.00  0.00     0.014 A 
ATOM     35  C   UNL A   1      37.401  29.141  29.704  1.00  0.00     0.010 A 
ATOM     36  C   UNL A   1      38.269  29.727  27.524  1.00  0.00     0.010 A 
ATOM     37  C   UNL A   1      38.490  29.243  28.822  1.00  0.00    -0.014 A 
BRANCH  37  38
ATOM     38  C   UNL A   1      39.832  28.814  29.293  1.00  0.00     0.031 A 
ATOM     39  C   UNL A   1      40.426  27.501  28.860  1.00  0.00     0.074 A 
ATOM     40  C   UNL A   1      40.550  29.662  30.057  1.00  0.00     0.049 A 
ATOM     41  N   UNL A   1      41.618  27.022  29.113  1.00  0.00    -0.248 NA
ATOM     42  C   UNL A   1      39.584  26.609  28.047  1.00  0.00     0.031 C 
ATOM     43  C   UNL A   1      40.075  30.963  30.535  1.00  0.00     0.029 A 
ATOM     44  N   UNL A   1      41.839  29.589  30.522  1.00  0.00    -0.354 N 
ATOM     45  C   UNL A   1      41.657  25.765  28.521  1.00  0.00     0.074 A 
ATOM     46  C   UNL A   1      40.365  25.544  27.912  1.00  0.00     0.031 C 
ATOM     47  C   UNL A   1      41.084  31.601  31.143  1.00  0.00     0.029 A 
ATOM     48  C   UNL A   1      42.252  30.727  31.173  1.00  0.00     0.049 A 
ATOM     49  H   UNL A   1      42.413  28.797  30.401  1.00  0.00     0.167 HD
ATOM     50  C   UNL A   1      42.681  24.881  28.485  1.00  0.00     0.031 A 
ATOM     51  C   UNL A   1      43.433  31.044  31.738  1.00  0.00     0.031 A 
ATOM     52  C   UNL A   1      43.975  25.123  29.070  1.00  0.00     0.049 A 
ATOM     53  C   UNL A   1      44.554  30.051  31.684  1.00  0.00     0.074 A 
ATOM     54  C   UNL A   1      45.088  24.303  29.048  1.00  0.00     0.029 A 
ATOM     55  N   UNL A   1      44.330  26.262  29.777  1.00  0.00    -0.354 N 
ATOM     56  N   UNL A   1      44.575  28.874  31.106  1.00  0.00    -0.248 NA
ATOM     57  C   UNL A   1      45.805  30.417  32.360  1.00  0.00     0.031 C 
ATOM     58  C   UNL A   1      46.098  24.918  29.792  1.00  0.00     0.029 A 
ATOM     59  C   UNL A   1      45.637  26.153  30.222  1.00  0.00     0.049 A 
ATOM     60  H   UNL A   1      43.741  27.035  29.937  1.00  0.00     0.167 HD
ATOM     61  C   UNL A   1      45.837  28.354  31.353  1.00  0.00     0.074 A 
ATOM     62  C   UNL A   1      46.563  29.356  32.108  1.00  0.00     0.031 C 
ATOM     63  C   UNL A   1      46.343  27.149  30.990  1.00  0.00     0.031 A 
BRANCH  50  64
ATOM     64  C   UNL A   1      42.457  23.553  27.808  1.00  0.00    -0.014 A 
ATOM     65  C   UNL A   1      41.892  22.491  28.538  1.00  0.00     0.010 A 
ATOM     66  C   UNL A   1      42.892  23.321  26.491  1.00  0.00     0.010 A 
ATOM     67  C   UNL A   1      41.782  21.217  27.973  1.00  0.00     0.020 A 
ATOM     68  C   UNL A   1      42.760  22.054  25.913  1.00  0.00     0.020 A 
ATOM     69  C   UNL A   1      42.224  21.005  26.665  1.00  0.00     0.054 A 
BRANCH  69  70
ATOM     70  S   UNL A   1      42.074  19.346  25.945  1.00  0.00     0.124 S 
ATOM     71  O   UNL A   1      42.587  18.497  27.016  1.00  0.00    -0.237 OA
ATOM     72  O   UNL A   1      40.641  19.237  25.682  1.00  0.00    -0.237 OA
ATOM     73  O   UNL A   1      42.911  19.421  24.749  1.00  0.00    -0.744 OA
ENDBRANCH  69  70
ENDBRANCH  50  64
BRANCH  51  74
ATOM     74  C   UNL A   1      43.581  32.383  32.371  1.00  0.00    -0.014 A 
ATOM     75  C   UNL A   1      43.235  32.564  33.725  1.00  0.00     0.010 A 
ATOM     76  C   UNL A   1      43.910  33.504  31.592  1.00  0.00     0.010 A 
ATOM     77  C   UNL A   1      43.130  33.848  34.264  1.00  0.00     0.020 A 
ATOM     78  C   UNL A   1      43.836  34.790  32.137  1.00  0.00     0.020 A 
ATOM     79  C   UNL A   1      43.406  34.955  33.457  1.00  0.00     0.054 A 
BRANCH  79  80
ATOM     80  S   UNL A   1      43.154  36.615  34.142  1.00  0.00     0.124 S 
ATOM     81  O   UNL A   1      41.800  36.512  34.678  1.00  0.00    -0.237 OA
ATOM     82  O   UNL A   1      44.218  36.718  35.137  1.00  0.00    -0.237 OA
ATOM     83  O   UNL A   1      43.302  37.489  32.981  1.00  0.00    -0.744 OA
ENDBRANCH  79  80
ENDBRANCH  51  74
BRANCH  63  84
ATOM     84  C   UNL A   1      47.747  26.816  31.416  1.00  0.00    -0.014 A 
ATOM     85  C   UNL A   1      48.828  27.138  30.575  1.00  0.00     0.010 A 
ATOM     86  C   UNL A   1      47.982  26.065  32.581  1.00  0.00     0.010 A 
ATOM     87  C   UNL A   1      50.114  26.682  30.870  1.00  0.00     0.020 A 
ATOM     88  C   UNL A   1      49.274  25.632  32.895  1.00  0.00     0.020 A 
ATOM     89  C   UNL A   1      50.327  25.922  32.022  1.00  0.00     0.054 A 
BRANCH  89  90
ATOM     90  S   UNL A   1      51.997  25.309  32.374  1.00  0.00     0.124 S 
ATOM     91  O   UNL A   1      51.773  23.874  32.520  1.00  0.00    -0.237 OA
ATOM     92  O   UNL A   1      52.745  25.711  31.184  1.00  0.00    -0.237 OA
ATOM     93  O   UNL A   1      52.369  26.013  33.598  1.00  0.00    -0.744 OA
ENDBRANCH  89  90
ENDBRANCH  63  84
ENDBRANCH  37  38
ENDBRANCH  29  32
ENDBRANCH  27  28
ENDBRANCH   1  27
TORSDOF 17
ENDMDL
MODEL 2
REMARK VINA RESULT:     -11.5      3.833      9.164
REMARK SMILES CC(C)CSc1cc2c(cc1Cl)C=C(C(=O)NCCCNC(=O)c1ccc(-c3c4nc(c(-c5ccc(S(=O)(=O)[O-])cc5)c5ccc([nH]5)c(-c5ccc(S(=O)(=O)[O-])cc5)c5nc(c(-c6ccc(S(=O)(=O)[O-])cc6)c6ccc3[nH]6)C=C5)C=C4)cc1)[C@@H](C(F)(F)F)O2
REMARK SMILES IDX 19 1 18 2 17 3 15 4 16 5 14 7 6 8 7 9 11 10 8 11 10 12 12 13
REMARK SMILES IDX 9 14 89 15 13 16 84 17 5 18 4 19 2 20 1 21 3 22 85 23 86 24
REMARK SMILES IDX 87 25 88 26 20 27 21 28 22 29 23 31 24 32 25 33 83 34 26 35
REMARK SMILES IDX 82 36 27 37 28 38 29 39 76 40 30 41 81 42 75 43 77 44 31 45
REMARK SMILES IDX 80 46 74 47 73 48 32 50 62 51 43 52 61 53 44 54 47 55 60 56
REMARK SMILES IDX 78 57 45 58 46 59 59 61 79 62 48 63 33 64 34 65 42 66 35 67
REMARK SMILES IDX 41 68 36 69 37 70 38 71 39 72 40 73 63 74 64 75 72 76 65 77
REMARK SMILES IDX 71 78 66 79 67 80 68 81 69 82 70 83 49 84 50 85 58 86 51 87
REMARK SMILES IDX 57 88 52 89 53 90 54 91 55 92 56 93
REMARK H PARENT 17 6 21 30 77 49 47 60
REMARK Flexibility Score: inf
ROOT
ATOM      1  C   UNL A   1      31.319  31.946  26.449  1.00  0.00     0.042 C 
ENDROOT
BRANCH   1   2
ATOM      2  C   UNL A   1      31.492  30.623  25.721  1.00  0.00     0.118 C 
BRANCH   2   3
ATOM      3  N   UNL A   1      30.644  30.536  24.542  1.00  0.00    -0.352 N 
ATOM      4  C   UNL A   1      30.325  29.604  23.616  1.00  0.00     0.251 C 
ATOM      5  O   UNL A   1      29.510  29.970  22.762  1.00  0.00    -0.270 OA
ATOM      6  H   UNL A   1      30.175  31.386  24.373  1.00  0.00     0.163 HD
BRANCH   4   7
ATOM      7  C   UNL A   1      30.870  28.217  23.566  1.00  0.00     0.067 C 
ATOM      8  C   UNL A   1      31.732  23.318  24.405  1.00  0.00     0.030 A 
ATOM      9  C   UNL A   1      32.022  24.199  23.357  1.00  0.00     0.063 A 
ATOM     10  C   UNL A   1      31.047  23.811  25.533  1.00  0.00     0.055 A 
ATOM     11  C   UNL A   1      31.597  25.524  23.414  1.00  0.00     0.129 A 
ATOM     12  C   UNL A   1      30.609  25.140  25.575  1.00  0.00     0.033 A 
ATOM     13  Cl  UNL A   1      30.662  22.814  26.895  1.00  0.00    -0.083 Cl
ATOM     14  C   UNL A   1      30.875  25.997  24.508  1.00  0.00     0.019 A 
ATOM     15  O   UNL A   1      31.882  26.308  22.332  1.00  0.00    -0.475 OA
ATOM     16  C   UNL A   1      30.381  27.368  24.489  1.00  0.00     0.025 C 
ATOM     17  C   UNL A   1      31.911  27.741  22.592  1.00  0.00     0.314 C 
BRANCH   8  18
ATOM     18  S   UNL A   1      32.230  21.605  24.253  1.00  0.00    -0.124 SA
BRANCH  18  19
ATOM     19  C   UNL A   1      34.059  21.750  24.310  1.00  0.00     0.078 C 
BRANCH  19  20
ATOM     20  C   UNL A   1      34.652  21.815  25.731  1.00  0.00    -0.007 C 
ATOM     21  C   UNL A   1      34.867  23.245  26.232  1.00  0.00     0.008 C 
ATOM     22  C   UNL A   1      33.713  21.093  26.704  1.00  0.00     0.008 C 
ENDBRANCH  19  20
ENDBRANCH  18  19
ENDBRANCH   8  18
BRANCH  17  23
ATOM     23  C   UNL A   1      33.338  28.153  23.007  1.00  0.00     0.429 C 
ATOM     24  F   UNL A   1      34.229  27.821  22.041  1.00  0.00    -0.167 F 
ATOM     25  F   UNL A   1      33.460  29.487  23.201  1.00  0.00    -0.167 F 
ATOM     26  F   UNL A   1      33.742  27.557  24.152  1.00  0.00    -0.167 F 
ENDBRANCH  17  23
ENDBRANCH   4   7
ENDBRANCH   2   3
ENDBRANCH   1   2
BRANCH   1  27
ATOM     27  C   UNL A   1      32.609  32.428  27.099  1.00  0.00     0.118 C 
BRANCH  27  28
ATOM     28  N   UNL A   1      32.494  33.791  27.616  1.00  0.00    -0.352 N 
ATOM     29  C   UNL A   1      33.213  34.436  28.593  1.00  0.00     0.251 C 
ATOM     30  H   UNL A   1      31.789  34.333  27.195  1.00  0.00     0.163 HD
ATOM     31  O   UNL A   1      32.819  35.518  29.021  1.00  0.00    -0.269 OA
BRANCH  29  32
ATOM     32  C   UNL A   1      34.437  33.819  29.144  1.00  0.00     0.039 A 
ATOM     33  C   UNL A   1      34.345  32.751  30.036  1.00  0.00     0.014 A 
ATOM     34  C   UNL A   1      35.691  34.314  28.773  1.00  0.00     0.014 A 
ATOM     35  C   UNL A   1      35.479  32.321  30.710  1.00  0.00     0.010 A 
ATOM     36  C   UNL A   1      36.846  33.795  29.366  1.00  0.00     0.010 A 
ATOM     37  C   UNL A   1      36.746  32.831  30.381  1.00  0.00    -0.014 A 
BRANCH  37  38
ATOM     38  C   UNL A   1      37.935  32.316  31.108  1.00  0.00     0.031 A 
ATOM     39  C   UNL A   1      38.272  32.801  32.491  1.00  0.00     0.074 A 
ATOM     40  C   UNL A   1      38.668  31.339  30.537  1.00  0.00     0.049 A 
ATOM     41  N   UNL A   1      39.223  32.390  33.291  1.00  0.00    -0.248 NA
ATOM     42  C   UNL A   1      37.449  33.886  33.051  1.00  0.00     0.031 C 
ATOM     43  C   UNL A   1      38.430  30.788  29.199  1.00  0.00     0.029 A 
ATOM     44  N   UNL A   1      39.720  30.601  31.016  1.00  0.00    -0.354 N 
ATOM     45  C   UNL A   1      39.134  33.182  34.430  1.00  0.00     0.074 A 
ATOM     46  C   UNL A   1      38.050  34.114  34.212  1.00  0.00     0.031 C 
ATOM     47  C   UNL A   1      39.246  29.745  29.004  1.00  0.00     0.029 A 
ATOM     48  C   UNL A   1      40.122  29.600  30.163  1.00  0.00     0.049 A 
ATOM     49  H   UNL A   1      40.147  30.771  31.888  1.00  0.00     0.167 HD
ATOM     50  C   UNL A   1      39.886  33.131  35.554  1.00  0.00     0.031 A 
ATOM     51  C   UNL A   1      41.085  28.666  30.285  1.00  0.00     0.031 A 
ATOM     52  C   UNL A   1      40.944  32.179  35.773  1.00  0.00     0.049 A 
ATOM     53  C   UNL A   1      41.903  28.627  31.540  1.00  0.00     0.074 A 
ATOM     54  C   UNL A   1      41.733  32.024  36.898  1.00  0.00     0.029 A 
ATOM     55  N   UNL A   1      41.361  31.225  34.856  1.00  0.00    -0.354 N 
ATOM     56  N   UNL A   1      41.792  29.376  32.610  1.00  0.00    -0.248 NA
ATOM     57  C   UNL A   1      42.977  27.628  31.607  1.00  0.00     0.031 C 
ATOM     58  C   UNL A   1      42.667  31.017  36.640  1.00  0.00     0.029 A 
ATOM     59  C   UNL A   1      42.417  30.498  35.379  1.00  0.00     0.049 A 
ATOM     60  H   UNL A   1      40.964  31.085  33.965  1.00  0.00     0.167 HD
ATOM     61  C   UNL A   1      42.786  28.945  33.478  1.00  0.00     0.074 A 
ATOM     62  C   UNL A   1      43.471  27.850  32.820  1.00  0.00     0.031 C 
ATOM     63  C   UNL A   1      43.104  29.423  34.706  1.00  0.00     0.031 A 
BRANCH  50  64
ATOM     64  C   UNL A   1      39.615  34.139  36.642  1.00  0.00    -0.014 A 
ATOM     65  C   UNL A   1      40.222  35.407  36.578  1.00  0.00     0.010 A 
ATOM     66  C   UNL A   1      38.849  33.805  37.773  1.00  0.00     0.010 A 
ATOM     67  C   UNL A   1      40.084  36.316  37.630  1.00  0.00     0.020 A 
ATOM     68  C   UNL A   1      38.687  34.723  38.816  1.00  0.00     0.020 A 
ATOM     69  C   UNL A   1      39.323  35.966  38.747  1.00  0.00     0.054 A 
BRANCH  69  70
ATOM     70  S   UNL A   1      39.153  37.157  40.105  1.00  0.00     0.124 S 
ATOM     71  O   UNL A   1      40.544  37.447  40.436  1.00  0.00    -0.237 OA
ATOM     72  O   UNL A   1      38.410  38.250  39.482  1.00  0.00    -0.237 OA
ATOM     73  O   UNL A   1      38.409  36.411  41.118  1.00  0.00    -0.744 OA
ENDBRANCH  69  70
ENDBRANCH  50  64
BRANCH  51  74
ATOM     74  C   UNL A   1      41.278  27.696  29.174  1.00  0.00    -0.014 A 
ATOM     75  C   UNL A   1      40.493  26.528  29.113  1.00  0.00     0.010 A 
ATOM     76  C   UNL A   1      42.344  27.853  28.272  1.00  0.00     0.010 A 
ATOM     77  C   UNL A   1      40.824  25.497  28.231  1.00  0.00     0.020 A 
ATOM     78  C   UNL A   1      42.659  26.835  27.366  1.00  0.00     0.020 A 
ATOM     79  C   UNL A   1      41.922  25.647  27.381  1.00  0.00     0.054 A 
BRANCH  79  80
ATOM     80  S   UNL A   1      42.404  24.253  26.326  1.00  0.00     0.124 S 
ATOM     81  O   UNL A   1      43.567  23.730  27.038  1.00  0.00    -0.237 OA
ATOM     82  O   UNL A   1      41.216  23.404  26.352  1.00  0.00    -0.237 OA
ATOM     83  O   UNL A   1      42.689  24.882  25.039  1.00  0.00    -0.744 OA
ENDBRANCH  79  80
ENDBRANCH  51  74
BRANCH  63  84
ATOM     84  C   UNL A   1      44.259  28.789  35.433  1.00  0.00    -0.014 A 
ATOM     85  C   UNL A   1      45.569  29.239  35.189  1.00  0.00     0.010 A 
ATOM     86  C   UNL A   1      44.059  27.664  36.251  1.00  0.00     0.010 A 
ATOM     87  C   UNL A   1      46.664  28.552  35.720  1.00  0.00     0.020 A 
ATOM     88  C   UNL A   1      45.151  26.990  36.807  1.00  0.00     0.020 A 
ATOM     89  C   UNL A   1      46.447  27.424  36.515  1.00  0.00     0.054 A 
BRANCH  89  90
ATOM     90  S   UNL A   1      47.879  26.523  37.167  1.00  0.00     0.124 S 
ATOM     91  O   UNL A   1      47.906  25.335  36.319  1.00  0.00    -0.237 OA
ATOM     92  O   UNL A   1      48.976  27.467  36.962  1.00  0.00    -0.237 OA
ATOM     93  O   UNL A   1      47.527  26.286  38.564  1.00  0.00    -0.744 OA
ENDBRANCH  89  90
ENDBRANCH  63  84
ENDBRANCH  37  38
ENDBRANCH  29  32
ENDBRANCH  27  28
ENDBRANCH   1  27
TORSDOF 17
ENDMDL
MODEL 3
REMARK VINA RESULT:     -11.4      3.262      8.626
REMARK SMILES CC(C)CSc1cc2c(cc1Cl)C=C(C(=O)NCCCNC(=O)c1ccc(-c3c4nc(c(-c5ccc(S(=O)(=O)[O-])cc5)c5ccc([nH]5)c(-c5ccc(S(=O)(=O)[O-])cc5)c5nc(c(-c6ccc(S(=O)(=O)[O-])cc6)c6ccc3[nH]6)C=C5)C=C4)cc1)[C@@H](C(F)(F)F)O2
REMARK SMILES IDX 19 1 18 2 17 3 15 4 16 5 14 7 6 8 7 9 11 10 8 11 10 12 12 13
REMARK SMILES IDX 9 14 89 15 13 16 84 17 5 18 4 19 2 20 1 21 3 22 85 23 86 24
REMARK SMILES IDX 87 25 88 26 20 27 21 28 22 29 23 31 24 32 25 33 83 34 26 35
REMARK SMILES IDX 82 36 27 37 28 38 29 39 76 40 30 41 81 42 75 43 77 44 31 45
REMARK SMILES IDX 80 46 74 47 73 48 32 50 62 51 43 52 61 53 44 54 47 55 60 56
REMARK SMILES IDX 78 57 45 58 46 59 59 61 79 62 48 63 33 64 34 65 42 66 35 67
REMARK SMILES IDX 41 68 36 69 37 70 38 71 39 72 40 73 63 74 64 75 72 76 65 77
REMARK SMILES IDX 71 78 66 79 67 80 68 81 69 82 70 83 49 84 50 85 58 86 51 87
REMARK SMILES IDX 57 88 52 89 53 90 54 91 55 92 56 93
REMARK H PARENT 17 6 21 30 77 49 47 60
REMARK Flexibility Score: inf
ROOT
ATOM      1  C   UNL A   1      35.981  22.787  24.171  1.00  0.00     0.042 C 
ENDROOT
BRANCH   1   2
ATOM      2  C   UNL A   1      35.164  21.777  24.961  1.00  0.00     0.118 C 
BRANCH   2   3
ATOM      3  N   UNL A   1      34.065  21.235  24.177  1.00  0.00    -0.352 N 
ATOM      4  C   UNL A   1      32.864  21.662  23.724  1.00  0.00     0.251 C 
ATOM      5  O   UNL A   1      32.237  20.840  23.048  1.00  0.00    -0.270 OA
ATOM      6  H   UNL A   1      34.244  20.306  23.902  1.00  0.00     0.163 HD
BRANCH   4   7
ATOM      7  C   UNL A   1      32.278  23.009  23.975  1.00  0.00     0.067 C 
ATOM      8  C   UNL A   1      31.223  27.940  23.816  1.00  0.00     0.030 A 
ATOM      9  C   UNL A   1      30.548  26.806  24.286  1.00  0.00     0.063 A 
ATOM     10  C   UNL A   1      32.498  27.776  23.241  1.00  0.00     0.055 A 
ATOM     11  C   UNL A   1      31.110  25.541  24.139  1.00  0.00     0.129 A 
ATOM     12  C   UNL A   1      33.049  26.499  23.082  1.00  0.00     0.033 A 
ATOM     13  Cl  UNL A   1      33.429  29.112  22.653  1.00  0.00    -0.083 Cl
ATOM     14  C   UNL A   1      32.349  25.376  23.523  1.00  0.00     0.019 A 
ATOM     15  O   UNL A   1      30.369  24.484  24.584  1.00  0.00    -0.475 OA
ATOM     16  C   UNL A   1      32.863  24.028  23.318  1.00  0.00     0.025 C 
ATOM     17  C   UNL A   1      31.127  23.282  24.903  1.00  0.00     0.314 C 
BRANCH   8  18
ATOM     18  S   UNL A   1      30.426  29.536  23.956  1.00  0.00    -0.124 SA
BRANCH  18  19
ATOM     19  C   UNL A   1      29.565  29.659  22.340  1.00  0.00     0.078 C 
BRANCH  19  20
ATOM     20  C   UNL A   1      28.039  29.849  22.440  1.00  0.00    -0.007 C 
ATOM     21  C   UNL A   1      27.326  28.680  23.124  1.00  0.00     0.008 C 
ATOM     22  C   UNL A   1      27.741  31.130  23.228  1.00  0.00     0.008 C 
ENDBRANCH  19  20
ENDBRANCH  18  19
ENDBRANCH   8  18
BRANCH  17  23
ATOM     23  C   UNL A   1      31.561  23.333  26.381  1.00  0.00     0.429 C 
ATOM     24  F   UNL A   1      30.493  23.561  27.183  1.00  0.00    -0.167 F 
ATOM     25  F   UNL A   1      32.118  22.172  26.802  1.00  0.00    -0.167 F 
ATOM     26  F   UNL A   1      32.467  24.307  26.626  1.00  0.00    -0.167 F 
ENDBRANCH  17  23
ENDBRANCH   4   7
ENDBRANCH   2   3
ENDBRANCH   1   2
BRANCH   1  27
ATOM     27  C   UNL A   1      37.042  23.473  25.021  1.00  0.00     0.118 C 
BRANCH  27  28
ATOM     28  N   UNL A   1      38.127  22.565  25.391  1.00  0.00    -0.352 N 
ATOM     29  C   UNL A   1      39.300  22.808  26.065  1.00  0.00     0.251 C 
ATOM     30  H   UNL A   1      37.995  21.630  25.114  1.00  0.00     0.163 HD
ATOM     31  O   UNL A   1      40.174  21.944  26.091  1.00  0.00    -0.269 OA
BRANCH  29  32
ATOM     32  C   UNL A   1      39.519  24.109  26.730  1.00  0.00     0.039 A 
ATOM     33  C   UNL A   1      40.171  25.141  26.056  1.00  0.00     0.014 A 
ATOM     34  C   UNL A   1      39.077  24.300  28.042  1.00  0.00     0.014 A 
ATOM     35  C   UNL A   1      40.561  26.275  26.752  1.00  0.00     0.010 A 
ATOM     36  C   UNL A   1      39.367  25.496  28.706  1.00  0.00     0.010 A 
ATOM     37  C   UNL A   1      40.160  26.473  28.084  1.00  0.00    -0.014 A 
BRANCH  37  38
ATOM     38  C   UNL A   1      40.576  27.719  28.778  1.00  0.00     0.031 A 
ATOM     39  C   UNL A   1      42.003  27.934  29.204  1.00  0.00     0.074 A 
ATOM     40  C   UNL A   1      39.664  28.697  28.952  1.00  0.00     0.049 A 
ATOM     41  N   UNL A   1      42.542  28.998  29.742  1.00  0.00    -0.248 NA
ATOM     42  C   UNL A   1      42.946  26.821  29.010  1.00  0.00     0.031 C 
ATOM     43  C   UNL A   1      38.251  28.599  28.575  1.00  0.00     0.029 A 
ATOM     44  N   UNL A   1      39.789  29.974  29.435  1.00  0.00    -0.354 N 
ATOM     45  C   UNL A   1      43.873  28.674  29.980  1.00  0.00     0.074 A 
ATOM     46  C   UNL A   1      44.058  27.307  29.547  1.00  0.00     0.031 C 
ATOM     47  C   UNL A   1      37.666  29.790  28.754  1.00  0.00     0.029 A 
ATOM     48  C   UNL A   1      38.635  30.714  29.335  1.00  0.00     0.049 A 
ATOM     49  H   UNL A   1      40.626  30.328  29.816  1.00  0.00     0.167 HD
ATOM     50  C   UNL A   1      44.849  29.450  30.505  1.00  0.00     0.031 A 
ATOM     51  C   UNL A   1      38.371  31.992  29.671  1.00  0.00     0.031 A 
ATOM     52  C   UNL A   1      44.662  30.820  30.906  1.00  0.00     0.049 A 
ATOM     53  C   UNL A   1      39.468  32.833  30.249  1.00  0.00     0.074 A 
ATOM     54  C   UNL A   1      45.603  31.698  31.410  1.00  0.00     0.029 A 
ATOM     55  N   UNL A   1      43.460  31.511  30.848  1.00  0.00    -0.354 N 
ATOM     56  N   UNL A   1      40.723  32.511  30.451  1.00  0.00    -0.248 NA
ATOM     57  C   UNL A   1      39.121  34.202  30.651  1.00  0.00     0.031 C 
ATOM     58  C   UNL A   1      44.960  32.901  31.714  1.00  0.00     0.029 A 
ATOM     59  C   UNL A   1      43.630  32.795  31.336  1.00  0.00     0.049 A 
ATOM     60  H   UNL A   1      42.612  31.142  30.508  1.00  0.00     0.167 HD
ATOM     61  C   UNL A   1      41.316  33.634  31.011  1.00  0.00     0.074 A 
ATOM     62  C   UNL A   1      40.290  34.655  31.088  1.00  0.00     0.031 C 
ATOM     63  C   UNL A   1      42.596  33.797  31.427  1.00  0.00     0.031 A 
BRANCH  50  64
ATOM     64  C   UNL A   1      46.216  28.844  30.701  1.00  0.00    -0.014 A 
ATOM     65  C   UNL A   1      47.142  28.869  29.642  1.00  0.00     0.010 A 
ATOM     66  C   UNL A   1      46.551  28.165  31.886  1.00  0.00     0.010 A 
ATOM     67  C   UNL A   1      48.371  28.211  29.755  1.00  0.00     0.020 A 
ATOM     68  C   UNL A   1      47.790  27.528  32.013  1.00  0.00     0.020 A 
ATOM     69  C   UNL A   1      48.684  27.539  30.938  1.00  0.00     0.054 A 
BRANCH  69  70
ATOM     70  S   UNL A   1      50.283  26.690  31.070  1.00  0.00     0.124 S 
ATOM     71  O   UNL A   1      49.948  25.334  30.649  1.00  0.00    -0.237 OA
ATOM     72  O   UNL A   1      51.127  27.449  30.150  1.00  0.00    -0.237 OA
ATOM     73  O   UNL A   1      50.629  26.840  32.483  1.00  0.00    -0.744 OA
ENDBRANCH  69  70
ENDBRANCH  50  64
BRANCH  51  74
ATOM     74  C   UNL A   1      37.001  32.521  29.429  1.00  0.00    -0.014 A 
ATOM     75  C   UNL A   1      36.711  33.207  28.234  1.00  0.00     0.010 A 
ATOM     76  C   UNL A   1      36.035  32.482  30.449  1.00  0.00     0.010 A 
ATOM     77  C   UNL A   1      35.517  33.918  28.097  1.00  0.00     0.020 A 
ATOM     78  C   UNL A   1      34.826  33.169  30.303  1.00  0.00     0.020 A 
ATOM     79  C   UNL A   1      34.593  33.916  29.145  1.00  0.00     0.054 A 
BRANCH  79  80
ATOM     80  S   UNL A   1      33.102  34.938  28.993  1.00  0.00     0.124 S 
ATOM     81  O   UNL A   1      32.326  34.186  28.010  1.00  0.00    -0.237 OA
ATOM     82  O   UNL A   1      32.568  34.933  30.352  1.00  0.00    -0.237 OA
ATOM     83  O   UNL A   1      33.617  36.225  28.532  1.00  0.00    -0.744 OA
ENDBRANCH  79  80
ENDBRANCH  51  74
BRANCH  63  84
ATOM     84  C   UNL A   1      42.978  35.121  32.033  1.00  0.00    -0.014 A 
ATOM     85  C   UNL A   1      43.600  36.099  31.237  1.00  0.00     0.010 A 
ATOM     86  C   UNL A   1      42.844  35.340  33.415  1.00  0.00     0.010 A 
ATOM     87  C   UNL A   1      44.117  37.259  31.818  1.00  0.00     0.020 A 
ATOM     88  C   UNL A   1      43.335  36.513  33.996  1.00  0.00     0.020 A 
ATOM     89  C   UNL A   1      43.992  37.453  33.196  1.00  0.00     0.054 A 
BRANCH  89  90
ATOM     90  S   UNL A   1      44.699  38.948  33.940  1.00  0.00     0.124 S 
ATOM     91  O   UNL A   1      44.299  39.981  32.990  1.00  0.00    -0.237 OA
ATOM     92  O   UNL A   1      44.040  39.002  35.244  1.00  0.00    -0.237 OA
ATOM     93  O   UNL A   1      46.130  38.662  33.988  1.00  0.00    -0.744 OA
ENDBRANCH  89  90
ENDBRANCH  63  84
ENDBRANCH  37  38
ENDBRANCH  29  32
ENDBRANCH  27  28
ENDBRANCH   1  27
TORSDOF 17
ENDMDL
