MODEL 1
REMARK VINA RESULT:     -11.2      0.000      0.000
REMARK SMILES O=C(NCCCNC(=O)c1ccn(CC(F)(F)F)c1)c1ccc(-c2c3nc(c(-c4ccc(S(=O)(=O)[O-])cc4)c4ccc([nH]4)c(-c4ccc(S(=O)(=O)[O-])cc4)c4nc(c(-c5ccc(S(=O)(=O)[O-])cc5)c5ccc2[nH]5)C=C4)C=C3)cc1
REMARK SMILES IDX 4 1 3 2 1 3 2 4 20 6 21 7 79 8 22 9 78 10 23 11 24 12 25 13
REMARK SMILES IDX 72 14 26 15 77 16 71 17 73 18 27 19 76 20 70 21 69 22 28 24
REMARK SMILES IDX 58 25 39 26 57 27 40 28 43 29 56 30 74 31 41 32 42 33 55 35
REMARK SMILES IDX 75 36 44 37 29 38 30 39 38 40 31 41 37 42 32 43 33 44 34 45
REMARK SMILES IDX 35 46 36 47 59 48 60 49 68 50 61 51 67 52 62 53 63 54 64 55
REMARK SMILES IDX 65 56 66 57 45 58 46 59 54 60 47 61 53 62 48 63 49 64 50 65
REMARK SMILES IDX 51 66 52 67 5 68 6 69 7 70 8 71 9 73 10 74 11 75 19 76 12 77
REMARK SMILES IDX 13 78 14 79 15 80 16 81 17 82 18 83
REMARK H PARENT 3 5 73 23 43 34 7 72
REMARK Flexibility Score: inf
ROOT
ATOM      1  C   UNL A   1      34.550  28.229  26.948  1.00  0.00     0.118 C 
ENDROOT
BRANCH   1   2
ATOM      2  N   UNL A   1      34.752  29.607  27.360  1.00  0.00    -0.352 N 
ATOM      3  O   UNL A   1      35.749  31.560  27.747  1.00  0.00    -0.269 OA
ATOM      4  C   UNL A   1      35.868  30.337  27.681  1.00  0.00     0.251 C 
ATOM      5  H   UNL A   1      33.916  30.123  27.423  1.00  0.00     0.163 HD
BRANCH   4   6
ATOM      6  C   UNL A   1      37.154  29.709  28.070  1.00  0.00     0.039 A 
ATOM      7  C   UNL A   1      38.319  29.772  27.305  1.00  0.00     0.014 A 
ATOM      8  C   UNL A   1      37.154  28.964  29.262  1.00  0.00     0.014 A 
ATOM      9  C   UNL A   1      39.409  28.977  27.629  1.00  0.00     0.010 A 
ATOM     10  C   UNL A   1      38.258  28.193  29.618  1.00  0.00     0.010 A 
ATOM     11  C   UNL A   1      39.374  28.181  28.780  1.00  0.00    -0.014 A 
BRANCH  11  12
ATOM     12  C   UNL A   1      40.652  27.576  29.213  1.00  0.00     0.031 A 
ATOM     13  C   UNL A   1      40.921  26.294  28.375  1.00  0.00     0.074 A 
ATOM     14  C   UNL A   1      41.282  28.157  30.289  1.00  0.00     0.049 A 
ATOM     15  N   UNL A   1      41.576  25.224  28.693  1.00  0.00    -0.248 NA
ATOM     16  C   UNL A   1      40.298  26.128  27.023  1.00  0.00     0.031 C 
ATOM     17  C   UNL A   1      40.862  29.423  30.949  1.00  0.00     0.029 A 
ATOM     18  N   UNL A   1      42.383  27.831  31.060  1.00  0.00    -0.354 N 
ATOM     19  C   UNL A   1      41.624  24.375  27.559  1.00  0.00     0.074 A 
ATOM     20  C   UNL A   1      40.730  24.937  26.598  1.00  0.00     0.031 C 
ATOM     21  C   UNL A   1      41.613  29.685  32.048  1.00  0.00     0.029 A 
ATOM     22  C   UNL A   1      42.617  28.649  32.211  1.00  0.00     0.049 A 
ATOM     23  H   UNL A   1      42.974  27.078  30.829  1.00  0.00     0.167 HD
ATOM     24  C   UNL A   1      42.508  23.338  27.452  1.00  0.00     0.031 A 
ATOM     25  C   UNL A   1      43.525  28.471  33.229  1.00  0.00     0.031 A 
ATOM     26  C   UNL A   1      43.247  23.230  28.663  1.00  0.00     0.049 A 
ATOM     27  C   UNL A   1      44.368  27.354  32.775  1.00  0.00     0.074 A 
ATOM     28  C   UNL A   1      42.881  22.836  29.922  1.00  0.00     0.029 A 
ATOM     29  N   UNL A   1      44.399  23.980  28.723  1.00  0.00    -0.354 N 
ATOM     30  N   UNL A   1      45.241  27.424  31.820  1.00  0.00    -0.248 NA
ATOM     31  C   UNL A   1      44.173  26.033  33.388  1.00  0.00     0.031 C 
ATOM     32  C   UNL A   1      43.486  23.822  30.726  1.00  0.00     0.029 A 
ATOM     33  C   UNL A   1      44.420  24.543  29.970  1.00  0.00     0.049 A 
ATOM     34  H   UNL A   1      45.071  24.090  28.013  1.00  0.00     0.167 HD
ATOM     35  C   UNL A   1      45.372  26.108  31.462  1.00  0.00     0.074 A 
ATOM     36  C   UNL A   1      45.000  25.323  32.625  1.00  0.00     0.031 C 
ATOM     37  C   UNL A   1      45.181  25.750  30.166  1.00  0.00     0.031 A 
BRANCH  24  38
ATOM     38  C   UNL A   1      43.015  22.520  26.294  1.00  0.00    -0.014 A 
ATOM     39  C   UNL A   1      42.578  21.168  26.240  1.00  0.00     0.010 A 
ATOM     40  C   UNL A   1      44.134  22.867  25.528  1.00  0.00     0.010 A 
ATOM     41  C   UNL A   1      43.318  20.176  25.597  1.00  0.00     0.020 A 
ATOM     42  C   UNL A   1      44.862  21.877  24.838  1.00  0.00     0.020 A 
ATOM     43  C   UNL A   1      44.479  20.534  24.926  1.00  0.00     0.054 A 
BRANCH  43  44
ATOM     44  S   UNL A   1      45.507  19.202  24.244  1.00  0.00     0.124 S 
ATOM     45  O   UNL A   1      45.282  18.120  25.198  1.00  0.00    -0.237 OA
ATOM     46  O   UNL A   1      44.919  18.999  22.921  1.00  0.00    -0.237 OA
ATOM     47  O   UNL A   1      46.850  19.772  24.239  1.00  0.00    -0.744 OA
ENDBRANCH  43  44
ENDBRANCH  24  38
BRANCH  25  48
ATOM     48  C   UNL A   1      43.855  28.959  34.639  1.00  0.00    -0.014 A 
ATOM     49  C   UNL A   1      45.106  29.341  35.138  1.00  0.00     0.010 A 
ATOM     50  C   UNL A   1      42.758  29.210  35.525  1.00  0.00     0.010 A 
ATOM     51  C   UNL A   1      45.218  30.084  36.350  1.00  0.00     0.020 A 
ATOM     52  C   UNL A   1      42.841  29.995  36.681  1.00  0.00     0.020 A 
ATOM     53  C   UNL A   1      44.077  30.465  37.072  1.00  0.00     0.054 A 
BRANCH  53  54
ATOM     54  S   UNL A   1      44.170  31.693  38.415  1.00  0.00     0.124 S 
ATOM     55  O   UNL A   1      45.419  32.390  38.125  1.00  0.00    -0.237 OA
ATOM     56  O   UNL A   1      42.950  32.473  38.219  1.00  0.00    -0.237 OA
ATOM     57  O   UNL A   1      44.180  30.877  39.629  1.00  0.00    -0.744 OA
ENDBRANCH  53  54
ENDBRANCH  25  48
BRANCH  37  58
ATOM     58  C   UNL A   1      45.455  26.820  29.115  1.00  0.00    -0.014 A 
ATOM     59  C   UNL A   1      46.770  27.293  28.949  1.00  0.00     0.010 A 
ATOM     60  C   UNL A   1      44.458  27.421  28.316  1.00  0.00     0.010 A 
ATOM     61  C   UNL A   1      47.085  28.304  28.026  1.00  0.00     0.020 A 
ATOM     62  C   UNL A   1      44.761  28.442  27.389  1.00  0.00     0.020 A 
ATOM     63  C   UNL A   1      46.080  28.870  27.243  1.00  0.00     0.054 A 
BRANCH  63  64
ATOM     64  S   UNL A   1      46.539  30.148  26.032  1.00  0.00     0.124 S 
ATOM     65  O   UNL A   1      47.843  30.599  26.515  1.00  0.00    -0.237 OA
ATOM     66  O   UNL A   1      46.564  29.399  24.779  1.00  0.00    -0.237 OA
ATOM     67  O   UNL A   1      45.468  31.139  26.142  1.00  0.00    -0.744 OA
ENDBRANCH  63  64
ENDBRANCH  37  58
ENDBRANCH  11  12
ENDBRANCH   4   6
ENDBRANCH   1   2
BRANCH   1  68
ATOM     68  C   UNL A   1      33.102  27.774  26.765  1.00  0.00     0.042 C 
BRANCH  68  69
ATOM     69  C   UNL A   1      32.943  26.389  26.143  1.00  0.00     0.118 C 
BRANCH  69  70
ATOM     70  N   UNL A   1      31.798  25.675  26.690  1.00  0.00    -0.352 N 
ATOM     71  C   UNL A   1      31.587  24.336  26.826  1.00  0.00     0.252 C 
ATOM     72  H   UNL A   1      31.064  26.248  27.012  1.00  0.00     0.163 HD
ATOM     73  O   UNL A   1      30.425  23.942  27.042  1.00  0.00    -0.269 OA
BRANCH  71  74
ATOM     74  C   UNL A   1      32.696  23.406  26.716  1.00  0.00     0.057 A 
ATOM     75  C   UNL A   1      33.308  22.609  27.729  1.00  0.00     0.033 A 
ATOM     76  C   UNL A   1      33.324  23.060  25.530  1.00  0.00     0.099 A 
ATOM     77  C   UNL A   1      34.305  21.862  27.142  1.00  0.00     0.087 A 
ATOM     78  N   UNL A   1      34.326  22.168  25.808  1.00  0.00    -0.344 N 
BRANCH  78  79
ATOM     79  C   UNL A   1      35.221  21.582  24.830  1.00  0.00     0.236 C 
BRANCH  79  80
ATOM     80  C   UNL A   1      36.489  22.377  24.625  1.00  0.00     0.406 C 
ATOM     81  F   UNL A   1      37.219  21.911  23.591  1.00  0.00    -0.169 F 
ATOM     82  F   UNL A   1      36.176  23.667  24.344  1.00  0.00    -0.169 F 
ATOM     83  F   UNL A   1      37.265  22.388  25.729  1.00  0.00    -0.169 F 
ENDBRANCH  79  80
ENDBRANCH  78  79
ENDBRANCH  71  74
ENDBRANCH  69  70
ENDBRANCH  68  69
ENDBRANCH   1  68
TORSDOF 15
ENDMDL
MODEL 2
REMARK VINA RESULT:     -11.2      3.618      5.207
REMARK SMILES O=C(NCCCNC(=O)c1ccn(CC(F)(F)F)c1)c1ccc(-c2c3nc(c(-c4ccc(S(=O)(=O)[O-])cc4)c4ccc([nH]4)c(-c4ccc(S(=O)(=O)[O-])cc4)c4nc(c(-c5ccc(S(=O)(=O)[O-])cc5)c5ccc2[nH]5)C=C4)C=C3)cc1
REMARK SMILES IDX 4 1 3 2 1 3 2 4 20 6 21 7 79 8 22 9 78 10 23 11 24 12 25 13
REMARK SMILES IDX 72 14 26 15 77 16 71 17 73 18 27 19 76 20 70 21 69 22 28 24
REMARK SMILES IDX 58 25 39 26 57 27 40 28 43 29 56 30 74 31 41 32 42 33 55 35
REMARK SMILES IDX 75 36 44 37 29 38 30 39 38 40 31 41 37 42 32 43 33 44 34 45
REMARK SMILES IDX 35 46 36 47 59 48 60 49 68 50 61 51 67 52 62 53 63 54 64 55
REMARK SMILES IDX 65 56 66 57 45 58 46 59 54 60 47 61 53 62 48 63 49 64 50 65
REMARK SMILES IDX 51 66 52 67 5 68 6 69 7 70 8 71 9 73 10 74 11 75 19 76 12 77
REMARK SMILES IDX 13 78 14 79 15 80 16 81 17 82 18 83
REMARK H PARENT 3 5 73 23 43 34 7 72
REMARK Flexibility Score: inf
ROOT
ATOM      1  C   UNL A   1      36.559  32.691  28.355  1.00  0.00     0.118 C 
ENDROOT
BRANCH   1   2
ATOM      2  N   UNL A   1      35.900  31.557  27.732  1.00  0.00    -0.352 N 
ATOM      3  O   UNL A   1      35.239  29.467  27.336  1.00  0.00    -0.269 OA
ATOM      4  C   UNL A   1      36.126  30.204  27.767  1.00  0.00     0.251 C 
ATOM      5  H   UNL A   1      35.134  31.810  27.168  1.00  0.00     0.163 HD
BRANCH   4   6
ATOM      6  C   UNL A   1      37.425  29.617  28.178  1.00  0.00     0.039 A 
ATOM      7  C   UNL A   1      38.601  29.724  27.436  1.00  0.00     0.014 A 
ATOM      8  C   UNL A   1      37.427  28.867  29.367  1.00  0.00     0.014 A 
ATOM      9  C   UNL A   1      39.711  28.965  27.778  1.00  0.00     0.010 A 
ATOM     10  C   UNL A   1      38.550  28.132  29.740  1.00  0.00     0.010 A 
ATOM     11  C   UNL A   1      39.682  28.162  28.924  1.00  0.00    -0.014 A 
BRANCH  11  12
ATOM     12  C   UNL A   1      40.970  27.599  29.379  1.00  0.00     0.031 A 
ATOM     13  C   UNL A   1      41.304  26.337  28.533  1.00  0.00     0.074 A 
ATOM     14  C   UNL A   1      41.555  28.190  30.475  1.00  0.00     0.049 A 
ATOM     15  N   UNL A   1      41.990  25.288  28.855  1.00  0.00    -0.248 NA
ATOM     16  C   UNL A   1      40.718  26.164  27.166  1.00  0.00     0.031 C 
ATOM     17  C   UNL A   1      41.075  29.432  31.138  1.00  0.00     0.029 A 
ATOM     18  N   UNL A   1      42.651  27.895  31.267  1.00  0.00    -0.354 N 
ATOM     19  C   UNL A   1      42.095  24.454  27.713  1.00  0.00     0.074 A 
ATOM     20  C   UNL A   1      41.202  24.994  26.738  1.00  0.00     0.031 C 
ATOM     21  C   UNL A   1      41.793  29.709  32.257  1.00  0.00     0.029 A 
ATOM     22  C   UNL A   1      42.829  28.708  32.431  1.00  0.00     0.049 A 
ATOM     23  H   UNL A   1      43.274  27.166  31.041  1.00  0.00     0.167 HD
ATOM     24  C   UNL A   1      43.018  23.451  27.615  1.00  0.00     0.031 A 
ATOM     25  C   UNL A   1      43.721  28.551  33.467  1.00  0.00     0.031 A 
ATOM     26  C   UNL A   1      43.733  23.356  28.841  1.00  0.00     0.049 A 
ATOM     27  C   UNL A   1      44.613  27.471  33.021  1.00  0.00     0.074 A 
ATOM     28  C   UNL A   1      43.354  22.934  30.088  1.00  0.00     0.029 A 
ATOM     29  N   UNL A   1      44.855  24.146  28.935  1.00  0.00    -0.354 N 
ATOM     30  N   UNL A   1      45.504  27.582  32.086  1.00  0.00    -0.248 NA
ATOM     31  C   UNL A   1      44.453  26.136  33.615  1.00  0.00     0.031 C 
ATOM     32  C   UNL A   1      43.905  23.932  30.916  1.00  0.00     0.029 A 
ATOM     33  C   UNL A   1      44.829  24.695  30.188  1.00  0.00     0.049 A 
ATOM     34  H   UNL A   1      45.538  24.288  28.241  1.00  0.00     0.167 HD
ATOM     35  C   UNL A   1      45.690  26.276  31.717  1.00  0.00     0.074 A 
ATOM     36  C   UNL A   1      45.322  25.466  32.863  1.00  0.00     0.031 C 
ATOM     37  C   UNL A   1      45.541  25.926  30.413  1.00  0.00     0.031 A 
BRANCH  24  38
ATOM     38  C   UNL A   1      43.578  22.664  26.460  1.00  0.00    -0.014 A 
ATOM     39  C   UNL A   1      42.896  21.462  26.126  1.00  0.00     0.010 A 
ATOM     40  C   UNL A   1      44.882  22.823  25.972  1.00  0.00     0.010 A 
ATOM     41  C   UNL A   1      43.535  20.401  25.489  1.00  0.00     0.020 A 
ATOM     42  C   UNL A   1      45.520  21.770  25.287  1.00  0.00     0.020 A 
ATOM     43  C   UNL A   1      44.861  20.550  25.102  1.00  0.00     0.054 A 
BRANCH  43  44
ATOM     44  S   UNL A   1      45.714  19.097  24.428  1.00  0.00     0.124 S 
ATOM     45  O   UNL A   1      45.399  18.068  25.416  1.00  0.00    -0.237 OA
ATOM     46  O   UNL A   1      45.068  18.929  23.127  1.00  0.00    -0.237 OA
ATOM     47  O   UNL A   1      47.112  19.513  24.372  1.00  0.00    -0.744 OA
ENDBRANCH  43  44
ENDBRANCH  24  38
BRANCH  25  48
ATOM     48  C   UNL A   1      44.002  29.035  34.890  1.00  0.00    -0.014 A 
ATOM     49  C   UNL A   1      45.248  29.295  35.470  1.00  0.00     0.010 A 
ATOM     50  C   UNL A   1      42.879  29.420  35.690  1.00  0.00     0.010 A 
ATOM     51  C   UNL A   1      45.354  30.050  36.675  1.00  0.00     0.020 A 
ATOM     52  C   UNL A   1      42.965  30.219  36.836  1.00  0.00     0.020 A 
ATOM     53  C   UNL A   1      44.213  30.565  37.308  1.00  0.00     0.054 A 
BRANCH  53  54
ATOM     54  S   UNL A   1      44.342  31.808  38.634  1.00  0.00     0.124 S 
ATOM     55  O   UNL A   1      44.003  31.039  39.827  1.00  0.00    -0.237 OA
ATOM     56  O   UNL A   1      45.734  32.240  38.533  1.00  0.00    -0.237 OA
ATOM     57  O   UNL A   1      43.362  32.825  38.251  1.00  0.00    -0.744 OA
ENDBRANCH  53  54
ENDBRANCH  25  48
BRANCH  37  58
ATOM     58  C   UNL A   1      45.799  27.018  29.380  1.00  0.00    -0.014 A 
ATOM     59  C   UNL A   1      44.711  27.556  28.668  1.00  0.00     0.010 A 
ATOM     60  C   UNL A   1      47.081  27.501  29.041  1.00  0.00     0.010 A 
ATOM     61  C   UNL A   1      44.883  28.536  27.678  1.00  0.00     0.020 A 
ATOM     62  C   UNL A   1      47.268  28.482  28.043  1.00  0.00     0.020 A 
ATOM     63  C   UNL A   1      46.161  29.002  27.373  1.00  0.00     0.054 A 
BRANCH  63  64
ATOM     64  S   UNL A   1      46.334  30.301  26.111  1.00  0.00     0.124 S 
ATOM     65  O   UNL A   1      47.512  31.038  26.561  1.00  0.00    -0.237 OA
ATOM     66  O   UNL A   1      46.514  29.526  24.886  1.00  0.00    -0.237 OA
ATOM     67  O   UNL A   1      45.076  31.043  26.194  1.00  0.00    -0.744 OA
ENDBRANCH  63  64
ENDBRANCH  37  58
ENDBRANCH  11  12
ENDBRANCH   4   6
ENDBRANCH   1   2
BRANCH   1  68
ATOM     68  C   UNL A   1      35.766  33.996  28.415  1.00  0.00     0.042 C 
BRANCH  68  69
ATOM     69  C   UNL A   1      34.412  33.888  29.110  1.00  0.00     0.118 C 
BRANCH  69  70
ATOM     70  N   UNL A   1      34.325  34.760  30.273  1.00  0.00    -0.352 N 
ATOM     71  C   UNL A   1      34.664  34.522  31.571  1.00  0.00     0.252 C 
ATOM     72  H   UNL A   1      33.967  35.660  30.094  1.00  0.00     0.163 HD
ATOM     73  O   UNL A   1      34.232  35.298  32.444  1.00  0.00    -0.269 OA
BRANCH  71  74
ATOM     74  C   UNL A   1      35.504  33.389  31.911  1.00  0.00     0.057 A 
ATOM     75  C   UNL A   1      35.193  31.996  31.892  1.00  0.00     0.033 A 
ATOM     76  C   UNL A   1      36.846  33.472  32.251  1.00  0.00     0.099 A 
ATOM     77  C   UNL A   1      36.321  31.300  32.268  1.00  0.00     0.087 A 
ATOM     78  N   UNL A   1      37.311  32.211  32.513  1.00  0.00    -0.344 N 
BRANCH  78  79
ATOM     79  C   UNL A   1      38.665  31.886  32.917  1.00  0.00     0.236 C 
BRANCH  79  80
ATOM     80  C   UNL A   1      38.731  30.843  34.009  1.00  0.00     0.406 C 
ATOM     81  F   UNL A   1      39.914  30.862  34.657  1.00  0.00    -0.169 F 
ATOM     82  F   UNL A   1      37.766  31.088  34.930  1.00  0.00    -0.169 F 
ATOM     83  F   UNL A   1      38.521  29.597  33.534  1.00  0.00    -0.169 F 
ENDBRANCH  79  80
ENDBRANCH  78  79
ENDBRANCH  71  74
ENDBRANCH  69  70
ENDBRANCH  68  69
ENDBRANCH   1  68
TORSDOF 15
ENDMDL
MODEL 3
REMARK VINA RESULT:     -11.1      4.283      9.861
REMARK SMILES O=C(NCCCNC(=O)c1ccn(CC(F)(F)F)c1)c1ccc(-c2c3nc(c(-c4ccc(S(=O)(=O)[O-])cc4)c4ccc([nH]4)c(-c4ccc(S(=O)(=O)[O-])cc4)c4nc(c(-c5ccc(S(=O)(=O)[O-])cc5)c5ccc2[nH]5)C=C4)C=C3)cc1
REMARK SMILES IDX 4 1 3 2 1 3 2 4 20 6 21 7 79 8 22 9 78 10 23 11 24 12 25 13
REMARK SMILES IDX 72 14 26 15 77 16 71 17 73 18 27 19 76 20 70 21 69 22 28 24
REMARK SMILES IDX 58 25 39 26 57 27 40 28 43 29 56 30 74 31 41 32 42 33 55 35
REMARK SMILES IDX 75 36 44 37 29 38 30 39 38 40 31 41 37 42 32 43 33 44 34 45
REMARK SMILES IDX 35 46 36 47 59 48 60 49 68 50 61 51 67 52 62 53 63 54 64 55
REMARK SMILES IDX 65 56 66 57 45 58 46 59 54 60 47 61 53 62 48 63 49 64 50 65
REMARK SMILES IDX 51 66 52 67 5 68 6 69 7 70 8 71 9 73 10 74 11 75 19 76 12 77
REMARK SMILES IDX 13 78 14 79 15 80 16 81 17 82 18 83
REMARK H PARENT 3 5 73 23 43 34 7 72
REMARK Flexibility Score: inf
ROOT
ATOM      1  C   UNL A   1      33.937  29.471  26.984  1.00  0.00     0.118 C 
ENDROOT
BRANCH   1   2
ATOM      2  N   UNL A   1      33.945  30.448  28.059  1.00  0.00    -0.352 N 
ATOM      3  O   UNL A   1      34.650  32.043  29.444  1.00  0.00    -0.269 OA
ATOM      4  C   UNL A   1      34.950  31.066  28.760  1.00  0.00     0.251 C 
ATOM      5  H   UNL A   1      33.044  30.726  28.343  1.00  0.00     0.163 HD
BRANCH   4   6
ATOM      6  C   UNL A   1      36.331  30.529  28.823  1.00  0.00     0.039 A 
ATOM      7  C   UNL A   1      37.197  30.468  27.732  1.00  0.00     0.014 A 
ATOM      8  C   UNL A   1      36.746  30.007  30.060  1.00  0.00     0.014 A 
ATOM      9  C   UNL A   1      38.384  29.754  27.823  1.00  0.00     0.010 A 
ATOM     10  C   UNL A   1      37.954  29.322  30.173  1.00  0.00     0.010 A 
ATOM     11  C   UNL A   1      38.756  29.173  29.041  1.00  0.00    -0.014 A 
BRANCH  11  12
ATOM     12  C   UNL A   1      40.142  28.668  29.144  1.00  0.00     0.031 A 
ATOM     13  C   UNL A   1      41.100  29.861  29.423  1.00  0.00     0.074 A 
ATOM     14  C   UNL A   1      40.339  27.332  28.883  1.00  0.00     0.049 A 
ATOM     15  N   UNL A   1      42.348  30.006  29.107  1.00  0.00    -0.248 NA
ATOM     16  C   UNL A   1      40.586  31.115  30.058  1.00  0.00     0.031 C 
ATOM     17  C   UNL A   1      39.260  26.334  28.655  1.00  0.00     0.029 A 
ATOM     18  N   UNL A   1      41.454  26.525  28.747  1.00  0.00    -0.354 N 
ATOM     19  C   UNL A   1      42.810  31.226  29.663  1.00  0.00     0.074 A 
ATOM     20  C   UNL A   1      41.655  31.913  30.143  1.00  0.00     0.031 C 
ATOM     21  C   UNL A   1      39.766  25.121  28.316  1.00  0.00     0.029 A 
ATOM     22  C   UNL A   1      41.216  25.182  28.314  1.00  0.00     0.049 A 
ATOM     23  H   UNL A   1      42.362  26.856  28.938  1.00  0.00     0.167 HD
ATOM     24  C   UNL A   1      44.139  31.514  29.802  1.00  0.00     0.031 A 
ATOM     25  C   UNL A   1      42.126  24.217  27.947  1.00  0.00     0.031 A 
ATOM     26  C   UNL A   1      44.906  30.464  29.227  1.00  0.00     0.049 A 
ATOM     27  C   UNL A   1      43.432  24.795  28.297  1.00  0.00     0.074 A 
ATOM     28  C   UNL A   1      45.090  30.074  27.927  1.00  0.00     0.029 A 
ATOM     29  N   UNL A   1      45.219  29.426  30.075  1.00  0.00    -0.354 N 
ATOM     30  N   UNL A   1      43.875  24.951  29.506  1.00  0.00    -0.248 NA
ATOM     31  C   UNL A   1      44.287  25.304  27.216  1.00  0.00     0.031 C 
ATOM     32  C   UNL A   1      44.953  28.675  28.017  1.00  0.00     0.029 A 
ATOM     33  C   UNL A   1      45.018  28.277  29.359  1.00  0.00     0.049 A 
ATOM     34  H   UNL A   1      45.524  29.496  31.008  1.00  0.00     0.167 HD
ATOM     35  C   UNL A   1      44.824  25.923  29.333  1.00  0.00     0.074 A 
ATOM     36  C   UNL A   1      45.259  25.837  27.952  1.00  0.00     0.031 C 
ATOM     37  C   UNL A   1      44.756  27.057  30.078  1.00  0.00     0.031 A 
BRANCH  24  38
ATOM     38  C   UNL A   1      44.904  32.516  30.627  1.00  0.00    -0.014 A 
ATOM     39  C   UNL A   1      44.748  32.420  32.037  1.00  0.00     0.010 A 
ATOM     40  C   UNL A   1      45.418  33.713  30.115  1.00  0.00     0.010 A 
ATOM     41  C   UNL A   1      44.928  33.517  32.878  1.00  0.00     0.020 A 
ATOM     42  C   UNL A   1      45.647  34.813  30.965  1.00  0.00     0.020 A 
ATOM     43  C   UNL A   1      45.346  34.722  32.329  1.00  0.00     0.054 A 
BRANCH  43  44
ATOM     44  S   UNL A   1      45.410  36.172  33.419  1.00  0.00     0.124 S 
ATOM     45  O   UNL A   1      46.805  36.586  33.301  1.00  0.00    -0.237 OA
ATOM     46  O   UNL A   1      44.438  37.072  32.801  1.00  0.00    -0.237 OA
ATOM     47  O   UNL A   1      45.016  35.641  34.720  1.00  0.00    -0.744 OA
ENDBRANCH  43  44
ENDBRANCH  24  38
BRANCH  25  48
ATOM     48  C   UNL A   1      42.218  22.865  27.239  1.00  0.00    -0.014 A 
ATOM     49  C   UNL A   1      43.135  22.480  26.254  1.00  0.00     0.010 A 
ATOM     50  C   UNL A   1      41.386  21.806  27.726  1.00  0.00     0.010 A 
ATOM     51  C   UNL A   1      43.324  21.106  25.923  1.00  0.00     0.020 A 
ATOM     52  C   UNL A   1      41.603  20.449  27.463  1.00  0.00     0.020 A 
ATOM     53  C   UNL A   1      42.605  20.098  26.583  1.00  0.00     0.054 A 
BRANCH  53  54
ATOM     54  S   UNL A   1      43.071  18.344  26.429  1.00  0.00     0.124 S 
ATOM     55  O   UNL A   1      44.361  18.414  25.751  1.00  0.00    -0.237 OA
ATOM     56  O   UNL A   1      43.111  17.900  27.821  1.00  0.00    -0.237 OA
ATOM     57  O   UNL A   1      41.984  17.766  25.639  1.00  0.00    -0.744 OA
ENDBRANCH  53  54
ENDBRANCH  25  48
BRANCH  37  58
ATOM     58  C   UNL A   1      44.070  26.942  31.435  1.00  0.00    -0.014 A 
ATOM     59  C   UNL A   1      42.943  27.743  31.701  1.00  0.00     0.010 A 
ATOM     60  C   UNL A   1      44.522  26.113  32.484  1.00  0.00     0.010 A 
ATOM     61  C   UNL A   1      42.288  27.713  32.942  1.00  0.00     0.020 A 
ATOM     62  C   UNL A   1      43.875  26.079  33.738  1.00  0.00     0.020 A 
ATOM     63  C   UNL A   1      42.751  26.875  33.955  1.00  0.00     0.054 A 
BRANCH  63  64
ATOM     64  S   UNL A   1      41.847  26.840  35.534  1.00  0.00     0.124 S 
ATOM     65  O   UNL A   1      42.907  26.597  36.510  1.00  0.00    -0.237 OA
ATOM     66  O   UNL A   1      41.248  28.171  35.582  1.00  0.00    -0.237 OA
ATOM     67  O   UNL A   1      40.898  25.739  35.372  1.00  0.00    -0.744 OA
ENDBRANCH  63  64
ENDBRANCH  37  58
ENDBRANCH  11  12
ENDBRANCH   4   6
ENDBRANCH   1   2
BRANCH   1  68
ATOM     68  C   UNL A   1      32.923  28.334  27.100  1.00  0.00     0.042 C 
BRANCH  68  69
ATOM     69  C   UNL A   1      31.892  28.282  25.976  1.00  0.00     0.118 C 
BRANCH  69  70
ATOM     70  N   UNL A   1      32.453  27.739  24.747  1.00  0.00    -0.352 N 
ATOM     71  C   UNL A   1      31.851  27.475  23.553  1.00  0.00     0.252 C 
ATOM     72  H   UNL A   1      33.415  27.530  24.785  1.00  0.00     0.163 HD
ATOM     73  O   UNL A   1      32.448  26.742  22.743  1.00  0.00    -0.269 OA
BRANCH  71  74
ATOM     74  C   UNL A   1      30.550  28.041  23.250  1.00  0.00     0.057 A 
ATOM     75  C   UNL A   1      29.255  27.461  23.406  1.00  0.00     0.033 A 
ATOM     76  C   UNL A   1      30.334  29.338  22.812  1.00  0.00     0.099 A 
ATOM     77  C   UNL A   1      28.319  28.392  23.011  1.00  0.00     0.087 A 
ATOM     78  N   UNL A   1      28.989  29.519  22.623  1.00  0.00    -0.344 N 
BRANCH  78  79
ATOM     79  C   UNL A   1      28.367  30.742  22.154  1.00  0.00     0.236 C 
BRANCH  79  80
ATOM     80  C   UNL A   1      28.236  31.798  23.227  1.00  0.00     0.406 C 
ATOM     81  F   UNL A   1      28.407  33.043  22.737  1.00  0.00    -0.169 F 
ATOM     82  F   UNL A   1      26.992  31.747  23.765  1.00  0.00    -0.169 F 
ATOM     83  F   UNL A   1      29.113  31.607  24.235  1.00  0.00    -0.169 F 
ENDBRANCH  79  80
ENDBRANCH  78  79
ENDBRANCH  71  74
ENDBRANCH  69  70
ENDBRANCH  68  69
ENDBRANCH   1  68
TORSDOF 15
ENDMDL
