MODEL 1
REMARK VINA RESULT:     -10.4      0.000      0.000
REMARK SMILES C[C@@H]1C[N@@H+](C[C@]2(C(=O)NCCCNC(=O)c3ccc(-c4c5nc(c(-c6ccc(S(=O)(=O)[O-])cc6)c6ccc([nH]6)c(-c6ccc(S(=O)(=O)[O-])cc6)c6nc(c(-c7ccc(S(=O)(=O)[O-])cc7)c7ccc4[nH]7)C=C6)C=C5)cc3)CCOC2)C[C@@H]1C
REMARK SMILES IDX 11 1 10 2 9 3 7 4 8 5 6 7 76 8 79 9 77 10 78 11 5 12 4 13
REMARK SMILES IDX 1 14 2 15 3 16 81 17 80 18 82 19 12 21 13 22 14 23 15 25
REMARK SMILES IDX 16 26 17 27 75 28 18 29 74 30 19 31 20 32 21 33 68 34 22 35
REMARK SMILES IDX 73 36 67 37 69 38 23 39 72 40 66 41 65 42 24 44 54 45 35 46
REMARK SMILES IDX 53 47 36 48 39 49 52 50 70 51 37 52 38 53 51 55 71 56 40 57
REMARK SMILES IDX 25 58 26 59 34 60 27 61 33 62 28 63 29 64 30 65 31 66 32 67
REMARK SMILES IDX 55 68 56 69 64 70 57 71 63 72 58 73 59 74 60 75 61 76 62 77
REMARK SMILES IDX 41 78 42 79 50 80 43 81 49 82 44 83 45 84 46 85 47 86 48 87
REMARK H PARENT 9 6 4 20 13 24 69 43 39 54
REMARK Flexibility Score: inf
ROOT
ATOM      1  C   UNL A   1      32.041  27.715  27.291  1.00  0.00     0.042 C 
ENDROOT
BRANCH   1   2
ATOM      2  C   UNL A   1      31.786  26.626  26.254  1.00  0.00     0.117 C 
BRANCH   2   3
ATOM      3  N   UNL A   1      31.139  25.466  26.842  1.00  0.00    -0.355 N 
ATOM      4  C   UNL A   1      31.154  24.148  26.503  1.00  0.00     0.234 C 
ATOM      5  O   UNL A   1      30.370  23.421  27.119  1.00  0.00    -0.274 OA
ATOM      6  H   UNL A   1      30.588  25.671  27.631  1.00  0.00     0.163 HD
BRANCH   4   7
ATOM      7  C   UNL A   1      32.075  23.605  25.395  1.00  0.00     0.123 C 
ATOM      8  C   UNL A   1      31.867  22.102  25.238  1.00  0.00     0.054 C 
ATOM      9  C   UNL A   1      31.548  24.115  24.045  1.00  0.00     0.183 C 
ATOM     10  C   UNL A   1      31.885  21.832  23.754  1.00  0.00     0.161 C 
ATOM     11  O   UNL A   1      31.608  23.054  23.081  1.00  0.00    -0.380 OA
BRANCH   7  12
ATOM     12  C   UNL A   1      33.515  24.109  25.716  1.00  0.00     0.281 C 
BRANCH  12  13
ATOM     13  N   UNL A   1      34.717  23.361  25.404  1.00  0.00    -0.333 N 
ATOM     14  C   UNL A   1      38.326  23.374  26.199  1.00  0.00     0.014 C 
ATOM     15  C   UNL A   1      36.999  23.740  25.559  1.00  0.00     0.049 C 
ATOM     16  C   UNL A   1      35.798  23.265  26.361  1.00  0.00     0.265 C 
ATOM     17  C   UNL A   1      36.727  23.198  24.145  1.00  0.00     0.049 C 
ATOM     18  C   UNL A   1      35.191  23.204  24.045  1.00  0.00     0.265 C 
ATOM     19  C   UNL A   1      37.293  21.808  23.869  1.00  0.00     0.014 C 
ATOM     20  H   UNL A   1      34.126  22.543  25.555  1.00  0.00     0.348 HD
ENDBRANCH  12  13
ENDBRANCH   7  12
ENDBRANCH   4   7
ENDBRANCH   2   3
ENDBRANCH   1   2
BRANCH   1  21
ATOM     21  C   UNL A   1      33.399  28.390  27.158  1.00  0.00     0.118 C 
BRANCH  21  22
ATOM     22  N   UNL A   1      33.327  29.824  27.384  1.00  0.00    -0.352 N 
ATOM     23  C   UNL A   1      34.247  30.673  27.945  1.00  0.00     0.251 C 
ATOM     24  H   UNL A   1      32.491  30.251  27.088  1.00  0.00     0.163 HD
ATOM     25  O   UNL A   1      33.906  31.820  28.221  1.00  0.00    -0.269 OA
BRANCH  23  26
ATOM     26  C   UNL A   1      35.628  30.220  28.221  1.00  0.00     0.039 A 
ATOM     27  C   UNL A   1      35.933  29.753  29.503  1.00  0.00     0.014 A 
ATOM     28  C   UNL A   1      36.636  30.311  27.255  1.00  0.00     0.014 A 
ATOM     29  C   UNL A   1      37.238  29.364  29.809  1.00  0.00     0.010 A 
ATOM     30  C   UNL A   1      37.918  29.849  27.537  1.00  0.00     0.010 A 
ATOM     31  C   UNL A   1      38.239  29.401  28.826  1.00  0.00    -0.014 A 
BRANCH  31  32
ATOM     32  C   UNL A   1      39.640  29.038  29.153  1.00  0.00     0.031 A 
ATOM     33  C   UNL A   1      40.513  30.009  29.904  1.00  0.00     0.074 A 
ATOM     34  C   UNL A   1      40.135  27.850  28.757  1.00  0.00     0.049 A 
ATOM     35  N   UNL A   1      41.753  29.873  30.295  1.00  0.00    -0.248 NA
ATOM     36  C   UNL A   1      39.919  31.314  30.239  1.00  0.00     0.031 C 
ATOM     37  C   UNL A   1      39.401  26.837  27.997  1.00  0.00     0.029 A 
ATOM     38  N   UNL A   1      41.371  27.289  28.952  1.00  0.00    -0.354 N 
ATOM     39  C   UNL A   1      42.093  31.078  30.900  1.00  0.00     0.074 A 
ATOM     40  C   UNL A   1      40.947  31.951  30.777  1.00  0.00     0.031 C 
ATOM     41  C   UNL A   1      40.186  25.760  27.830  1.00  0.00     0.029 A 
ATOM     42  C   UNL A   1      41.485  26.019  28.444  1.00  0.00     0.049 A 
ATOM     43  H   UNL A   1      42.108  27.755  29.411  1.00  0.00     0.167 HD
ATOM     44  C   UNL A   1      43.247  31.424  31.522  1.00  0.00     0.031 A 
ATOM     45  C   UNL A   1      42.514  25.151  28.486  1.00  0.00     0.031 A 
ATOM     46  C   UNL A   1      44.380  30.550  31.657  1.00  0.00     0.049 A 
ATOM     47  C   UNL A   1      43.780  25.548  29.192  1.00  0.00     0.074 A 
ATOM     48  C   UNL A   1      45.578  30.782  32.310  1.00  0.00     0.029 A 
ATOM     49  N   UNL A   1      44.454  29.269  31.130  1.00  0.00    -0.354 N 
ATOM     50  N   UNL A   1      44.065  26.672  29.806  1.00  0.00    -0.248 NA
ATOM     51  C   UNL A   1      44.857  24.549  29.226  1.00  0.00     0.031 C 
ATOM     52  C   UNL A   1      46.390  29.653  32.146  1.00  0.00     0.029 A 
ATOM     53  C   UNL A   1      45.679  28.702  31.432  1.00  0.00     0.049 A 
ATOM     54  H   UNL A   1      43.740  28.828  30.616  1.00  0.00     0.167 HD
ATOM     55  C   UNL A   1      45.341  26.503  30.330  1.00  0.00     0.074 A 
ATOM     56  C   UNL A   1      45.769  25.167  29.965  1.00  0.00     0.031 C 
ATOM     57  C   UNL A   1      46.088  27.370  31.057  1.00  0.00     0.031 A 
BRANCH  44  58
ATOM     58  C   UNL A   1      43.328  32.819  32.087  1.00  0.00    -0.014 A 
ATOM     59  C   UNL A   1      43.829  33.886  31.319  1.00  0.00     0.010 A 
ATOM     60  C   UNL A   1      42.919  33.061  33.410  1.00  0.00     0.010 A 
ATOM     61  C   UNL A   1      43.987  35.154  31.885  1.00  0.00     0.020 A 
ATOM     62  C   UNL A   1      43.048  34.336  33.971  1.00  0.00     0.020 A 
ATOM     63  C   UNL A   1      43.608  35.367  33.213  1.00  0.00     0.054 A 
BRANCH  63  64
ATOM     64  S   UNL A   1      43.850  37.012  33.939  1.00  0.00     0.124 S 
ATOM     65  O   UNL A   1      43.904  37.858  32.748  1.00  0.00    -0.237 OA
ATOM     66  O   UNL A   1      42.660  37.177  34.770  1.00  0.00    -0.237 OA
ATOM     67  O   UNL A   1      45.106  36.885  34.672  1.00  0.00    -0.744 OA
ENDBRANCH  63  64
ENDBRANCH  44  58
BRANCH  45  68
ATOM     68  C   UNL A   1      42.358  23.794  27.897  1.00  0.00    -0.014 A 
ATOM     69  C   UNL A   1      42.694  23.569  26.550  1.00  0.00     0.010 A 
ATOM     70  C   UNL A   1      41.907  22.717  28.681  1.00  0.00     0.010 A 
ATOM     71  C   UNL A   1      42.576  22.293  25.994  1.00  0.00     0.020 A 
ATOM     72  C   UNL A   1      41.808  21.435  28.133  1.00  0.00     0.020 A 
ATOM     73  C   UNL A   1      42.137  21.232  26.791  1.00  0.00     0.054 A 
BRANCH  73  74
ATOM     74  S   UNL A   1      42.058  19.570  26.066  1.00  0.00     0.124 S 
ATOM     75  O   UNL A   1      42.986  19.683  24.946  1.00  0.00    -0.237 OA
ATOM     76  O   UNL A   1      42.497  18.722  27.171  1.00  0.00    -0.237 OA
ATOM     77  O   UNL A   1      40.650  19.424  25.702  1.00  0.00    -0.744 OA
ENDBRANCH  73  74
ENDBRANCH  45  68
BRANCH  57  78
ATOM     78  C   UNL A   1      47.426  26.884  31.543  1.00  0.00    -0.014 A 
ATOM     79  C   UNL A   1      47.564  26.242  32.786  1.00  0.00     0.010 A 
ATOM     80  C   UNL A   1      48.558  27.049  30.724  1.00  0.00     0.010 A 
ATOM     81  C   UNL A   1      48.820  25.810  33.219  1.00  0.00     0.020 A 
ATOM     82  C   UNL A   1      49.811  26.597  31.145  1.00  0.00     0.020 A 
ATOM     83  C   UNL A   1      49.937  25.996  32.399  1.00  0.00     0.054 A 
BRANCH  83  84
ATOM     84  S   UNL A   1      51.555  25.407  32.970  1.00  0.00     0.124 S 
ATOM     85  O   UNL A   1      52.143  26.625  33.522  1.00  0.00    -0.237 OA
ATOM     86  O   UNL A   1      51.198  24.382  33.949  1.00  0.00    -0.237 OA
ATOM     87  O   UNL A   1      52.187  24.903  31.754  1.00  0.00    -0.744 OA
ENDBRANCH  83  84
ENDBRANCH  57  78
ENDBRANCH  31  32
ENDBRANCH  23  26
ENDBRANCH  21  22
ENDBRANCH   1  21
TORSDOF 15
ENDMDL
MODEL 2
REMARK VINA RESULT:     -10.4      2.511      9.258
REMARK SMILES C[C@@H]1C[N@@H+](C[C@]2(C(=O)NCCCNC(=O)c3ccc(-c4c5nc(c(-c6ccc(S(=O)(=O)[O-])cc6)c6ccc([nH]6)c(-c6ccc(S(=O)(=O)[O-])cc6)c6nc(c(-c7ccc(S(=O)(=O)[O-])cc7)c7ccc4[nH]7)C=C6)C=C5)cc3)CCOC2)C[C@@H]1C
REMARK SMILES IDX 11 1 10 2 9 3 7 4 8 5 6 7 76 8 79 9 77 10 78 11 5 12 4 13
REMARK SMILES IDX 1 14 2 15 3 16 81 17 80 18 82 19 12 21 13 22 14 23 15 25
REMARK SMILES IDX 16 26 17 27 75 28 18 29 74 30 19 31 20 32 21 33 68 34 22 35
REMARK SMILES IDX 73 36 67 37 69 38 23 39 72 40 66 41 65 42 24 44 54 45 35 46
REMARK SMILES IDX 53 47 36 48 39 49 52 50 70 51 37 52 38 53 51 55 71 56 40 57
REMARK SMILES IDX 25 58 26 59 34 60 27 61 33 62 28 63 29 64 30 65 31 66 32 67
REMARK SMILES IDX 55 68 56 69 64 70 57 71 63 72 58 73 59 74 60 75 61 76 62 77
REMARK SMILES IDX 41 78 42 79 50 80 43 81 49 82 44 83 45 84 46 85 47 86 48 87
REMARK H PARENT 9 6 4 20 13 24 69 43 39 54
REMARK Flexibility Score: inf
ROOT
ATOM      1  C   UNL A   1      35.157  23.669  26.295  1.00  0.00     0.042 C 
ENDROOT
BRANCH   1   2
ATOM      2  C   UNL A   1      33.890  23.739  25.450  1.00  0.00     0.117 C 
BRANCH   2   3
ATOM      3  N   UNL A   1      34.187  24.051  24.063  1.00  0.00    -0.355 N 
ATOM      4  C   UNL A   1      33.653  24.959  23.201  1.00  0.00     0.234 C 
ATOM      5  O   UNL A   1      34.025  24.876  22.027  1.00  0.00    -0.274 OA
ATOM      6  H   UNL A   1      34.908  23.504  23.674  1.00  0.00     0.163 HD
BRANCH   4   7
ATOM      7  C   UNL A   1      32.624  26.008  23.661  1.00  0.00     0.123 C 
ATOM      8  C   UNL A   1      32.312  26.966  22.515  1.00  0.00     0.054 C 
ATOM      9  C   UNL A   1      31.269  25.303  23.830  1.00  0.00     0.183 C 
ATOM     10  C   UNL A   1      30.823  27.206  22.568  1.00  0.00     0.161 C 
ATOM     11  O   UNL A   1      30.231  26.139  23.299  1.00  0.00    -0.380 OA
BRANCH   7  12
ATOM     12  C   UNL A   1      33.164  26.618  24.991  1.00  0.00     0.281 C 
BRANCH  12  13
ATOM     13  N   UNL A   1      32.958  27.998  25.384  1.00  0.00    -0.333 N 
ATOM     14  C   UNL A   1      34.434  30.536  27.629  1.00  0.00     0.014 C 
ATOM     15  C   UNL A   1      33.627  29.342  27.152  1.00  0.00     0.049 C 
ATOM     16  C   UNL A   1      34.072  28.825  25.793  1.00  0.00     0.265 C 
ATOM     17  C   UNL A   1      32.111  29.539  26.984  1.00  0.00     0.049 C 
ATOM     18  C   UNL A   1      31.713  28.450  25.971  1.00  0.00     0.265 C 
ATOM     19  C   UNL A   1      31.692  30.924  26.498  1.00  0.00     0.014 C 
ATOM     20  H   UNL A   1      32.832  28.158  24.384  1.00  0.00     0.348 HD
ENDBRANCH  12  13
ENDBRANCH   7  12
ENDBRANCH   4   7
ENDBRANCH   2   3
ENDBRANCH   1   2
BRANCH   1  21
ATOM     21  C   UNL A   1      36.425  24.048  25.542  1.00  0.00     0.118 C 
BRANCH  21  22
ATOM     22  N   UNL A   1      37.437  23.007  25.605  1.00  0.00    -0.352 N 
ATOM     23  C   UNL A   1      38.735  23.068  26.045  1.00  0.00     0.251 C 
ATOM     24  H   UNL A   1      37.146  22.123  25.284  1.00  0.00     0.163 HD
ATOM     25  O   UNL A   1      39.481  22.117  25.828  1.00  0.00    -0.269 OA
BRANCH  23  26
ATOM     26  C   UNL A   1      39.237  24.259  26.765  1.00  0.00     0.039 A 
ATOM     27  C   UNL A   1      38.858  24.441  28.099  1.00  0.00     0.014 A 
ATOM     28  C   UNL A   1      40.018  25.227  26.125  1.00  0.00     0.014 A 
ATOM     29  C   UNL A   1      39.275  25.578  28.791  1.00  0.00     0.010 A 
ATOM     30  C   UNL A   1      40.499  26.320  26.839  1.00  0.00     0.010 A 
ATOM     31  C   UNL A   1      40.106  26.524  28.169  1.00  0.00    -0.014 A 
BRANCH  31  32
ATOM     32  C   UNL A   1      40.514  27.761  28.878  1.00  0.00     0.031 A 
ATOM     33  C   UNL A   1      41.905  27.876  29.448  1.00  0.00     0.074 A 
ATOM     34  C   UNL A   1      39.636  28.769  29.032  1.00  0.00     0.049 A 
ATOM     35  N   UNL A   1      42.456  28.875  30.087  1.00  0.00    -0.248 NA
ATOM     36  C   UNL A   1      42.782  26.703  29.299  1.00  0.00     0.031 C 
ATOM     37  C   UNL A   1      38.252  28.766  28.554  1.00  0.00     0.029 A 
ATOM     38  N   UNL A   1      39.781  29.997  29.623  1.00  0.00    -0.354 N 
ATOM     39  C   UNL A   1      43.731  28.445  30.434  1.00  0.00     0.074 A 
ATOM     40  C   UNL A   1      43.853  27.077  29.982  1.00  0.00     0.031 C 
ATOM     41  C   UNL A   1      37.690  29.954  28.830  1.00  0.00     0.029 A 
ATOM     42  C   UNL A   1      38.663  30.789  29.530  1.00  0.00     0.049 A 
ATOM     43  H   UNL A   1      40.609  30.284  30.074  1.00  0.00     0.167 HD
ATOM     44  C   UNL A   1      44.723  29.131  31.054  1.00  0.00     0.031 A 
ATOM     45  C   UNL A   1      38.451  32.053  29.944  1.00  0.00     0.031 A 
ATOM     46  C   UNL A   1      44.605  30.496  31.489  1.00  0.00     0.049 A 
ATOM     47  C   UNL A   1      39.567  32.801  30.617  1.00  0.00     0.074 A 
ATOM     48  C   UNL A   1      45.563  31.300  32.082  1.00  0.00     0.029 A 
ATOM     49  N   UNL A   1      43.455  31.263  31.373  1.00  0.00    -0.354 N 
ATOM     50  N   UNL A   1      40.785  32.396  30.889  1.00  0.00    -0.248 NA
ATOM     51  C   UNL A   1      39.283  34.184  31.023  1.00  0.00     0.031 C 
ATOM     52  C   UNL A   1      44.980  32.542  32.358  1.00  0.00     0.029 A 
ATOM     53  C   UNL A   1      43.674  32.526  31.894  1.00  0.00     0.049 A 
ATOM     54  H   UNL A   1      42.608  30.954  30.980  1.00  0.00     0.167 HD
ATOM     55  C   UNL A   1      41.425  33.487  31.466  1.00  0.00     0.074 A 
ATOM     56  C   UNL A   1      40.460  34.568  31.498  1.00  0.00     0.031 C 
ATOM     57  C   UNL A   1      42.699  33.589  31.919  1.00  0.00     0.031 A 
BRANCH  44  58
ATOM     58  C   UNL A   1      46.012  28.392  31.303  1.00  0.00    -0.014 A 
ATOM     59  C   UNL A   1      47.056  28.412  30.359  1.00  0.00     0.010 A 
ATOM     60  C   UNL A   1      46.175  27.649  32.485  1.00  0.00     0.010 A 
ATOM     61  C   UNL A   1      48.208  27.646  30.559  1.00  0.00     0.020 A 
ATOM     62  C   UNL A   1      47.338  26.905  32.703  1.00  0.00     0.020 A 
ATOM     63  C   UNL A   1      48.335  26.886  31.724  1.00  0.00     0.054 A 
BRANCH  63  64
ATOM     64  S   UNL A   1      49.824  25.875  31.951  1.00  0.00     0.124 S 
ATOM     65  O   UNL A   1      50.822  26.887  32.292  1.00  0.00    -0.237 OA
ATOM     66  O   UNL A   1      49.445  24.979  33.041  1.00  0.00    -0.237 OA
ATOM     67  O   UNL A   1      50.006  25.232  30.654  1.00  0.00    -0.744 OA
ENDBRANCH  63  64
ENDBRANCH  44  58
BRANCH  45  68
ATOM     68  C   UNL A   1      37.146  32.709  29.666  1.00  0.00    -0.014 A 
ATOM     69  C   UNL A   1      36.138  32.713  30.647  1.00  0.00     0.010 A 
ATOM     70  C   UNL A   1      36.914  33.360  28.441  1.00  0.00     0.010 A 
ATOM     71  C   UNL A   1      34.918  33.350  30.407  1.00  0.00     0.020 A 
ATOM     72  C   UNL A   1      35.701  34.017  28.207  1.00  0.00     0.020 A 
ATOM     73  C   UNL A   1      34.708  34.001  29.188  1.00  0.00     0.054 A 
BRANCH  73  74
ATOM     74  S   UNL A   1      33.143  34.881  28.926  1.00  0.00     0.124 S 
ATOM     75  O   UNL A   1      33.598  36.153  28.375  1.00  0.00    -0.237 OA
ATOM     76  O   UNL A   1      32.438  34.003  27.997  1.00  0.00    -0.237 OA
ATOM     77  O   UNL A   1      32.563  34.949  30.266  1.00  0.00    -0.744 OA
ENDBRANCH  73  74
ENDBRANCH  45  68
BRANCH  57  78
ATOM     78  C   UNL A   1      43.135  34.928  32.447  1.00  0.00    -0.014 A 
ATOM     79  C   UNL A   1      42.948  35.279  33.795  1.00  0.00     0.010 A 
ATOM     80  C   UNL A   1      43.769  35.838  31.581  1.00  0.00     0.010 A 
ATOM     81  C   UNL A   1      43.351  36.535  34.258  1.00  0.00     0.020 A 
ATOM     82  C   UNL A   1      44.195  37.084  32.047  1.00  0.00     0.020 A 
ATOM     83  C   UNL A   1      43.966  37.432  33.379  1.00  0.00     0.054 A 
BRANCH  83  84
ATOM     84  S   UNL A   1      44.504  39.047  34.006  1.00  0.00     0.124 S 
ATOM     85  O   UNL A   1      44.499  38.827  35.450  1.00  0.00    -0.237 OA
ATOM     86  O   UNL A   1      45.823  39.206  33.398  1.00  0.00    -0.237 OA
ATOM     87  O   UNL A   1      43.482  39.966  33.510  1.00  0.00    -0.744 OA
ENDBRANCH  83  84
ENDBRANCH  57  78
ENDBRANCH  31  32
ENDBRANCH  23  26
ENDBRANCH  21  22
ENDBRANCH   1  21
TORSDOF 15
ENDMDL
MODEL 3
REMARK VINA RESULT:     -10.2      2.519      9.282
REMARK SMILES C[C@@H]1C[N@@H+](C[C@]2(C(=O)NCCCNC(=O)c3ccc(-c4c5nc(c(-c6ccc(S(=O)(=O)[O-])cc6)c6ccc([nH]6)c(-c6ccc(S(=O)(=O)[O-])cc6)c6nc(c(-c7ccc(S(=O)(=O)[O-])cc7)c7ccc4[nH]7)C=C6)C=C5)cc3)CCOC2)C[C@@H]1C
REMARK SMILES IDX 11 1 10 2 9 3 7 4 8 5 6 7 76 8 79 9 77 10 78 11 5 12 4 13
REMARK SMILES IDX 1 14 2 15 3 16 81 17 80 18 82 19 12 21 13 22 14 23 15 25
REMARK SMILES IDX 16 26 17 27 75 28 18 29 74 30 19 31 20 32 21 33 68 34 22 35
REMARK SMILES IDX 73 36 67 37 69 38 23 39 72 40 66 41 65 42 24 44 54 45 35 46
REMARK SMILES IDX 53 47 36 48 39 49 52 50 70 51 37 52 38 53 51 55 71 56 40 57
REMARK SMILES IDX 25 58 26 59 34 60 27 61 33 62 28 63 29 64 30 65 31 66 32 67
REMARK SMILES IDX 55 68 56 69 64 70 57 71 63 72 58 73 59 74 60 75 61 76 62 77
REMARK SMILES IDX 41 78 42 79 50 80 43 81 49 82 44 83 45 84 46 85 47 86 48 87
REMARK H PARENT 9 6 4 20 13 24 69 43 39 54
REMARK Flexibility Score: inf
ROOT
ATOM      1  C   UNL A   1      36.403  23.654  23.800  1.00  0.00     0.042 C 
ENDROOT
BRANCH   1   2
ATOM      2  C   UNL A   1      34.913  23.441  23.558  1.00  0.00     0.117 C 
BRANCH   2   3
ATOM      3  N   UNL A   1      34.430  22.235  24.208  1.00  0.00    -0.355 N 
ATOM      4  C   UNL A   1      33.322  21.988  24.959  1.00  0.00     0.234 C 
ATOM      5  O   UNL A   1      33.271  20.882  25.502  1.00  0.00    -0.274 OA
ATOM      6  H   UNL A   1      35.013  21.451  24.084  1.00  0.00     0.163 HD
BRANCH   4   7
ATOM      7  C   UNL A   1      32.213  23.041  25.139  1.00  0.00     0.123 C 
ATOM      8  C   UNL A   1      30.993  22.402  25.795  1.00  0.00     0.054 C 
ATOM      9  C   UNL A   1      32.658  24.017  26.240  1.00  0.00     0.183 C 
ATOM     10  C   UNL A   1      30.482  23.409  26.795  1.00  0.00     0.161 C 
ATOM     11  O   UNL A   1      31.542  24.310  27.093  1.00  0.00    -0.380 OA
BRANCH   7  12
ATOM     12  C   UNL A   1      32.016  23.733  23.756  1.00  0.00     0.281 C 
BRANCH  12  13
ATOM     13  N   UNL A   1      31.381  25.025  23.586  1.00  0.00    -0.333 N 
ATOM     14  C   UNL A   1      31.556  28.452  24.960  1.00  0.00     0.014 C 
ATOM     15  C   UNL A   1      31.220  26.977  24.828  1.00  0.00     0.049 C 
ATOM     16  C   UNL A   1      32.112  26.248  23.835  1.00  0.00     0.265 C 
ATOM     17  C   UNL A   1      29.798  26.618  24.367  1.00  0.00     0.049 C 
ATOM     18  C   UNL A   1      29.956  25.208  23.768  1.00  0.00     0.265 C 
ATOM     19  C   UNL A   1      29.186  27.582  23.354  1.00  0.00     0.014 C 
ATOM     20  H   UNL A   1      31.478  24.829  22.589  1.00  0.00     0.348 HD
ENDBRANCH  12  13
ENDBRANCH   7  12
ENDBRANCH   4   7
ENDBRANCH   2   3
ENDBRANCH   1   2
BRANCH   1  21
ATOM     21  C   UNL A   1      36.801  23.617  25.269  1.00  0.00     0.118 C 
BRANCH  21  22
ATOM     22  N   UNL A   1      37.886  22.683  25.524  1.00  0.00    -0.352 N 
ATOM     23  C   UNL A   1      39.114  22.898  26.096  1.00  0.00     0.251 C 
ATOM     24  H   UNL A   1      37.713  21.756  25.243  1.00  0.00     0.163 HD
ATOM     25  O   UNL A   1      39.960  22.010  26.037  1.00  0.00    -0.269 OA
BRANCH  23  26
ATOM     26  C   UNL A   1      39.424  24.178  26.772  1.00  0.00     0.039 A 
ATOM     27  C   UNL A   1      40.125  25.155  26.059  1.00  0.00     0.014 A 
ATOM     28  C   UNL A   1      39.090  24.397  28.112  1.00  0.00     0.014 A 
ATOM     29  C   UNL A   1      40.474  26.354  26.682  1.00  0.00     0.010 A 
ATOM     30  C   UNL A   1      39.370  25.624  28.709  1.00  0.00     0.010 A 
ATOM     31  C   UNL A   1      40.092  26.600  28.011  1.00  0.00    -0.014 A 
BRANCH  31  32
ATOM     32  C   UNL A   1      40.501  27.849  28.700  1.00  0.00     0.031 A 
ATOM     33  C   UNL A   1      41.905  27.991  29.227  1.00  0.00     0.074 A 
ATOM     34  C   UNL A   1      39.610  28.843  28.872  1.00  0.00     0.049 A 
ATOM     35  N   UNL A   1      42.458  29.004  29.843  1.00  0.00    -0.248 NA
ATOM     36  C   UNL A   1      42.798  26.833  29.061  1.00  0.00     0.031 C 
ATOM     37  C   UNL A   1      38.213  28.813  28.436  1.00  0.00     0.029 A 
ATOM     38  N   UNL A   1      39.752  30.078  29.452  1.00  0.00    -0.354 N 
ATOM     39  C   UNL A   1      43.750  28.598  30.155  1.00  0.00     0.074 A 
ATOM     40  C   UNL A   1      43.882  27.229  29.709  1.00  0.00     0.031 C 
ATOM     41  C   UNL A   1      37.640  29.995  28.721  1.00  0.00     0.029 A 
ATOM     42  C   UNL A   1      38.618  30.850  29.386  1.00  0.00     0.049 A 
ATOM     43  H   UNL A   1      40.587  30.381  29.875  1.00  0.00     0.167 HD
ATOM     44  C   UNL A   1      44.748  29.304  30.741  1.00  0.00     0.031 A 
ATOM     45  C   UNL A   1      38.397  32.113  29.798  1.00  0.00     0.031 A 
ATOM     46  C   UNL A   1      44.620  30.670  31.170  1.00  0.00     0.049 A 
ATOM     47  C   UNL A   1      39.520  32.885  30.433  1.00  0.00     0.074 A 
ATOM     48  C   UNL A   1      45.581  31.494  31.730  1.00  0.00     0.029 A 
ATOM     49  N   UNL A   1      43.454  31.417  31.084  1.00  0.00    -0.354 N 
ATOM     50  N   UNL A   1      40.752  32.502  30.672  1.00  0.00    -0.248 NA
ATOM     51  C   UNL A   1      39.225  34.265  30.838  1.00  0.00     0.031 C 
ATOM     52  C   UNL A   1      44.985  32.729  32.015  1.00  0.00     0.029 A 
ATOM     53  C   UNL A   1      43.666  32.688  31.590  1.00  0.00     0.049 A 
ATOM     54  H   UNL A   1      42.601  31.091  30.718  1.00  0.00     0.167 HD
ATOM     55  C   UNL A   1      41.390  33.608  31.222  1.00  0.00     0.074 A 
ATOM     56  C   UNL A   1      40.408  34.672  31.276  1.00  0.00     0.031 C 
ATOM     57  C   UNL A   1      42.675  33.734  31.637  1.00  0.00     0.031 A 
BRANCH  44  58
ATOM     58  C   UNL A   1      46.056  28.589  30.957  1.00  0.00    -0.014 A 
ATOM     59  C   UNL A   1      47.060  28.595  29.970  1.00  0.00     0.010 A 
ATOM     60  C   UNL A   1      46.277  27.882  32.151  1.00  0.00     0.010 A 
ATOM     61  C   UNL A   1      48.229  27.850  30.143  1.00  0.00     0.020 A 
ATOM     62  C   UNL A   1      47.459  27.158  32.341  1.00  0.00     0.020 A 
ATOM     63  C   UNL A   1      48.415  27.125  31.323  1.00  0.00     0.054 A 
BRANCH  63  64
ATOM     64  S   UNL A   1      49.925  26.139  31.516  1.00  0.00     0.124 S 
ATOM     65  O   UNL A   1      50.895  27.156  31.920  1.00  0.00    -0.237 OA
ATOM     66  O   UNL A   1      49.556  25.179  32.552  1.00  0.00    -0.237 OA
ATOM     67  O   UNL A   1      50.137  25.568  30.188  1.00  0.00    -0.744 OA
ENDBRANCH  63  64
ENDBRANCH  44  58
BRANCH  45  68
ATOM     68  C   UNL A   1      37.074  32.746  29.555  1.00  0.00    -0.014 A 
ATOM     69  C   UNL A   1      36.138  32.843  30.601  1.00  0.00     0.010 A 
ATOM     70  C   UNL A   1      36.753  33.282  28.295  1.00  0.00     0.010 A 
ATOM     71  C   UNL A   1      34.902  33.459  30.390  1.00  0.00     0.020 A 
ATOM     72  C   UNL A   1      35.525  33.918  28.088  1.00  0.00     0.020 A 
ATOM     73  C   UNL A   1      34.604  33.997  29.135  1.00  0.00     0.054 A 
BRANCH  73  74
ATOM     74  S   UNL A   1      33.021  34.854  28.906  1.00  0.00     0.124 S 
ATOM     75  O   UNL A   1      32.358  34.007  27.920  1.00  0.00    -0.237 OA
ATOM     76  O   UNL A   1      32.450  34.830  30.249  1.00  0.00    -0.237 OA
ATOM     77  O   UNL A   1      33.417  36.177  28.430  1.00  0.00    -0.744 OA
ENDBRANCH  73  74
ENDBRANCH  45  68
BRANCH  57  78
ATOM     78  C   UNL A   1      43.104  35.084  32.143  1.00  0.00    -0.014 A 
ATOM     79  C   UNL A   1      43.694  36.032  31.288  1.00  0.00     0.010 A 
ATOM     80  C   UNL A   1      42.883  35.417  33.492  1.00  0.00     0.010 A 
ATOM     81  C   UNL A   1      44.094  37.275  31.786  1.00  0.00     0.020 A 
ATOM     82  C   UNL A   1      43.260  36.668  33.985  1.00  0.00     0.020 A 
ATOM     83  C   UNL A   1      43.880  37.583  33.133  1.00  0.00     0.054 A 
BRANCH  83  84
ATOM     84  S   UNL A   1      44.385  39.211  33.753  1.00  0.00     0.124 S 
ATOM     85  O   UNL A   1      43.103  39.899  33.875  1.00  0.00    -0.237 OA
ATOM     86  O   UNL A   1      45.046  38.885  35.015  1.00  0.00    -0.237 OA
ATOM     87  O   UNL A   1      45.270  39.718  32.708  1.00  0.00    -0.744 OA
ENDBRANCH  83  84
ENDBRANCH  57  78
ENDBRANCH  31  32
ENDBRANCH  23  26
ENDBRANCH  21  22
ENDBRANCH   1  21
TORSDOF 15
ENDMDL
