MODEL 1
REMARK VINA RESULT:     -13.9      0.000      0.000
REMARK SMILES O=C(NCCCNC(=O)c1nnn(-c2cccc(C(F)(F)F)c2)c1[C@@H]1COc2ccccc2O1)c1ccc(-c2c3nc(c(-c4ccc(S(=O)(=O)[O-])cc4)c4ccc([nH]4)c(-c4ccc(S(=O)(=O)[O-])cc4)c4nc(c(-c5ccc(S(=O)(=O)[O-])cc5)c5ccc2[nH]5)C=C4)C=C3)cc1
REMARK SMILES IDX 4 1 3 2 1 3 2 4 35 6 36 7 94 8 37 9 93 10 38 11 39 12 40 13
REMARK SMILES IDX 87 14 41 15 92 16 86 17 88 18 42 19 91 20 85 21 84 22 43 24
REMARK SMILES IDX 73 25 54 26 72 27 55 28 58 29 71 30 89 31 56 32 57 33 70 35
REMARK SMILES IDX 90 36 59 37 44 38 45 39 53 40 46 41 52 42 47 43 48 44 49 45
REMARK SMILES IDX 50 46 51 47 74 48 75 49 83 50 76 51 82 52 77 53 78 54 79 55
REMARK SMILES IDX 80 56 81 57 60 58 61 59 69 60 62 61 68 62 63 63 64 64 65 65
REMARK SMILES IDX 66 66 67 67 5 68 6 69 7 70 8 71 9 73 10 74 11 75 24 76 12 77
REMARK SMILES IDX 13 78 25 79 26 80 34 81 27 82 33 83 28 84 32 85 29 86 31 87
REMARK SMILES IDX 30 88 14 89 15 90 23 91 16 92 18 93 17 94 19 95 20 96 21 97
REMARK SMILES IDX 22 98
REMARK H PARENT 3 5 88 23 58 34 7 72
REMARK Flexibility Score: inf
ROOT
ATOM      1  C   UNL A   1      37.059  22.589  24.925  1.00  0.00     0.118 C 
ENDROOT
BRANCH   1   2
ATOM      2  N   UNL A   1      38.316  21.924  25.203  1.00  0.00    -0.352 N 
ATOM      3  O   UNL A   1      40.210  21.237  26.076  1.00  0.00    -0.269 OA
ATOM      4  C   UNL A   1      39.376  22.145  26.038  1.00  0.00     0.251 C 
ATOM      5  H   UNL A   1      38.436  21.115  24.657  1.00  0.00     0.163 HD
BRANCH   4   6
ATOM      6  C   UNL A   1      39.629  23.384  26.826  1.00  0.00     0.039 A 
ATOM      7  C   UNL A   1      38.862  24.551  26.807  1.00  0.00     0.014 A 
ATOM      8  C   UNL A   1      40.798  23.364  27.611  1.00  0.00     0.014 A 
ATOM      9  C   UNL A   1      39.308  25.701  27.463  1.00  0.00     0.010 A 
ATOM     10  C   UNL A   1      41.236  24.497  28.281  1.00  0.00     0.010 A 
ATOM     11  C   UNL A   1      40.514  25.682  28.163  1.00  0.00    -0.014 A 
BRANCH  11  12
ATOM     12  C   UNL A   1      40.963  26.885  28.863  1.00  0.00     0.031 A 
ATOM     13  C   UNL A   1      42.170  27.550  28.287  1.00  0.00     0.074 A 
ATOM     14  C   UNL A   1      40.210  27.473  29.815  1.00  0.00     0.049 A 
ATOM     15  N   UNL A   1      43.283  27.863  28.872  1.00  0.00    -0.248 NA
ATOM     16  C   UNL A   1      42.163  27.827  26.839  1.00  0.00     0.031 C 
ATOM     17  C   UNL A   1      38.859  27.094  30.246  1.00  0.00     0.029 A 
ATOM     18  N   UNL A   1      40.431  28.633  30.497  1.00  0.00    -0.354 N 
ATOM     19  C   UNL A   1      44.044  28.539  27.918  1.00  0.00     0.074 A 
ATOM     20  C   UNL A   1      43.370  28.361  26.657  1.00  0.00     0.031 C 
ATOM     21  C   UNL A   1      38.294  28.132  30.904  1.00  0.00     0.029 A 
ATOM     22  C   UNL A   1      39.282  29.187  31.054  1.00  0.00     0.049 A 
ATOM     23  H   UNL A   1      41.322  29.041  30.588  1.00  0.00     0.167 HD
ATOM     24  C   UNL A   1      45.067  29.380  28.245  1.00  0.00     0.031 A 
ATOM     25  C   UNL A   1      39.127  30.455  31.517  1.00  0.00     0.031 A 
ATOM     26  C   UNL A   1      45.518  29.193  29.596  1.00  0.00     0.049 A 
ATOM     27  C   UNL A   1      40.482  31.003  31.765  1.00  0.00     0.074 A 
ATOM     28  C   UNL A   1      46.080  28.149  30.300  1.00  0.00     0.029 A 
ATOM     29  N   UNL A   1      45.077  30.088  30.541  1.00  0.00    -0.354 N 
ATOM     30  N   UNL A   1      41.291  30.534  32.673  1.00  0.00    -0.248 NA
ATOM     31  C   UNL A   1      41.115  31.770  30.704  1.00  0.00     0.031 C 
ATOM     32  C   UNL A   1      45.499  28.230  31.599  1.00  0.00     0.029 A 
ATOM     33  C   UNL A   1      44.666  29.351  31.623  1.00  0.00     0.049 A 
ATOM     34  H   UNL A   1      45.060  31.068  30.459  1.00  0.00     0.167 HD
ATOM     35  C   UNL A   1      42.547  30.572  32.087  1.00  0.00     0.074 A 
ATOM     36  C   UNL A   1      42.390  31.428  30.912  1.00  0.00     0.031 C 
ATOM     37  C   UNL A   1      43.526  29.689  32.449  1.00  0.00     0.031 A 
BRANCH  24  38
ATOM     38  C   UNL A   1      45.404  30.621  27.453  1.00  0.00    -0.014 A 
ATOM     39  C   UNL A   1      46.753  30.924  27.180  1.00  0.00     0.010 A 
ATOM     40  C   UNL A   1      44.460  31.642  27.219  1.00  0.00     0.010 A 
ATOM     41  C   UNL A   1      47.140  32.206  26.760  1.00  0.00     0.020 A 
ATOM     42  C   UNL A   1      44.829  32.908  26.758  1.00  0.00     0.020 A 
ATOM     43  C   UNL A   1      46.173  33.194  26.568  1.00  0.00     0.054 A 
BRANCH  43  44
ATOM     44  S   UNL A   1      46.691  34.879  26.156  1.00  0.00     0.124 S 
ATOM     45  O   UNL A   1      45.418  35.511  25.827  1.00  0.00    -0.237 OA
ATOM     46  O   UNL A   1      47.318  35.322  27.398  1.00  0.00    -0.237 OA
ATOM     47  O   UNL A   1      47.607  34.691  25.033  1.00  0.00    -0.744 OA
ENDBRANCH  43  44
ENDBRANCH  24  38
BRANCH  25  48
ATOM     48  C   UNL A   1      37.919  31.314  31.386  1.00  0.00    -0.014 A 
ATOM     49  C   UNL A   1      36.671  30.920  31.903  1.00  0.00     0.010 A 
ATOM     50  C   UNL A   1      38.059  32.657  30.976  1.00  0.00     0.010 A 
ATOM     51  C   UNL A   1      35.619  31.847  32.047  1.00  0.00     0.020 A 
ATOM     52  C   UNL A   1      37.018  33.583  31.109  1.00  0.00     0.020 A 
ATOM     53  C   UNL A   1      35.807  33.178  31.664  1.00  0.00     0.054 A 
BRANCH  53  54
ATOM     54  S   UNL A   1      34.510  34.407  32.000  1.00  0.00     0.124 S 
ATOM     55  O   UNL A   1      34.060  34.761  30.657  1.00  0.00    -0.237 OA
ATOM     56  O   UNL A   1      33.557  33.651  32.808  1.00  0.00    -0.237 OA
ATOM     57  O   UNL A   1      35.218  35.469  32.715  1.00  0.00    -0.744 OA
ENDBRANCH  53  54
ENDBRANCH  25  48
BRANCH  37  58
ATOM     58  C   UNL A   1      43.287  28.807  33.655  1.00  0.00    -0.014 A 
ATOM     59  C   UNL A   1      43.457  29.251  34.982  1.00  0.00     0.010 A 
ATOM     60  C   UNL A   1      42.711  27.543  33.444  1.00  0.00     0.010 A 
ATOM     61  C   UNL A   1      43.081  28.444  36.066  1.00  0.00     0.020 A 
ATOM     62  C   UNL A   1      42.319  26.739  34.520  1.00  0.00     0.020 A 
ATOM     63  C   UNL A   1      42.512  27.192  35.827  1.00  0.00     0.054 A 
BRANCH  63  64
ATOM     64  S   UNL A   1      41.974  26.171  37.230  1.00  0.00     0.124 S 
ATOM     65  O   UNL A   1      43.021  26.418  38.223  1.00  0.00    -0.237 OA
ATOM     66  O   UNL A   1      40.663  26.735  37.560  1.00  0.00    -0.237 OA
ATOM     67  O   UNL A   1      41.939  24.820  36.689  1.00  0.00    -0.744 OA
ENDBRANCH  63  64
ENDBRANCH  37  58
ENDBRANCH  11  12
ENDBRANCH   4   6
ENDBRANCH   1   2
BRANCH   1  68
ATOM     68  C   UNL A   1      35.863  21.995  25.654  1.00  0.00     0.042 C 
BRANCH  68  69
ATOM     69  C   UNL A   1      35.278  20.737  25.021  1.00  0.00     0.118 C 
BRANCH  69  70
ATOM     70  N   UNL A   1      33.856  20.541  25.217  1.00  0.00    -0.351 N 
ATOM     71  C   UNL A   1      32.675  21.189  24.919  1.00  0.00     0.273 C 
ATOM     72  H   UNL A   1      33.682  19.703  25.703  1.00  0.00     0.163 HD
ATOM     73  O   UNL A   1      31.688  20.533  25.278  1.00  0.00    -0.267 OA
BRANCH  71  74
ATOM     74  C   UNL A   1      32.467  22.502  24.266  1.00  0.00     0.178 A 
ATOM     75  N   UNL A   1      31.795  22.487  23.049  1.00  0.00    -0.124 NA
ATOM     76  C   UNL A   1      32.729  23.842  24.564  1.00  0.00     0.122 A 
ATOM     77  N   UNL A   1      31.608  23.725  22.624  1.00  0.00    -0.061 NA
ATOM     78  N   UNL A   1      32.239  24.549  23.475  1.00  0.00    -0.213 N 
BRANCH  76  79
ATOM     79  C   UNL A   1      33.158  24.491  25.835  1.00  0.00     0.262 C 
ATOM     80  C   UNL A   1      31.941  24.566  26.786  1.00  0.00     0.281 C 
ATOM     81  O   UNL A   1      33.859  25.724  25.666  1.00  0.00    -0.477 OA
ATOM     82  O   UNL A   1      31.130  25.702  26.481  1.00  0.00    -0.485 OA
ATOM     83  C   UNL A   1      33.287  26.773  26.338  1.00  0.00     0.162 A 
ATOM     84  C   UNL A   1      31.924  26.806  26.652  1.00  0.00     0.161 A 
ATOM     85  C   UNL A   1      34.097  27.858  26.643  1.00  0.00     0.050 A 
ATOM     86  C   UNL A   1      31.340  27.956  27.159  1.00  0.00     0.050 A 
ATOM     87  C   UNL A   1      33.527  28.995  27.217  1.00  0.00     0.004 A 
ATOM     88  C   UNL A   1      32.148  29.055  27.446  1.00  0.00     0.004 A 
ENDBRANCH  76  79
BRANCH  78  89
ATOM     89  C   UNL A   1      32.387  25.913  23.166  1.00  0.00     0.067 A 
ATOM     90  C   UNL A   1      33.572  26.362  22.580  1.00  0.00     0.028 A 
ATOM     91  C   UNL A   1      31.272  26.752  23.281  1.00  0.00     0.041 A 
ATOM     92  C   UNL A   1      33.598  27.635  22.006  1.00  0.00     0.003 A 
ATOM     93  C   UNL A   1      31.305  28.039  22.728  1.00  0.00     0.058 A 
ATOM     94  C   UNL A   1      32.469  28.460  22.065  1.00  0.00     0.013 A 
BRANCH  93  95
ATOM     95  C   UNL A   1      30.084  28.921  22.769  1.00  0.00     0.416 C 
ATOM     96  F   UNL A   1      30.002  29.755  21.694  1.00  0.00    -0.166 F 
ATOM     97  F   UNL A   1      28.918  28.219  22.790  1.00  0.00    -0.166 F 
ATOM     98  F   UNL A   1      30.044  29.734  23.864  1.00  0.00    -0.166 F 
ENDBRANCH  93  95
ENDBRANCH  78  89
ENDBRANCH  71  74
ENDBRANCH  69  70
ENDBRANCH  68  69
ENDBRANCH   1  68
TORSDOF 16
ENDMDL
MODEL 2
REMARK VINA RESULT:     -13.5      3.166      9.228
REMARK SMILES O=C(NCCCNC(=O)c1nnn(-c2cccc(C(F)(F)F)c2)c1[C@@H]1COc2ccccc2O1)c1ccc(-c2c3nc(c(-c4ccc(S(=O)(=O)[O-])cc4)c4ccc([nH]4)c(-c4ccc(S(=O)(=O)[O-])cc4)c4nc(c(-c5ccc(S(=O)(=O)[O-])cc5)c5ccc2[nH]5)C=C4)C=C3)cc1
REMARK SMILES IDX 4 1 3 2 1 3 2 4 35 6 36 7 94 8 37 9 93 10 38 11 39 12 40 13
REMARK SMILES IDX 87 14 41 15 92 16 86 17 88 18 42 19 91 20 85 21 84 22 43 24
REMARK SMILES IDX 73 25 54 26 72 27 55 28 58 29 71 30 89 31 56 32 57 33 70 35
REMARK SMILES IDX 90 36 59 37 44 38 45 39 53 40 46 41 52 42 47 43 48 44 49 45
REMARK SMILES IDX 50 46 51 47 74 48 75 49 83 50 76 51 82 52 77 53 78 54 79 55
REMARK SMILES IDX 80 56 81 57 60 58 61 59 69 60 62 61 68 62 63 63 64 64 65 65
REMARK SMILES IDX 66 66 67 67 5 68 6 69 7 70 8 71 9 73 10 74 11 75 24 76 12 77
REMARK SMILES IDX 13 78 25 79 26 80 34 81 27 82 33 83 28 84 32 85 29 86 31 87
REMARK SMILES IDX 30 88 14 89 15 90 23 91 16 92 18 93 17 94 19 95 20 96 21 97
REMARK SMILES IDX 22 98
REMARK H PARENT 3 5 88 23 58 34 7 72
REMARK Flexibility Score: inf
ROOT
ATOM      1  C   UNL A   1      33.828  29.089  26.012  1.00  0.00     0.118 C 
ENDROOT
BRANCH   1   2
ATOM      2  N   UNL A   1      33.584  30.309  26.756  1.00  0.00    -0.352 N 
ATOM      3  O   UNL A   1      33.765  32.193  27.869  1.00  0.00    -0.269 OA
ATOM      4  C   UNL A   1      34.336  31.156  27.521  1.00  0.00     0.251 C 
ATOM      5  H   UNL A   1      32.645  30.599  26.694  1.00  0.00     0.163 HD
BRANCH   4   6
ATOM      6  C   UNL A   1      35.721  30.901  28.009  1.00  0.00     0.039 A 
ATOM      7  C   UNL A   1      36.650  31.864  28.408  1.00  0.00     0.014 A 
ATOM      8  C   UNL A   1      36.119  29.550  28.000  1.00  0.00     0.014 A 
ATOM      9  C   UNL A   1      37.971  31.503  28.680  1.00  0.00     0.010 A 
ATOM     10  C   UNL A   1      37.424  29.182  28.289  1.00  0.00     0.010 A 
ATOM     11  C   UNL A   1      38.363  30.168  28.579  1.00  0.00    -0.014 A 
BRANCH  11  12
ATOM     12  C   UNL A   1      39.744  29.795  28.886  1.00  0.00     0.031 A 
ATOM     13  C   UNL A   1      40.103  29.797  30.336  1.00  0.00     0.074 A 
ATOM     14  C   UNL A   1      40.561  29.270  27.949  1.00  0.00     0.049 A 
ATOM     15  N   UNL A   1      41.069  30.419  30.934  1.00  0.00    -0.248 NA
ATOM     16  C   UNL A   1      39.207  29.070  31.254  1.00  0.00     0.031 C 
ATOM     17  C   UNL A   1      40.225  28.924  26.563  1.00  0.00     0.029 A 
ATOM     18  N   UNL A   1      41.831  28.791  28.081  1.00  0.00    -0.354 N 
ATOM     19  C   UNL A   1      41.017  30.020  32.270  1.00  0.00     0.074 A 
ATOM     20  C   UNL A   1      39.775  29.309  32.436  1.00  0.00     0.031 C 
ATOM     21  C   UNL A   1      41.156  28.072  26.079  1.00  0.00     0.029 A 
ATOM     22  C   UNL A   1      42.214  27.922  27.064  1.00  0.00     0.049 A 
ATOM     23  H   UNL A   1      42.423  29.039  28.827  1.00  0.00     0.167 HD
ATOM     24  C   UNL A   1      42.085  30.111  33.113  1.00  0.00     0.031 A 
ATOM     25  C   UNL A   1      43.271  27.068  27.073  1.00  0.00     0.031 A 
ATOM     26  C   UNL A   1      43.103  30.992  32.613  1.00  0.00     0.049 A 
ATOM     27  C   UNL A   1      44.209  27.536  28.121  1.00  0.00     0.074 A 
ATOM     28  C   UNL A   1      43.163  32.336  32.306  1.00  0.00     0.029 A 
ATOM     29  N   UNL A   1      44.198  30.421  32.012  1.00  0.00    -0.354 N 
ATOM     30  N   UNL A   1      44.843  28.673  28.060  1.00  0.00    -0.248 NA
ATOM     31  C   UNL A   1      44.093  26.959  29.451  1.00  0.00     0.031 C 
ATOM     32  C   UNL A   1      43.982  32.406  31.141  1.00  0.00     0.029 A 
ATOM     33  C   UNL A   1      44.416  31.112  30.847  1.00  0.00     0.049 A 
ATOM     34  H   UNL A   1      44.725  29.662  32.351  1.00  0.00     0.167 HD
ATOM     35  C   UNL A   1      44.831  29.160  29.359  1.00  0.00     0.074 A 
ATOM     36  C   UNL A   1      44.438  28.020  30.186  1.00  0.00     0.031 C 
ATOM     37  C   UNL A   1      44.869  30.503  29.614  1.00  0.00     0.031 A 
BRANCH  24  38
ATOM     38  C   UNL A   1      42.361  29.111  34.211  1.00  0.00    -0.014 A 
ATOM     39  C   UNL A   1      42.619  27.766  33.875  1.00  0.00     0.010 A 
ATOM     40  C   UNL A   1      42.093  29.391  35.567  1.00  0.00     0.010 A 
ATOM     41  C   UNL A   1      42.543  26.749  34.838  1.00  0.00     0.020 A 
ATOM     42  C   UNL A   1      42.059  28.392  36.542  1.00  0.00     0.020 A 
ATOM     43  C   UNL A   1      42.246  27.070  36.164  1.00  0.00     0.054 A 
BRANCH  43  44
ATOM     44  S   UNL A   1      42.019  25.742  37.373  1.00  0.00     0.124 S 
ATOM     45  O   UNL A   1      42.944  26.137  38.430  1.00  0.00    -0.237 OA
ATOM     46  O   UNL A   1      40.599  25.857  37.695  1.00  0.00    -0.237 OA
ATOM     47  O   UNL A   1      42.390  24.538  36.633  1.00  0.00    -0.744 OA
ENDBRANCH  43  44
ENDBRANCH  24  38
BRANCH  25  48
ATOM     48  C   UNL A   1      43.315  25.694  26.504  1.00  0.00    -0.014 A 
ATOM     49  C   UNL A   1      43.785  25.447  25.201  1.00  0.00     0.010 A 
ATOM     50  C   UNL A   1      43.139  24.581  27.354  1.00  0.00     0.010 A 
ATOM     51  C   UNL A   1      44.108  24.141  24.781  1.00  0.00     0.020 A 
ATOM     52  C   UNL A   1      43.452  23.280  26.944  1.00  0.00     0.020 A 
ATOM     53  C   UNL A   1      43.955  23.068  25.664  1.00  0.00     0.054 A 
BRANCH  53  54
ATOM     54  S   UNL A   1      44.526  21.411  25.179  1.00  0.00     0.124 S 
ATOM     55  O   UNL A   1      45.881  21.376  25.721  1.00  0.00    -0.237 OA
ATOM     56  O   UNL A   1      43.559  20.536  25.835  1.00  0.00    -0.237 OA
ATOM     57  O   UNL A   1      44.445  21.432  23.718  1.00  0.00    -0.744 OA
ENDBRANCH  53  54
ENDBRANCH  25  48
BRANCH  37  58
ATOM     58  C   UNL A   1      45.144  31.445  28.462  1.00  0.00    -0.014 A 
ATOM     59  C   UNL A   1      44.139  31.905  27.585  1.00  0.00     0.010 A 
ATOM     60  C   UNL A   1      46.424  32.015  28.367  1.00  0.00     0.010 A 
ATOM     61  C   UNL A   1      44.416  32.891  26.627  1.00  0.00     0.020 A 
ATOM     62  C   UNL A   1      46.703  33.010  27.424  1.00  0.00     0.020 A 
ATOM     63  C   UNL A   1      45.698  33.439  26.553  1.00  0.00     0.054 A 
BRANCH  63  64
ATOM     64  S   UNL A   1      46.040  34.755  25.349  1.00  0.00     0.124 S 
ATOM     65  O   UNL A   1      45.613  35.959  26.064  1.00  0.00    -0.237 OA
ATOM     66  O   UNL A   1      47.486  34.639  25.140  1.00  0.00    -0.237 OA
ATOM     67  O   UNL A   1      45.226  34.397  24.196  1.00  0.00    -0.744 OA
ENDBRANCH  63  64
ENDBRANCH  37  58
ENDBRANCH  11  12
ENDBRANCH   4   6
ENDBRANCH   1   2
BRANCH   1  68
ATOM     68  C   UNL A   1      32.634  28.150  25.941  1.00  0.00     0.042 C 
BRANCH  68  69
ATOM     69  C   UNL A   1      31.361  28.762  25.369  1.00  0.00     0.118 C 
BRANCH  69  70
ATOM     70  N   UNL A   1      31.065  28.420  23.993  1.00  0.00    -0.351 N 
ATOM     71  C   UNL A   1      30.954  27.288  23.213  1.00  0.00     0.273 C 
ATOM     72  H   UNL A   1      30.894  29.231  23.460  1.00  0.00     0.163 HD
ATOM     73  O   UNL A   1      30.607  27.559  22.055  1.00  0.00    -0.267 OA
BRANCH  71  74
ATOM     74  C   UNL A   1      31.195  25.873  23.578  1.00  0.00     0.178 A 
ATOM     75  N   UNL A   1      30.111  25.010  23.456  1.00  0.00    -0.124 NA
ATOM     76  C   UNL A   1      32.282  25.098  23.992  1.00  0.00     0.122 A 
ATOM     77  N   UNL A   1      30.489  23.774  23.733  1.00  0.00    -0.061 NA
ATOM     78  N   UNL A   1      31.766  23.819  24.143  1.00  0.00    -0.213 N 
BRANCH  76  79
ATOM     79  C   UNL A   1      33.741  25.400  24.017  1.00  0.00     0.262 C 
ATOM     80  C   UNL A   1      34.361  24.949  22.675  1.00  0.00     0.281 C 
ATOM     81  O   UNL A   1      34.426  24.929  25.179  1.00  0.00    -0.477 OA
ATOM     82  O   UNL A   1      34.652  23.550  22.697  1.00  0.00    -0.485 OA
ATOM     83  C   UNL A   1      35.485  24.108  24.892  1.00  0.00     0.162 A 
ATOM     84  C   UNL A   1      35.549  23.355  23.715  1.00  0.00     0.161 A 
ATOM     85  C   UNL A   1      36.481  23.985  25.851  1.00  0.00     0.050 A 
ATOM     86  C   UNL A   1      36.533  22.393  23.540  1.00  0.00     0.050 A 
ATOM     87  C   UNL A   1      37.512  23.068  25.651  1.00  0.00     0.004 A 
ATOM     88  C   UNL A   1      37.522  22.253  24.513  1.00  0.00     0.004 A 
ENDBRANCH  76  79
BRANCH  78  89
ATOM     89  C   UNL A   1      32.374  22.679  24.700  1.00  0.00     0.067 A 
ATOM     90  C   UNL A   1      32.780  22.699  26.036  1.00  0.00     0.028 A 
ATOM     91  C   UNL A   1      32.386  21.493  23.957  1.00  0.00     0.041 A 
ATOM     92  C   UNL A   1      33.097  21.491  26.661  1.00  0.00     0.003 A 
ATOM     93  C   UNL A   1      32.729  20.284  24.575  1.00  0.00     0.058 A 
ATOM     94  C   UNL A   1      33.057  20.291  25.941  1.00  0.00     0.013 A 
BRANCH  93  95
ATOM     95  C   UNL A   1      32.664  18.987  23.811  1.00  0.00     0.416 C 
ATOM     96  F   UNL A   1      31.870  18.059  24.416  1.00  0.00    -0.166 F 
ATOM     97  F   UNL A   1      32.175  19.135  22.549  1.00  0.00    -0.166 F 
ATOM     98  F   UNL A   1      33.881  18.386  23.666  1.00  0.00    -0.166 F 
ENDBRANCH  93  95
ENDBRANCH  78  89
ENDBRANCH  71  74
ENDBRANCH  69  70
ENDBRANCH  68  69
ENDBRANCH   1  68
TORSDOF 16
ENDMDL
MODEL 3
REMARK VINA RESULT:     -13.2      3.247      9.140
REMARK SMILES O=C(NCCCNC(=O)c1nnn(-c2cccc(C(F)(F)F)c2)c1[C@@H]1COc2ccccc2O1)c1ccc(-c2c3nc(c(-c4ccc(S(=O)(=O)[O-])cc4)c4ccc([nH]4)c(-c4ccc(S(=O)(=O)[O-])cc4)c4nc(c(-c5ccc(S(=O)(=O)[O-])cc5)c5ccc2[nH]5)C=C4)C=C3)cc1
REMARK SMILES IDX 4 1 3 2 1 3 2 4 35 6 36 7 94 8 37 9 93 10 38 11 39 12 40 13
REMARK SMILES IDX 87 14 41 15 92 16 86 17 88 18 42 19 91 20 85 21 84 22 43 24
REMARK SMILES IDX 73 25 54 26 72 27 55 28 58 29 71 30 89 31 56 32 57 33 70 35
REMARK SMILES IDX 90 36 59 37 44 38 45 39 53 40 46 41 52 42 47 43 48 44 49 45
REMARK SMILES IDX 50 46 51 47 74 48 75 49 83 50 76 51 82 52 77 53 78 54 79 55
REMARK SMILES IDX 80 56 81 57 60 58 61 59 69 60 62 61 68 62 63 63 64 64 65 65
REMARK SMILES IDX 66 66 67 67 5 68 6 69 7 70 8 71 9 73 10 74 11 75 24 76 12 77
REMARK SMILES IDX 13 78 25 79 26 80 34 81 27 82 33 83 28 84 32 85 29 86 31 87
REMARK SMILES IDX 30 88 14 89 15 90 23 91 16 92 18 93 17 94 19 95 20 96 21 97
REMARK SMILES IDX 22 98
REMARK H PARENT 3 5 88 23 58 34 7 72
REMARK Flexibility Score: inf
ROOT
ATOM      1  C   UNL A   1      33.316  28.878  27.567  1.00  0.00     0.118 C 
ENDROOT
BRANCH   1   2
ATOM      2  N   UNL A   1      33.441  30.321  27.541  1.00  0.00    -0.352 N 
ATOM      3  O   UNL A   1      34.169  32.391  27.448  1.00  0.00    -0.269 OA
ATOM      4  C   UNL A   1      34.462  31.217  27.693  1.00  0.00     0.251 C 
ATOM      5  H   UNL A   1      32.579  30.766  27.371  1.00  0.00     0.163 HD
BRANCH   4   6
ATOM      6  C   UNL A   1      35.835  30.909  28.184  1.00  0.00     0.039 A 
ATOM      7  C   UNL A   1      36.708  31.796  28.817  1.00  0.00     0.014 A 
ATOM      8  C   UNL A   1      36.287  29.603  27.913  1.00  0.00     0.014 A 
ATOM      9  C   UNL A   1      38.030  31.425  29.072  1.00  0.00     0.010 A 
ATOM     10  C   UNL A   1      37.593  29.222  28.181  1.00  0.00     0.010 A 
ATOM     11  C   UNL A   1      38.479  30.154  28.715  1.00  0.00    -0.014 A 
BRANCH  11  12
ATOM     12  C   UNL A   1      39.860  29.768  29.003  1.00  0.00     0.031 A 
ATOM     13  C   UNL A   1      40.236  29.758  30.449  1.00  0.00     0.074 A 
ATOM     14  C   UNL A   1      40.662  29.241  28.053  1.00  0.00     0.049 A 
ATOM     15  N   UNL A   1      41.215  30.368  31.039  1.00  0.00    -0.248 NA
ATOM     16  C   UNL A   1      39.346  29.033  31.373  1.00  0.00     0.031 C 
ATOM     17  C   UNL A   1      40.306  28.906  26.670  1.00  0.00     0.029 A 
ATOM     18  N   UNL A   1      41.929  28.751  28.167  1.00  0.00    -0.354 N 
ATOM     19  C   UNL A   1      41.175  29.962  32.373  1.00  0.00     0.074 A 
ATOM     20  C   UNL A   1      39.929  29.260  32.549  1.00  0.00     0.031 C 
ATOM     21  C   UNL A   1      41.225  28.049  26.169  1.00  0.00     0.029 A 
ATOM     22  C   UNL A   1      42.292  27.884  27.141  1.00  0.00     0.049 A 
ATOM     23  H   UNL A   1      42.532  28.989  28.908  1.00  0.00     0.167 HD
ATOM     24  C   UNL A   1      42.254  30.038  33.203  1.00  0.00     0.031 A 
ATOM     25  C   UNL A   1      43.343  27.021  27.132  1.00  0.00     0.031 A 
ATOM     26  C   UNL A   1      43.273  30.914  32.697  1.00  0.00     0.049 A 
ATOM     27  C   UNL A   1      44.296  27.476  28.172  1.00  0.00     0.074 A 
ATOM     28  C   UNL A   1      43.341  32.259  32.397  1.00  0.00     0.029 A 
ATOM     29  N   UNL A   1      44.356  30.337  32.079  1.00  0.00    -0.354 N 
ATOM     30  N   UNL A   1      44.940  28.608  28.110  1.00  0.00    -0.248 NA
ATOM     31  C   UNL A   1      44.191  26.891  29.500  1.00  0.00     0.031 C 
ATOM     32  C   UNL A   1      44.147  32.329  31.223  1.00  0.00     0.029 A 
ATOM     33  C   UNL A   1      44.567  31.033  30.916  1.00  0.00     0.049 A 
ATOM     34  H   UNL A   1      44.881  29.572  32.407  1.00  0.00     0.167 HD
ATOM     35  C   UNL A   1      44.947  29.087  29.412  1.00  0.00     0.074 A 
ATOM     36  C   UNL A   1      44.554  27.945  30.236  1.00  0.00     0.031 C 
ATOM     37  C   UNL A   1      44.999  30.428  29.674  1.00  0.00     0.031 A 
BRANCH  24  38
ATOM     38  C   UNL A   1      42.534  29.029  34.292  1.00  0.00    -0.014 A 
ATOM     39  C   UNL A   1      43.330  27.902  34.004  1.00  0.00     0.010 A 
ATOM     40  C   UNL A   1      41.808  29.007  35.501  1.00  0.00     0.010 A 
ATOM     41  C   UNL A   1      43.341  26.784  34.852  1.00  0.00     0.020 A 
ATOM     42  C   UNL A   1      41.847  27.919  36.375  1.00  0.00     0.020 A 
ATOM     43  C   UNL A   1      42.584  26.796  36.025  1.00  0.00     0.054 A 
BRANCH  43  44
ATOM     44  S   UNL A   1      42.497  25.303  37.045  1.00  0.00     0.124 S 
ATOM     45  O   UNL A   1      41.057  25.117  37.183  1.00  0.00    -0.237 OA
ATOM     46  O   UNL A   1      43.187  24.321  36.215  1.00  0.00    -0.237 OA
ATOM     47  O   UNL A   1      43.201  25.683  38.268  1.00  0.00    -0.744 OA
ENDBRANCH  43  44
ENDBRANCH  24  38
BRANCH  25  48
ATOM     48  C   UNL A   1      43.368  25.651  26.555  1.00  0.00    -0.014 A 
ATOM     49  C   UNL A   1      43.708  25.420  25.208  1.00  0.00     0.010 A 
ATOM     50  C   UNL A   1      43.313  24.531  27.413  1.00  0.00     0.010 A 
ATOM     51  C   UNL A   1      44.025  24.125  24.751  1.00  0.00     0.020 A 
ATOM     52  C   UNL A   1      43.620  23.241  26.965  1.00  0.00     0.020 A 
ATOM     53  C   UNL A   1      43.995  23.046  25.639  1.00  0.00     0.054 A 
BRANCH  53  54
ATOM     54  S   UNL A   1      44.561  21.408  25.090  1.00  0.00     0.124 S 
ATOM     55  O   UNL A   1      43.550  20.522  25.659  1.00  0.00    -0.237 OA
ATOM     56  O   UNL A   1      44.544  21.536  23.636  1.00  0.00    -0.237 OA
ATOM     57  O   UNL A   1      45.893  21.287  25.682  1.00  0.00    -0.744 OA
ENDBRANCH  53  54
ENDBRANCH  25  48
BRANCH  37  58
ATOM     58  C   UNL A   1      45.269  31.374  28.525  1.00  0.00    -0.014 A 
ATOM     59  C   UNL A   1      44.292  31.726  27.570  1.00  0.00     0.010 A 
ATOM     60  C   UNL A   1      46.495  32.060  28.508  1.00  0.00     0.010 A 
ATOM     61  C   UNL A   1      44.545  32.719  26.613  1.00  0.00     0.020 A 
ATOM     62  C   UNL A   1      46.748  33.062  27.565  1.00  0.00     0.020 A 
ATOM     63  C   UNL A   1      45.774  33.383  26.617  1.00  0.00     0.054 A 
BRANCH  63  64
ATOM     64  S   UNL A   1      46.079  34.707  25.413  1.00  0.00     0.124 S 
ATOM     65  O   UNL A   1      45.134  34.387  24.341  1.00  0.00    -0.237 OA
ATOM     66  O   UNL A   1      45.765  35.919  26.173  1.00  0.00    -0.237 OA
ATOM     67  O   UNL A   1      47.484  34.550  25.066  1.00  0.00    -0.744 OA
ENDBRANCH  63  64
ENDBRANCH  37  58
ENDBRANCH  11  12
ENDBRANCH   4   6
ENDBRANCH   1   2
BRANCH   1  68
ATOM     68  C   UNL A   1      31.881  28.375  27.544  1.00  0.00     0.042 C 
BRANCH  68  69
ATOM     69  C   UNL A   1      31.721  26.880  27.287  1.00  0.00     0.118 C 
BRANCH  69  70
ATOM     70  N   UNL A   1      30.761  26.519  26.265  1.00  0.00    -0.351 N 
ATOM     71  C   UNL A   1      30.403  25.406  25.534  1.00  0.00     0.273 C 
ATOM     72  H   UNL A   1      30.201  27.292  26.023  1.00  0.00     0.163 HD
ATOM     73  O   UNL A   1      29.430  25.630  24.800  1.00  0.00    -0.267 OA
BRANCH  71  74
ATOM     74  C   UNL A   1      31.016  24.057  25.521  1.00  0.00     0.178 A 
ATOM     75  N   UNL A   1      30.233  23.018  26.012  1.00  0.00    -0.124 NA
ATOM     76  C   UNL A   1      32.216  23.487  25.087  1.00  0.00     0.122 A 
ATOM     77  N   UNL A   1      30.870  21.869  25.865  1.00  0.00    -0.061 NA
ATOM     78  N   UNL A   1      32.097  22.139  25.393  1.00  0.00    -0.213 N 
BRANCH  76  79
ATOM     79  C   UNL A   1      33.302  24.039  24.230  1.00  0.00     0.262 C 
ATOM     80  C   UNL A   1      34.316  24.779  25.133  1.00  0.00     0.281 C 
ATOM     81  O   UNL A   1      32.847  24.792  23.105  1.00  0.00    -0.477 OA
ATOM     82  O   UNL A   1      33.867  26.106  25.417  1.00  0.00    -0.485 OA
ATOM     83  C   UNL A   1      33.352  26.065  23.060  1.00  0.00     0.162 A 
ATOM     84  C   UNL A   1      33.762  26.748  24.210  1.00  0.00     0.161 A 
ATOM     85  C   UNL A   1      33.380  26.702  21.827  1.00  0.00     0.050 A 
ATOM     86  C   UNL A   1      34.087  28.095  24.159  1.00  0.00     0.050 A 
ATOM     87  C   UNL A   1      33.771  28.039  21.758  1.00  0.00     0.004 A 
ATOM     88  C   UNL A   1      34.094  28.742  22.924  1.00  0.00     0.004 A 
ENDBRANCH  76  79
BRANCH  78  89
ATOM     89  C   UNL A   1      33.073  21.127  25.330  1.00  0.00     0.067 A 
ATOM     90  C   UNL A   1      32.686  19.815  25.052  1.00  0.00     0.028 A 
ATOM     91  C   UNL A   1      34.423  21.494  25.362  1.00  0.00     0.041 A 
ATOM     92  C   UNL A   1      33.667  18.887  24.695  1.00  0.00     0.003 A 
ATOM     93  C   UNL A   1      35.410  20.558  25.028  1.00  0.00     0.058 A 
ATOM     94  C   UNL A   1      35.016  19.259  24.667  1.00  0.00     0.013 A 
BRANCH  93  95
ATOM     95  C   UNL A   1      36.861  20.961  24.974  1.00  0.00     0.416 C 
ATOM     96  F   UNL A   1      37.244  21.695  26.056  1.00  0.00    -0.166 F 
ATOM     97  F   UNL A   1      37.709  19.897  24.922  1.00  0.00    -0.166 F 
ATOM     98  F   UNL A   1      37.165  21.728  23.887  1.00  0.00    -0.166 F 
ENDBRANCH  93  95
ENDBRANCH  78  89
ENDBRANCH  71  74
ENDBRANCH  69  70
ENDBRANCH  68  69
ENDBRANCH   1  68
TORSDOF 16
ENDMDL
