MODEL 1
REMARK VINA RESULT:     -13.1      0.000      0.000
REMARK SMILES Cc1c(CC(=O)N[C@@H](CCO)C(=O)NCCCNC(=O)c2ccc(-c3c4nc(c(-c5ccc(S(=O)(=O)[O-])cc5)c5ccc([nH]5)c(-c5ccc(S(=O)(=O)[O-])cc5)c5nc(c(-c6ccc(S(=O)(=O)[O-])cc6)c6ccc3[nH]6)C=C5)C=C4)cc2)cc(-c2ccc(S(C)(=O)=O)cc2)n1-c1ccc(F)cc1
REMARK SMILES IDX 15 1 14 2 12 3 13 4 8 6 7 7 5 8 6 9 4 11 3 12 1 13 2 14
REMARK SMILES IDX 93 15 81 16 82 17 94 18 95 19 100 20 96 21 99 22 97 23 98 24
REMARK SMILES IDX 83 25 84 26 92 27 85 28 91 29 86 30 87 31 88 32 89 33 90 34
REMARK SMILES IDX 9 35 10 36 11 37 16 39 17 40 18 41 19 42 20 44 21 45 22 46
REMARK SMILES IDX 80 47 23 48 79 49 24 50 25 51 26 52 73 53 27 54 78 55 72 56
REMARK SMILES IDX 74 57 28 58 77 59 71 60 70 61 29 63 59 64 40 65 58 66 41 67
REMARK SMILES IDX 44 68 57 69 75 70 42 71 43 72 56 74 76 75 45 76 30 77 31 78
REMARK SMILES IDX 39 79 32 80 38 81 33 82 34 83 35 84 36 85 37 86 60 87 61 88
REMARK SMILES IDX 69 89 62 90 68 91 63 92 64 93 65 94 66 95 67 96 46 97 47 98
REMARK SMILES IDX 55 99 48 100 54 101 49 102 50 103 51 104 52 105 53 106
REMARK H PARENT 14 5 7 10 11 38 18 43 74 62 44 73
REMARK Flexibility Score: inf
ROOT
ATOM      1  C   UNL A   1      37.715  22.027  25.774  1.00  0.00     0.117 C 
ENDROOT
BRANCH   1   2
ATOM      2  N   UNL A   1      36.821  22.865  24.880  1.00  0.00    -0.354 N 
ATOM      3  C   UNL A   1      35.444  22.668  24.573  1.00  0.00     0.242 C 
ATOM      4  O   UNL A   1      34.803  23.491  23.915  1.00  0.00    -0.273 OA
ATOM      5  H   UNL A   1      37.248  23.645  24.457  1.00  0.00     0.163 HD
BRANCH   3   6
ATOM      6  C   UNL A   1      34.714  21.483  25.283  1.00  0.00     0.173 C 
BRANCH   6   7
ATOM      7  N   UNL A   1      34.376  21.855  26.654  1.00  0.00    -0.344 N 
ATOM      8  C   UNL A   1      33.221  22.447  27.082  1.00  0.00     0.225 C 
ATOM      9  O   UNL A   1      33.063  22.678  28.281  1.00  0.00    -0.275 OA
ATOM     10  H   UNL A   1      35.052  21.659  27.343  1.00  0.00     0.164 HD
BRANCH   8  11
ATOM     11  C   UNL A   1      32.178  22.845  26.042  1.00  0.00     0.137 C 
BRANCH  11  12
ATOM     12  C   UNL A   1      32.234  24.304  25.750  1.00  0.00    -0.017 A 
ATOM     13  C   UNL A   1      30.775  24.301  23.660  1.00  0.00     0.065 C 
ATOM     14  C   UNL A   1      31.577  24.935  24.722  1.00  0.00     0.024 A 
ATOM     15  N   UNL A   1      31.845  26.277  24.791  1.00  0.00    -0.314 N 
ATOM     16  C   UNL A   1      32.889  25.303  26.499  1.00  0.00     0.033 A 
ATOM     17  C   UNL A   1      32.611  26.522  25.922  1.00  0.00     0.053 A 
BRANCH  15  18
ATOM     18  C   UNL A   1      31.375  27.236  23.880  1.00  0.00     0.046 A 
ATOM     19  C   UNL A   1      32.222  27.737  22.904  1.00  0.00     0.029 A 
ATOM     20  C   UNL A   1      30.085  27.736  24.039  1.00  0.00     0.029 A 
ATOM     21  C   UNL A   1      31.809  28.851  22.183  1.00  0.00     0.041 A 
ATOM     22  C   UNL A   1      29.651  28.781  23.238  1.00  0.00     0.041 A 
ATOM     23  C   UNL A   1      30.505  29.312  22.289  1.00  0.00     0.123 A 
ATOM     24  F   UNL A   1      30.067  30.251  21.442  1.00  0.00    -0.207 F 
ENDBRANCH  15  18
BRANCH  17  25
ATOM     25  C   UNL A   1      33.063  27.832  26.359  1.00  0.00    -0.001 A 
ATOM     26  C   UNL A   1      34.400  28.217  26.318  1.00  0.00     0.011 A 
ATOM     27  C   UNL A   1      32.125  28.701  26.908  1.00  0.00     0.011 A 
ATOM     28  C   UNL A   1      34.802  29.388  26.979  1.00  0.00     0.021 A 
ATOM     29  C   UNL A   1      32.518  29.919  27.469  1.00  0.00     0.021 A 
ATOM     30  C   UNL A   1      33.861  30.287  27.480  1.00  0.00     0.067 A 
BRANCH  30  31
ATOM     31  S   UNL A   1      34.350  31.948  27.979  1.00  0.00     0.175 S 
ATOM     32  C   UNL A   1      34.653  31.869  29.742  1.00  0.00     0.163 C 
ATOM     33  O   UNL A   1      35.608  32.247  27.318  1.00  0.00    -0.224 OA
ATOM     34  O   UNL A   1      33.210  32.821  27.759  1.00  0.00    -0.224 OA
ENDBRANCH  30  31
ENDBRANCH  17  25
ENDBRANCH  11  12
ENDBRANCH   8  11
ENDBRANCH   6   7
BRANCH   6  35
ATOM     35  C   UNL A   1      33.514  20.842  24.530  1.00  0.00     0.063 C 
BRANCH  35  36
ATOM     36  C   UNL A   1      33.348  19.387  24.778  1.00  0.00     0.158 C 
BRANCH  36  37
ATOM     37  O   UNL A   1      32.145  19.355  25.541  1.00  0.00    -0.396 OA
ATOM     38  H   UNL A   1      31.553  18.677  25.181  1.00  0.00     0.210 HD
ENDBRANCH  36  37
ENDBRANCH  35  36
ENDBRANCH   6  35
ENDBRANCH   3   6
ENDBRANCH   1   2
BRANCH   1  39
ATOM     39  C   UNL A   1      38.309  20.838  25.232  1.00  0.00     0.042 C 
BRANCH  39  40
ATOM     40  C   UNL A   1      39.572  20.765  25.996  1.00  0.00     0.118 C 
BRANCH  40  41
ATOM     41  N   UNL A   1      40.180  19.483  26.060  1.00  0.00    -0.352 N 
ATOM     42  C   UNL A   1      41.670  19.460  25.940  1.00  0.00     0.251 C 
ATOM     43  H   UNL A   1      39.652  18.661  26.179  1.00  0.00     0.163 HD
ATOM     44  O   UNL A   1      41.947  18.228  25.845  1.00  0.00    -0.269 OA
BRANCH  42  45
ATOM     45  C   UNL A   1      42.570  21.201  26.158  1.00  0.00     0.039 A 
ATOM     46  C   UNL A   1      43.440  22.456  26.150  1.00  0.00     0.014 A 
ATOM     47  C   UNL A   1      42.277  22.255  27.030  1.00  0.00     0.014 A 
ATOM     48  C   UNL A   1      43.521  24.235  27.148  1.00  0.00     0.010 A 
ATOM     49  C   UNL A   1      42.643  24.033  27.746  1.00  0.00     0.010 A 
ATOM     50  C   UNL A   1      42.966  25.744  28.451  1.00  0.00    -0.014 A 
BRANCH  50  51
ATOM     51  C   UNL A   1      42.980  27.760  29.542  1.00  0.00     0.031 A 
ATOM     52  C   UNL A   1      41.695  26.396  28.601  1.00  0.00     0.074 A 
ATOM     53  C   UNL A   1      43.537  29.452  30.621  1.00  0.00     0.049 A 
ATOM     54  N   UNL A   1      41.427  26.145  27.082  1.00  0.00    -0.248 NA
ATOM     55  C   UNL A   1      40.288  25.183  28.424  1.00  0.00     0.031 C 
ATOM     56  C   UNL A   1      44.040  31.218  31.743  1.00  0.00     0.029 A 
ATOM     57  N   UNL A   1      43.155  31.373  31.249  1.00  0.00    -0.354 N 
ATOM     58  C   UNL A   1      40.449  26.974  27.066  1.00  0.00     0.074 A 
ATOM     59  C   UNL A   1      39.595  26.246  28.037  1.00  0.00     0.031 C 
ATOM     60  C   UNL A   1      44.217  32.807  32.578  1.00  0.00     0.029 A 
ATOM     61  C   UNL A   1      42.929  32.885  32.435  1.00  0.00     0.049 A 
ATOM     62  H   UNL A   1      42.960  31.801  30.384  1.00  0.00     0.167 HD
ATOM     63  C   UNL A   1      41.249  28.065  27.028  1.00  0.00     0.031 A 
ATOM     64  C   UNL A   1      42.164  34.085  33.331  1.00  0.00     0.031 A 
ATOM     65  C   UNL A   1      41.036  28.744  28.219  1.00  0.00     0.049 A 
ATOM     66  C   UNL A   1      41.272  33.301  32.617  1.00  0.00     0.074 A 
ATOM     67  C   UNL A   1      40.405  28.441  29.432  1.00  0.00     0.029 A 
ATOM     68  N   UNL A   1      41.911  29.744  28.377  1.00  0.00    -0.354 N 
ATOM     69  N   UNL A   1      41.158  33.358  31.317  1.00  0.00    -0.248 NA
ATOM     70  C   UNL A   1      40.774  32.183  33.339  1.00  0.00     0.031 C 
ATOM     71  C   UNL A   1      40.732  29.421  30.265  1.00  0.00     0.029 A 
ATOM     72  C   UNL A   1      41.440  30.306  29.501  1.00  0.00     0.049 A 
ATOM     73  H   UNL A   1      42.684  29.997  27.822  1.00  0.00     0.167 HD
ATOM     74  C   UNL A   1      41.165  32.054  30.914  1.00  0.00     0.074 A 
ATOM     75  C   UNL A   1      40.851  31.385  32.278  1.00  0.00     0.031 C 
ATOM     76  C   UNL A   1      41.902  31.594  29.727  1.00  0.00     0.031 A 
BRANCH  63  77
ATOM     77  C   UNL A   1      42.785  27.805  26.352  1.00  0.00    -0.014 A 
ATOM     78  C   UNL A   1      43.618  28.800  26.790  1.00  0.00     0.010 A 
ATOM     79  C   UNL A   1      43.334  26.883  25.387  1.00  0.00     0.010 A 
ATOM     80  C   UNL A   1      44.974  28.754  26.501  1.00  0.00     0.020 A 
ATOM     81  C   UNL A   1      44.710  26.787  25.160  1.00  0.00     0.020 A 
ATOM     82  C   UNL A   1      45.540  27.676  25.815  1.00  0.00     0.054 A 
BRANCH  82  83
ATOM     83  S   UNL A   1      47.363  27.414  25.869  1.00  0.00     0.124 S 
ATOM     84  O   UNL A   1      47.558  26.823  27.191  1.00  0.00    -0.237 OA
ATOM     85  O   UNL A   1      47.597  26.500  24.754  1.00  0.00    -0.237 OA
ATOM     86  O   UNL A   1      47.927  28.753  25.713  1.00  0.00    -0.744 OA
ENDBRANCH  82  83
ENDBRANCH  63  77
BRANCH  64  87
ATOM     87  C   UNL A   1      41.397  34.787  34.810  1.00  0.00    -0.014 A 
ATOM     88  C   UNL A   1      40.140  35.516  35.033  1.00  0.00     0.010 A 
ATOM     89  C   UNL A   1      42.095  34.663  36.026  1.00  0.00     0.010 A 
ATOM     90  C   UNL A   1      39.739  36.079  36.334  1.00  0.00     0.020 A 
ATOM     91  C   UNL A   1      41.666  35.115  37.322  1.00  0.00     0.020 A 
ATOM     92  C   UNL A   1      40.466  35.792  37.492  1.00  0.00     0.054 A 
BRANCH  92  93
ATOM     93  S   UNL A   1      39.820  36.205  39.198  1.00  0.00     0.124 S 
ATOM     94  O   UNL A   1      39.097  37.454  38.985  1.00  0.00    -0.237 OA
ATOM     95  O   UNL A   1      38.980  35.053  39.522  1.00  0.00    -0.237 OA
ATOM     96  O   UNL A   1      41.024  36.324  40.023  1.00  0.00    -0.744 OA
ENDBRANCH  92  93
ENDBRANCH  64  87
BRANCH  76  97
ATOM     97  C   UNL A   1      43.690  31.870  29.150  1.00  0.00    -0.014 A 
ATOM     98  C   UNL A   1      45.115  31.061  29.165  1.00  0.00     0.010 A 
ATOM     99  C   UNL A   1      43.839  33.118  28.802  1.00  0.00     0.010 A 
ATOM    100  C   UNL A   1      46.343  31.626  29.362  1.00  0.00     0.020 A 
ATOM    101  C   UNL A   1      45.133  33.594  28.652  1.00  0.00     0.020 A 
ATOM    102  C   UNL A   1      46.351  32.901  28.919  1.00  0.00     0.054 A 
BRANCH 102 103
ATOM    103  S   UNL A   1      47.961  33.642  28.506  1.00  0.00     0.124 S 
ATOM    104  O   UNL A   1      48.091  33.328  27.084  1.00  0.00    -0.237 OA
ATOM    105  O   UNL A   1      47.761  35.060  28.798  1.00  0.00    -0.237 OA
ATOM    106  O   UNL A   1      48.889  32.936  29.381  1.00  0.00    -0.744 OA
ENDBRANCH 102 103
ENDBRANCH  76  97
ENDBRANCH  50  51
ENDBRANCH  42  45
ENDBRANCH  40  41
ENDBRANCH  39  40
ENDBRANCH   1  39
TORSDOF 22
ENDMDL
MODEL 2
REMARK VINA RESULT:     -12.8      2.711      3.338
REMARK SMILES Cc1c(CC(=O)N[C@@H](CCO)C(=O)NCCCNC(=O)c2ccc(-c3c4nc(c(-c5ccc(S(=O)(=O)[O-])cc5)c5ccc([nH]5)c(-c5ccc(S(=O)(=O)[O-])cc5)c5nc(c(-c6ccc(S(=O)(=O)[O-])cc6)c6ccc3[nH]6)C=C5)C=C4)cc2)cc(-c2ccc(S(C)(=O)=O)cc2)n1-c1ccc(F)cc1
REMARK SMILES IDX 15 1 14 2 12 3 13 4 8 6 7 7 5 8 6 9 4 11 3 12 1 13 2 14
REMARK SMILES IDX 93 15 81 16 82 17 94 18 95 19 100 20 96 21 99 22 97 23 98 24
REMARK SMILES IDX 83 25 84 26 92 27 85 28 91 29 86 30 87 31 88 32 89 33 90 34
REMARK SMILES IDX 9 35 10 36 11 37 16 39 17 40 18 41 19 42 20 44 21 45 22 46
REMARK SMILES IDX 80 47 23 48 79 49 24 50 25 51 26 52 73 53 27 54 78 55 72 56
REMARK SMILES IDX 74 57 28 58 77 59 71 60 70 61 29 63 59 64 40 65 58 66 41 67
REMARK SMILES IDX 44 68 57 69 75 70 42 71 43 72 56 74 76 75 45 76 30 77 31 78
REMARK SMILES IDX 39 79 32 80 38 81 33 82 34 83 35 84 36 85 37 86 60 87 61 88
REMARK SMILES IDX 69 89 62 90 68 91 63 92 64 93 65 94 66 95 67 96 46 97 47 98
REMARK SMILES IDX 55 99 48 100 54 101 49 102 50 103 51 104 52 105 53 106
REMARK H PARENT 14 5 7 10 11 38 18 43 74 62 44 73
REMARK Flexibility Score: inf
ROOT
ATOM      1  C   UNL A   1      38.270  22.604  26.226  1.00  0.00     0.117 C 
ENDROOT
BRANCH   1   2
ATOM      2  N   UNL A   1      37.426  23.338  25.201  1.00  0.00    -0.354 N 
ATOM      3  C   UNL A   1      36.126  23.004  24.725  1.00  0.00     0.242 C 
ATOM      4  O   UNL A   1      35.502  23.752  23.967  1.00  0.00    -0.273 OA
ATOM      5  H   UNL A   1      37.830  24.148  24.815  1.00  0.00     0.163 HD
BRANCH   3   6
ATOM      6  C   UNL A   1      35.422  21.766  25.368  1.00  0.00     0.173 C 
BRANCH   6   7
ATOM      7  N   UNL A   1      34.961  22.097  26.713  1.00  0.00    -0.344 N 
ATOM      8  C   UNL A   1      33.738  22.599  27.060  1.00  0.00     0.225 C 
ATOM      9  O   UNL A   1      33.478  22.804  28.247  1.00  0.00    -0.275 OA
ATOM     10  H   UNL A   1      35.599  21.944  27.448  1.00  0.00     0.164 HD
BRANCH   8  11
ATOM     11  C   UNL A   1      32.745  22.931  25.951  1.00  0.00     0.137 C 
BRANCH  11  12
ATOM     12  C   UNL A   1      32.696  24.395  25.688  1.00  0.00    -0.017 A 
ATOM     13  C   UNL A   1      31.207  24.334  23.621  1.00  0.00     0.065 C 
ATOM     14  C   UNL A   1      31.981  25.000  24.685  1.00  0.00     0.024 A 
ATOM     15  N   UNL A   1      32.157  26.356  24.778  1.00  0.00    -0.314 N 
ATOM     16  C   UNL A   1      33.293  25.422  26.449  1.00  0.00     0.033 A 
ATOM     17  C   UNL A   1      32.922  26.631  25.903  1.00  0.00     0.053 A 
BRANCH  15  18
ATOM     18  C   UNL A   1      31.608  27.298  23.895  1.00  0.00     0.046 A 
ATOM     19  C   UNL A   1      32.433  27.999  23.029  1.00  0.00     0.029 A 
ATOM     20  C   UNL A   1      30.245  27.577  23.974  1.00  0.00     0.029 A 
ATOM     21  C   UNL A   1      31.900  29.088  22.350  1.00  0.00     0.041 A 
ATOM     22  C   UNL A   1      29.709  28.601  23.208  1.00  0.00     0.041 A 
ATOM     23  C   UNL A   1      30.535  29.331  22.373  1.00  0.00     0.123 A 
ATOM     24  F   UNL A   1      30.015  30.253  21.555  1.00  0.00    -0.207 F 
ENDBRANCH  15  18
BRANCH  17  25
ATOM     25  C   UNL A   1      33.290  27.959  26.360  1.00  0.00    -0.001 A 
ATOM     26  C   UNL A   1      34.611  28.343  26.569  1.00  0.00     0.011 A 
ATOM     27  C   UNL A   1      32.269  28.852  26.671  1.00  0.00     0.011 A 
ATOM     28  C   UNL A   1      34.884  29.543  27.243  1.00  0.00     0.021 A 
ATOM     29  C   UNL A   1      32.554  30.095  27.243  1.00  0.00     0.021 A 
ATOM     30  C   UNL A   1      33.870  30.464  27.504  1.00  0.00     0.067 A 
BRANCH  30  31
ATOM     31  S   UNL A   1      34.265  32.147  28.014  1.00  0.00     0.175 S 
ATOM     32  C   UNL A   1      34.636  32.063  29.764  1.00  0.00     0.163 C 
ATOM     33  O   UNL A   1      35.476  32.539  27.315  1.00  0.00    -0.224 OA
ATOM     34  O   UNL A   1      33.062  32.944  27.850  1.00  0.00    -0.224 OA
ENDBRANCH  30  31
ENDBRANCH  17  25
ENDBRANCH  11  12
ENDBRANCH   8  11
ENDBRANCH   6   7
BRANCH   6  35
ATOM     35  C   UNL A   1      34.325  21.061  24.522  1.00  0.00     0.063 C 
BRANCH  35  36
ATOM     36  C   UNL A   1      34.271  19.587  24.703  1.00  0.00     0.158 C 
BRANCH  36  37
ATOM     37  O   UNL A   1      35.607  19.292  25.098  1.00  0.00    -0.396 OA
ATOM     38  H   UNL A   1      36.133  19.066  24.316  1.00  0.00     0.210 HD
ENDBRANCH  36  37
ENDBRANCH  35  36
ENDBRANCH   6  35
ENDBRANCH   3   6
ENDBRANCH   1   2
BRANCH   1  39
ATOM     39  C   UNL A   1      39.651  22.352  25.926  1.00  0.00     0.042 C 
BRANCH  39  40
ATOM     40  C   UNL A   1      40.029  21.442  27.027  1.00  0.00     0.118 C 
BRANCH  40  41
ATOM     41  N   UNL A   1      40.850  20.342  26.663  1.00  0.00    -0.352 N 
ATOM     42  C   UNL A   1      42.306  20.484  26.969  1.00  0.00     0.251 C 
ATOM     43  H   UNL A   1      40.482  19.535  26.238  1.00  0.00     0.163 HD
ATOM     44  O   UNL A   1      42.834  19.483  26.400  1.00  0.00    -0.269 OA
BRANCH  42  45
ATOM     45  C   UNL A   1      42.780  21.947  28.204  1.00  0.00     0.039 A 
ATOM     46  C   UNL A   1      43.122  22.896  29.350  1.00  0.00     0.014 A 
ATOM     47  C   UNL A   1      42.982  23.306  27.943  1.00  0.00     0.014 A 
ATOM     48  C   UNL A   1      43.499  24.887  29.590  1.00  0.00     0.010 A 
ATOM     49  C   UNL A   1      43.406  25.115  28.537  1.00  0.00     0.010 A 
ATOM     50  C   UNL A   1      43.818  26.867  29.076  1.00  0.00    -0.014 A 
BRANCH  50  51
ATOM     51  C   UNL A   1      44.308  29.096  29.295  1.00  0.00     0.031 A 
ATOM     52  C   UNL A   1      42.765  27.786  28.748  1.00  0.00     0.074 A 
ATOM     53  C   UNL A   1      45.231  30.914  29.719  1.00  0.00     0.049 A 
ATOM     54  N   UNL A   1      42.537  26.994  27.420  1.00  0.00    -0.248 NA
ATOM     55  C   UNL A   1      41.097  26.952  28.816  1.00  0.00     0.031 C 
ATOM     56  C   UNL A   1      46.121  32.826  30.145  1.00  0.00     0.029 A 
ATOM     57  N   UNL A   1      45.344  32.954  29.488  1.00  0.00    -0.354 N 
ATOM     58  C   UNL A   1      41.823  27.935  26.922  1.00  0.00     0.074 A 
ATOM     59  C   UNL A   1      40.744  27.884  27.939  1.00  0.00     0.031 C 
ATOM     60  C   UNL A   1      46.667  34.536  30.323  1.00  0.00     0.029 A 
ATOM     61  C   UNL A   1      45.460  34.831  29.946  1.00  0.00     0.049 A 
ATOM     62  H   UNL A   1      45.329  33.017  28.505  1.00  0.00     0.167 HD
ATOM     63  C   UNL A   1      42.889  28.706  26.603  1.00  0.00     0.031 A 
ATOM     64  C   UNL A   1      44.993  36.430  30.169  1.00  0.00     0.031 A 
ATOM     65  C   UNL A   1      42.791  29.846  27.389  1.00  0.00     0.049 A 
ATOM     66  C   UNL A   1      43.969  35.639  29.671  1.00  0.00     0.074 A 
ATOM     67  C   UNL A   1      42.026  30.221  28.499  1.00  0.00     0.029 A 
ATOM     68  N   UNL A   1      43.893  30.601  27.296  1.00  0.00    -0.354 N 
ATOM     69  N   UNL A   1      43.959  35.176  28.450  1.00  0.00    -0.248 NA
ATOM     70  C   UNL A   1      43.142  35.062  30.672  1.00  0.00     0.031 C 
ATOM     71  C   UNL A   1      42.552  31.358  28.934  1.00  0.00     0.029 A 
ATOM     72  C   UNL A   1      43.521  31.667  28.021  1.00  0.00     0.049 A 
ATOM     73  H   UNL A   1      44.739  30.423  26.825  1.00  0.00     0.167 HD
ATOM     74  C   UNL A   1      43.639  33.857  28.586  1.00  0.00     0.074 A 
ATOM     75  C   UNL A   1      43.068  33.901  30.028  1.00  0.00     0.031 C 
ATOM     76  C   UNL A   1      44.298  32.795  27.810  1.00  0.00     0.031 A 
BRANCH  63  77
ATOM     77  C   UNL A   1      44.337  27.857  26.349  1.00  0.00    -0.014 A 
ATOM     78  C   UNL A   1      44.082  26.824  25.486  1.00  0.00     0.010 A 
ATOM     79  C   UNL A   1      45.670  27.920  26.901  1.00  0.00     0.010 A 
ATOM     80  C   UNL A   1      45.122  26.050  24.995  1.00  0.00     0.020 A 
ATOM     81  C   UNL A   1      46.731  27.197  26.350  1.00  0.00     0.020 A 
ATOM     82  C   UNL A   1      46.456  26.329  25.311  1.00  0.00     0.054 A 
BRANCH  82  83
ATOM     83  S   UNL A   1      47.807  25.606  24.289  1.00  0.00     0.124 S 
ATOM     84  O   UNL A   1      47.248  24.315  23.892  1.00  0.00    -0.237 OA
ATOM     85  O   UNL A   1      47.945  26.569  23.199  1.00  0.00    -0.237 OA
ATOM     86  O   UNL A   1      48.946  25.520  25.200  1.00  0.00    -0.744 OA
ENDBRANCH  82  83
ENDBRANCH  63  77
BRANCH  64  87
ATOM     87  C   UNL A   1      44.350  37.833  31.113  1.00  0.00    -0.014 A 
ATOM     88  C   UNL A   1      44.112  38.045  32.547  1.00  0.00     0.010 A 
ATOM     89  C   UNL A   1      43.965  38.979  30.393  1.00  0.00     0.010 A 
ATOM     90  C   UNL A   1      43.494  39.262  33.103  1.00  0.00     0.020 A 
ATOM     91  C   UNL A   1      43.460  40.213  30.932  1.00  0.00     0.020 A 
ATOM     92  C   UNL A   1      43.259  40.378  32.296  1.00  0.00     0.054 A 
BRANCH  92  93
ATOM     93  S   UNL A   1      42.789  42.041  33.011  1.00  0.00     0.124 S 
ATOM     94  O   UNL A   1      42.219  42.744  31.867  1.00  0.00    -0.237 OA
ATOM     95  O   UNL A   1      41.832  41.691  34.060  1.00  0.00    -0.237 OA
ATOM     96  O   UNL A   1      44.051  42.593  33.506  1.00  0.00    -0.744 OA
ENDBRANCH  92  93
ENDBRANCH  64  87
BRANCH  76  97
ATOM     97  C   UNL A   1      46.127  32.405  27.482  1.00  0.00    -0.014 A 
ATOM     98  C   UNL A   1      47.257  31.336  27.996  1.00  0.00     0.010 A 
ATOM     99  C   UNL A   1      46.651  33.369  26.777  1.00  0.00     0.010 A 
ATOM    100  C   UNL A   1      48.578  31.618  28.202  1.00  0.00     0.020 A 
ATOM    101  C   UNL A   1      48.034  33.432  26.700  1.00  0.00     0.020 A 
ATOM    102  C   UNL A   1      48.981  32.607  27.377  1.00  0.00     0.054 A 
BRANCH 102 103
ATOM    103  S   UNL A   1      50.761  32.738  27.020  1.00  0.00     0.124 S 
ATOM    104  O   UNL A   1      51.363  32.342  28.292  1.00  0.00    -0.237 OA
ATOM    105  O   UNL A   1      50.955  31.781  25.933  1.00  0.00    -0.237 OA
ATOM    106  O   UNL A   1      50.929  34.143  26.669  1.00  0.00    -0.744 OA
ENDBRANCH 102 103
ENDBRANCH  76  97
ENDBRANCH  50  51
ENDBRANCH  42  45
ENDBRANCH  40  41
ENDBRANCH  39  40
ENDBRANCH   1  39
TORSDOF 22
ENDMDL
MODEL 3
REMARK VINA RESULT:     -12.7      3.436      5.686
REMARK SMILES Cc1c(CC(=O)N[C@@H](CCO)C(=O)NCCCNC(=O)c2ccc(-c3c4nc(c(-c5ccc(S(=O)(=O)[O-])cc5)c5ccc([nH]5)c(-c5ccc(S(=O)(=O)[O-])cc5)c5nc(c(-c6ccc(S(=O)(=O)[O-])cc6)c6ccc3[nH]6)C=C5)C=C4)cc2)cc(-c2ccc(S(C)(=O)=O)cc2)n1-c1ccc(F)cc1
REMARK SMILES IDX 15 1 14 2 12 3 13 4 8 6 7 7 5 8 6 9 4 11 3 12 1 13 2 14
REMARK SMILES IDX 93 15 81 16 82 17 94 18 95 19 100 20 96 21 99 22 97 23 98 24
REMARK SMILES IDX 83 25 84 26 92 27 85 28 91 29 86 30 87 31 88 32 89 33 90 34
REMARK SMILES IDX 9 35 10 36 11 37 16 39 17 40 18 41 19 42 20 44 21 45 22 46
REMARK SMILES IDX 80 47 23 48 79 49 24 50 25 51 26 52 73 53 27 54 78 55 72 56
REMARK SMILES IDX 74 57 28 58 77 59 71 60 70 61 29 63 59 64 40 65 58 66 41 67
REMARK SMILES IDX 44 68 57 69 75 70 42 71 43 72 56 74 76 75 45 76 30 77 31 78
REMARK SMILES IDX 39 79 32 80 38 81 33 82 34 83 35 84 36 85 37 86 60 87 61 88
REMARK SMILES IDX 69 89 62 90 68 91 63 92 64 93 65 94 66 95 67 96 46 97 47 98
REMARK SMILES IDX 55 99 48 100 54 101 49 102 50 103 51 104 52 105 53 106
REMARK H PARENT 14 5 7 10 11 38 18 43 74 62 44 73
REMARK Flexibility Score: inf
ROOT
ATOM      1  C   UNL A   1      37.675  21.720  25.789  1.00  0.00     0.117 C 
ENDROOT
BRANCH   1   2
ATOM      2  N   UNL A   1      36.768  22.553  24.903  1.00  0.00    -0.354 N 
ATOM      3  C   UNL A   1      35.389  22.349  24.610  1.00  0.00     0.242 C 
ATOM      4  O   UNL A   1      34.738  23.168  23.957  1.00  0.00    -0.273 OA
ATOM      5  H   UNL A   1      37.187  23.334  24.475  1.00  0.00     0.163 HD
BRANCH   3   6
ATOM      6  C   UNL A   1      34.671  21.161  25.329  1.00  0.00     0.173 C 
BRANCH   6   7
ATOM      7  N   UNL A   1      34.232  21.576  26.658  1.00  0.00    -0.344 N 
ATOM      8  C   UNL A   1      33.079  22.240  26.971  1.00  0.00     0.225 C 
ATOM      9  O   UNL A   1      32.826  22.500  28.148  1.00  0.00    -0.275 OA
ATOM     10  H   UNL A   1      34.830  21.354  27.409  1.00  0.00     0.164 HD
BRANCH   8  11
ATOM     11  C   UNL A   1      32.160  22.678  25.836  1.00  0.00     0.137 C 
BRANCH  11  12
ATOM     12  C   UNL A   1      32.203  24.154  25.643  1.00  0.00    -0.017 A 
ATOM     13  C   UNL A   1      30.844  24.268  23.489  1.00  0.00     0.065 C 
ATOM     14  C   UNL A   1      31.583  24.842  24.629  1.00  0.00     0.024 A 
ATOM     15  N   UNL A   1      31.822  26.180  24.800  1.00  0.00    -0.314 N 
ATOM     16  C   UNL A   1      32.802  25.110  26.488  1.00  0.00     0.033 A 
ATOM     17  C   UNL A   1      32.528  26.361  25.980  1.00  0.00     0.053 A 
BRANCH  15  18
ATOM     18  C   UNL A   1      31.378  27.190  23.932  1.00  0.00     0.046 A 
ATOM     19  C   UNL A   1      32.277  27.822  23.087  1.00  0.00     0.029 A 
ATOM     20  C   UNL A   1      30.050  27.604  24.009  1.00  0.00     0.029 A 
ATOM     21  C   UNL A   1      31.863  28.972  22.427  1.00  0.00     0.041 A 
ATOM     22  C   UNL A   1      29.626  28.691  23.261  1.00  0.00     0.041 A 
ATOM     23  C   UNL A   1      30.528  29.351  22.446  1.00  0.00     0.123 A 
ATOM     24  F   UNL A   1      30.111  30.337  21.643  1.00  0.00    -0.207 F 
ENDBRANCH  15  18
BRANCH  17  25
ATOM     25  C   UNL A   1      32.935  27.645  26.523  1.00  0.00    -0.001 A 
ATOM     26  C   UNL A   1      32.022  28.591  26.980  1.00  0.00     0.011 A 
ATOM     27  C   UNL A   1      34.289  27.964  26.511  1.00  0.00     0.011 A 
ATOM     28  C   UNL A   1      32.458  29.896  27.257  1.00  0.00     0.021 A 
ATOM     29  C   UNL A   1      34.731  29.233  26.894  1.00  0.00     0.021 A 
ATOM     30  C   UNL A   1      33.818  30.202  27.301  1.00  0.00     0.067 A 
BRANCH  30  31
ATOM     31  S   UNL A   1      34.389  31.753  28.021  1.00  0.00     0.175 S 
ATOM     32  C   UNL A   1      36.149  31.832  27.698  1.00  0.00     0.163 C 
ATOM     33  O   UNL A   1      33.747  32.832  27.291  1.00  0.00    -0.224 OA
ATOM     34  O   UNL A   1      34.202  31.660  29.457  1.00  0.00    -0.224 OA
ENDBRANCH  30  31
ENDBRANCH  17  25
ENDBRANCH  11  12
ENDBRANCH   8  11
ENDBRANCH   6   7
BRANCH   6  35
ATOM     35  C   UNL A   1      33.551  20.431  24.536  1.00  0.00     0.063 C 
BRANCH  35  36
ATOM     36  C   UNL A   1      33.358  19.011  24.926  1.00  0.00     0.158 C 
BRANCH  36  37
ATOM     37  O   UNL A   1      32.255  19.101  25.822  1.00  0.00    -0.396 OA
ATOM     38  H   UNL A   1      31.468  19.396  25.339  1.00  0.00     0.210 HD
ENDBRANCH  36  37
ENDBRANCH  35  36
ENDBRANCH   6  35
ENDBRANCH   3   6
ENDBRANCH   1   2
BRANCH   1  39
ATOM     39  C   UNL A   1      39.091  21.764  25.559  1.00  0.00     0.042 C 
BRANCH  39  40
ATOM     40  C   UNL A   1      39.569  20.698  26.463  1.00  0.00     0.118 C 
BRANCH  40  41
ATOM     41  N   UNL A   1      40.518  19.798  25.907  1.00  0.00    -0.352 N 
ATOM     42  C   UNL A   1      41.952  20.201  26.033  1.00  0.00     0.251 C 
ATOM     43  H   UNL A   1      40.247  18.961  25.468  1.00  0.00     0.163 HD
ATOM     44  O   UNL A   1      42.568  19.353  25.321  1.00  0.00    -0.269 OA
BRANCH  42  45
ATOM     45  C   UNL A   1      42.320  21.656  27.312  1.00  0.00     0.039 A 
ATOM     46  C   UNL A   1      42.623  22.588  28.483  1.00  0.00     0.014 A 
ATOM     47  C   UNL A   1      42.311  23.041  27.117  1.00  0.00     0.014 A 
ATOM     48  C   UNL A   1      42.740  24.599  28.810  1.00  0.00     0.010 A 
ATOM     49  C   UNL A   1      42.530  24.861  27.783  1.00  0.00     0.010 A 
ATOM     50  C   UNL A   1      42.740  26.626  28.391  1.00  0.00    -0.014 A 
BRANCH  50  51
ATOM     51  C   UNL A   1      42.935  28.889  28.702  1.00  0.00     0.031 A 
ATOM     52  C   UNL A   1      43.711  27.300  27.576  1.00  0.00     0.074 A 
ATOM     53  C   UNL A   1      42.660  30.859  29.319  1.00  0.00     0.049 A 
ATOM     54  N   UNL A   1      44.750  26.199  27.967  1.00  0.00    -0.248 NA
ATOM     55  C   UNL A   1      44.134  26.297  26.060  1.00  0.00     0.031 C 
ATOM     56  C   UNL A   1      42.423  32.917  29.902  1.00  0.00     0.029 A 
ATOM     57  N   UNL A   1      43.354  32.788  29.492  1.00  0.00    -0.354 N 
ATOM     58  C   UNL A   1      45.732  26.899  27.531  1.00  0.00     0.074 A 
ATOM     59  C   UNL A   1      45.290  26.947  26.115  1.00  0.00     0.031 C 
ATOM     60  C   UNL A   1      42.492  34.677  30.290  1.00  0.00     0.029 A 
ATOM     61  C   UNL A   1      43.405  34.718  29.368  1.00  0.00     0.049 A 
ATOM     62  H   UNL A   1      44.230  32.618  29.909  1.00  0.00     0.167 HD
ATOM     63  C   UNL A   1      45.764  27.706  28.617  1.00  0.00     0.031 A 
ATOM     64  C   UNL A   1      43.831  36.252  28.827  1.00  0.00     0.031 A 
ATOM     65  C   UNL A   1      45.426  28.975  28.168  1.00  0.00     0.049 A 
ATOM     66  C   UNL A   1      44.485  35.242  28.138  1.00  0.00     0.074 A 
ATOM     67  C   UNL A   1      44.883  29.495  26.986  1.00  0.00     0.029 A 
ATOM     68  N   UNL A   1      45.243  29.823  29.187  1.00  0.00    -0.354 N 
ATOM     69  N   UNL A   1      45.426  34.510  28.672  1.00  0.00    -0.248 NA
ATOM     70  C   UNL A   1      43.811  34.810  26.963  1.00  0.00     0.031 C 
ATOM     71  C   UNL A   1      44.586  30.760  27.251  1.00  0.00     0.029 A 
ATOM     72  C   UNL A   1      45.053  30.971  28.518  1.00  0.00     0.049 A 
ATOM     73  H   UNL A   1      45.248  29.652  30.157  1.00  0.00     0.167 HD
ATOM     74  C   UNL A   1      45.093  33.229  28.344  1.00  0.00     0.074 A 
ATOM     75  C   UNL A   1      44.093  33.532  27.197  1.00  0.00     0.031 C 
ATOM     76  C   UNL A   1      45.208  32.111  29.293  1.00  0.00     0.031 A 
BRANCH  63  77
ATOM     77  C   UNL A   1      45.151  27.016  30.042  1.00  0.00    -0.014 A 
ATOM     78  C   UNL A   1      45.798  25.827  30.255  1.00  0.00     0.010 A 
ATOM     79  C   UNL A   1      44.082  27.339  30.957  1.00  0.00     0.010 A 
ATOM     80  C   UNL A   1      45.590  25.118  31.428  1.00  0.00     0.020 A 
ATOM     81  C   UNL A   1      43.927  26.672  32.176  1.00  0.00     0.020 A 
ATOM     82  C   UNL A   1      44.770  25.612  32.447  1.00  0.00     0.054 A 
BRANCH  82  83
ATOM     83  S   UNL A   1      44.893  24.903  34.143  1.00  0.00     0.124 S 
ATOM     84  O   UNL A   1      43.606  24.225  34.295  1.00  0.00    -0.237 OA
ATOM     85  O   UNL A   1      46.042  24.007  34.042  1.00  0.00    -0.237 OA
ATOM     86  O   UNL A   1      45.074  26.064  35.011  1.00  0.00    -0.744 OA
ENDBRANCH  82  83
ENDBRANCH  63  77
BRANCH  64  87
ATOM     87  C   UNL A   1      43.654  37.740  27.814  1.00  0.00    -0.014 A 
ATOM     88  C   UNL A   1      42.484  38.454  27.286  1.00  0.00     0.010 A 
ATOM     89  C   UNL A   1      44.833  38.386  27.398  1.00  0.00     0.010 A 
ATOM     90  C   UNL A   1      42.572  39.627  26.398  1.00  0.00     0.020 A 
ATOM     91  C   UNL A   1      44.932  39.592  26.619  1.00  0.00     0.020 A 
ATOM     92  C   UNL A   1      43.800  40.243  26.147  1.00  0.00     0.054 A 
BRANCH  92  93
ATOM     93  S   UNL A   1      43.922  41.909  25.304  1.00  0.00     0.124 S 
ATOM     94  O   UNL A   1      44.958  41.696  24.299  1.00  0.00    -0.237 OA
ATOM     95  O   UNL A   1      42.576  42.109  24.771  1.00  0.00    -0.237 OA
ATOM     96  O   UNL A   1      44.289  42.833  26.379  1.00  0.00    -0.744 OA
ENDBRANCH  92  93
ENDBRANCH  64  87
BRANCH  76  97
ATOM     97  C   UNL A   1      44.620  31.895  31.085  1.00  0.00    -0.014 A 
ATOM     98  C   UNL A   1      43.487  31.037  31.903  1.00  0.00     0.010 A 
ATOM     99  C   UNL A   1      45.168  32.814  31.829  1.00  0.00     0.010 A 
ATOM    100  C   UNL A   1      42.767  31.493  32.969  1.00  0.00     0.020 A 
ATOM    101  C   UNL A   1      44.633  33.025  33.092  1.00  0.00     0.020 A 
ATOM    102  C   UNL A   1      43.478  32.408  33.661  1.00  0.00     0.054 A 
BRANCH 102 103
ATOM    103  S   UNL A   1      43.024  32.696  35.399  1.00  0.00     0.124 S 
ATOM    104  O   UNL A   1      43.467  34.072  35.612  1.00  0.00    -0.237 OA
ATOM    105  O   UNL A   1      41.574  32.518  35.400  1.00  0.00    -0.237 OA
ATOM    106  O   UNL A   1      43.791  31.683  36.116  1.00  0.00    -0.744 OA
ENDBRANCH 102 103
ENDBRANCH  76  97
ENDBRANCH  50  51
ENDBRANCH  42  45
ENDBRANCH  40  41
ENDBRANCH  39  40
ENDBRANCH   1  39
TORSDOF 22
ENDMDL
