MODEL 1
REMARK VINA RESULT:     -11.0      0.000      0.000
REMARK SMILES CN(Cc1ccncc1)C(=O)c1cccn1CC(=O)NCCCNC(=O)c1ccc(-c2c3nc(c(-c4ccc(S(=O)(=O)[O-])cc4)c4ccc([nH]4)c(-c4ccc(S(=O)(=O)[O-])cc4)c4nc(c(-c5ccc(S(=O)(=O)[O-])cc5)c5ccc2[nH]5)C=C4)C=C3)cc1
REMARK SMILES IDX 21 1 20 2 18 3 19 4 17 6 16 7 12 8 13 9 14 10 15 11 10 12
REMARK SMILES IDX 11 13 2 14 1 15 3 16 4 17 5 18 9 19 6 20 8 21 7 22 22 23
REMARK SMILES IDX 23 24 24 25 25 26 26 28 27 29 28 30 86 31 29 32 85 33 30 34
REMARK SMILES IDX 31 35 32 36 79 37 33 38 84 39 78 40 80 41 34 42 83 43 77 44
REMARK SMILES IDX 76 45 35 47 65 48 46 49 64 50 47 51 50 52 63 53 81 54 48 55
REMARK SMILES IDX 49 56 62 58 82 59 51 60 36 61 37 62 45 63 38 64 44 65 39 66
REMARK SMILES IDX 40 67 41 68 42 69 43 70 66 71 67 72 75 73 68 74 74 75 69 76
REMARK SMILES IDX 70 77 71 78 72 79 73 80 52 81 53 82 61 83 54 84 60 85 55 86
REMARK SMILES IDX 56 87 57 88 58 89 59 90
REMARK H PARENT 20 5 24 27 80 46 50 57
REMARK Flexibility Score: inf
ROOT
ATOM      1  C   UNL A   1      37.414  20.801  24.536  1.00  0.00     0.117 C 
ENDROOT
BRANCH   1   2
ATOM      2  N   UNL A   1      37.649  21.955  25.378  1.00  0.00    -0.354 N 
ATOM      3  C   UNL A   1      37.124  23.211  25.276  1.00  0.00     0.239 C 
ATOM      4  O   UNL A   1      37.487  24.064  26.087  1.00  0.00    -0.273 OA
ATOM      5  H   UNL A   1      38.273  21.815  26.127  1.00  0.00     0.163 HD
BRANCH   3   6
ATOM      6  C   UNL A   1      36.077  23.514  24.228  1.00  0.00     0.222 C 
BRANCH   6   7
ATOM      7  N   UNL A   1      34.799  23.960  24.770  1.00  0.00    -0.334 N 
ATOM      8  C   UNL A   1      33.907  23.205  25.518  1.00  0.00     0.107 A 
ATOM      9  C   UNL A   1      33.065  24.119  26.135  1.00  0.00     0.033 A 
ATOM     10  C   UNL A   1      33.310  25.398  25.592  1.00  0.00     0.020 A 
ATOM     11  C   UNL A   1      34.371  25.268  24.730  1.00  0.00     0.087 A 
BRANCH   8  12
ATOM     12  C   UNL A   1      33.967  21.769  25.733  1.00  0.00     0.270 C 
ATOM     13  O   UNL A   1      34.682  21.293  26.611  1.00  0.00    -0.267 OA
BRANCH  12  14
ATOM     14  N   UNL A   1      33.216  20.928  24.890  1.00  0.00    -0.336 N 
ATOM     15  C   UNL A   1      32.831  21.491  23.607  1.00  0.00     0.147 C 
BRANCH  14  16
ATOM     16  C   UNL A   1      32.457  19.765  25.353  1.00  0.00     0.155 C 
BRANCH  16  17
ATOM     17  C   UNL A   1      33.072  18.416  25.093  1.00  0.00    -0.026 A 
ATOM     18  C   UNL A   1      32.502  17.234  25.564  1.00  0.00     0.025 A 
ATOM     19  C   UNL A   1      34.268  18.328  24.365  1.00  0.00     0.025 A 
ATOM     20  C   UNL A   1      33.114  16.031  25.239  1.00  0.00     0.111 A 
ATOM     21  C   UNL A   1      34.782  17.081  24.061  1.00  0.00     0.111 A 
ATOM     22  N   UNL A   1      34.230  15.927  24.483  1.00  0.00    -0.265 NA
ENDBRANCH  16  17
ENDBRANCH  14  16
ENDBRANCH  12  14
ENDBRANCH   8  12
ENDBRANCH   6   7
ENDBRANCH   3   6
ENDBRANCH   1   2
BRANCH   1  23
ATOM     23  C   UNL A   1      38.243  19.595  24.980  1.00  0.00     0.042 C 
BRANCH  23  24
ATOM     24  C   UNL A   1      39.231  19.932  26.088  1.00  0.00     0.118 C 
BRANCH  24  25
ATOM     25  N   UNL A   1      40.350  19.001  26.052  1.00  0.00    -0.352 N 
ATOM     26  C   UNL A   1      41.699  19.229  26.057  1.00  0.00     0.251 C 
ATOM     27  H   UNL A   1      40.094  18.051  26.017  1.00  0.00     0.163 HD
ATOM     28  O   UNL A   1      42.441  18.319  25.695  1.00  0.00    -0.269 OA
BRANCH  26  29
ATOM     29  C   UNL A   1      42.270  20.532  26.457  1.00  0.00     0.039 A 
ATOM     30  C   UNL A   1      42.865  21.310  25.455  1.00  0.00     0.014 A 
ATOM     31  C   UNL A   1      42.294  20.966  27.787  1.00  0.00     0.014 A 
ATOM     32  C   UNL A   1      43.420  22.545  25.772  1.00  0.00     0.010 A 
ATOM     33  C   UNL A   1      42.823  22.213  28.105  1.00  0.00     0.010 A 
ATOM     34  C   UNL A   1      43.364  23.011  27.092  1.00  0.00    -0.014 A 
BRANCH  34  35
ATOM     35  C   UNL A   1      43.662  24.435  27.359  1.00  0.00     0.031 A 
ATOM     36  C   UNL A   1      42.358  25.270  27.455  1.00  0.00     0.074 A 
ATOM     37  C   UNL A   1      44.982  24.787  27.457  1.00  0.00     0.049 A 
ATOM     38  N   UNL A   1      42.174  26.548  27.329  1.00  0.00    -0.248 NA
ATOM     39  C   UNL A   1      41.054  24.574  27.675  1.00  0.00     0.031 C 
ATOM     40  C   UNL A   1      46.123  23.840  27.401  1.00  0.00     0.029 A 
ATOM     41  N   UNL A   1      45.644  25.987  27.625  1.00  0.00    -0.354 N 
ATOM     42  C   UNL A   1      40.812  26.825  27.610  1.00  0.00     0.074 A 
ATOM     43  C   UNL A   1      40.158  25.562  27.744  1.00  0.00     0.031 C 
ATOM     44  C   UNL A   1      47.307  24.496  27.454  1.00  0.00     0.029 A 
ATOM     45  C   UNL A   1      47.066  25.920  27.565  1.00  0.00     0.049 A 
ATOM     46  H   UNL A   1      45.165  26.834  27.776  1.00  0.00     0.167 HD
ATOM     47  C   UNL A   1      40.325  28.086  27.810  1.00  0.00     0.031 A 
ATOM     48  C   UNL A   1      47.977  26.946  27.567  1.00  0.00     0.031 A 
ATOM     49  C   UNL A   1      41.348  29.040  27.567  1.00  0.00     0.049 A 
ATOM     50  C   UNL A   1      47.185  28.153  27.828  1.00  0.00     0.074 A 
ATOM     51  C   UNL A   1      41.940  29.487  26.417  1.00  0.00     0.029 A 
ATOM     52  N   UNL A   1      42.121  29.391  28.646  1.00  0.00    -0.354 N 
ATOM     53  N   UNL A   1      46.702  28.488  28.983  1.00  0.00    -0.248 NA
ATOM     54  C   UNL A   1      46.878  29.049  26.706  1.00  0.00     0.031 C 
ATOM     55  C   UNL A   1      43.289  29.641  26.792  1.00  0.00     0.029 A 
ATOM     56  C   UNL A   1      43.406  29.493  28.180  1.00  0.00     0.049 A 
ATOM     57  H   UNL A   1      41.813  29.540  29.570  1.00  0.00     0.167 HD
ATOM     58  C   UNL A   1      45.737  29.395  28.638  1.00  0.00     0.074 A 
ATOM     59  C   UNL A   1      46.118  29.932  27.348  1.00  0.00     0.031 C 
ATOM     60  C   UNL A   1      44.475  29.242  29.111  1.00  0.00     0.031 A 
BRANCH  47  61
ATOM     61  C   UNL A   1      39.046  28.606  28.415  1.00  0.00    -0.014 A 
ATOM     62  C   UNL A   1      38.467  29.748  27.798  1.00  0.00     0.010 A 
ATOM     63  C   UNL A   1      38.609  28.277  29.704  1.00  0.00     0.010 A 
ATOM     64  C   UNL A   1      37.611  30.607  28.488  1.00  0.00     0.020 A 
ATOM     65  C   UNL A   1      37.713  29.119  30.392  1.00  0.00     0.020 A 
ATOM     66  C   UNL A   1      37.267  30.304  29.799  1.00  0.00     0.054 A 
BRANCH  66  67
ATOM     67  S   UNL A   1      36.300  31.527  30.729  1.00  0.00     0.124 S 
ATOM     68  O   UNL A   1      37.239  32.638  30.847  1.00  0.00    -0.237 OA
ATOM     69  O   UNL A   1      35.159  31.764  29.847  1.00  0.00    -0.237 OA
ATOM     70  O   UNL A   1      35.981  30.835  31.975  1.00  0.00    -0.744 OA
ENDBRANCH  66  67
ENDBRANCH  47  61
BRANCH  48  71
ATOM     71  C   UNL A   1      49.450  27.211  27.313  1.00  0.00    -0.014 A 
ATOM     72  C   UNL A   1      50.394  27.708  28.218  1.00  0.00     0.010 A 
ATOM     73  C   UNL A   1      49.980  26.796  26.051  1.00  0.00     0.010 A 
ATOM     74  C   UNL A   1      51.785  27.644  27.930  1.00  0.00     0.020 A 
ATOM     75  C   UNL A   1      51.343  26.675  25.776  1.00  0.00     0.020 A 
ATOM     76  C   UNL A   1      52.250  27.075  26.737  1.00  0.00     0.054 A 
BRANCH  76  77
ATOM     77  S   UNL A   1      54.011  26.712  26.471  1.00  0.00     0.124 S 
ATOM     78  O   UNL A   1      54.648  27.987  26.783  1.00  0.00    -0.237 OA
ATOM     79  O   UNL A   1      54.265  25.630  27.418  1.00  0.00    -0.237 OA
ATOM     80  O   UNL A   1      54.068  26.314  25.065  1.00  0.00    -0.744 OA
ENDBRANCH  76  77
ENDBRANCH  48  71
BRANCH  60  81
ATOM     81  C   UNL A   1      44.351  28.457  30.409  1.00  0.00    -0.014 A 
ATOM     82  C   UNL A   1      44.060  27.082  30.352  1.00  0.00     0.010 A 
ATOM     83  C   UNL A   1      44.444  29.048  31.687  1.00  0.00     0.010 A 
ATOM     84  C   UNL A   1      43.881  26.322  31.517  1.00  0.00     0.020 A 
ATOM     85  C   UNL A   1      44.266  28.293  32.863  1.00  0.00     0.020 A 
ATOM     86  C   UNL A   1      43.992  26.929  32.769  1.00  0.00     0.054 A 
BRANCH  86  87
ATOM     87  S   UNL A   1      43.769  25.904  34.254  1.00  0.00     0.124 S 
ATOM     88  O   UNL A   1      44.873  26.331  35.111  1.00  0.00    -0.237 OA
ATOM     89  O   UNL A   1      42.439  26.298  34.712  1.00  0.00    -0.237 OA
ATOM     90  O   UNL A   1      43.872  24.533  33.755  1.00  0.00    -0.744 OA
ENDBRANCH  86  87
ENDBRANCH  60  81
ENDBRANCH  34  35
ENDBRANCH  26  29
ENDBRANCH  24  25
ENDBRANCH  23  24
ENDBRANCH   1  23
TORSDOF 18
ENDMDL
MODEL 2
REMARK VINA RESULT:     -11.0      3.516      9.348
REMARK SMILES CN(Cc1ccncc1)C(=O)c1cccn1CC(=O)NCCCNC(=O)c1ccc(-c2c3nc(c(-c4ccc(S(=O)(=O)[O-])cc4)c4ccc([nH]4)c(-c4ccc(S(=O)(=O)[O-])cc4)c4nc(c(-c5ccc(S(=O)(=O)[O-])cc5)c5ccc2[nH]5)C=C4)C=C3)cc1
REMARK SMILES IDX 21 1 20 2 18 3 19 4 17 6 16 7 12 8 13 9 14 10 15 11 10 12
REMARK SMILES IDX 11 13 2 14 1 15 3 16 4 17 5 18 9 19 6 20 8 21 7 22 22 23
REMARK SMILES IDX 23 24 24 25 25 26 26 28 27 29 28 30 86 31 29 32 85 33 30 34
REMARK SMILES IDX 31 35 32 36 79 37 33 38 84 39 78 40 80 41 34 42 83 43 77 44
REMARK SMILES IDX 76 45 35 47 65 48 46 49 64 50 47 51 50 52 63 53 81 54 48 55
REMARK SMILES IDX 49 56 62 58 82 59 51 60 36 61 37 62 45 63 38 64 44 65 39 66
REMARK SMILES IDX 40 67 41 68 42 69 43 70 66 71 67 72 75 73 68 74 74 75 69 76
REMARK SMILES IDX 70 77 71 78 72 79 73 80 52 81 53 82 61 83 54 84 60 85 55 86
REMARK SMILES IDX 56 87 57 88 58 89 59 90
REMARK H PARENT 20 5 24 27 80 46 50 57
REMARK Flexibility Score: inf
ROOT
ATOM      1  C   UNL A   1      37.827  22.321  25.758  1.00  0.00     0.117 C 
ENDROOT
BRANCH   1   2
ATOM      2  N   UNL A   1      37.321  22.822  24.498  1.00  0.00    -0.354 N 
ATOM      3  C   UNL A   1      36.168  22.491  23.846  1.00  0.00     0.239 C 
ATOM      4  O   UNL A   1      35.941  23.018  22.756  1.00  0.00    -0.273 OA
ATOM      5  H   UNL A   1      37.885  23.495  24.051  1.00  0.00     0.163 HD
BRANCH   3   6
ATOM      6  C   UNL A   1      35.176  21.548  24.488  1.00  0.00     0.222 C 
BRANCH   6   7
ATOM      7  N   UNL A   1      33.881  22.151  24.783  1.00  0.00    -0.334 N 
ATOM      8  C   UNL A   1      32.646  21.735  24.307  1.00  0.00     0.107 A 
ATOM      9  C   UNL A   1      31.704  22.322  25.141  1.00  0.00     0.033 A 
ATOM     10  C   UNL A   1      32.357  23.255  25.974  1.00  0.00     0.020 A 
ATOM     11  C   UNL A   1      33.701  23.148  25.715  1.00  0.00     0.087 A 
BRANCH   8  12
ATOM     12  C   UNL A   1      32.415  20.754  23.261  1.00  0.00     0.270 C 
ATOM     13  O   UNL A   1      32.085  21.103  22.131  1.00  0.00    -0.267 OA
BRANCH  12  14
ATOM     14  N   UNL A   1      32.540  19.387  23.578  1.00  0.00    -0.336 N 
ATOM     15  C   UNL A   1      32.183  18.453  22.524  1.00  0.00     0.147 C 
BRANCH  14  16
ATOM     16  C   UNL A   1      32.570  18.860  24.943  1.00  0.00     0.155 C 
BRANCH  16  17
ATOM     17  C   UNL A   1      33.118  17.468  25.113  1.00  0.00    -0.026 A 
ATOM     18  C   UNL A   1      32.321  16.397  25.511  1.00  0.00     0.025 A 
ATOM     19  C   UNL A   1      34.481  17.228  24.882  1.00  0.00     0.025 A 
ATOM     20  C   UNL A   1      32.901  15.139  25.600  1.00  0.00     0.111 A 
ATOM     21  C   UNL A   1      34.959  15.932  24.961  1.00  0.00     0.111 A 
ATOM     22  N   UNL A   1      34.197  14.879  25.316  1.00  0.00    -0.265 NA
ENDBRANCH  16  17
ENDBRANCH  14  16
ENDBRANCH  12  14
ENDBRANCH   8  12
ENDBRANCH   6   7
ENDBRANCH   3   6
ENDBRANCH   1   2
BRANCH   1  23
ATOM     23  C   UNL A   1      38.937  21.290  25.555  1.00  0.00     0.042 C 
BRANCH  23  24
ATOM     24  C   UNL A   1      40.039  21.392  26.601  1.00  0.00     0.118 C 
BRANCH  24  25
ATOM     25  N   UNL A   1      41.332  21.531  25.945  1.00  0.00    -0.352 N 
ATOM     26  C   UNL A   1      42.095  22.641  25.708  1.00  0.00     0.251 C 
ATOM     27  H   UNL A   1      41.720  20.688  25.618  1.00  0.00     0.163 HD
ATOM     28  O   UNL A   1      42.981  22.564  24.860  1.00  0.00    -0.269 OA
BRANCH  26  29
ATOM     29  C   UNL A   1      41.863  23.916  26.419  1.00  0.00     0.039 A 
ATOM     30  C   UNL A   1      41.269  23.848  27.686  1.00  0.00     0.014 A 
ATOM     31  C   UNL A   1      42.149  25.160  25.846  1.00  0.00     0.014 A 
ATOM     32  C   UNL A   1      41.026  25.015  28.402  1.00  0.00     0.010 A 
ATOM     33  C   UNL A   1      41.933  26.329  26.569  1.00  0.00     0.010 A 
ATOM     34  C   UNL A   1      41.393  26.252  27.856  1.00  0.00    -0.014 A 
BRANCH  34  35
ATOM     35  C   UNL A   1      41.426  27.439  28.739  1.00  0.00     0.031 A 
ATOM     36  C   UNL A   1      42.673  27.415  29.661  1.00  0.00     0.074 A 
ATOM     37  C   UNL A   1      40.389  28.327  28.627  1.00  0.00     0.049 A 
ATOM     38  N   UNL A   1      42.900  28.040  30.775  1.00  0.00    -0.248 NA
ATOM     39  C   UNL A   1      43.825  26.525  29.318  1.00  0.00     0.031 C 
ATOM     40  C   UNL A   1      39.289  28.232  27.635  1.00  0.00     0.029 A 
ATOM     41  N   UNL A   1      40.038  29.480  29.300  1.00  0.00    -0.354 N 
ATOM     42  C   UNL A   1      44.234  27.763  31.170  1.00  0.00     0.074 A 
ATOM     43  C   UNL A   1      44.727  26.766  30.272  1.00  0.00     0.031 C 
ATOM     44  C   UNL A   1      38.377  29.216  27.820  1.00  0.00     0.029 A 
ATOM     45  C   UNL A   1      38.789  30.056  28.927  1.00  0.00     0.049 A 
ATOM     46  H   UNL A   1      40.612  29.879  29.993  1.00  0.00     0.167 HD
ATOM     47  C   UNL A   1      44.884  28.445  32.159  1.00  0.00     0.031 A 
ATOM     48  C   UNL A   1      38.122  31.109  29.497  1.00  0.00     0.031 A 
ATOM     49  C   UNL A   1      43.989  29.351  32.787  1.00  0.00     0.049 A 
ATOM     50  C   UNL A   1      39.058  31.657  30.485  1.00  0.00     0.074 A 
ATOM     51  C   UNL A   1      42.941  29.166  33.648  1.00  0.00     0.029 A 
ATOM     52  N   UNL A   1      43.921  30.611  32.248  1.00  0.00    -0.354 N 
ATOM     53  N   UNL A   1      40.097  32.378  30.204  1.00  0.00    -0.248 NA
ATOM     54  C   UNL A   1      38.838  31.354  31.906  1.00  0.00     0.031 C 
ATOM     55  C   UNL A   1      42.001  30.122  33.214  1.00  0.00     0.029 A 
ATOM     56  C   UNL A   1      42.598  30.969  32.274  1.00  0.00     0.049 A 
ATOM     57  H   UNL A   1      44.673  31.150  31.910  1.00  0.00     0.167 HD
ATOM     58  C   UNL A   1      40.837  32.274  31.351  1.00  0.00     0.074 A 
ATOM     59  C   UNL A   1      39.907  31.959  32.415  1.00  0.00     0.031 C 
ATOM     60  C   UNL A   1      42.138  31.899  31.275  1.00  0.00     0.031 A 
BRANCH  47  61
ATOM     61  C   UNL A   1      46.338  28.563  32.537  1.00  0.00    -0.014 A 
ATOM     62  C   UNL A   1      47.185  29.235  31.615  1.00  0.00     0.010 A 
ATOM     63  C   UNL A   1      46.951  27.770  33.516  1.00  0.00     0.010 A 
ATOM     64  C   UNL A   1      48.561  29.008  31.573  1.00  0.00     0.020 A 
ATOM     65  C   UNL A   1      48.345  27.568  33.505  1.00  0.00     0.020 A 
ATOM     66  C   UNL A   1      49.129  28.144  32.500  1.00  0.00     0.054 A 
BRANCH  66  67
ATOM     67  S   UNL A   1      50.885  27.729  32.310  1.00  0.00     0.124 S 
ATOM     68  O   UNL A   1      51.471  28.298  33.520  1.00  0.00    -0.237 OA
ATOM     69  O   UNL A   1      50.861  26.268  32.256  1.00  0.00    -0.237 OA
ATOM     70  O   UNL A   1      51.259  28.384  31.060  1.00  0.00    -0.744 OA
ENDBRANCH  66  67
ENDBRANCH  47  61
BRANCH  48  71
ATOM     71  C   UNL A   1      36.765  31.790  29.481  1.00  0.00    -0.014 A 
ATOM     72  C   UNL A   1      35.901  31.991  30.562  1.00  0.00     0.010 A 
ATOM     73  C   UNL A   1      36.360  32.411  28.258  1.00  0.00     0.010 A 
ATOM     74  C   UNL A   1      34.796  32.881  30.458  1.00  0.00     0.020 A 
ATOM     75  C   UNL A   1      35.315  33.329  28.155  1.00  0.00     0.020 A 
ATOM     76  C   UNL A   1      34.548  33.586  29.273  1.00  0.00     0.054 A 
BRANCH  76  77
ATOM     77  S   UNL A   1      33.335  34.940  29.201  1.00  0.00     0.124 S 
ATOM     78  O   UNL A   1      34.150  36.074  28.779  1.00  0.00    -0.237 OA
ATOM     79  O   UNL A   1      32.368  34.455  28.219  1.00  0.00    -0.237 OA
ATOM     80  O   UNL A   1      32.826  35.012  30.570  1.00  0.00    -0.744 OA
ENDBRANCH  76  77
ENDBRANCH  48  71
BRANCH  60  81
ATOM     81  C   UNL A   1      42.828  32.185  29.949  1.00  0.00    -0.014 A 
ATOM     82  C   UNL A   1      43.097  31.117  29.074  1.00  0.00     0.010 A 
ATOM     83  C   UNL A   1      43.282  33.465  29.568  1.00  0.00     0.010 A 
ATOM     84  C   UNL A   1      43.778  31.315  27.863  1.00  0.00     0.020 A 
ATOM     85  C   UNL A   1      43.967  33.675  28.354  1.00  0.00     0.020 A 
ATOM     86  C   UNL A   1      44.205  32.594  27.505  1.00  0.00     0.054 A 
BRANCH  86  87
ATOM     87  S   UNL A   1      45.070  32.810  25.920  1.00  0.00     0.124 S 
ATOM     88  O   UNL A   1      43.972  32.880  24.958  1.00  0.00    -0.237 OA
ATOM     89  O   UNL A   1      45.797  34.060  26.126  1.00  0.00    -0.237 OA
ATOM     90  O   UNL A   1      45.907  31.616  25.811  1.00  0.00    -0.744 OA
ENDBRANCH  86  87
ENDBRANCH  60  81
ENDBRANCH  34  35
ENDBRANCH  26  29
ENDBRANCH  24  25
ENDBRANCH  23  24
ENDBRANCH   1  23
TORSDOF 18
ENDMDL
MODEL 3
REMARK VINA RESULT:     -10.8      5.486     11.642
REMARK SMILES CN(Cc1ccncc1)C(=O)c1cccn1CC(=O)NCCCNC(=O)c1ccc(-c2c3nc(c(-c4ccc(S(=O)(=O)[O-])cc4)c4ccc([nH]4)c(-c4ccc(S(=O)(=O)[O-])cc4)c4nc(c(-c5ccc(S(=O)(=O)[O-])cc5)c5ccc2[nH]5)C=C4)C=C3)cc1
REMARK SMILES IDX 21 1 20 2 18 3 19 4 17 6 16 7 12 8 13 9 14 10 15 11 10 12
REMARK SMILES IDX 11 13 2 14 1 15 3 16 4 17 5 18 9 19 6 20 8 21 7 22 22 23
REMARK SMILES IDX 23 24 24 25 25 26 26 28 27 29 28 30 86 31 29 32 85 33 30 34
REMARK SMILES IDX 31 35 32 36 79 37 33 38 84 39 78 40 80 41 34 42 83 43 77 44
REMARK SMILES IDX 76 45 35 47 65 48 46 49 64 50 47 51 50 52 63 53 81 54 48 55
REMARK SMILES IDX 49 56 62 58 82 59 51 60 36 61 37 62 45 63 38 64 44 65 39 66
REMARK SMILES IDX 40 67 41 68 42 69 43 70 66 71 67 72 75 73 68 74 74 75 69 76
REMARK SMILES IDX 70 77 71 78 72 79 73 80 52 81 53 82 61 83 54 84 60 85 55 86
REMARK SMILES IDX 56 87 57 88 58 89 59 90
REMARK H PARENT 20 5 24 27 80 46 50 57
REMARK Flexibility Score: inf
ROOT
ATOM      1  C   UNL A   1      38.694  32.319  30.485  1.00  0.00     0.117 C 
ENDROOT
BRANCH   1   2
ATOM      2  N   UNL A   1      39.843  33.102  30.886  1.00  0.00    -0.354 N 
ATOM      3  C   UNL A   1      39.967  33.966  31.936  1.00  0.00     0.239 C 
ATOM      4  O   UNL A   1      41.035  34.561  32.081  1.00  0.00    -0.273 OA
ATOM      5  H   UNL A   1      40.646  32.997  30.325  1.00  0.00     0.163 HD
BRANCH   3   6
ATOM      6  C   UNL A   1      38.834  34.126  32.925  1.00  0.00     0.222 C 
BRANCH   6   7
ATOM      7  N   UNL A   1      38.754  33.067  33.923  1.00  0.00    -0.334 N 
ATOM      8  C   UNL A   1      37.707  32.175  34.103  1.00  0.00     0.107 A 
ATOM      9  C   UNL A   1      38.224  31.133  34.861  1.00  0.00     0.033 A 
ATOM     10  C   UNL A   1      39.509  31.501  35.316  1.00  0.00     0.020 A 
ATOM     11  C   UNL A   1      39.803  32.713  34.742  1.00  0.00     0.087 A 
BRANCH   8  12
ATOM     12  C   UNL A   1      36.398  32.249  33.476  1.00  0.00     0.270 C 
ATOM     13  O   UNL A   1      36.071  31.450  32.603  1.00  0.00    -0.267 OA
BRANCH  12  14
ATOM     14  N   UNL A   1      35.522  33.281  33.864  1.00  0.00    -0.336 N 
ATOM     15  C   UNL A   1      35.868  33.986  35.086  1.00  0.00     0.147 C 
BRANCH  14  16
ATOM     16  C   UNL A   1      34.136  33.398  33.407  1.00  0.00     0.155 C 
BRANCH  16  17
ATOM     17  C   UNL A   1      33.882  34.351  32.270  1.00  0.00    -0.026 A 
ATOM     18  C   UNL A   1      34.256  34.062  30.958  1.00  0.00     0.025 A 
ATOM     19  C   UNL A   1      33.265  35.584  32.525  1.00  0.00     0.025 A 
ATOM     20  C   UNL A   1      33.943  34.981  29.966  1.00  0.00     0.111 A 
ATOM     21  C   UNL A   1      32.962  36.419  31.463  1.00  0.00     0.111 A 
ATOM     22  N   UNL A   1      33.289  36.143  30.186  1.00  0.00    -0.265 NA
ENDBRANCH  16  17
ENDBRANCH  14  16
ENDBRANCH  12  14
ENDBRANCH   8  12
ENDBRANCH   6   7
ENDBRANCH   3   6
ENDBRANCH   1   2
BRANCH   1  23
ATOM     23  C   UNL A   1      37.581  33.196  29.909  1.00  0.00     0.042 C 
BRANCH  23  24
ATOM     24  C   UNL A   1      37.344  32.954  28.425  1.00  0.00     0.118 C 
BRANCH  24  25
ATOM     25  N   UNL A   1      36.212  32.055  28.246  1.00  0.00    -0.352 N 
ATOM     26  C   UNL A   1      36.168  30.693  28.119  1.00  0.00     0.251 C 
ATOM     27  H   UNL A   1      35.335  32.499  28.211  1.00  0.00     0.163 HD
ATOM     28  O   UNL A   1      35.148  30.188  27.655  1.00  0.00    -0.269 OA
BRANCH  26  29
ATOM     29  C   UNL A   1      37.311  29.835  28.496  1.00  0.00     0.039 A 
ATOM     30  C   UNL A   1      38.422  29.830  27.642  1.00  0.00     0.014 A 
ATOM     31  C   UNL A   1      37.285  28.996  29.616  1.00  0.00     0.014 A 
ATOM     32  C   UNL A   1      39.527  29.041  27.945  1.00  0.00     0.010 A 
ATOM     33  C   UNL A   1      38.398  28.226  29.938  1.00  0.00     0.010 A 
ATOM     34  C   UNL A   1      39.526  28.269  29.114  1.00  0.00    -0.014 A 
BRANCH  34  35
ATOM     35  C   UNL A   1      40.804  27.693  29.588  1.00  0.00     0.031 A 
ATOM     36  C   UNL A   1      41.195  26.442  28.760  1.00  0.00     0.074 A 
ATOM     37  C   UNL A   1      41.411  28.313  30.649  1.00  0.00     0.049 A 
ATOM     38  N   UNL A   1      42.008  25.472  29.045  1.00  0.00    -0.248 NA
ATOM     39  C   UNL A   1      40.547  26.206  27.433  1.00  0.00     0.031 C 
ATOM     40  C   UNL A   1      40.929  29.557  31.298  1.00  0.00     0.029 A 
ATOM     41  N   UNL A   1      42.540  28.045  31.397  1.00  0.00    -0.354 N 
ATOM     42  C   UNL A   1      42.098  24.626  27.910  1.00  0.00     0.074 A 
ATOM     43  C   UNL A   1      41.119  25.089  26.978  1.00  0.00     0.031 C 
ATOM     44  C   UNL A   1      41.699  29.884  32.364  1.00  0.00     0.029 A 
ATOM     45  C   UNL A   1      42.760  28.907  32.511  1.00  0.00     0.049 A 
ATOM     46  H   UNL A   1      43.152  27.308  31.177  1.00  0.00     0.167 HD
ATOM     47  C   UNL A   1      43.043  23.650  27.771  1.00  0.00     0.031 A 
ATOM     48  C   UNL A   1      43.707  28.814  33.498  1.00  0.00     0.031 A 
ATOM     49  C   UNL A   1      43.805  23.544  28.964  1.00  0.00     0.049 A 
ATOM     50  C   UNL A   1      44.587  27.720  33.073  1.00  0.00     0.074 A 
ATOM     51  C   UNL A   1      43.514  23.040  30.203  1.00  0.00     0.029 A 
ATOM     52  N   UNL A   1      44.927  24.331  29.042  1.00  0.00    -0.354 N 
ATOM     53  N   UNL A   1      45.475  27.804  32.133  1.00  0.00    -0.248 NA
ATOM     54  C   UNL A   1      44.450  26.412  33.727  1.00  0.00     0.031 C 
ATOM     55  C   UNL A   1      44.162  23.941  31.073  1.00  0.00     0.029 A 
ATOM     56  C   UNL A   1      44.977  24.801  30.328  1.00  0.00     0.049 A 
ATOM     57  H   UNL A   1      45.567  24.520  28.317  1.00  0.00     0.167 HD
ATOM     58  C   UNL A   1      45.706  26.488  31.838  1.00  0.00     0.074 A 
ATOM     59  C   UNL A   1      45.346  25.731  33.019  1.00  0.00     0.031 C 
ATOM     60  C   UNL A   1      45.627  26.067  30.551  1.00  0.00     0.031 A 
BRANCH  47  61
ATOM     61  C   UNL A   1      43.538  22.866  26.583  1.00  0.00    -0.014 A 
ATOM     62  C   UNL A   1      42.760  21.743  26.190  1.00  0.00     0.010 A 
ATOM     63  C   UNL A   1      44.847  22.946  26.092  1.00  0.00     0.010 A 
ATOM     64  C   UNL A   1      43.306  20.679  25.471  1.00  0.00     0.020 A 
ATOM     65  C   UNL A   1      45.393  21.894  25.331  1.00  0.00     0.020 A 
ATOM     66  C   UNL A   1      44.636  20.746  25.076  1.00  0.00     0.054 A 
BRANCH  66  67
ATOM     67  S   UNL A   1      45.368  19.277  24.303  1.00  0.00     0.124 S 
ATOM     68  O   UNL A   1      44.964  18.212  25.216  1.00  0.00    -0.237 OA
ATOM     69  O   UNL A   1      44.721  19.253  22.992  1.00  0.00    -0.237 OA
ATOM     70  O   UNL A   1      46.797  19.579  24.277  1.00  0.00    -0.744 OA
ENDBRANCH  66  67
ENDBRANCH  47  61
BRANCH  48  71
ATOM     71  C   UNL A   1      44.055  29.402  34.854  1.00  0.00    -0.014 A 
ATOM     72  C   UNL A   1      45.254  30.013  35.234  1.00  0.00     0.010 A 
ATOM     73  C   UNL A   1      43.009  29.459  35.828  1.00  0.00     0.010 A 
ATOM     74  C   UNL A   1      45.342  30.761  36.440  1.00  0.00     0.020 A 
ATOM     75  C   UNL A   1      43.062  30.235  36.987  1.00  0.00     0.020 A 
ATOM     76  C   UNL A   1      44.227  30.914  37.277  1.00  0.00     0.054 A 
BRANCH  76  77
ATOM     77  S   UNL A   1      44.223  32.096  38.659  1.00  0.00     0.124 S 
ATOM     78  O   UNL A   1      44.184  31.220  39.825  1.00  0.00    -0.237 OA
ATOM     79  O   UNL A   1      45.469  32.830  38.460  1.00  0.00    -0.237 OA
ATOM     80  O   UNL A   1      43.011  32.883  38.429  1.00  0.00    -0.744 OA
ENDBRANCH  76  77
ENDBRANCH  48  71
BRANCH  60  81
ATOM     81  C   UNL A   1      45.867  27.136  29.495  1.00  0.00    -0.014 A 
ATOM     82  C   UNL A   1      44.765  27.690  28.820  1.00  0.00     0.010 A 
ATOM     83  C   UNL A   1      47.152  27.562  29.098  1.00  0.00     0.010 A 
ATOM     84  C   UNL A   1      44.931  28.639  27.800  1.00  0.00     0.020 A 
ATOM     85  C   UNL A   1      47.330  28.514  28.074  1.00  0.00     0.020 A 
ATOM     86  C   UNL A   1      46.213  29.052  27.435  1.00  0.00     0.054 A 
BRANCH  86  87
ATOM     87  S   UNL A   1      46.384  30.296  26.119  1.00  0.00     0.124 S 
ATOM     88  O   UNL A   1      45.176  31.103  26.278  1.00  0.00    -0.237 OA
ATOM     89  O   UNL A   1      47.632  30.965  26.479  1.00  0.00    -0.237 OA
ATOM     90  O   UNL A   1      46.437  29.504  24.891  1.00  0.00    -0.744 OA
ENDBRANCH  86  87
ENDBRANCH  60  81
ENDBRANCH  34  35
ENDBRANCH  26  29
ENDBRANCH  24  25
ENDBRANCH  23  24
ENDBRANCH   1  23
TORSDOF 18
ENDMDL
