MODEL 1
REMARK VINA RESULT:     -10.5      0.000      0.000
REMARK SMILES C[C@](NC(=O)Cc1cccc(F)c1F)(C(=O)NCCCNC(=O)c1ccc(-c2c3nc(c(-c4ccc(S(=O)(=O)[O-])cc4)c4ccc([nH]4)c(-c4ccc(S(=O)(=O)[O-])cc4)c4nc(c(-c5ccc(S(=O)(=O)[O-])cc5)c5ccc2[nH]5)C=C4)C=C3)cc1)C1CC1
REMARK SMILES IDX 19 1 18 2 17 3 15 4 16 5 2 7 1 8 84 9 85 10 86 11 3 12 4 13
REMARK SMILES IDX 5 15 6 16 7 17 8 18 13 19 9 20 11 21 14 22 10 23 12 24 20 25
REMARK SMILES IDX 21 26 22 27 23 29 24 30 25 31 83 32 26 33 82 34 27 35 28 36
REMARK SMILES IDX 29 37 76 38 30 39 81 40 75 41 77 42 31 43 80 44 74 45 73 46
REMARK SMILES IDX 32 48 62 49 43 50 61 51 44 52 47 53 60 54 78 55 45 56 46 57
REMARK SMILES IDX 59 59 79 60 48 61 33 62 34 63 42 64 35 65 41 66 36 67 37 68
REMARK SMILES IDX 38 69 39 70 40 71 63 72 64 73 72 74 65 75 71 76 66 77 67 78
REMARK SMILES IDX 68 79 69 80 70 81 49 82 50 83 58 84 51 85 57 86 52 87 53 88
REMARK SMILES IDX 54 89 55 90 56 91
REMARK H PARENT 17 6 3 14 21 28 77 47 47 58
REMARK Flexibility Score: inf
ROOT
ATOM      1  C   UNL A   1      34.150  28.014  25.533  1.00  0.00     0.042 C 
ENDROOT
BRANCH   1   2
ATOM      2  C   UNL A   1      33.014  27.842  24.538  1.00  0.00     0.117 C 
BRANCH   2   3
ATOM      3  N   UNL A   1      33.478  27.205  23.313  1.00  0.00    -0.354 N 
ATOM      4  C   UNL A   1      33.199  25.989  22.749  1.00  0.00     0.245 C 
ATOM      5  O   UNL A   1      33.657  25.826  21.615  1.00  0.00    -0.272 OA
ATOM      6  H   UNL A   1      34.111  27.751  22.794  1.00  0.00     0.163 HD
BRANCH   4   7
ATOM      7  C   UNL A   1      32.166  25.016  23.420  1.00  0.00     0.119 C 
ATOM      8  C   UNL A   1      30.876  25.842  23.433  1.00  0.00     0.046 C 
BRANCH   7   9
ATOM      9  C   UNL A   1      31.880  23.706  22.688  1.00  0.00     0.024 C 
ATOM     10  C   UNL A   1      33.028  22.839  22.208  1.00  0.00     0.007 C 
ATOM     11  C   UNL A   1      32.062  22.303  23.225  1.00  0.00     0.007 C 
ENDBRANCH   7   9
BRANCH   7  12
ATOM     12  N   UNL A   1      32.704  24.651  24.750  1.00  0.00    -0.341 N 
ATOM     13  C   UNL A   1      33.926  24.405  25.290  1.00  0.00     0.225 C 
ATOM     14  H   UNL A   1      31.987  24.562  25.419  1.00  0.00     0.164 HD
ATOM     15  O   UNL A   1      33.958  24.228  26.511  1.00  0.00    -0.275 OA
BRANCH  13  16
ATOM     16  C   UNL A   1      35.208  24.341  24.470  1.00  0.00     0.138 C 
BRANCH  16  17
ATOM     17  C   UNL A   1      36.285  23.465  25.069  1.00  0.00     0.000 A 
ATOM     18  C   UNL A   1      37.292  24.026  25.873  1.00  0.00     0.007 A 
ATOM     19  C   UNL A   1      36.350  22.094  24.801  1.00  0.00     0.162 A 
ATOM     20  C   UNL A   1      38.430  23.290  26.215  1.00  0.00     0.004 A 
ATOM     21  C   UNL A   1      37.460  21.348  25.188  1.00  0.00     0.159 A 
ATOM     22  F   UNL A   1      35.350  21.491  24.147  1.00  0.00    -0.203 F 
ATOM     23  C   UNL A   1      38.523  21.950  25.851  1.00  0.00     0.042 A 
ATOM     24  F   UNL A   1      37.530  20.042  24.898  1.00  0.00    -0.204 F 
ENDBRANCH  16  17
ENDBRANCH  13  16
ENDBRANCH   7  12
ENDBRANCH   4   7
ENDBRANCH   2   3
ENDBRANCH   1   2
BRANCH   1  25
ATOM     25  C   UNL A   1      33.671  28.181  26.968  1.00  0.00     0.118 C 
BRANCH  25  26
ATOM     26  N   UNL A   1      33.507  29.576  27.351  1.00  0.00    -0.352 N 
ATOM     27  C   UNL A   1      34.393  30.410  27.993  1.00  0.00     0.251 C 
ATOM     28  H   UNL A   1      32.640  29.980  27.117  1.00  0.00     0.163 HD
ATOM     29  O   UNL A   1      34.022  31.511  28.380  1.00  0.00    -0.269 OA
BRANCH  27  30
ATOM     30  C   UNL A   1      35.779  29.954  28.234  1.00  0.00     0.039 A 
ATOM     31  C   UNL A   1      36.720  30.089  27.211  1.00  0.00     0.014 A 
ATOM     32  C   UNL A   1      36.155  29.420  29.469  1.00  0.00     0.014 A 
ATOM     33  C   UNL A   1      38.051  29.750  27.455  1.00  0.00     0.010 A 
ATOM     34  C   UNL A   1      37.498  29.182  29.741  1.00  0.00     0.010 A 
ATOM     35  C   UNL A   1      38.460  29.334  28.734  1.00  0.00    -0.014 A 
BRANCH  35  36
ATOM     36  C   UNL A   1      39.893  29.068  29.025  1.00  0.00     0.031 A 
ATOM     37  C   UNL A   1      40.510  27.738  28.682  1.00  0.00     0.074 A 
ATOM     38  C   UNL A   1      40.630  30.020  29.633  1.00  0.00     0.049 A 
ATOM     39  N   UNL A   1      41.748  27.342  28.834  1.00  0.00    -0.248 NA
ATOM     40  C   UNL A   1      39.619  26.707  28.123  1.00  0.00     0.031 C 
ATOM     41  C   UNL A   1      40.131  31.325  30.076  1.00  0.00     0.029 A 
ATOM     42  N   UNL A   1      41.959  30.044  29.973  1.00  0.00    -0.354 N 
ATOM     43  C   UNL A   1      41.782  26.023  28.399  1.00  0.00     0.074 A 
ATOM     44  C   UNL A   1      40.429  25.662  28.039  1.00  0.00     0.031 C 
ATOM     45  C   UNL A   1      41.150  32.039  30.579  1.00  0.00     0.029 A 
ATOM     46  C   UNL A   1      42.364  31.232  30.534  1.00  0.00     0.049 A 
ATOM     47  H   UNL A   1      42.565  29.281  29.829  1.00  0.00     0.167 HD
ATOM     48  C   UNL A   1      42.846  25.192  28.282  1.00  0.00     0.031 A 
ATOM     49  C   UNL A   1      43.578  31.633  30.957  1.00  0.00     0.031 A 
ATOM     50  C   UNL A   1      44.193  25.558  28.639  1.00  0.00     0.049 A 
ATOM     51  C   UNL A   1      44.746  30.697  30.809  1.00  0.00     0.074 A 
ATOM     52  C   UNL A   1      45.351  24.811  28.508  1.00  0.00     0.029 A 
ATOM     53  N   UNL A   1      44.563  26.772  29.199  1.00  0.00    -0.354 N 
ATOM     54  N   UNL A   1      44.771  29.480  30.320  1.00  0.00    -0.248 NA
ATOM     55  C   UNL A   1      46.053  31.199  31.249  1.00  0.00     0.031 C 
ATOM     56  C   UNL A   1      46.410  25.550  29.044  1.00  0.00     0.029 A 
ATOM     57  C   UNL A   1      45.926  26.786  29.443  1.00  0.00     0.049 A 
ATOM     58  H   UNL A   1      43.946  27.514  29.395  1.00  0.00     0.167 HD
ATOM     59  C   UNL A   1      46.102  29.080  30.368  1.00  0.00     0.074 A 
ATOM     60  C   UNL A   1      46.851  30.196  30.911  1.00  0.00     0.031 C 
ATOM     61  C   UNL A   1      46.656  27.898  29.996  1.00  0.00     0.031 A 
BRANCH  48  62
ATOM     62  C   UNL A   1      42.594  23.804  27.750  1.00  0.00    -0.014 A 
ATOM     63  C   UNL A   1      42.643  23.533  26.369  1.00  0.00     0.010 A 
ATOM     64  C   UNL A   1      42.344  22.746  28.642  1.00  0.00     0.010 A 
ATOM     65  C   UNL A   1      42.405  22.242  25.890  1.00  0.00     0.020 A 
ATOM     66  C   UNL A   1      42.139  21.446  28.170  1.00  0.00     0.020 A 
ATOM     67  C   UNL A   1      42.155  21.206  26.794  1.00  0.00     0.054 A 
BRANCH  67  68
ATOM     68  S   UNL A   1      41.880  19.535  26.145  1.00  0.00     0.124 S 
ATOM     69  O   UNL A   1      40.435  19.533  25.923  1.00  0.00    -0.237 OA
ATOM     70  O   UNL A   1      42.700  19.522  24.937  1.00  0.00    -0.237 OA
ATOM     71  O   UNL A   1      42.344  18.663  27.221  1.00  0.00    -0.744 OA
ENDBRANCH  67  68
ENDBRANCH  48  62
BRANCH  49  72
ATOM     72  C   UNL A   1      43.754  32.996  31.532  1.00  0.00    -0.014 A 
ATOM     73  C   UNL A   1      44.074  34.087  30.706  1.00  0.00     0.010 A 
ATOM     74  C   UNL A   1      43.592  33.211  32.913  1.00  0.00     0.010 A 
ATOM     75  C   UNL A   1      44.252  35.363  31.251  1.00  0.00     0.020 A 
ATOM     76  C   UNL A   1      43.737  34.491  33.458  1.00  0.00     0.020 A 
ATOM     77  C   UNL A   1      44.079  35.557  32.623  1.00  0.00     0.054 A 
BRANCH  77  78
ATOM     78  S   UNL A   1      44.272  37.228  33.302  1.00  0.00     0.124 S 
ATOM     79  O   UNL A   1      43.998  38.062  32.137  1.00  0.00    -0.237 OA
ATOM     80  O   UNL A   1      43.261  37.258  34.356  1.00  0.00    -0.237 OA
ATOM     81  O   UNL A   1      45.655  37.249  33.776  1.00  0.00    -0.744 OA
ENDBRANCH  77  78
ENDBRANCH  49  72
BRANCH  61  82
ATOM     82  C   UNL A   1      48.152  27.770  30.130  1.00  0.00    -0.014 A 
ATOM     83  C   UNL A   1      48.744  27.270  31.304  1.00  0.00     0.010 A 
ATOM     84  C   UNL A   1      48.976  28.149  29.055  1.00  0.00     0.010 A 
ATOM     85  C   UNL A   1      50.136  27.213  31.423  1.00  0.00     0.020 A 
ATOM     86  C   UNL A   1      50.366  28.059  29.157  1.00  0.00     0.020 A 
ATOM     87  C   UNL A   1      50.938  27.615  30.350  1.00  0.00     0.054 A 
BRANCH  87  88
ATOM     88  S   UNL A   1      52.740  27.536  30.530  1.00  0.00     0.124 S 
ATOM     89  O   UNL A   1      52.898  27.491  31.982  1.00  0.00    -0.237 OA
ATOM     90  O   UNL A   1      53.080  26.303  29.823  1.00  0.00    -0.237 OA
ATOM     91  O   UNL A   1      53.207  28.763  29.890  1.00  0.00    -0.744 OA
ENDBRANCH  87  88
ENDBRANCH  61  82
ENDBRANCH  35  36
ENDBRANCH  27  30
ENDBRANCH  25  26
ENDBRANCH   1  25
TORSDOF 17
ENDMDL
MODEL 2
REMARK VINA RESULT:     -10.4      1.348      8.373
REMARK SMILES C[C@](NC(=O)Cc1cccc(F)c1F)(C(=O)NCCCNC(=O)c1ccc(-c2c3nc(c(-c4ccc(S(=O)(=O)[O-])cc4)c4ccc([nH]4)c(-c4ccc(S(=O)(=O)[O-])cc4)c4nc(c(-c5ccc(S(=O)(=O)[O-])cc5)c5ccc2[nH]5)C=C4)C=C3)cc1)C1CC1
REMARK SMILES IDX 19 1 18 2 17 3 15 4 16 5 2 7 1 8 84 9 85 10 86 11 3 12 4 13
REMARK SMILES IDX 5 15 6 16 7 17 8 18 13 19 9 20 11 21 14 22 10 23 12 24 20 25
REMARK SMILES IDX 21 26 22 27 23 29 24 30 25 31 83 32 26 33 82 34 27 35 28 36
REMARK SMILES IDX 29 37 76 38 30 39 81 40 75 41 77 42 31 43 80 44 74 45 73 46
REMARK SMILES IDX 32 48 62 49 43 50 61 51 44 52 47 53 60 54 78 55 45 56 46 57
REMARK SMILES IDX 59 59 79 60 48 61 33 62 34 63 42 64 35 65 41 66 36 67 37 68
REMARK SMILES IDX 38 69 39 70 40 71 63 72 64 73 72 74 65 75 71 76 66 77 67 78
REMARK SMILES IDX 68 79 69 80 70 81 49 82 50 83 58 84 51 85 57 86 52 87 53 88
REMARK SMILES IDX 54 89 55 90 56 91
REMARK H PARENT 17 6 3 14 21 28 77 47 47 58
REMARK Flexibility Score: inf
ROOT
ATOM      1  C   UNL A   1      33.811  27.975  25.931  1.00  0.00     0.042 C 
ENDROOT
BRANCH   1   2
ATOM      2  C   UNL A   1      33.640  26.499  25.617  1.00  0.00     0.117 C 
BRANCH   2   3
ATOM      3  N   UNL A   1      32.431  25.966  26.230  1.00  0.00    -0.354 N 
ATOM      4  C   UNL A   1      31.509  25.051  25.796  1.00  0.00     0.245 C 
ATOM      5  O   UNL A   1      30.674  24.714  26.640  1.00  0.00    -0.272 OA
ATOM      6  H   UNL A   1      32.242  26.331  27.124  1.00  0.00     0.163 HD
BRANCH   4   7
ATOM      7  C   UNL A   1      31.689  24.331  24.413  1.00  0.00     0.119 C 
ATOM      8  C   UNL A   1      30.570  24.940  23.561  1.00  0.00     0.046 C 
BRANCH   7   9
ATOM      9  C   UNL A   1      33.013  24.560  23.686  1.00  0.00     0.024 C 
ATOM     10  C   UNL A   1      33.405  23.668  22.526  1.00  0.00     0.007 C 
ATOM     11  C   UNL A   1      33.203  25.139  22.301  1.00  0.00     0.007 C 
ENDBRANCH   7   9
BRANCH   7  12
ATOM     12  N   UNL A   1      31.584  22.875  24.657  1.00  0.00    -0.341 N 
ATOM     13  C   UNL A   1      32.181  21.961  25.467  1.00  0.00     0.225 C 
ATOM     14  H   UNL A   1      30.905  22.458  24.079  1.00  0.00     0.164 HD
ATOM     15  O   UNL A   1      31.717  20.818  25.435  1.00  0.00    -0.275 OA
BRANCH  13  16
ATOM     16  C   UNL A   1      33.359  22.289  26.375  1.00  0.00     0.138 C 
BRANCH  16  17
ATOM     17  C   UNL A   1      34.712  22.006  25.763  1.00  0.00     0.000 A 
ATOM     18  C   UNL A   1      34.997  20.740  25.223  1.00  0.00     0.007 A 
ATOM     19  C   UNL A   1      35.733  22.961  25.765  1.00  0.00     0.162 A 
ATOM     20  C   UNL A   1      36.307  20.379  24.896  1.00  0.00     0.004 A 
ATOM     21  C   UNL A   1      37.028  22.616  25.388  1.00  0.00     0.159 A 
ATOM     22  F   UNL A   1      35.475  24.217  26.152  1.00  0.00    -0.203 F 
ATOM     23  C   UNL A   1      37.331  21.316  25.000  1.00  0.00     0.042 A 
ATOM     24  F   UNL A   1      38.008  23.529  25.425  1.00  0.00    -0.204 F 
ENDBRANCH  16  17
ENDBRANCH  13  16
ENDBRANCH   7  12
ENDBRANCH   4   7
ENDBRANCH   2   3
ENDBRANCH   1   2
BRANCH   1  25
ATOM     25  C   UNL A   1      33.429  28.333  27.360  1.00  0.00     0.118 C 
BRANCH  25  26
ATOM     26  N   UNL A   1      33.370  29.770  27.587  1.00  0.00    -0.352 N 
ATOM     27  C   UNL A   1      34.335  30.609  28.094  1.00  0.00     0.251 C 
ATOM     28  H   UNL A   1      32.519  30.202  27.343  1.00  0.00     0.163 HD
ATOM     29  O   UNL A   1      34.052  31.769  28.366  1.00  0.00    -0.269 OA
BRANCH  27  30
ATOM     30  C   UNL A   1      35.700  30.091  28.330  1.00  0.00     0.039 A 
ATOM     31  C   UNL A   1      36.620  30.116  27.280  1.00  0.00     0.014 A 
ATOM     32  C   UNL A   1      36.078  29.610  29.586  1.00  0.00     0.014 A 
ATOM     33  C   UNL A   1      37.937  29.717  27.514  1.00  0.00     0.010 A 
ATOM     34  C   UNL A   1      37.412  29.314  29.841  1.00  0.00     0.010 A 
ATOM     35  C   UNL A   1      38.356  29.354  28.806  1.00  0.00    -0.014 A 
BRANCH  35  36
ATOM     36  C   UNL A   1      39.779  29.025  29.080  1.00  0.00     0.031 A 
ATOM     37  C   UNL A   1      40.689  30.036  29.725  1.00  0.00     0.074 A 
ATOM     38  C   UNL A   1      40.259  27.820  28.711  1.00  0.00     0.049 A 
ATOM     39  N   UNL A   1      41.946  29.911  30.067  1.00  0.00    -0.248 NA
ATOM     40  C   UNL A   1      40.126  31.369  29.999  1.00  0.00     0.031 C 
ATOM     41  C   UNL A   1      39.495  26.778  28.017  1.00  0.00     0.029 A 
ATOM     42  N   UNL A   1      41.501  27.260  28.878  1.00  0.00    -0.354 N 
ATOM     43  C   UNL A   1      42.323  31.144  30.585  1.00  0.00     0.074 A 
ATOM     44  C   UNL A   1      41.184  32.024  30.454  1.00  0.00     0.031 C 
ATOM     45  C   UNL A   1      40.268  25.692  27.866  1.00  0.00     0.029 A 
ATOM     46  C   UNL A   1      41.592  25.969  28.413  1.00  0.00     0.049 A 
ATOM     47  H   UNL A   1      42.256  27.739  29.291  1.00  0.00     0.167 HD
ATOM     48  C   UNL A   1      43.502  31.507  31.145  1.00  0.00     0.031 A 
ATOM     49  C   UNL A   1      42.621  25.101  28.432  1.00  0.00     0.031 A 
ATOM     50  C   UNL A   1      44.633  30.625  31.277  1.00  0.00     0.049 A 
ATOM     51  C   UNL A   1      43.917  25.523  29.068  1.00  0.00     0.074 A 
ATOM     52  C   UNL A   1      45.855  30.876  31.878  1.00  0.00     0.029 A 
ATOM     53  N   UNL A   1      44.684  29.324  30.799  1.00  0.00    -0.354 N 
ATOM     54  N   UNL A   1      44.229  26.670  29.625  1.00  0.00    -0.248 NA
ATOM     55  C   UNL A   1      44.993  24.525  29.097  1.00  0.00     0.031 C 
ATOM     56  C   UNL A   1      46.664  29.748  31.711  1.00  0.00     0.029 A 
ATOM     57  C   UNL A   1      45.924  28.768  31.068  1.00  0.00     0.049 A 
ATOM     58  H   UNL A   1      43.948  28.865  30.334  1.00  0.00     0.167 HD
ATOM     59  C   UNL A   1      45.528  26.521  30.096  1.00  0.00     0.074 A 
ATOM     60  C   UNL A   1      45.932  25.165  29.779  1.00  0.00     0.031 C 
ATOM     61  C   UNL A   1      46.316  27.422  30.735  1.00  0.00     0.031 A 
BRANCH  48  62
ATOM     62  C   UNL A   1      43.629  32.921  31.654  1.00  0.00    -0.014 A 
ATOM     63  C   UNL A   1      43.982  33.977  30.792  1.00  0.00     0.010 A 
ATOM     64  C   UNL A   1      43.353  33.208  33.003  1.00  0.00     0.010 A 
ATOM     65  C   UNL A   1      44.098  35.282  31.279  1.00  0.00     0.020 A 
ATOM     66  C   UNL A   1      43.435  34.517  33.487  1.00  0.00     0.020 A 
ATOM     67  C   UNL A   1      43.823  35.544  32.624  1.00  0.00     0.054 A 
BRANCH  67  68
ATOM     68  S   UNL A   1      43.952  37.252  33.220  1.00  0.00     0.124 S 
ATOM     69  O   UNL A   1      43.947  38.008  31.969  1.00  0.00    -0.237 OA
ATOM     70  O   UNL A   1      42.755  37.394  34.044  1.00  0.00    -0.237 OA
ATOM     71  O   UNL A   1      45.216  37.271  33.951  1.00  0.00    -0.744 OA
ENDBRANCH  67  68
ENDBRANCH  48  62
BRANCH  49  72
ATOM     72  C   UNL A   1      42.456  23.736  27.858  1.00  0.00    -0.014 A 
ATOM     73  C   UNL A   1      42.078  22.656  28.673  1.00  0.00     0.010 A 
ATOM     74  C   UNL A   1      42.667  23.513  26.485  1.00  0.00     0.010 A 
ATOM     75  C   UNL A   1      41.937  21.374  28.133  1.00  0.00     0.020 A 
ATOM     76  C   UNL A   1      42.496  22.240  25.934  1.00  0.00     0.020 A 
ATOM     77  C   UNL A   1      42.144  21.175  26.766  1.00  0.00     0.054 A 
BRANCH  77  78
ATOM     78  S   UNL A   1      41.912  19.511  26.078  1.00  0.00     0.124 S 
ATOM     79  O   UNL A   1      40.474  19.481  25.835  1.00  0.00    -0.237 OA
ATOM     80  O   UNL A   1      42.756  19.543  24.887  1.00  0.00    -0.237 OA
ATOM     81  O   UNL A   1      42.385  18.631  27.145  1.00  0.00    -0.744 OA
ENDBRANCH  77  78
ENDBRANCH  49  72
BRANCH  61  82
ATOM     82  C   UNL A   1      47.683  26.954  31.166  1.00  0.00    -0.014 A 
ATOM     83  C   UNL A   1      47.874  26.257  32.374  1.00  0.00     0.010 A 
ATOM     84  C   UNL A   1      48.792  27.209  30.340  1.00  0.00     0.010 A 
ATOM     85  C   UNL A   1      49.159  25.882  32.776  1.00  0.00     0.020 A 
ATOM     86  C   UNL A   1      50.073  26.804  30.722  1.00  0.00     0.020 A 
ATOM     87  C   UNL A   1      50.252  26.165  31.950  1.00  0.00     0.054 A 
BRANCH  87  88
ATOM     88  S   UNL A   1      51.909  25.673  32.496  1.00  0.00     0.124 S 
ATOM     89  O   UNL A   1      52.765  26.473  31.624  1.00  0.00    -0.237 OA
ATOM     90  O   UNL A   1      51.911  26.060  33.906  1.00  0.00    -0.237 OA
ATOM     91  O   UNL A   1      51.942  24.233  32.252  1.00  0.00    -0.744 OA
ENDBRANCH  87  88
ENDBRANCH  61  82
ENDBRANCH  35  36
ENDBRANCH  27  30
ENDBRANCH  25  26
ENDBRANCH   1  25
TORSDOF 17
ENDMDL
MODEL 3
REMARK VINA RESULT:     -10.4      3.401      7.962
REMARK SMILES C[C@](NC(=O)Cc1cccc(F)c1F)(C(=O)NCCCNC(=O)c1ccc(-c2c3nc(c(-c4ccc(S(=O)(=O)[O-])cc4)c4ccc([nH]4)c(-c4ccc(S(=O)(=O)[O-])cc4)c4nc(c(-c5ccc(S(=O)(=O)[O-])cc5)c5ccc2[nH]5)C=C4)C=C3)cc1)C1CC1
REMARK SMILES IDX 19 1 18 2 17 3 15 4 16 5 2 7 1 8 84 9 85 10 86 11 3 12 4 13
REMARK SMILES IDX 5 15 6 16 7 17 8 18 13 19 9 20 11 21 14 22 10 23 12 24 20 25
REMARK SMILES IDX 21 26 22 27 23 29 24 30 25 31 83 32 26 33 82 34 27 35 28 36
REMARK SMILES IDX 29 37 76 38 30 39 81 40 75 41 77 42 31 43 80 44 74 45 73 46
REMARK SMILES IDX 32 48 62 49 43 50 61 51 44 52 47 53 60 54 78 55 45 56 46 57
REMARK SMILES IDX 59 59 79 60 48 61 33 62 34 63 42 64 35 65 41 66 36 67 37 68
REMARK SMILES IDX 38 69 39 70 40 71 63 72 64 73 72 74 65 75 71 76 66 77 67 78
REMARK SMILES IDX 68 79 69 80 70 81 49 82 50 83 58 84 51 85 57 86 52 87 53 88
REMARK SMILES IDX 54 89 55 90 56 91
REMARK H PARENT 17 6 3 14 21 28 77 47 47 58
REMARK Flexibility Score: inf
ROOT
ATOM      1  C   UNL A   1      38.115  20.656  24.971  1.00  0.00     0.042 C 
ENDROOT
BRANCH   1   2
ATOM      2  C   UNL A   1      36.762  21.141  25.463  1.00  0.00     0.117 C 
BRANCH   2   3
ATOM      3  N   UNL A   1      35.724  20.150  25.214  1.00  0.00    -0.354 N 
ATOM      4  C   UNL A   1      34.367  20.259  25.066  1.00  0.00     0.245 C 
ATOM      5  O   UNL A   1      33.798  19.223  24.712  1.00  0.00    -0.272 OA
ATOM      6  H   UNL A   1      36.062  19.228  25.135  1.00  0.00     0.163 HD
BRANCH   4   7
ATOM      7  C   UNL A   1      33.671  21.665  25.108  1.00  0.00     0.119 C 
ATOM      8  C   UNL A   1      32.181  21.311  25.075  1.00  0.00     0.046 C 
BRANCH   7   9
ATOM      9  C   UNL A   1      33.924  22.520  26.349  1.00  0.00     0.024 C 
ATOM     10  C   UNL A   1      32.772  22.893  27.261  1.00  0.00     0.007 C 
ATOM     11  C   UNL A   1      33.905  22.062  27.791  1.00  0.00     0.007 C 
ENDBRANCH   7   9
BRANCH   7  12
ATOM     12  N   UNL A   1      34.169  22.440  23.949  1.00  0.00    -0.341 N 
ATOM     13  C   UNL A   1      33.931  23.659  23.398  1.00  0.00     0.225 C 
ATOM     14  H   UNL A   1      34.851  21.940  23.445  1.00  0.00     0.164 HD
ATOM     15  O   UNL A   1      34.659  23.983  22.455  1.00  0.00    -0.275 OA
BRANCH  13  16
ATOM     16  C   UNL A   1      32.837  24.600  23.884  1.00  0.00     0.138 C 
BRANCH  16  17
ATOM     17  C   UNL A   1      33.336  25.958  24.324  1.00  0.00     0.000 A 
ATOM     18  C   UNL A   1      33.652  26.195  25.673  1.00  0.00     0.007 A 
ATOM     19  C   UNL A   1      33.444  27.027  23.429  1.00  0.00     0.162 A 
ATOM     20  C   UNL A   1      33.859  27.496  26.142  1.00  0.00     0.004 A 
ATOM     21  C   UNL A   1      33.703  28.315  23.890  1.00  0.00     0.159 A 
ATOM     22  F   UNL A   1      33.275  26.821  22.117  1.00  0.00    -0.203 F 
ATOM     23  C   UNL A   1      33.862  28.562  25.248  1.00  0.00     0.042 A 
ATOM     24  F   UNL A   1      33.771  29.339  23.029  1.00  0.00    -0.204 F 
ENDBRANCH  16  17
ENDBRANCH  13  16
ENDBRANCH   7  12
ENDBRANCH   4   7
ENDBRANCH   2   3
ENDBRANCH   1   2
BRANCH   1  25
ATOM     25  C   UNL A   1      39.233  20.868  25.981  1.00  0.00     0.118 C 
BRANCH  25  26
ATOM     26  N   UNL A   1      40.153  19.742  26.051  1.00  0.00    -0.352 N 
ATOM     27  C   UNL A   1      41.521  19.747  26.206  1.00  0.00     0.251 C 
ATOM     28  H   UNL A   1      39.739  18.852  25.978  1.00  0.00     0.163 HD
ATOM     29  O   UNL A   1      42.151  18.705  26.081  1.00  0.00    -0.269 OA
BRANCH  27  30
ATOM     30  C   UNL A   1      42.217  21.019  26.494  1.00  0.00     0.039 A 
ATOM     31  C   UNL A   1      42.534  21.869  25.433  1.00  0.00     0.014 A 
ATOM     32  C   UNL A   1      42.531  21.384  27.806  1.00  0.00     0.014 A 
ATOM     33  C   UNL A   1      43.106  23.113  25.698  1.00  0.00     0.010 A 
ATOM     34  C   UNL A   1      43.004  22.664  28.074  1.00  0.00     0.010 A 
ATOM     35  C   UNL A   1      43.307  23.540  27.023  1.00  0.00    -0.014 A 
BRANCH  35  36
ATOM     36  C   UNL A   1      43.823  24.903  27.312  1.00  0.00     0.031 A 
ATOM     37  C   UNL A   1      45.275  25.236  27.090  1.00  0.00     0.074 A 
ATOM     38  C   UNL A   1      42.984  25.833  27.812  1.00  0.00     0.049 A 
ATOM     39  N   UNL A   1      45.891  26.379  27.256  1.00  0.00    -0.248 NA
ATOM     40  C   UNL A   1      46.156  24.142  26.649  1.00  0.00     0.031 C 
ATOM     41  C   UNL A   1      41.571  25.614  28.135  1.00  0.00     0.029 A 
ATOM     42  N   UNL A   1      43.192  27.153  28.124  1.00  0.00    -0.354 N 
ATOM     43  C   UNL A   1      47.225  26.139  26.951  1.00  0.00     0.074 A 
ATOM     44  C   UNL A   1      47.343  24.730  26.652  1.00  0.00     0.031 C 
ATOM     45  C   UNL A   1      41.029  26.770  28.549  1.00  0.00     0.029 A 
ATOM     46  C   UNL A   1      42.061  27.802  28.560  1.00  0.00     0.049 A 
ATOM     47  H   UNL A   1      44.069  27.593  28.045  1.00  0.00     0.167 HD
ATOM     48  C   UNL A   1      48.257  27.016  26.897  1.00  0.00     0.031 A 
ATOM     49  C   UNL A   1      41.870  29.085  28.921  1.00  0.00     0.031 A 
ATOM     50  C   UNL A   1      48.133  28.420  27.192  1.00  0.00     0.049 A 
ATOM     51  C   UNL A   1      43.028  30.042  28.844  1.00  0.00     0.074 A 
ATOM     52  C   UNL A   1      49.103  29.405  27.114  1.00  0.00     0.029 A 
ATOM     53  N   UNL A   1      46.970  29.039  27.625  1.00  0.00    -0.354 N 
ATOM     54  N   UNL A   1      44.265  29.812  28.475  1.00  0.00    -0.248 NA
ATOM     55  C   UNL A   1      42.755  31.437  29.210  1.00  0.00     0.031 C 
ATOM     56  C   UNL A   1      48.541  30.607  27.556  1.00  0.00     0.029 A 
ATOM     57  C   UNL A   1      47.203  30.387  27.842  1.00  0.00     0.049 A 
ATOM     58  H   UNL A   1      46.106  28.586  27.759  1.00  0.00     0.167 HD
ATOM     59  C   UNL A   1      44.914  31.040  28.538  1.00  0.00     0.074 A 
ATOM     60  C   UNL A   1      43.923  32.012  28.957  1.00  0.00     0.031 C 
ATOM     61  C   UNL A   1      46.210  31.340  28.272  1.00  0.00     0.031 A 
BRANCH  48  62
ATOM     62  C   UNL A   1      49.611  26.479  26.506  1.00  0.00    -0.014 A 
ATOM     63  C   UNL A   1      50.445  25.851  27.450  1.00  0.00     0.010 A 
ATOM     64  C   UNL A   1      50.041  26.567  25.170  1.00  0.00     0.010 A 
ATOM     65  C   UNL A   1      51.699  25.361  27.075  1.00  0.00     0.020 A 
ATOM     66  C   UNL A   1      51.280  26.047  24.783  1.00  0.00     0.020 A 
ATOM     67  C   UNL A   1      52.108  25.462  25.742  1.00  0.00     0.054 A 
BRANCH  67  68
ATOM     68  S   UNL A   1      53.727  24.789  25.278  1.00  0.00     0.124 S 
ATOM     69  O   UNL A   1      54.051  25.577  24.090  1.00  0.00    -0.237 OA
ATOM     70  O   UNL A   1      54.541  25.071  26.459  1.00  0.00    -0.237 OA
ATOM     71  O   UNL A   1      53.460  23.375  25.032  1.00  0.00    -0.744 OA
ENDBRANCH  67  68
ENDBRANCH  48  62
BRANCH  49  72
ATOM     72  C   UNL A   1      40.521  29.544  29.358  1.00  0.00    -0.014 A 
ATOM     73  C   UNL A   1      40.270  29.853  30.706  1.00  0.00     0.010 A 
ATOM     74  C   UNL A   1      39.482  29.686  28.420  1.00  0.00     0.010 A 
ATOM     75  C   UNL A   1      38.999  30.270  31.113  1.00  0.00     0.020 A 
ATOM     76  C   UNL A   1      38.218  30.134  28.818  1.00  0.00     0.020 A 
ATOM     77  C   UNL A   1      37.982  30.411  30.166  1.00  0.00     0.054 A 
BRANCH  77  78
ATOM     78  S   UNL A   1      36.353  30.997  30.710  1.00  0.00     0.124 S 
ATOM     79  O   UNL A   1      36.674  32.301  31.279  1.00  0.00    -0.237 OA
ATOM     80  O   UNL A   1      35.594  31.018  29.463  1.00  0.00    -0.237 OA
ATOM     81  O   UNL A   1      35.929  29.982  31.673  1.00  0.00    -0.744 OA
ENDBRANCH  77  78
ENDBRANCH  49  72
BRANCH  61  82
ATOM     82  C   UNL A   1      46.618  32.785  28.391  1.00  0.00    -0.014 A 
ATOM     83  C   UNL A   1      46.513  33.671  27.303  1.00  0.00     0.010 A 
ATOM     84  C   UNL A   1      47.108  33.266  29.619  1.00  0.00     0.010 A 
ATOM     85  C   UNL A   1      46.949  34.993  27.425  1.00  0.00     0.020 A 
ATOM     86  C   UNL A   1      47.512  34.596  29.754  1.00  0.00     0.020 A 
ATOM     87  C   UNL A   1      47.453  35.445  28.648  1.00  0.00     0.054 A 
BRANCH  87  88
ATOM     88  S   UNL A   1      48.018  37.163  28.780  1.00  0.00     0.124 S 
ATOM     89  O   UNL A   1      49.220  37.151  27.951  1.00  0.00    -0.237 OA
ATOM     90  O   UNL A   1      46.888  37.915  28.237  1.00  0.00    -0.237 OA
ATOM     91  O   UNL A   1      48.249  37.344  30.211  1.00  0.00    -0.744 OA
ENDBRANCH  87  88
ENDBRANCH  61  82
ENDBRANCH  35  36
ENDBRANCH  27  30
ENDBRANCH  25  26
ENDBRANCH   1  25
TORSDOF 17
ENDMDL
