MODEL 1
REMARK VINA RESULT:     -11.4      0.000      0.000
REMARK SMILES NS(=O)(=O)c1ccc(N2N=C(C(=O)NCCCNC(=O)c3ccc(-c4c5nc(c(-c6ccc(S(=O)(=O)[O-])cc6)c6ccc([nH]6)c(-c6ccc(S(=O)(=O)[O-])cc6)c6nc(c(-c7ccc(S(=O)(=O)[O-])cc7)c7ccc4[nH]7)C=C6)C=C5)cc3)C[C@H]2c2cccs2)cc1
REMARK SMILES IDX 16 1 15 2 14 3 12 4 13 5 11 7 9 8 10 9 82 10 81 11 8 12 5 13
REMARK SMILES IDX 6 14 89 15 7 16 88 17 2 18 3 19 4 20 1 21 83 24 84 25 87 26
REMARK SMILES IDX 85 27 86 28 17 29 18 30 19 31 20 33 21 34 22 35 80 36 23 37
REMARK SMILES IDX 79 38 24 39 25 40 26 41 73 42 27 43 78 44 72 45 74 46 28 47
REMARK SMILES IDX 77 48 71 49 70 50 29 52 59 53 40 54 58 55 41 56 44 57 57 58
REMARK SMILES IDX 75 59 42 60 43 61 56 63 76 64 45 65 30 66 31 67 39 68 32 69
REMARK SMILES IDX 38 70 33 71 34 72 35 73 36 74 37 75 60 76 61 77 69 78 62 79
REMARK SMILES IDX 68 80 63 81 64 82 65 83 66 84 67 85 46 86 47 87 55 88 48 89
REMARK SMILES IDX 54 90 49 91 50 92 51 93 52 94 53 95
REMARK H PARENT 14 6 1 22 1 23 18 32 74 51 44 62
REMARK Flexibility Score: inf
ROOT
ATOM      1  C   UNL A   1      32.841  27.702  25.713  1.00  0.00     0.042 C 
ENDROOT
BRANCH   1   2
ATOM      2  C   UNL A   1      31.836  26.565  25.874  1.00  0.00     0.118 C 
BRANCH   2   3
ATOM      3  N   UNL A   1      31.209  26.239  24.610  1.00  0.00    -0.351 N 
ATOM      4  C   UNL A   1      31.485  25.362  23.596  1.00  0.00     0.267 C 
ATOM      5  O   UNL A   1      30.772  25.421  22.596  1.00  0.00    -0.268 OA
ATOM      6  H   UNL A   1      30.399  26.771  24.440  1.00  0.00     0.163 HD
BRANCH   4   7
ATOM      7  C   UNL A   1      32.570  24.296  23.641  1.00  0.00     0.128 C 
ATOM      8  N   UNL A   1      33.467  22.423  24.144  1.00  0.00    -0.256 N 
ATOM      9  N   UNL A   1      32.316  23.141  24.184  1.00  0.00    -0.171 NA
ATOM     10  C   UNL A   1      34.582  23.136  23.522  1.00  0.00     0.154 C 
ATOM     11  C   UNL A   1      33.910  24.408  22.985  1.00  0.00     0.097 C 
BRANCH   8  12
ATOM     12  C   UNL A   1      33.456  21.032  24.193  1.00  0.00     0.060 A 
ATOM     13  C   UNL A   1      33.558  18.226  24.188  1.00  0.00     0.082 A 
ATOM     14  C   UNL A   1      32.531  18.883  23.506  1.00  0.00     0.024 A 
ATOM     15  C   UNL A   1      34.510  18.951  24.902  1.00  0.00     0.024 A 
ATOM     16  C   UNL A   1      32.478  20.282  23.526  1.00  0.00     0.029 A 
ATOM     17  C   UNL A   1      34.457  20.345  24.894  1.00  0.00     0.029 A 
BRANCH  13  18
ATOM     18  S   UNL A   1      33.666  16.465  24.195  1.00  0.00     0.238 S 
ATOM     19  O   UNL A   1      34.123  16.021  22.894  1.00  0.00    -0.207 OA
ATOM     20  O   UNL A   1      32.482  15.935  24.822  1.00  0.00    -0.207 OA
BRANCH  18  21
ATOM     21  N   UNL A   1      34.939  16.130  25.238  1.00  0.00    -0.225 NA
ATOM     22  H   UNL A   1      34.580  15.670  26.075  1.00  0.00     0.137 HD
ATOM     23  H   UNL A   1      35.402  16.999  25.499  1.00  0.00     0.137 HD
ENDBRANCH  18  21
ENDBRANCH  13  18
ENDBRANCH   8  12
BRANCH  10  24
ATOM     24  C   UNL A   1      35.762  23.400  24.441  1.00  0.00     0.030 A 
ATOM     25  C   UNL A   1      37.063  22.953  24.275  1.00  0.00     0.017 A 
ATOM     26  S   UNL A   1      35.596  24.258  25.922  1.00  0.00    -0.147 S 
ATOM     27  C   UNL A   1      37.918  23.338  25.345  1.00  0.00     0.012 A 
ATOM     28  C   UNL A   1      37.254  24.082  26.293  1.00  0.00     0.065 A 
ENDBRANCH  10  24
ENDBRANCH   4   7
ENDBRANCH   2   3
ENDBRANCH   1   2
BRANCH   1  29
ATOM     29  C   UNL A   1      33.475  28.124  27.038  1.00  0.00     0.118 C 
BRANCH  29  30
ATOM     30  N   UNL A   1      33.423  29.568  27.225  1.00  0.00    -0.352 N 
ATOM     31  C   UNL A   1      34.317  30.423  27.818  1.00  0.00     0.251 C 
ATOM     32  H   UNL A   1      32.614  30.001  26.868  1.00  0.00     0.163 HD
ATOM     33  O   UNL A   1      33.952  31.561  28.099  1.00  0.00    -0.269 OA
BRANCH  31  34
ATOM     34  C   UNL A   1      35.702  29.994  28.110  1.00  0.00     0.039 A 
ATOM     35  C   UNL A   1      36.006  29.536  29.397  1.00  0.00     0.014 A 
ATOM     36  C   UNL A   1      36.715  30.110  27.155  1.00  0.00     0.014 A 
ATOM     37  C   UNL A   1      37.317  29.174  29.713  1.00  0.00     0.010 A 
ATOM     38  C   UNL A   1      38.001  29.665  27.444  1.00  0.00     0.010 A 
ATOM     39  C   UNL A   1      38.323  29.222  28.735  1.00  0.00    -0.014 A 
BRANCH  39  40
ATOM     40  C   UNL A   1      39.728  28.871  29.060  1.00  0.00     0.031 A 
ATOM     41  C   UNL A   1      40.613  29.880  29.746  1.00  0.00     0.074 A 
ATOM     42  C   UNL A   1      40.219  27.670  28.701  1.00  0.00     0.049 A 
ATOM     43  N   UNL A   1      41.875  29.780  30.079  1.00  0.00    -0.248 NA
ATOM     44  C   UNL A   1      40.012  31.185  30.072  1.00  0.00     0.031 C 
ATOM     45  C   UNL A   1      39.476  26.627  27.989  1.00  0.00     0.029 A 
ATOM     46  N   UNL A   1      41.463  27.122  28.889  1.00  0.00    -0.354 N 
ATOM     47  C   UNL A   1      42.221  31.010  30.627  1.00  0.00     0.074 A 
ATOM     48  C   UNL A   1      41.054  31.859  30.532  1.00  0.00     0.031 C 
ATOM     49  C   UNL A   1      40.268  25.555  27.830  1.00  0.00     0.029 A 
ATOM     50  C   UNL A   1      41.580  25.842  28.401  1.00  0.00     0.049 A 
ATOM     51  H   UNL A   1      42.201  27.600  29.331  1.00  0.00     0.167 HD
ATOM     52  C   UNL A   1      43.395  31.395  31.182  1.00  0.00     0.031 A 
ATOM     53  C   UNL A   1      42.625  24.994  28.419  1.00  0.00     0.031 A 
ATOM     54  C   UNL A   1      44.543  30.538  31.304  1.00  0.00     0.049 A 
ATOM     55  C   UNL A   1      43.905  25.426  29.081  1.00  0.00     0.074 A 
ATOM     56  C   UNL A   1      45.763  30.808  31.898  1.00  0.00     0.029 A 
ATOM     57  N   UNL A   1      44.608  29.235  30.833  1.00  0.00    -0.354 N 
ATOM     58  N   UNL A   1      44.196  26.577  29.640  1.00  0.00    -0.248 NA
ATOM     59  C   UNL A   1      44.988  24.435  29.135  1.00  0.00     0.031 C 
ATOM     60  C   UNL A   1      46.577  29.679  31.757  1.00  0.00     0.029 A 
ATOM     61  C   UNL A   1      45.847  28.689  31.118  1.00  0.00     0.049 A 
ATOM     62  H   UNL A   1      43.878  28.767  30.364  1.00  0.00     0.167 HD
ATOM     63  C   UNL A   1      45.485  26.438  30.140  1.00  0.00     0.074 A 
ATOM     64  C   UNL A   1      45.910  25.087  29.828  1.00  0.00     0.031 C 
ATOM     65  C   UNL A   1      46.249  27.344  30.801  1.00  0.00     0.031 A 
BRANCH  52  66
ATOM     66  C   UNL A   1      43.486  32.806  31.701  1.00  0.00    -0.014 A 
ATOM     67  C   UNL A   1      43.914  33.859  30.872  1.00  0.00     0.010 A 
ATOM     68  C   UNL A   1      43.125  33.089  33.031  1.00  0.00     0.010 A 
ATOM     69  C   UNL A   1      44.028  35.157  31.376  1.00  0.00     0.020 A 
ATOM     70  C   UNL A   1      43.209  34.392  33.531  1.00  0.00     0.020 A 
ATOM     71  C   UNL A   1      43.680  35.415  32.705  1.00  0.00     0.054 A 
BRANCH  71  72
ATOM     72  S   UNL A   1      43.827  37.110  33.331  1.00  0.00     0.124 S 
ATOM     73  O   UNL A   1      43.828  37.887  32.095  1.00  0.00    -0.237 OA
ATOM     74  O   UNL A   1      42.632  37.252  34.160  1.00  0.00    -0.237 OA
ATOM     75  O   UNL A   1      45.091  37.101  34.063  1.00  0.00    -0.744 OA
ENDBRANCH  71  72
ENDBRANCH  52  66
BRANCH  53  76
ATOM     76  C   UNL A   1      42.488  23.635  27.831  1.00  0.00    -0.014 A 
ATOM     77  C   UNL A   1      42.915  23.384  26.514  1.00  0.00     0.010 A 
ATOM     78  C   UNL A   1      41.950  22.580  28.588  1.00  0.00     0.010 A 
ATOM     79  C   UNL A   1      42.787  22.107  25.959  1.00  0.00     0.020 A 
ATOM     80  C   UNL A   1      41.843  21.296  28.046  1.00  0.00     0.020 A 
ATOM     81  C   UNL A   1      42.252  21.071  26.729  1.00  0.00     0.054 A 
BRANCH  81  82
ATOM     82  S   UNL A   1      42.144  19.409  26.009  1.00  0.00     0.124 S 
ATOM     83  O   UNL A   1      42.722  18.584  27.064  1.00  0.00    -0.237 OA
ATOM     84  O   UNL A   1      40.708  19.249  25.794  1.00  0.00    -0.237 OA
ATOM     85  O   UNL A   1      42.939  19.516  24.787  1.00  0.00    -0.744 OA
ENDBRANCH  81  82
ENDBRANCH  53  76
BRANCH  65  86
ATOM     86  C   UNL A   1      47.603  26.886  31.269  1.00  0.00    -0.014 A 
ATOM     87  C   UNL A   1      48.753  27.089  30.486  1.00  0.00     0.010 A 
ATOM     88  C   UNL A   1      47.726  26.267  32.526  1.00  0.00     0.010 A 
ATOM     89  C   UNL A   1      49.997  26.635  30.933  1.00  0.00     0.020 A 
ATOM     90  C   UNL A   1      48.972  25.838  32.988  1.00  0.00     0.020 A 
ATOM     91  C   UNL A   1      50.097  26.006  32.179  1.00  0.00     0.054 A 
BRANCH  91  92
ATOM     92  S   UNL A   1      51.723  25.440  32.747  1.00  0.00     0.124 S 
ATOM     93  O   UNL A   1      51.387  24.194  33.432  1.00  0.00    -0.237 OA
ATOM     94  O   UNL A   1      52.468  25.289  31.499  1.00  0.00    -0.237 OA
ATOM     95  O   UNL A   1      52.183  26.523  33.612  1.00  0.00    -0.744 OA
ENDBRANCH  91  92
ENDBRANCH  65  86
ENDBRANCH  39  40
ENDBRANCH  31  34
ENDBRANCH  29  30
ENDBRANCH   1  29
TORSDOF 17
ENDMDL
MODEL 2
REMARK VINA RESULT:     -11.1      4.391      8.299
REMARK SMILES NS(=O)(=O)c1ccc(N2N=C(C(=O)NCCCNC(=O)c3ccc(-c4c5nc(c(-c6ccc(S(=O)(=O)[O-])cc6)c6ccc([nH]6)c(-c6ccc(S(=O)(=O)[O-])cc6)c6nc(c(-c7ccc(S(=O)(=O)[O-])cc7)c7ccc4[nH]7)C=C6)C=C5)cc3)C[C@H]2c2cccs2)cc1
REMARK SMILES IDX 16 1 15 2 14 3 12 4 13 5 11 7 9 8 10 9 82 10 81 11 8 12 5 13
REMARK SMILES IDX 6 14 89 15 7 16 88 17 2 18 3 19 4 20 1 21 83 24 84 25 87 26
REMARK SMILES IDX 85 27 86 28 17 29 18 30 19 31 20 33 21 34 22 35 80 36 23 37
REMARK SMILES IDX 79 38 24 39 25 40 26 41 73 42 27 43 78 44 72 45 74 46 28 47
REMARK SMILES IDX 77 48 71 49 70 50 29 52 59 53 40 54 58 55 41 56 44 57 57 58
REMARK SMILES IDX 75 59 42 60 43 61 56 63 76 64 45 65 30 66 31 67 39 68 32 69
REMARK SMILES IDX 38 70 33 71 34 72 35 73 36 74 37 75 60 76 61 77 69 78 62 79
REMARK SMILES IDX 68 80 63 81 64 82 65 83 66 84 67 85 46 86 47 87 55 88 48 89
REMARK SMILES IDX 54 90 49 91 50 92 51 93 52 94 53 95
REMARK H PARENT 14 6 1 22 1 23 18 32 74 51 44 62
REMARK Flexibility Score: inf
ROOT
ATOM      1  C   UNL A   1      34.755  32.392  30.518  1.00  0.00     0.042 C 
ENDROOT
BRANCH   1   2
ATOM      2  C   UNL A   1      35.169  33.705  31.174  1.00  0.00     0.118 C 
BRANCH   2   3
ATOM      3  N   UNL A   1      34.878  33.695  32.593  1.00  0.00    -0.351 N 
ATOM      4  C   UNL A   1      35.627  33.534  33.728  1.00  0.00     0.267 C 
ATOM      5  O   UNL A   1      35.019  33.483  34.796  1.00  0.00    -0.268 OA
ATOM      6  H   UNL A   1      33.924  33.834  32.786  1.00  0.00     0.163 HD
BRANCH   4   7
ATOM      7  C   UNL A   1      37.146  33.464  33.765  1.00  0.00     0.128 C 
ATOM      8  N   UNL A   1      39.067  32.572  34.048  1.00  0.00    -0.256 N 
ATOM      9  N   UNL A   1      37.733  32.328  34.011  1.00  0.00    -0.171 NA
ATOM     10  C   UNL A   1      39.416  33.970  33.802  1.00  0.00     0.154 C 
ATOM     11  C   UNL A   1      38.066  34.589  33.410  1.00  0.00     0.097 C 
BRANCH   8  12
ATOM     12  C   UNL A   1      39.995  31.561  33.818  1.00  0.00     0.060 A 
ATOM     13  C   UNL A   1      41.804  29.440  33.479  1.00  0.00     0.082 A 
ATOM     14  C   UNL A   1      42.245  30.645  34.033  1.00  0.00     0.024 A 
ATOM     15  C   UNL A   1      40.483  29.296  33.059  1.00  0.00     0.024 A 
ATOM     16  C   UNL A   1      41.341  31.703  34.184  1.00  0.00     0.029 A 
ATOM     17  C   UNL A   1      39.589  30.351  33.238  1.00  0.00     0.029 A 
BRANCH  13  18
ATOM     18  S   UNL A   1      42.906  28.078  33.265  1.00  0.00     0.238 S 
ATOM     19  O   UNL A   1      42.380  26.936  33.983  1.00  0.00    -0.207 OA
ATOM     20  O   UNL A   1      44.257  28.549  33.441  1.00  0.00    -0.207 OA
BRANCH  18  21
ATOM     21  N   UNL A   1      42.758  27.674  31.642  1.00  0.00    -0.225 NA
ATOM     22  H   UNL A   1      41.905  28.086  31.265  1.00  0.00     0.137 HD
ATOM     23  H   UNL A   1      42.717  26.660  31.547  1.00  0.00     0.137 HD
ENDBRANCH  18  21
ENDBRANCH  13  18
ENDBRANCH   8  12
BRANCH  10  24
ATOM     24  C   UNL A   1      40.103  34.670  34.961  1.00  0.00     0.030 A 
ATOM     25  C   UNL A   1      41.263  35.426  34.907  1.00  0.00     0.017 A 
ATOM     26  S   UNL A   1      39.543  34.528  36.580  1.00  0.00    -0.147 S 
ATOM     27  C   UNL A   1      41.670  35.904  36.185  1.00  0.00     0.012 A 
ATOM     28  C   UNL A   1      40.801  35.515  37.179  1.00  0.00     0.065 A 
ENDBRANCH  10  24
ENDBRANCH   4   7
ENDBRANCH   2   3
ENDBRANCH   1   2
BRANCH   1  29
ATOM     29  C   UNL A   1      34.564  32.520  29.008  1.00  0.00     0.118 C 
BRANCH  29  30
ATOM     30  N   UNL A   1      34.000  31.306  28.430  1.00  0.00    -0.352 N 
ATOM     31  C   UNL A   1      34.614  30.181  27.942  1.00  0.00     0.251 C 
ATOM     32  H   UNL A   1      33.016  31.292  28.383  1.00  0.00     0.163 HD
ATOM     33  O   UNL A   1      33.958  29.395  27.263  1.00  0.00    -0.269 OA
BRANCH  31  34
ATOM     34  C   UNL A   1      36.039  29.906  28.228  1.00  0.00     0.039 A 
ATOM     35  C   UNL A   1      36.979  30.103  27.212  1.00  0.00     0.014 A 
ATOM     36  C   UNL A   1      36.444  29.386  29.460  1.00  0.00     0.014 A 
ATOM     37  C   UNL A   1      38.323  29.802  27.441  1.00  0.00     0.010 A 
ATOM     38  C   UNL A   1      37.795  29.172  29.716  1.00  0.00     0.010 A 
ATOM     39  C   UNL A   1      38.744  29.347  28.700  1.00  0.00    -0.014 A 
BRANCH  39  40
ATOM     40  C   UNL A   1      40.163  28.991  28.953  1.00  0.00     0.031 A 
ATOM     41  C   UNL A   1      41.098  30.014  29.546  1.00  0.00     0.074 A 
ATOM     42  C   UNL A   1      40.620  27.771  28.611  1.00  0.00     0.049 A 
ATOM     43  N   UNL A   1      42.376  29.911  29.806  1.00  0.00    -0.248 NA
ATOM     44  C   UNL A   1      40.530  31.337  29.858  1.00  0.00     0.031 C 
ATOM     45  C   UNL A   1      39.824  26.712  27.985  1.00  0.00     0.029 A 
ATOM     46  N   UNL A   1      41.867  27.216  28.744  1.00  0.00    -0.354 N 
ATOM     47  C   UNL A   1      42.767  31.156  30.285  1.00  0.00     0.074 A 
ATOM     48  C   UNL A   1      41.605  32.015  30.228  1.00  0.00     0.031 C 
ATOM     49  C   UNL A   1      40.595  25.625  27.819  1.00  0.00     0.029 A 
ATOM     50  C   UNL A   1      41.942  25.918  28.298  1.00  0.00     0.049 A 
ATOM     51  H   UNL A   1      42.635  27.701  29.123  1.00  0.00     0.167 HD
ATOM     52  C   UNL A   1      43.977  31.548  30.754  1.00  0.00     0.031 A 
ATOM     53  C   UNL A   1      42.978  25.058  28.285  1.00  0.00     0.031 A 
ATOM     54  C   UNL A   1      45.121  30.681  30.839  1.00  0.00     0.049 A 
ATOM     55  C   UNL A   1      44.299  25.499  28.852  1.00  0.00     0.074 A 
ATOM     56  C   UNL A   1      46.378  30.959  31.348  1.00  0.00     0.029 A 
ATOM     57  N   UNL A   1      45.145  29.362  30.414  1.00  0.00    -0.354 N 
ATOM     58  N   UNL A   1      44.635  26.666  29.349  1.00  0.00    -0.248 NA
ATOM     59  C   UNL A   1      45.374  24.497  28.879  1.00  0.00     0.031 C 
ATOM     60  C   UNL A   1      47.171  29.815  31.201  1.00  0.00     0.029 A 
ATOM     61  C   UNL A   1      46.393  28.811  30.645  1.00  0.00     0.049 A 
ATOM     62  H   UNL A   1      44.383  28.885  30.008  1.00  0.00     0.167 HD
ATOM     63  C   UNL A   1      45.950  26.530  29.776  1.00  0.00     0.074 A 
ATOM     64  C   UNL A   1      46.343  25.164  29.490  1.00  0.00     0.031 C 
ATOM     65  C   UNL A   1      46.761  27.450  30.355  1.00  0.00     0.031 A 
BRANCH  52  66
ATOM     66  C   UNL A   1      44.113  32.975  31.213  1.00  0.00    -0.014 A 
ATOM     67  C   UNL A   1      44.266  34.024  30.289  1.00  0.00     0.010 A 
ATOM     68  C   UNL A   1      44.071  33.277  32.587  1.00  0.00     0.010 A 
ATOM     69  C   UNL A   1      44.427  35.341  30.729  1.00  0.00     0.020 A 
ATOM     70  C   UNL A   1      44.202  34.597  33.031  1.00  0.00     0.020 A 
ATOM     71  C   UNL A   1      44.400  35.618  32.098  1.00  0.00     0.054 A 
BRANCH  71  72
ATOM     72  S   UNL A   1      44.600  37.336  32.644  1.00  0.00     0.124 S 
ATOM     73  O   UNL A   1      45.857  37.270  33.385  1.00  0.00    -0.237 OA
ATOM     74  O   UNL A   1      44.654  38.070  31.382  1.00  0.00    -0.237 OA
ATOM     75  O   UNL A   1      43.411  37.583  33.454  1.00  0.00    -0.744 OA
ENDBRANCH  71  72
ENDBRANCH  52  66
BRANCH  53  76
ATOM     76  C   UNL A   1      42.792  23.680  27.758  1.00  0.00    -0.014 A 
ATOM     77  C   UNL A   1      42.172  22.695  28.547  1.00  0.00     0.010 A 
ATOM     78  C   UNL A   1      43.214  23.350  26.458  1.00  0.00     0.010 A 
ATOM     79  C   UNL A   1      41.997  21.398  28.054  1.00  0.00     0.020 A 
ATOM     80  C   UNL A   1      43.018  22.062  25.951  1.00  0.00     0.020 A 
ATOM     81  C   UNL A   1      42.421  21.091  26.758  1.00  0.00     0.054 A 
BRANCH  81  82
ATOM     82  S   UNL A   1      42.135  19.418  26.116  1.00  0.00     0.124 S 
ATOM     83  O   UNL A   1      40.684  19.395  25.964  1.00  0.00    -0.237 OA
ATOM     84  O   UNL A   1      42.902  19.419  24.873  1.00  0.00    -0.237 OA
ATOM     85  O   UNL A   1      42.670  18.554  27.167  1.00  0.00    -0.744 OA
ENDBRANCH  81  82
ENDBRANCH  53  76
BRANCH  65  86
ATOM     86  C   UNL A   1      48.137  26.994  30.757  1.00  0.00    -0.014 A 
ATOM     87  C   UNL A   1      49.251  27.213  29.928  1.00  0.00     0.010 A 
ATOM     88  C   UNL A   1      48.318  26.359  32.000  1.00  0.00     0.010 A 
ATOM     89  C   UNL A   1      50.515  26.761  30.315  1.00  0.00     0.020 A 
ATOM     90  C   UNL A   1      49.584  25.930  32.402  1.00  0.00     0.020 A 
ATOM     91  C   UNL A   1      50.673  26.116  31.546  1.00  0.00     0.054 A 
BRANCH  91  92
ATOM     92  S   UNL A   1      52.325  25.551  32.036  1.00  0.00     0.124 S 
ATOM     93  O   UNL A   1      53.110  25.839  30.838  1.00  0.00    -0.237 OA
ATOM     94  O   UNL A   1      52.622  26.387  33.197  1.00  0.00    -0.237 OA
ATOM     95  O   UNL A   1      52.131  24.133  32.331  1.00  0.00    -0.744 OA
ENDBRANCH  91  92
ENDBRANCH  65  86
ENDBRANCH  39  40
ENDBRANCH  31  34
ENDBRANCH  29  30
ENDBRANCH   1  29
TORSDOF 17
ENDMDL
MODEL 3
REMARK VINA RESULT:     -10.9      3.805      9.976
REMARK SMILES NS(=O)(=O)c1ccc(N2N=C(C(=O)NCCCNC(=O)c3ccc(-c4c5nc(c(-c6ccc(S(=O)(=O)[O-])cc6)c6ccc([nH]6)c(-c6ccc(S(=O)(=O)[O-])cc6)c6nc(c(-c7ccc(S(=O)(=O)[O-])cc7)c7ccc4[nH]7)C=C6)C=C5)cc3)C[C@H]2c2cccs2)cc1
REMARK SMILES IDX 16 1 15 2 14 3 12 4 13 5 11 7 9 8 10 9 82 10 81 11 8 12 5 13
REMARK SMILES IDX 6 14 89 15 7 16 88 17 2 18 3 19 4 20 1 21 83 24 84 25 87 26
REMARK SMILES IDX 85 27 86 28 17 29 18 30 19 31 20 33 21 34 22 35 80 36 23 37
REMARK SMILES IDX 79 38 24 39 25 40 26 41 73 42 27 43 78 44 72 45 74 46 28 47
REMARK SMILES IDX 77 48 71 49 70 50 29 52 59 53 40 54 58 55 41 56 44 57 57 58
REMARK SMILES IDX 75 59 42 60 43 61 56 63 76 64 45 65 30 66 31 67 39 68 32 69
REMARK SMILES IDX 38 70 33 71 34 72 35 73 36 74 37 75 60 76 61 77 69 78 62 79
REMARK SMILES IDX 68 80 63 81 64 82 65 83 66 84 67 85 46 86 47 87 55 88 48 89
REMARK SMILES IDX 54 90 49 91 50 92 51 93 52 94 53 95
REMARK H PARENT 14 6 1 22 1 23 18 32 74 51 44 62
REMARK Flexibility Score: inf
ROOT
ATOM      1  C   UNL A   1      35.325  23.380  25.398  1.00  0.00     0.042 C 
ENDROOT
BRANCH   1   2
ATOM      2  C   UNL A   1      34.450  23.056  26.605  1.00  0.00     0.118 C 
BRANCH   2   3
ATOM      3  N   UNL A   1      33.099  22.729  26.197  1.00  0.00    -0.351 N 
ATOM      4  C   UNL A   1      32.030  23.451  25.738  1.00  0.00     0.267 C 
ATOM      5  O   UNL A   1      30.973  22.844  25.576  1.00  0.00    -0.268 OA
ATOM      6  H   UNL A   1      32.904  21.767  26.267  1.00  0.00     0.163 HD
BRANCH   4   7
ATOM      7  C   UNL A   1      32.072  24.926  25.370  1.00  0.00     0.128 C 
ATOM      8  N   UNL A   1      32.134  27.036  25.706  1.00  0.00    -0.256 N 
ATOM      9  N   UNL A   1      32.192  25.821  26.308  1.00  0.00    -0.171 NA
ATOM     10  C   UNL A   1      31.973  26.965  24.254  1.00  0.00     0.154 C 
ATOM     11  C   UNL A   1      32.116  25.462  23.973  1.00  0.00     0.097 C 
BRANCH   8  12
ATOM     12  C   UNL A   1      32.685  28.167  26.301  1.00  0.00     0.060 A 
ATOM     13  C   UNL A   1      33.777  30.526  27.363  1.00  0.00     0.082 A 
ATOM     14  C   UNL A   1      34.615  29.451  27.058  1.00  0.00     0.024 A 
ATOM     15  C   UNL A   1      32.399  30.423  27.179  1.00  0.00     0.024 A 
ATOM     16  C   UNL A   1      34.061  28.272  26.544  1.00  0.00     0.029 A 
ATOM     17  C   UNL A   1      31.865  29.251  26.645  1.00  0.00     0.029 A 
BRANCH  13  18
ATOM     18  S   UNL A   1      34.426  32.031  28.015  1.00  0.00     0.238 S 
ATOM     19  O   UNL A   1      33.419  33.065  27.893  1.00  0.00    -0.207 OA
ATOM     20  O   UNL A   1      35.772  32.200  27.527  1.00  0.00    -0.207 OA
BRANCH  18  21
ATOM     21  N   UNL A   1      34.558  31.749  29.665  1.00  0.00    -0.225 NA
ATOM     22  H   UNL A   1      34.885  30.795  29.821  1.00  0.00     0.137 HD
ATOM     23  H   UNL A   1      33.647  31.872  30.104  1.00  0.00     0.137 HD
ENDBRANCH  18  21
ENDBRANCH  13  18
ENDBRANCH   8  12
BRANCH  10  24
ATOM     24  C   UNL A   1      30.686  27.573  23.725  1.00  0.00     0.030 A 
ATOM     25  C   UNL A   1      29.408  27.054  23.850  1.00  0.00     0.017 A 
ATOM     26  S   UNL A   1      30.671  29.011  22.782  1.00  0.00    -0.147 S 
ATOM     27  C   UNL A   1      28.424  27.849  23.196  1.00  0.00     0.012 A 
ATOM     28  C   UNL A   1      28.974  28.963  22.603  1.00  0.00     0.065 A 
ENDBRANCH  10  24
ENDBRANCH   4   7
ENDBRANCH   2   3
ENDBRANCH   1   2
BRANCH   1  29
ATOM     29  C   UNL A   1      36.699  23.919  25.793  1.00  0.00     0.118 C 
BRANCH  29  30
ATOM     30  N   UNL A   1      37.646  22.842  26.056  1.00  0.00    -0.352 N 
ATOM     31  C   UNL A   1      38.974  22.886  26.396  1.00  0.00     0.251 C 
ATOM     32  H   UNL A   1      37.271  21.936  25.976  1.00  0.00     0.163 HD
ATOM     33  O   UNL A   1      39.642  21.858  26.311  1.00  0.00    -0.269 OA
BRANCH  31  34
ATOM     34  C   UNL A   1      39.600  24.141  26.864  1.00  0.00     0.039 A 
ATOM     35  C   UNL A   1      40.032  25.072  25.913  1.00  0.00     0.014 A 
ATOM     36  C   UNL A   1      39.832  24.374  28.221  1.00  0.00     0.014 A 
ATOM     37  C   UNL A   1      40.672  26.242  26.328  1.00  0.00     0.010 A 
ATOM     38  C   UNL A   1      40.388  25.580  28.638  1.00  0.00     0.010 A 
ATOM     39  C   UNL A   1      40.843  26.512  27.695  1.00  0.00    -0.014 A 
BRANCH  39  40
ATOM     40  C   UNL A   1      41.549  27.734  28.154  1.00  0.00     0.031 A 
ATOM     41  C   UNL A   1      43.042  27.848  27.981  1.00  0.00     0.074 A 
ATOM     42  C   UNL A   1      40.860  28.717  28.763  1.00  0.00     0.049 A 
ATOM     43  N   UNL A   1      43.844  28.814  28.349  1.00  0.00    -0.248 NA
ATOM     44  C   UNL A   1      43.728  26.714  27.339  1.00  0.00     0.031 C 
ATOM     45  C   UNL A   1      39.419  28.703  29.033  1.00  0.00     0.029 A 
ATOM     46  N   UNL A   1      41.279  29.923  29.266  1.00  0.00    -0.354 N 
ATOM     47  C   UNL A   1      45.125  28.393  28.008  1.00  0.00     0.074 A 
ATOM     48  C   UNL A   1      45.000  27.063  27.454  1.00  0.00     0.031 C 
ATOM     49  C   UNL A   1      39.072  29.859  29.621  1.00  0.00     0.029 A 
ATOM     50  C   UNL A   1      40.263  30.682  29.796  1.00  0.00     0.049 A 
ATOM     51  H   UNL A   1      42.219  30.216  29.247  1.00  0.00     0.167 HD
ATOM     52  C   UNL A   1      46.299  29.060  28.121  1.00  0.00     0.031 A 
ATOM     53  C   UNL A   1      40.290  31.907  30.354  1.00  0.00     0.031 A 
ATOM     54  C   UNL A   1      46.415  30.394  28.642  1.00  0.00     0.049 A 
ATOM     55  C   UNL A   1      41.597  32.648  30.428  1.00  0.00     0.074 A 
ATOM     56  C   UNL A   1      47.547  31.183  28.751  1.00  0.00     0.029 A 
ATOM     57  N   UNL A   1      45.357  31.144  29.133  1.00  0.00    -0.354 N 
ATOM     58  N   UNL A   1      42.790  32.253  30.052  1.00  0.00    -0.248 NA
ATOM     59  C   UNL A   1      41.555  34.009  30.980  1.00  0.00     0.031 C 
ATOM     60  C   UNL A   1      47.177  32.399  29.337  1.00  0.00     0.029 A 
ATOM     61  C   UNL A   1      45.807  32.385  29.549  1.00  0.00     0.049 A 
ATOM     62  H   UNL A   1      44.421  30.838  29.179  1.00  0.00     0.167 HD
ATOM     63  C   UNL A   1      43.636  33.329  30.293  1.00  0.00     0.074 A 
ATOM     64  C   UNL A   1      42.814  34.393  30.834  1.00  0.00     0.031 C 
ATOM     65  C   UNL A   1      44.973  33.429  30.083  1.00  0.00     0.031 A 
BRANCH  52  66
ATOM     66  C   UNL A   1      47.546  28.349  27.665  1.00  0.00    -0.014 A 
ATOM     67  C   UNL A   1      48.048  28.526  26.363  1.00  0.00     0.010 A 
ATOM     68  C   UNL A   1      48.237  27.505  28.554  1.00  0.00     0.010 A 
ATOM     69  C   UNL A   1      49.186  27.833  25.941  1.00  0.00     0.020 A 
ATOM     70  C   UNL A   1      49.393  26.833  28.145  1.00  0.00     0.020 A 
ATOM     71  C   UNL A   1      49.848  26.985  26.833  1.00  0.00     0.054 A 
BRANCH  71  72
ATOM     72  S   UNL A   1      51.328  26.106  26.264  1.00  0.00     0.124 S 
ATOM     73  O   UNL A   1      52.397  26.983  26.735  1.00  0.00    -0.237 OA
ATOM     74  O   UNL A   1      51.223  24.820  26.950  1.00  0.00    -0.237 OA
ATOM     75  O   UNL A   1      51.162  26.050  24.814  1.00  0.00    -0.744 OA
ENDBRANCH  71  72
ENDBRANCH  52  66
BRANCH  53  76
ATOM     76  C   UNL A   1      39.030  32.527  30.843  1.00  0.00    -0.014 A 
ATOM     77  C   UNL A   1      38.280  33.371  30.004  1.00  0.00     0.010 A 
ATOM     78  C   UNL A   1      38.560  32.261  32.141  1.00  0.00     0.010 A 
ATOM     79  C   UNL A   1      37.096  33.956  30.461  1.00  0.00     0.020 A 
ATOM     80  C   UNL A   1      37.362  32.823  32.594  1.00  0.00     0.020 A 
ATOM     81  C   UNL A   1      36.644  33.677  31.754  1.00  0.00     0.054 A 
BRANCH  81  82
ATOM     82  S   UNL A   1      35.076  34.401  32.310  1.00  0.00     0.124 S 
ATOM     83  O   UNL A   1      35.525  35.610  32.991  1.00  0.00    -0.237 OA
ATOM     84  O   UNL A   1      34.361  34.611  31.053  1.00  0.00    -0.237 OA
ATOM     85  O   UNL A   1      34.510  33.366  33.173  1.00  0.00    -0.744 OA
ENDBRANCH  81  82
ENDBRANCH  53  76
BRANCH  65  86
ATOM     86  C   UNL A   1      45.618  34.751  30.398  1.00  0.00    -0.014 A 
ATOM     87  C   UNL A   1      46.153  35.018  31.671  1.00  0.00     0.010 A 
ATOM     88  C   UNL A   1      45.712  35.730  29.392  1.00  0.00     0.010 A 
ATOM     89  C   UNL A   1      46.727  36.262  31.945  1.00  0.00     0.020 A 
ATOM     90  C   UNL A   1      46.310  36.965  29.655  1.00  0.00     0.020 A 
ATOM     91  C   UNL A   1      46.796  37.230  30.938  1.00  0.00     0.054 A 
BRANCH  91  92
ATOM     92  S   UNL A   1      47.561  38.832  31.311  1.00  0.00     0.124 S 
ATOM     93  O   UNL A   1      46.576  39.768  30.775  1.00  0.00    -0.237 OA
ATOM     94  O   UNL A   1      47.675  38.804  32.767  1.00  0.00    -0.237 OA
ATOM     95  O   UNL A   1      48.832  38.783  30.592  1.00  0.00    -0.744 OA
ENDBRANCH  91  92
ENDBRANCH  65  86
ENDBRANCH  39  40
ENDBRANCH  31  34
ENDBRANCH  29  30
ENDBRANCH   1  29
TORSDOF 17
ENDMDL
