MODEL 1
REMARK VINA RESULT:      -9.6      0.000      0.000
REMARK SMILES CC[C@@H]([NH3+])C(=O)NCCOCC(=O)NCCCNC(=O)c1ccc(-c2c3nc(c(-c4ccc(S(=O)(=O)[O-])cc4)c4ccc([nH]4)c(-c4ccc(S(=O)(=O)[O-])cc4)c4nc(c(-c5ccc(S(=O)(=O)[O-])cc5)c5ccc2[nH]5)C=C4)C=C3)cc1
REMARK SMILES IDX 12 1 13 2 14 3 11 5 10 6 9 7 8 8 7 9 5 10 6 11 3 13 2 14
REMARK SMILES IDX 1 15 4 16 15 20 16 21 17 22 18 23 19 24 20 26 21 27 22 28
REMARK SMILES IDX 80 29 23 30 79 31 24 32 25 33 26 34 73 35 27 36 78 37 72 38
REMARK SMILES IDX 74 39 28 40 77 41 71 42 70 43 29 45 59 46 40 47 58 48 41 49
REMARK SMILES IDX 44 50 57 51 75 52 42 53 43 54 56 56 76 57 45 58 30 59 31 60
REMARK SMILES IDX 39 61 32 62 38 63 33 64 34 65 35 66 36 67 37 68 60 69 61 70
REMARK SMILES IDX 69 71 62 72 68 73 63 74 64 75 65 76 66 77 67 78 46 79 47 80
REMARK SMILES IDX 55 81 48 82 54 83 49 84 50 85 51 86 52 87 53 88
REMARK H PARENT 14 4 7 12 4 17 4 18 4 19 18 25 74 44 44 55
REMARK Flexibility Score: inf
ROOT
ATOM      1  C   UNL A   1      33.370  36.469  29.036  1.00  0.00     0.245 C 
ATOM      2  O   UNL A   1      33.234  37.561  28.484  1.00  0.00    -0.272 OA
ATOM      3  N   UNL A   1      34.131  35.512  28.431  1.00  0.00    -0.354 N 
ATOM      4  H   UNL A   1      34.550  35.770  27.578  1.00  0.00     0.163 HD
ENDROOT
BRANCH   1   5
ATOM      5  C   UNL A   1      32.706  36.150  30.378  1.00  0.00     0.260 C 
BRANCH   5   6
ATOM      6  O   UNL A   1      32.528  37.231  31.277  1.00  0.00    -0.370 OA
BRANCH   6   7
ATOM      7  C   UNL A   1      33.641  37.493  32.143  1.00  0.00     0.182 C 
BRANCH   7   8
ATOM      8  C   UNL A   1      33.607  36.697  33.458  1.00  0.00     0.144 C 
BRANCH   8   9
ATOM      9  N   UNL A   1      33.441  35.263  33.259  1.00  0.00    -0.349 N 
ATOM     10  C   UNL A   1      34.352  34.254  33.208  1.00  0.00     0.278 C 
ATOM     11  O   UNL A   1      33.921  33.105  33.063  1.00  0.00    -0.268 OA
ATOM     12  H   UNL A   1      32.507  34.975  33.141  1.00  0.00     0.163 HD
BRANCH  10  13
ATOM     13  C   UNL A   1      35.859  34.495  33.426  1.00  0.00     0.270 C 
BRANCH  13  14
ATOM     14  C   UNL A   1      36.565  33.353  34.163  1.00  0.00     0.072 C 
ATOM     15  C   UNL A   1      37.643  32.676  33.325  1.00  0.00     0.011 C 
ENDBRANCH  13  14
BRANCH  13  16
ATOM     16  N   UNL A   1      36.489  34.839  32.133  1.00  0.00    -0.347 N 
ATOM     17  H   UNL A   1      37.406  34.395  32.072  1.00  0.00     0.345 HD
ATOM     18  H   UNL A   1      36.597  35.851  32.066  1.00  0.00     0.345 HD
ATOM     19  H   UNL A   1      35.900  34.508  31.369  1.00  0.00     0.345 HD
ENDBRANCH  13  16
ENDBRANCH  10  13
ENDBRANCH   8   9
ENDBRANCH   7   8
ENDBRANCH   6   7
ENDBRANCH   5   6
ENDBRANCH   1   5
BRANCH   3  20
ATOM     20  C   UNL A   1      34.400  34.162  28.887  1.00  0.00     0.117 C 
BRANCH  20  21
ATOM     21  C   UNL A   1      35.551  33.514  28.127  1.00  0.00     0.042 C 
BRANCH  21  22
ATOM     22  C   UNL A   1      36.638  32.925  29.021  1.00  0.00     0.118 C 
BRANCH  22  23
ATOM     23  N   UNL A   1      36.112  31.992  30.008  1.00  0.00    -0.352 N 
ATOM     24  C   UNL A   1      36.583  30.770  30.418  1.00  0.00     0.251 C 
ATOM     25  H   UNL A   1      35.285  32.285  30.453  1.00  0.00     0.163 HD
ATOM     26  O   UNL A   1      35.874  30.059  31.124  1.00  0.00    -0.269 OA
BRANCH  24  27
ATOM     27  C   UNL A   1      37.926  30.302  30.010  1.00  0.00     0.039 A 
ATOM     28  C   UNL A   1      38.165  30.033  28.659  1.00  0.00     0.014 A 
ATOM     29  C   UNL A   1      38.935  30.086  30.953  1.00  0.00     0.014 A 
ATOM     30  C   UNL A   1      39.429  29.604  28.249  1.00  0.00     0.010 A 
ATOM     31  C   UNL A   1      40.215  29.739  30.533  1.00  0.00     0.010 A 
ATOM     32  C   UNL A   1      40.474  29.481  29.179  1.00  0.00    -0.014 A 
BRANCH  32  33
ATOM     33  C   UNL A   1      41.836  29.059  28.762  1.00  0.00     0.031 A 
ATOM     34  C   UNL A   1      42.950  30.069  28.692  1.00  0.00     0.074 A 
ATOM     35  C   UNL A   1      42.056  27.782  28.388  1.00  0.00     0.049 A 
ATOM     36  N   UNL A   1      44.184  29.911  28.287  1.00  0.00    -0.248 NA
ATOM     37  C   UNL A   1      42.628  31.445  29.106  1.00  0.00     0.031 C 
ATOM     38  C   UNL A   1      41.052  26.716  28.373  1.00  0.00     0.029 A 
ATOM     39  N   UNL A   1      43.198  27.167  27.940  1.00  0.00    -0.354 N 
ATOM     40  C   UNL A   1      44.776  31.165  28.375  1.00  0.00     0.074 A 
ATOM     41  C   UNL A   1      43.753  32.084  28.824  1.00  0.00     0.031 C 
ATOM     42  C   UNL A   1      41.628  25.574  27.965  1.00  0.00     0.029 A 
ATOM     43  C   UNL A   1      43.029  25.834  27.650  1.00  0.00     0.049 A 
ATOM     44  H   UNL A   1      44.057  27.636  27.836  1.00  0.00     0.167 HD
ATOM     45  C   UNL A   1      46.059  31.520  28.125  1.00  0.00     0.031 A 
ATOM     46  C   UNL A   1      43.903  24.922  27.180  1.00  0.00     0.031 A 
ATOM     47  C   UNL A   1      47.080  30.600  27.697  1.00  0.00     0.049 A 
ATOM     48  C   UNL A   1      45.324  25.336  26.917  1.00  0.00     0.074 A 
ATOM     49  C   UNL A   1      48.421  30.849  27.466  1.00  0.00     0.029 A 
ATOM     50  N   UNL A   1      46.872  29.254  27.437  1.00  0.00    -0.354 N 
ATOM     51  N   UNL A   1      45.878  26.517  27.057  1.00  0.00    -0.248 NA
ATOM     52  C   UNL A   1      46.243  24.291  26.447  1.00  0.00     0.031 C 
ATOM     53  C   UNL A   1      49.016  29.663  27.024  1.00  0.00     0.029 A 
ATOM     54  C   UNL A   1      48.057  28.662  27.035  1.00  0.00     0.049 A 
ATOM     55  H   UNL A   1      46.010  28.788  27.526  1.00  0.00     0.167 HD
ATOM     56  C   UNL A   1      47.217  26.349  26.725  1.00  0.00     0.074 A 
ATOM     57  C   UNL A   1      47.392  24.950  26.388  1.00  0.00     0.031 C 
ATOM     58  C   UNL A   1      48.215  27.267  26.705  1.00  0.00     0.031 A 
BRANCH  45  59
ATOM     59  C   UNL A   1      46.428  32.969  28.308  1.00  0.00    -0.014 A 
ATOM     60  C   UNL A   1      46.986  33.432  29.514  1.00  0.00     0.010 A 
ATOM     61  C   UNL A   1      46.244  33.877  27.250  1.00  0.00     0.010 A 
ATOM     62  C   UNL A   1      47.308  34.782  29.676  1.00  0.00     0.020 A 
ATOM     63  C   UNL A   1      46.592  35.224  27.396  1.00  0.00     0.020 A 
ATOM     64  C   UNL A   1      47.104  35.670  28.616  1.00  0.00     0.054 A 
BRANCH  64  65
ATOM     65  S   UNL A   1      47.544  37.414  28.847  1.00  0.00     0.124 S 
ATOM     66  O   UNL A   1      47.139  37.645  30.231  1.00  0.00    -0.237 OA
ATOM     67  O   UNL A   1      48.985  37.416  28.606  1.00  0.00    -0.237 OA
ATOM     68  O   UNL A   1      46.746  38.111  27.840  1.00  0.00    -0.744 OA
ENDBRANCH  64  65
ENDBRANCH  45  59
BRANCH  46  69
ATOM     69  C   UNL A   1      43.461  23.519  26.951  1.00  0.00    -0.014 A 
ATOM     70  C   UNL A   1      43.376  22.615  28.025  1.00  0.00     0.010 A 
ATOM     71  C   UNL A   1      43.111  23.081  25.661  1.00  0.00     0.010 A 
ATOM     72  C   UNL A   1      42.969  21.295  27.810  1.00  0.00     0.020 A 
ATOM     73  C   UNL A   1      42.677  21.771  25.446  1.00  0.00     0.020 A 
ATOM     74  C   UNL A   1      42.620  20.882  26.521  1.00  0.00     0.054 A 
BRANCH  74  75
ATOM     75  S   UNL A   1      42.047  19.178  26.274  1.00  0.00     0.124 S 
ATOM     76  O   UNL A   1      40.670  19.381  25.837  1.00  0.00    -0.237 OA
ATOM     77  O   UNL A   1      42.970  18.680  25.256  1.00  0.00    -0.237 OA
ATOM     78  O   UNL A   1      42.204  18.570  27.594  1.00  0.00    -0.744 OA
ENDBRANCH  74  75
ENDBRANCH  46  69
BRANCH  58  79
ATOM     79  C   UNL A   1      49.596  26.782  26.352  1.00  0.00    -0.014 A 
ATOM     80  C   UNL A   1      50.437  26.197  27.314  1.00  0.00     0.010 A 
ATOM     81  C   UNL A   1      50.038  26.876  25.019  1.00  0.00     0.010 A 
ATOM     82  C   UNL A   1      51.713  25.753  26.958  1.00  0.00     0.020 A 
ATOM     83  C   UNL A   1      51.302  26.406  24.653  1.00  0.00     0.020 A 
ATOM     84  C   UNL A   1      52.138  25.863  25.631  1.00  0.00     0.054 A 
BRANCH  84  85
ATOM     85  S   UNL A   1      53.788  25.252  25.186  1.00  0.00     0.124 S 
ATOM     86  O   UNL A   1      53.745  23.878  25.680  1.00  0.00    -0.237 OA
ATOM     87  O   UNL A   1      53.804  25.397  23.733  1.00  0.00    -0.237 OA
ATOM     88  O   UNL A   1      54.693  26.145  25.906  1.00  0.00    -0.744 OA
ENDBRANCH  84  85
ENDBRANCH  58  79
ENDBRANCH  32  33
ENDBRANCH  24  27
ENDBRANCH  22  23
ENDBRANCH  21  22
ENDBRANCH  20  21
ENDBRANCH   3  20
TORSDOF 20
ENDMDL
MODEL 2
REMARK VINA RESULT:      -9.4      0.521      8.522
REMARK SMILES CC[C@@H]([NH3+])C(=O)NCCOCC(=O)NCCCNC(=O)c1ccc(-c2c3nc(c(-c4ccc(S(=O)(=O)[O-])cc4)c4ccc([nH]4)c(-c4ccc(S(=O)(=O)[O-])cc4)c4nc(c(-c5ccc(S(=O)(=O)[O-])cc5)c5ccc2[nH]5)C=C4)C=C3)cc1
REMARK SMILES IDX 12 1 13 2 14 3 11 5 10 6 9 7 8 8 7 9 5 10 6 11 3 13 2 14
REMARK SMILES IDX 1 15 4 16 15 20 16 21 17 22 18 23 19 24 20 26 21 27 22 28
REMARK SMILES IDX 80 29 23 30 79 31 24 32 25 33 26 34 73 35 27 36 78 37 72 38
REMARK SMILES IDX 74 39 28 40 77 41 71 42 70 43 29 45 59 46 40 47 58 48 41 49
REMARK SMILES IDX 44 50 57 51 75 52 42 53 43 54 56 56 76 57 45 58 30 59 31 60
REMARK SMILES IDX 39 61 32 62 38 63 33 64 34 65 35 66 36 67 37 68 60 69 61 70
REMARK SMILES IDX 69 71 62 72 68 73 63 74 64 75 65 76 66 77 67 78 46 79 47 80
REMARK SMILES IDX 55 81 48 82 54 83 49 84 50 85 51 86 52 87 53 88
REMARK H PARENT 14 4 7 12 4 17 4 18 4 19 18 25 74 44 44 55
REMARK Flexibility Score: inf
ROOT
ATOM      1  C   UNL A   1      33.381  36.460  29.058  1.00  0.00     0.245 C 
ATOM      2  O   UNL A   1      33.238  37.527  28.461  1.00  0.00    -0.272 OA
ATOM      3  N   UNL A   1      34.101  35.463  28.468  1.00  0.00    -0.354 N 
ATOM      4  H   UNL A   1      34.488  35.674  27.587  1.00  0.00     0.163 HD
ENDROOT
BRANCH   1   5
ATOM      5  C   UNL A   1      32.770  36.217  30.441  1.00  0.00     0.260 C 
BRANCH   5   6
ATOM      6  O   UNL A   1      32.655  37.340  31.297  1.00  0.00    -0.370 OA
BRANCH   6   7
ATOM      7  C   UNL A   1      33.796  37.592  32.128  1.00  0.00     0.182 C 
BRANCH   7   8
ATOM      8  C   UNL A   1      33.763  36.847  33.473  1.00  0.00     0.144 C 
BRANCH   8   9
ATOM      9  N   UNL A   1      33.490  35.423  33.336  1.00  0.00    -0.349 N 
ATOM     10  C   UNL A   1      34.327  34.353  33.263  1.00  0.00     0.278 C 
ATOM     11  O   UNL A   1      33.813  33.232  33.186  1.00  0.00    -0.268 OA
ATOM     12  H   UNL A   1      32.534  35.195  33.288  1.00  0.00     0.163 HD
BRANCH  10  13
ATOM     13  C   UNL A   1      35.859  34.498  33.375  1.00  0.00     0.270 C 
BRANCH  13  14
ATOM     14  C   UNL A   1      36.538  33.318  34.076  1.00  0.00     0.072 C 
ATOM     15  C   UNL A   1      37.465  32.530  33.158  1.00  0.00     0.011 C 
ENDBRANCH  13  14
BRANCH  13  16
ATOM     16  N   UNL A   1      36.419  34.790  32.039  1.00  0.00    -0.347 N 
ATOM     17  H   UNL A   1      37.300  34.287  31.921  1.00  0.00     0.345 HD
ATOM     18  H   UNL A   1      36.587  35.792  31.952  1.00  0.00     0.345 HD
ATOM     19  H   UNL A   1      35.759  34.493  31.320  1.00  0.00     0.345 HD
ENDBRANCH  13  16
ENDBRANCH  10  13
ENDBRANCH   8   9
ENDBRANCH   7   8
ENDBRANCH   6   7
ENDBRANCH   5   6
ENDBRANCH   1   5
BRANCH   3  20
ATOM     20  C   UNL A   1      34.369  34.132  28.977  1.00  0.00     0.117 C 
BRANCH  20  21
ATOM     21  C   UNL A   1      35.447  33.413  28.176  1.00  0.00     0.042 C 
BRANCH  21  22
ATOM     22  C   UNL A   1      36.566  32.818  29.025  1.00  0.00     0.118 C 
BRANCH  22  23
ATOM     23  N   UNL A   1      36.112  31.717  29.864  1.00  0.00    -0.352 N 
ATOM     24  C   UNL A   1      36.674  30.488  30.102  1.00  0.00     0.251 C 
ATOM     25  H   UNL A   1      35.265  31.881  30.337  1.00  0.00     0.163 HD
ATOM     26  O   UNL A   1      36.021  29.633  30.692  1.00  0.00    -0.269 OA
BRANCH  24  27
ATOM     27  C   UNL A   1      38.049  30.185  29.647  1.00  0.00     0.039 A 
ATOM     28  C   UNL A   1      39.098  30.263  30.568  1.00  0.00     0.014 A 
ATOM     29  C   UNL A   1      38.316  29.866  28.313  1.00  0.00     0.014 A 
ATOM     30  C   UNL A   1      40.402  29.968  30.164  1.00  0.00     0.010 A 
ATOM     31  C   UNL A   1      39.601  29.492  27.931  1.00  0.00     0.010 A 
ATOM     32  C   UNL A   1      40.660  29.551  28.848  1.00  0.00    -0.014 A 
BRANCH  32  33
ATOM     33  C   UNL A   1      42.034  29.199  28.403  1.00  0.00     0.031 A 
ATOM     34  C   UNL A   1      42.352  27.788  27.989  1.00  0.00     0.074 A 
ATOM     35  C   UNL A   1      43.006  30.132  28.431  1.00  0.00     0.049 A 
ATOM     36  N   UNL A   1      43.502  27.269  27.637  1.00  0.00    -0.248 NA
ATOM     37  C   UNL A   1      41.239  26.823  27.996  1.00  0.00     0.031 C 
ATOM     38  C   UNL A   1      42.836  31.526  28.850  1.00  0.00     0.029 A 
ATOM     39  N   UNL A   1      44.337  30.045  28.106  1.00  0.00    -0.354 N 
ATOM     40  C   UNL A   1      43.255  25.922  27.405  1.00  0.00     0.074 A 
ATOM     41  C   UNL A   1      41.859  25.690  27.703  1.00  0.00     0.031 C 
ATOM     42  C   UNL A   1      44.008  32.168  28.730  1.00  0.00     0.029 A 
ATOM     43  C   UNL A   1      45.022  31.226  28.267  1.00  0.00     0.049 A 
ATOM     44  H   UNL A   1      44.760  29.216  27.788  1.00  0.00     0.167 HD
ATOM     45  C   UNL A   1      44.107  24.965  26.963  1.00  0.00     0.031 A 
ATOM     46  C   UNL A   1      46.322  31.519  28.068  1.00  0.00     0.031 A 
ATOM     47  C   UNL A   1      45.491  25.202  26.649  1.00  0.00     0.049 A 
ATOM     48  C   UNL A   1      47.248  30.442  27.571  1.00  0.00     0.074 A 
ATOM     49  C   UNL A   1      46.425  24.312  26.148  1.00  0.00     0.029 A 
ATOM     50  N   UNL A   1      46.140  26.418  26.804  1.00  0.00    -0.354 N 
ATOM     51  N   UNL A   1      46.983  29.185  27.306  1.00  0.00    -0.248 NA
ATOM     52  C   UNL A   1      48.644  30.829  27.330  1.00  0.00     0.031 C 
ATOM     53  C   UNL A   1      47.650  24.979  26.040  1.00  0.00     0.029 A 
ATOM     54  C   UNL A   1      47.465  26.298  26.421  1.00  0.00     0.049 A 
ATOM     55  H   UNL A   1      45.720  27.243  27.138  1.00  0.00     0.167 HD
ATOM     56  C   UNL A   1      48.172  28.640  26.836  1.00  0.00     0.074 A 
ATOM     57  C   UNL A   1      49.153  29.706  26.841  1.00  0.00     0.031 C 
ATOM     58  C   UNL A   1      48.429  27.371  26.430  1.00  0.00     0.031 A 
BRANCH  45  59
ATOM     59  C   UNL A   1      43.560  23.570  26.798  1.00  0.00    -0.014 A 
ATOM     60  C   UNL A   1      43.279  23.045  25.524  1.00  0.00     0.010 A 
ATOM     61  C   UNL A   1      43.354  22.761  27.930  1.00  0.00     0.010 A 
ATOM     62  C   UNL A   1      42.757  21.757  25.387  1.00  0.00     0.020 A 
ATOM     63  C   UNL A   1      42.860  21.460  27.796  1.00  0.00     0.020 A 
ATOM     64  C   UNL A   1      42.546  20.974  26.525  1.00  0.00     0.054 A 
BRANCH  64  65
ATOM     65  S   UNL A   1      41.882  19.299  26.318  1.00  0.00     0.124 S 
ATOM     66  O   UNL A   1      42.766  18.750  25.294  1.00  0.00    -0.237 OA
ATOM     67  O   UNL A   1      42.035  18.726  27.652  1.00  0.00    -0.237 OA
ATOM     68  O   UNL A   1      40.501  19.523  25.894  1.00  0.00    -0.744 OA
ENDBRANCH  64  65
ENDBRANCH  45  59
BRANCH  46  69
ATOM     69  C   UNL A   1      46.819  32.900  28.317  1.00  0.00    -0.014 A 
ATOM     70  C   UNL A   1      46.766  33.870  27.300  1.00  0.00     0.010 A 
ATOM     71  C   UNL A   1      47.339  33.256  29.574  1.00  0.00     0.010 A 
ATOM     72  C   UNL A   1      47.240  35.165  27.531  1.00  0.00     0.020 A 
ATOM     73  C   UNL A   1      47.788  34.557  29.817  1.00  0.00     0.020 A 
ATOM     74  C   UNL A   1      47.747  35.500  28.789  1.00  0.00     0.054 A 
BRANCH  74  75
ATOM     75  S   UNL A   1      48.311  37.200  29.080  1.00  0.00     0.124 S 
ATOM     76  O   UNL A   1      47.613  37.545  30.314  1.00  0.00    -0.237 OA
ATOM     77  O   UNL A   1      49.759  37.037  29.193  1.00  0.00    -0.237 OA
ATOM     78  O   UNL A   1      47.866  37.916  27.886  1.00  0.00    -0.744 OA
ENDBRANCH  74  75
ENDBRANCH  46  69
BRANCH  58  79
ATOM     79  C   UNL A   1      49.812  27.076  25.915  1.00  0.00    -0.014 A 
ATOM     80  C   UNL A   1      50.770  26.427  26.713  1.00  0.00     0.010 A 
ATOM     81  C   UNL A   1      50.141  27.419  24.590  1.00  0.00     0.010 A 
ATOM     82  C   UNL A   1      52.046  26.164  26.209  1.00  0.00     0.020 A 
ATOM     83  C   UNL A   1      51.406  27.130  24.072  1.00  0.00     0.020 A 
ATOM     84  C   UNL A   1      52.356  26.520  24.893  1.00  0.00     0.054 A 
BRANCH  84  85
ATOM     85  S   UNL A   1      54.010  26.140  24.250  1.00  0.00     0.124 S 
ATOM     86  O   UNL A   1      54.303  24.866  24.902  1.00  0.00    -0.237 OA
ATOM     87  O   UNL A   1      53.787  26.071  22.808  1.00  0.00    -0.237 OA
ATOM     88  O   UNL A   1      54.822  27.269  24.696  1.00  0.00    -0.744 OA
ENDBRANCH  84  85
ENDBRANCH  58  79
ENDBRANCH  32  33
ENDBRANCH  24  27
ENDBRANCH  22  23
ENDBRANCH  21  22
ENDBRANCH  20  21
ENDBRANCH   3  20
TORSDOF 20
ENDMDL
MODEL 3
REMARK VINA RESULT:      -9.3      6.988     14.232
REMARK SMILES CC[C@@H]([NH3+])C(=O)NCCOCC(=O)NCCCNC(=O)c1ccc(-c2c3nc(c(-c4ccc(S(=O)(=O)[O-])cc4)c4ccc([nH]4)c(-c4ccc(S(=O)(=O)[O-])cc4)c4nc(c(-c5ccc(S(=O)(=O)[O-])cc5)c5ccc2[nH]5)C=C4)C=C3)cc1
REMARK SMILES IDX 12 1 13 2 14 3 11 5 10 6 9 7 8 8 7 9 5 10 6 11 3 13 2 14
REMARK SMILES IDX 1 15 4 16 15 20 16 21 17 22 18 23 19 24 20 26 21 27 22 28
REMARK SMILES IDX 80 29 23 30 79 31 24 32 25 33 26 34 73 35 27 36 78 37 72 38
REMARK SMILES IDX 74 39 28 40 77 41 71 42 70 43 29 45 59 46 40 47 58 48 41 49
REMARK SMILES IDX 44 50 57 51 75 52 42 53 43 54 56 56 76 57 45 58 30 59 31 60
REMARK SMILES IDX 39 61 32 62 38 63 33 64 34 65 35 66 36 67 37 68 60 69 61 70
REMARK SMILES IDX 69 71 62 72 68 73 63 74 64 75 65 76 66 77 67 78 46 79 47 80
REMARK SMILES IDX 55 81 48 82 54 83 49 84 50 85 51 86 52 87 53 88
REMARK H PARENT 14 4 7 12 4 17 4 18 4 19 18 25 74 44 44 55
REMARK Flexibility Score: inf
ROOT
ATOM      1  C   UNL A   1      34.986  22.206  26.463  1.00  0.00     0.245 C 
ATOM      2  O   UNL A   1      34.366  21.454  27.214  1.00  0.00    -0.272 OA
ATOM      3  N   UNL A   1      36.327  22.018  26.299  1.00  0.00    -0.354 N 
ATOM      4  H   UNL A   1      36.720  21.260  26.790  1.00  0.00     0.163 HD
ENDROOT
BRANCH   1   5
ATOM      5  C   UNL A   1      34.299  23.350  25.711  1.00  0.00     0.260 C 
BRANCH   5   6
ATOM      6  O   UNL A   1      34.021  23.137  24.338  1.00  0.00    -0.370 OA
BRANCH   6   7
ATOM      7  C   UNL A   1      33.951  21.763  23.936  1.00  0.00     0.182 C 
BRANCH   7   8
ATOM      8  C   UNL A   1      32.522  21.196  23.906  1.00  0.00     0.144 C 
BRANCH   8   9
ATOM      9  N   UNL A   1      32.304  20.133  24.878  1.00  0.00    -0.349 N 
ATOM     10  C   UNL A   1      32.389  18.780  24.761  1.00  0.00     0.278 C 
ATOM     11  O   UNL A   1      32.184  18.106  25.777  1.00  0.00    -0.268 OA
ATOM     12  H   UNL A   1      32.052  20.448  25.775  1.00  0.00     0.163 HD
BRANCH  10  13
ATOM     13  C   UNL A   1      32.824  18.094  23.450  1.00  0.00     0.270 C 
BRANCH  13  14
ATOM     14  C   UNL A   1      33.349  16.669  23.646  1.00  0.00     0.072 C 
ATOM     15  C   UNL A   1      34.831  16.526  23.314  1.00  0.00     0.011 C 
ENDBRANCH  13  14
BRANCH  13  16
ATOM     16  N   UNL A   1      31.726  18.186  22.465  1.00  0.00    -0.347 N 
ATOM     17  H   UNL A   1      31.588  17.276  22.022  1.00  0.00     0.345 HD
ATOM     18  H   UNL A   1      31.964  18.877  21.753  1.00  0.00     0.345 HD
ATOM     19  H   UNL A   1      30.867  18.467  22.937  1.00  0.00     0.345 HD
ENDBRANCH  13  16
ENDBRANCH  10  13
ENDBRANCH   8   9
ENDBRANCH   7   8
ENDBRANCH   6   7
ENDBRANCH   5   6
ENDBRANCH   1   5
BRANCH   3  20
ATOM     20  C   UNL A   1      37.248  22.794  25.490  1.00  0.00     0.117 C 
BRANCH  20  21
ATOM     21  C   UNL A   1      37.779  24.015  26.231  1.00  0.00     0.042 C 
BRANCH  21  22
ATOM     22  C   UNL A   1      39.149  23.813  26.869  1.00  0.00     0.118 C 
BRANCH  22  23
ATOM     23  N   UNL A   1      40.239  24.293  26.031  1.00  0.00    -0.352 N 
ATOM     24  C   UNL A   1      40.967  25.455  26.095  1.00  0.00     0.251 C 
ATOM     25  H   UNL A   1      40.495  23.687  25.300  1.00  0.00     0.163 HD
ATOM     26  O   UNL A   1      41.711  25.750  25.165  1.00  0.00    -0.269 OA
BRANCH  24  27
ATOM     27  C   UNL A   1      40.853  26.355  27.265  1.00  0.00     0.039 A 
ATOM     28  C   UNL A   1      41.638  27.511  27.305  1.00  0.00     0.014 A 
ATOM     29  C   UNL A   1      40.013  26.044  28.337  1.00  0.00     0.014 A 
ATOM     30  C   UNL A   1      41.537  28.382  28.392  1.00  0.00     0.010 A 
ATOM     31  C   UNL A   1      39.852  26.953  29.379  1.00  0.00     0.010 A 
ATOM     32  C   UNL A   1      40.621  28.124  29.426  1.00  0.00    -0.014 A 
BRANCH  32  33
ATOM     33  C   UNL A   1      40.471  29.053  30.576  1.00  0.00     0.031 A 
ATOM     34  C   UNL A   1      41.335  28.885  31.797  1.00  0.00     0.074 A 
ATOM     35  C   UNL A   1      39.518  30.005  30.547  1.00  0.00     0.049 A 
ATOM     36  N   UNL A   1      41.307  29.547  32.926  1.00  0.00    -0.248 NA
ATOM     37  C   UNL A   1      42.345  27.814  31.758  1.00  0.00     0.031 C 
ATOM     38  C   UNL A   1      38.590  30.246  29.439  1.00  0.00     0.029 A 
ATOM     39  N   UNL A   1      39.167  30.946  31.483  1.00  0.00    -0.354 N 
ATOM     40  C   UNL A   1      42.274  28.962  33.733  1.00  0.00     0.074 A 
ATOM     41  C   UNL A   1      42.837  27.858  32.986  1.00  0.00     0.031 C 
ATOM     42  C   UNL A   1      37.796  31.283  29.747  1.00  0.00     0.029 A 
ATOM     43  C   UNL A   1      38.128  31.756  31.088  1.00  0.00     0.049 A 
ATOM     44  H   UNL A   1      39.616  31.034  32.354  1.00  0.00     0.167 HD
ATOM     45  C   UNL A   1      42.675  29.320  34.977  1.00  0.00     0.031 A 
ATOM     46  C   UNL A   1      37.508  32.764  31.733  1.00  0.00     0.031 A 
ATOM     47  C   UNL A   1      42.127  30.429  35.711  1.00  0.00     0.049 A 
ATOM     48  C   UNL A   1      37.974  33.148  33.110  1.00  0.00     0.074 A 
ATOM     49  C   UNL A   1      42.498  30.906  36.956  1.00  0.00     0.029 A 
ATOM     50  N   UNL A   1      41.091  31.238  35.266  1.00  0.00    -0.354 N 
ATOM     51  N   UNL A   1      38.928  32.615  33.837  1.00  0.00    -0.248 NA
ATOM     52  C   UNL A   1      37.292  34.281  33.748  1.00  0.00     0.031 C 
ATOM     53  C   UNL A   1      41.658  31.975  37.283  1.00  0.00     0.029 A 
ATOM     54  C   UNL A   1      40.802  32.201  36.217  1.00  0.00     0.049 A 
ATOM     55  H   UNL A   1      40.631  31.141  34.402  1.00  0.00     0.167 HD
ATOM     56  C   UNL A   1      38.981  33.369  35.003  1.00  0.00     0.074 A 
ATOM     57  C   UNL A   1      37.972  34.402  34.880  1.00  0.00     0.031 C 
ATOM     58  C   UNL A   1      39.796  33.224  36.078  1.00  0.00     0.031 A 
BRANCH  45  59
ATOM     59  C   UNL A   1      43.759  28.496  35.622  1.00  0.00    -0.014 A 
ATOM     60  C   UNL A   1      45.118  28.731  35.339  1.00  0.00     0.010 A 
ATOM     61  C   UNL A   1      43.419  27.493  36.548  1.00  0.00     0.010 A 
ATOM     62  C   UNL A   1      46.112  27.949  35.931  1.00  0.00     0.020 A 
ATOM     63  C   UNL A   1      44.412  26.727  37.166  1.00  0.00     0.020 A 
ATOM     64  C   UNL A   1      45.752  26.948  36.839  1.00  0.00     0.054 A 
BRANCH  64  65
ATOM     65  S   UNL A   1      47.063  25.957  37.605  1.00  0.00     0.124 S 
ATOM     66  O   UNL A   1      46.827  24.641  37.017  1.00  0.00    -0.237 OA
ATOM     67  O   UNL A   1      48.278  26.634  37.160  1.00  0.00    -0.237 OA
ATOM     68  O   UNL A   1      46.785  26.059  39.036  1.00  0.00    -0.744 OA
ENDBRANCH  64  65
ENDBRANCH  45  59
BRANCH  46  69
ATOM     69  C   UNL A   1      36.393  33.495  31.071  1.00  0.00    -0.014 A 
ATOM     70  C   UNL A   1      35.212  33.782  31.778  1.00  0.00     0.010 A 
ATOM     71  C   UNL A   1      36.510  33.919  29.735  1.00  0.00     0.010 A 
ATOM     72  C   UNL A   1      34.161  34.462  31.155  1.00  0.00     0.020 A 
ATOM     73  C   UNL A   1      35.474  34.624  29.118  1.00  0.00     0.020 A 
ATOM     74  C   UNL A   1      34.300  34.880  29.829  1.00  0.00     0.054 A 
BRANCH  74  75
ATOM     75  S   UNL A   1      32.943  35.804  29.056  1.00  0.00     0.124 S 
ATOM     76  O   UNL A   1      33.652  36.905  28.412  1.00  0.00    -0.237 OA
ATOM     77  O   UNL A   1      32.358  34.813  28.156  1.00  0.00    -0.237 OA
ATOM     78  O   UNL A   1      32.097  36.180  30.189  1.00  0.00    -0.744 OA
ENDBRANCH  74  75
ENDBRANCH  46  69
BRANCH  58  79
ATOM     79  C   UNL A   1      39.663  34.233  37.188  1.00  0.00    -0.014 A 
ATOM     80  C   UNL A   1      38.985  33.927  38.381  1.00  0.00     0.010 A 
ATOM     81  C   UNL A   1      40.266  35.497  37.045  1.00  0.00     0.010 A 
ATOM     82  C   UNL A   1      38.878  34.882  39.395  1.00  0.00     0.020 A 
ATOM     83  C   UNL A   1      40.187  36.443  38.070  1.00  0.00     0.020 A 
ATOM     84  C   UNL A   1      39.477  36.135  39.232  1.00  0.00     0.054 A 
BRANCH  84  85
ATOM     85  S   UNL A   1      39.351  37.347  40.576  1.00  0.00     0.124 S 
ATOM     86  O   UNL A   1      40.731  37.809  40.698  1.00  0.00    -0.237 OA
ATOM     87  O   UNL A   1      38.407  38.324  40.039  1.00  0.00    -0.237 OA
ATOM     88  O   UNL A   1      38.854  36.563  41.704  1.00  0.00    -0.744 OA
ENDBRANCH  84  85
ENDBRANCH  58  79
ENDBRANCH  32  33
ENDBRANCH  24  27
ENDBRANCH  22  23
ENDBRANCH  21  22
ENDBRANCH  20  21
ENDBRANCH   3  20
TORSDOF 20
ENDMDL
