MODEL 1
REMARK VINA RESULT:      -9.9      0.000      0.000
REMARK SMILES CC(=O)Oc1ccccc1C(=O)NCCCNC(=O)c1ccc(-c2c3nc(c(-c4ccc(S(=O)(=O)[O-])cc4)c4ccc([nH]4)c(-c4ccc(S(=O)(=O)[O-])cc4)c4nc(c(-c5ccc(S(=O)(=O)[O-])cc5)c5ccc2[nH]5)C=C4)C=C3)cc1
REMARK SMILES IDX 15 1 14 2 13 3 11 4 12 5 10 7 5 8 6 9 7 10 9 11 8 12 4 13
REMARK SMILES IDX 2 14 1 15 3 16 16 17 17 18 18 19 19 21 20 22 21 23 79 24
REMARK SMILES IDX 22 25 78 26 23 27 24 28 25 29 72 30 26 31 77 32 71 33 73 34
REMARK SMILES IDX 27 35 76 36 70 37 69 38 28 40 58 41 39 42 57 43 40 44 43 45
REMARK SMILES IDX 56 46 74 47 41 48 42 49 55 51 75 52 44 53 29 54 30 55 38 56
REMARK SMILES IDX 31 57 37 58 32 59 33 60 34 61 35 62 36 63 59 64 60 65 68 66
REMARK SMILES IDX 61 67 67 68 62 69 63 70 64 71 65 72 66 73 45 74 46 75 54 76
REMARK SMILES IDX 47 77 53 78 48 79 49 80 50 81 51 82 52 83
REMARK H PARENT 13 6 17 20 73 39 43 50
REMARK Flexibility Score: inf
ROOT
ATOM      1  C   UNL A   1      35.840  23.497  26.125  1.00  0.00     0.042 C 
ENDROOT
BRANCH   1   2
ATOM      2  C   UNL A   1      34.426  23.594  25.599  1.00  0.00     0.118 C 
BRANCH   2   3
ATOM      3  N   UNL A   1      34.251  24.316  24.364  1.00  0.00    -0.352 N 
ATOM      4  C   UNL A   1      33.697  25.556  24.157  1.00  0.00     0.255 C 
ATOM      5  O   UNL A   1      33.731  26.013  23.013  1.00  0.00    -0.269 OA
ATOM      6  H   UNL A   1      34.571  23.855  23.555  1.00  0.00     0.163 HD
BRANCH   4   7
ATOM      7  C   UNL A   1      32.952  26.303  25.210  1.00  0.00     0.082 A 
ATOM      8  C   UNL A   1      31.601  26.185  25.566  1.00  0.00     0.143 A 
ATOM      9  C   UNL A   1      31.028  27.055  26.506  1.00  0.00     0.048 A 
ATOM     10  C   UNL A   1      31.808  28.015  27.146  1.00  0.00     0.004 A 
ATOM     11  C   UNL A   1      33.729  27.256  25.901  1.00  0.00     0.018 A 
ATOM     12  C   UNL A   1      33.164  28.106  26.856  1.00  0.00     0.001 A 
BRANCH   8  13
ATOM     13  O   UNL A   1      30.673  25.325  24.957  1.00  0.00    -0.426 OA
BRANCH  13  14
ATOM     14  C   UNL A   1      30.841  23.951  25.080  1.00  0.00     0.308 C 
ATOM     15  C   UNL A   1      30.529  23.550  26.497  1.00  0.00     0.139 C 
ATOM     16  O   UNL A   1      31.210  23.185  24.195  1.00  0.00    -0.252 OA
ENDBRANCH  13  14
ENDBRANCH   8  13
ENDBRANCH   4   7
ENDBRANCH   2   3
ENDBRANCH   1   2
BRANCH   1  17
ATOM     17  C   UNL A   1      36.917  23.455  25.048  1.00  0.00     0.118 C 
BRANCH  17  18
ATOM     18  N   UNL A   1      38.094  22.658  25.393  1.00  0.00    -0.352 N 
ATOM     19  C   UNL A   1      39.242  22.947  26.097  1.00  0.00     0.251 C 
ATOM     20  H   UNL A   1      38.059  21.735  25.056  1.00  0.00     0.163 HD
ATOM     21  O   UNL A   1      40.141  22.108  26.132  1.00  0.00    -0.269 OA
BRANCH  19  22
ATOM     22  C   UNL A   1      39.433  24.257  26.765  1.00  0.00     0.039 A 
ATOM     23  C   UNL A   1      38.937  24.449  28.060  1.00  0.00     0.014 A 
ATOM     24  C   UNL A   1      40.097  25.303  26.133  1.00  0.00     0.014 A 
ATOM     25  C   UNL A   1      39.214  25.637  28.747  1.00  0.00     0.010 A 
ATOM     26  C   UNL A   1      40.502  26.412  26.863  1.00  0.00     0.010 A 
ATOM     27  C   UNL A   1      40.059  26.602  28.179  1.00  0.00    -0.014 A 
BRANCH  27  28
ATOM     28  C   UNL A   1      40.494  27.821  28.917  1.00  0.00     0.031 A 
ATOM     29  C   UNL A   1      41.823  27.835  29.634  1.00  0.00     0.074 A 
ATOM     30  C   UNL A   1      39.652  28.868  29.041  1.00  0.00     0.049 A 
ATOM     31  N   UNL A   1      42.316  28.737  30.443  1.00  0.00    -0.248 NA
ATOM     32  C   UNL A   1      42.694  26.659  29.455  1.00  0.00     0.031 C 
ATOM     33  C   UNL A   1      38.309  28.957  28.459  1.00  0.00     0.029 A 
ATOM     34  N   UNL A   1      39.794  30.058  29.712  1.00  0.00    -0.354 N 
ATOM     35  C   UNL A   1      43.523  28.218  30.901  1.00  0.00     0.074 A 
ATOM     36  C   UNL A   1      43.662  26.900  30.326  1.00  0.00     0.031 C 
ATOM     37  C   UNL A   1      37.768  30.145  28.770  1.00  0.00     0.029 A 
ATOM     38  C   UNL A   1      38.699  30.886  29.613  1.00  0.00     0.049 A 
ATOM     39  H   UNL A   1      40.605  30.298  30.217  1.00  0.00     0.167 HD
ATOM     40  C   UNL A   1      44.447  28.795  31.704  1.00  0.00     0.031 A 
ATOM     41  C   UNL A   1      38.463  32.100  30.148  1.00  0.00     0.031 A 
ATOM     42  C   UNL A   1      44.330  30.127  32.230  1.00  0.00     0.049 A 
ATOM     43  C   UNL A   1      39.524  32.738  31.002  1.00  0.00     0.074 A 
ATOM     44  C   UNL A   1      45.252  30.840  32.976  1.00  0.00     0.029 A 
ATOM     45  N   UNL A   1      43.228  30.951  32.058  1.00  0.00    -0.354 N 
ATOM     46  N   UNL A   1      40.693  32.261  31.356  1.00  0.00    -0.248 NA
ATOM     47  C   UNL A   1      39.239  34.085  31.518  1.00  0.00     0.031 C 
ATOM     48  C   UNL A   1      44.686  32.078  33.298  1.00  0.00     0.029 A 
ATOM     49  C   UNL A   1      43.438  32.157  32.703  1.00  0.00     0.049 A 
ATOM     50  H   UNL A   1      42.417  30.713  31.554  1.00  0.00     0.167 HD
ATOM     51  C   UNL A   1      41.296  33.260  32.113  1.00  0.00     0.074 A 
ATOM     52  C   UNL A   1      40.370  34.373  32.150  1.00  0.00     0.031 C 
ATOM     53  C   UNL A   1      42.506  33.256  32.723  1.00  0.00     0.031 A 
BRANCH  40  54
ATOM     54  C   UNL A   1      45.674  27.992  32.056  1.00  0.00    -0.014 A 
ATOM     55  C   UNL A   1      45.706  27.169  33.197  1.00  0.00     0.010 A 
ATOM     56  C   UNL A   1      46.793  28.020  31.204  1.00  0.00     0.010 A 
ATOM     57  C   UNL A   1      46.847  26.422  33.500  1.00  0.00     0.020 A 
ATOM     58  C   UNL A   1      47.925  27.250  31.487  1.00  0.00     0.020 A 
ATOM     59  C   UNL A   1      47.950  26.467  32.643  1.00  0.00     0.054 A 
BRANCH  59  60
ATOM     60  S   UNL A   1      49.401  25.456  33.042  1.00  0.00     0.124 S 
ATOM     61  O   UNL A   1      50.239  26.407  33.767  1.00  0.00    -0.237 OA
ATOM     62  O   UNL A   1      48.828  24.380  33.849  1.00  0.00    -0.237 OA
ATOM     63  O   UNL A   1      49.911  25.047  31.736  1.00  0.00    -0.744 OA
ENDBRANCH  59  60
ENDBRANCH  40  54
BRANCH  41  64
ATOM     64  C   UNL A   1      37.174  32.798  29.880  1.00  0.00    -0.014 A 
ATOM     65  C   UNL A   1      36.996  33.541  28.699  1.00  0.00     0.010 A 
ATOM     66  C   UNL A   1      36.113  32.718  30.800  1.00  0.00     0.010 A 
ATOM     67  C   UNL A   1      35.792  34.211  28.455  1.00  0.00     0.020 A 
ATOM     68  C   UNL A   1      34.898  33.362  30.546  1.00  0.00     0.020 A 
ATOM     69  C   UNL A   1      34.750  34.115  29.380  1.00  0.00     0.054 A 
BRANCH  69  70
ATOM     70  S   UNL A   1      33.182  34.956  29.023  1.00  0.00     0.124 S 
ATOM     71  O   UNL A   1      32.530  34.950  30.328  1.00  0.00    -0.237 OA
ATOM     72  O   UNL A   1      33.628  36.262  28.544  1.00  0.00    -0.237 OA
ATOM     73  O   UNL A   1      32.563  34.107  28.008  1.00  0.00    -0.744 OA
ENDBRANCH  69  70
ENDBRANCH  41  64
BRANCH  53  74
ATOM     74  C   UNL A   1      42.921  34.506  33.451  1.00  0.00    -0.014 A 
ATOM     75  C   UNL A   1      42.655  34.676  34.821  1.00  0.00     0.010 A 
ATOM     76  C   UNL A   1      43.644  35.498  32.764  1.00  0.00     0.010 A 
ATOM     77  C   UNL A   1      43.079  35.831  35.483  1.00  0.00     0.020 A 
ATOM     78  C   UNL A   1      44.095  36.640  33.429  1.00  0.00     0.020 A 
ATOM     79  C   UNL A   1      43.796  36.805  34.782  1.00  0.00     0.054 A 
BRANCH  79  80
ATOM     80  S   UNL A   1      44.374  38.273  35.676  1.00  0.00     0.124 S 
ATOM     81  O   UNL A   1      45.825  38.127  35.592  1.00  0.00    -0.237 OA
ATOM     82  O   UNL A   1      43.806  39.369  34.895  1.00  0.00    -0.237 OA
ATOM     83  O   UNL A   1      43.808  38.111  37.014  1.00  0.00    -0.744 OA
ENDBRANCH  79  80
ENDBRANCH  53  74
ENDBRANCH  27  28
ENDBRANCH  19  22
ENDBRANCH  17  18
ENDBRANCH   1  17
TORSDOF 15
ENDMDL
MODEL 2
REMARK VINA RESULT:      -9.8      2.798      9.405
REMARK SMILES CC(=O)Oc1ccccc1C(=O)NCCCNC(=O)c1ccc(-c2c3nc(c(-c4ccc(S(=O)(=O)[O-])cc4)c4ccc([nH]4)c(-c4ccc(S(=O)(=O)[O-])cc4)c4nc(c(-c5ccc(S(=O)(=O)[O-])cc5)c5ccc2[nH]5)C=C4)C=C3)cc1
REMARK SMILES IDX 15 1 14 2 13 3 11 4 12 5 10 7 5 8 6 9 7 10 9 11 8 12 4 13
REMARK SMILES IDX 2 14 1 15 3 16 16 17 17 18 18 19 19 21 20 22 21 23 79 24
REMARK SMILES IDX 22 25 78 26 23 27 24 28 25 29 72 30 26 31 77 32 71 33 73 34
REMARK SMILES IDX 27 35 76 36 70 37 69 38 28 40 58 41 39 42 57 43 40 44 43 45
REMARK SMILES IDX 56 46 74 47 41 48 42 49 55 51 75 52 44 53 29 54 30 55 38 56
REMARK SMILES IDX 31 57 37 58 32 59 33 60 34 61 35 62 36 63 59 64 60 65 68 66
REMARK SMILES IDX 61 67 67 68 62 69 63 70 64 71 65 72 66 73 45 74 46 75 54 76
REMARK SMILES IDX 47 77 53 78 48 79 49 80 50 81 51 82 52 83
REMARK H PARENT 13 6 17 20 73 39 43 50
REMARK Flexibility Score: inf
ROOT
ATOM      1  C   UNL A   1      33.356  28.396  25.797  1.00  0.00     0.042 C 
ENDROOT
BRANCH   1   2
ATOM      2  C   UNL A   1      33.210  26.945  25.397  1.00  0.00     0.118 C 
BRANCH   2   3
ATOM      3  N   UNL A   1      32.529  26.089  26.336  1.00  0.00    -0.352 N 
ATOM      4  C   UNL A   1      32.324  24.731  26.277  1.00  0.00     0.255 C 
ATOM      5  O   UNL A   1      31.783  24.194  27.246  1.00  0.00    -0.269 OA
ATOM      6  H   UNL A   1      32.158  26.539  27.129  1.00  0.00     0.163 HD
BRANCH   4   7
ATOM      7  C   UNL A   1      32.600  23.916  25.061  1.00  0.00     0.082 A 
ATOM      8  C   UNL A   1      33.841  23.611  24.484  1.00  0.00     0.143 A 
ATOM      9  C   UNL A   1      33.915  22.925  23.262  1.00  0.00     0.048 A 
ATOM     10  C   UNL A   1      32.757  22.484  22.629  1.00  0.00     0.004 A 
ATOM     11  C   UNL A   1      31.443  23.424  24.420  1.00  0.00     0.018 A 
ATOM     12  C   UNL A   1      31.518  22.719  23.216  1.00  0.00     0.001 A 
BRANCH   8  13
ATOM     13  O   UNL A   1      35.088  24.052  24.958  1.00  0.00    -0.426 OA
BRANCH  13  14
ATOM     14  C   UNL A   1      35.772  23.276  25.885  1.00  0.00     0.308 C 
ATOM     15  C   UNL A   1      37.170  23.816  26.030  1.00  0.00     0.139 C 
ATOM     16  O   UNL A   1      35.332  22.293  26.473  1.00  0.00    -0.252 OA
ENDBRANCH  13  14
ENDBRANCH   8  13
ENDBRANCH   4   7
ENDBRANCH   2   3
ENDBRANCH   1   2
BRANCH   1  17
ATOM     17  C   UNL A   1      33.264  28.655  27.295  1.00  0.00     0.118 C 
BRANCH  17  18
ATOM     18  N   UNL A   1      33.399  30.058  27.682  1.00  0.00    -0.352 N 
ATOM     19  C   UNL A   1      34.441  30.782  28.218  1.00  0.00     0.251 C 
ATOM     20  H   UNL A   1      32.586  30.591  27.529  1.00  0.00     0.163 HD
ATOM     21  O   UNL A   1      34.237  31.944  28.565  1.00  0.00    -0.269 OA
BRANCH  19  22
ATOM     22  C   UNL A   1      35.778  30.176  28.428  1.00  0.00     0.039 A 
ATOM     23  C   UNL A   1      36.694  30.144  27.371  1.00  0.00     0.014 A 
ATOM     24  C   UNL A   1      36.144  29.637  29.657  1.00  0.00     0.014 A 
ATOM     25  C   UNL A   1      37.999  29.685  27.588  1.00  0.00     0.010 A 
ATOM     26  C   UNL A   1      37.474  29.328  29.913  1.00  0.00     0.010 A 
ATOM     27  C   UNL A   1      38.421  29.337  28.881  1.00  0.00    -0.014 A 
BRANCH  27  28
ATOM     28  C   UNL A   1      39.830  28.970  29.192  1.00  0.00     0.031 A 
ATOM     29  C   UNL A   1      40.766  30.000  29.780  1.00  0.00     0.074 A 
ATOM     30  C   UNL A   1      40.302  27.754  28.844  1.00  0.00     0.049 A 
ATOM     31  N   UNL A   1      42.055  29.922  29.988  1.00  0.00    -0.248 NA
ATOM     32  C   UNL A   1      40.185  31.306  30.138  1.00  0.00     0.031 C 
ATOM     33  C   UNL A   1      39.523  26.689  28.203  1.00  0.00     0.029 A 
ATOM     34  N   UNL A   1      41.557  27.211  28.966  1.00  0.00    -0.354 N 
ATOM     35  C   UNL A   1      42.441  31.174  30.453  1.00  0.00     0.074 A 
ATOM     36  C   UNL A   1      41.264  32.012  30.443  1.00  0.00     0.031 C 
ATOM     37  C   UNL A   1      40.307  25.615  28.021  1.00  0.00     0.029 A 
ATOM     38  C   UNL A   1      41.655  25.926  28.482  1.00  0.00     0.049 A 
ATOM     39  H   UNL A   1      42.317  27.696  29.363  1.00  0.00     0.167 HD
ATOM     40  C   UNL A   1      43.659  31.586  30.877  1.00  0.00     0.031 A 
ATOM     41  C   UNL A   1      42.712  25.094  28.406  1.00  0.00     0.031 A 
ATOM     42  C   UNL A   1      44.816  30.735  30.936  1.00  0.00     0.049 A 
ATOM     43  C   UNL A   1      44.045  25.559  28.925  1.00  0.00     0.074 A 
ATOM     44  C   UNL A   1      46.072  31.026  31.438  1.00  0.00     0.029 A 
ATOM     45  N   UNL A   1      44.856  29.423  30.488  1.00  0.00    -0.354 N 
ATOM     46  N   UNL A   1      44.368  26.723  29.436  1.00  0.00    -0.248 NA
ATOM     47  C   UNL A   1      45.153  24.595  28.869  1.00  0.00     0.031 C 
ATOM     48  C   UNL A   1      46.887  29.906  31.246  1.00  0.00     0.029 A 
ATOM     49  C   UNL A   1      46.121  28.899  30.681  1.00  0.00     0.049 A 
ATOM     50  H   UNL A   1      44.097  28.938  30.091  1.00  0.00     0.167 HD
ATOM     51  C   UNL A   1      45.710  26.622  29.789  1.00  0.00     0.074 A 
ATOM     52  C   UNL A   1      46.131  25.278  29.449  1.00  0.00     0.031 C 
ATOM     53  C   UNL A   1      46.521  27.557  30.342  1.00  0.00     0.031 A 
BRANCH  40  54
ATOM     54  C   UNL A   1      43.802  33.019  31.323  1.00  0.00    -0.014 A 
ATOM     55  C   UNL A   1      44.133  34.038  30.411  1.00  0.00     0.010 A 
ATOM     56  C   UNL A   1      43.550  33.361  32.665  1.00  0.00     0.010 A 
ATOM     57  C   UNL A   1      44.249  35.363  30.839  1.00  0.00     0.020 A 
ATOM     58  C   UNL A   1      43.634  34.690  33.091  1.00  0.00     0.020 A 
ATOM     59  C   UNL A   1      43.998  35.680  32.177  1.00  0.00     0.054 A 
BRANCH  59  60
ATOM     60  S   UNL A   1      44.117  37.414  32.694  1.00  0.00     0.124 S 
ATOM     61  O   UNL A   1      43.836  38.120  31.446  1.00  0.00    -0.237 OA
ATOM     62  O   UNL A   1      43.082  37.514  33.719  1.00  0.00    -0.237 OA
ATOM     63  O   UNL A   1      45.489  37.538  33.183  1.00  0.00    -0.744 OA
ENDBRANCH  59  60
ENDBRANCH  40  54
BRANCH  41  64
ATOM     64  C   UNL A   1      42.549  23.728  27.832  1.00  0.00    -0.014 A 
ATOM     65  C   UNL A   1      42.281  22.628  28.667  1.00  0.00     0.010 A 
ATOM     66  C   UNL A   1      42.653  23.520  26.445  1.00  0.00     0.010 A 
ATOM     67  C   UNL A   1      42.146  21.344  28.129  1.00  0.00     0.020 A 
ATOM     68  C   UNL A   1      42.489  22.243  25.900  1.00  0.00     0.020 A 
ATOM     69  C   UNL A   1      42.249  21.160  26.748  1.00  0.00     0.054 A 
BRANCH  69  70
ATOM     70  S   UNL A   1      42.027  19.492  26.067  1.00  0.00     0.124 S 
ATOM     71  O   UNL A   1      42.480  18.651  27.170  1.00  0.00    -0.237 OA
ATOM     72  O   UNL A   1      40.593  19.455  25.790  1.00  0.00    -0.237 OA
ATOM     73  O   UNL A   1      42.883  19.490  24.883  1.00  0.00    -0.744 OA
ENDBRANCH  69  70
ENDBRANCH  41  64
BRANCH  53  74
ATOM     74  C   UNL A   1      47.935  27.151  30.655  1.00  0.00    -0.014 A 
ATOM     75  C   UNL A   1      49.004  27.528  29.823  1.00  0.00     0.010 A 
ATOM     76  C   UNL A   1      48.203  26.434  31.836  1.00  0.00     0.010 A 
ATOM     77  C   UNL A   1      50.313  27.168  30.151  1.00  0.00     0.020 A 
ATOM     78  C   UNL A   1      49.513  26.099  32.183  1.00  0.00     0.020 A 
ATOM     79  C   UNL A   1      50.559  26.456  31.330  1.00  0.00     0.054 A 
BRANCH  79  80
ATOM     80  S   UNL A   1      52.272  26.041  31.756  1.00  0.00     0.124 S 
ATOM     81  O   UNL A   1      52.870  25.835  30.440  1.00  0.00    -0.237 OA
ATOM     82  O   UNL A   1      52.722  27.233  32.472  1.00  0.00    -0.237 OA
ATOM     83  O   UNL A   1      52.144  24.840  32.578  1.00  0.00    -0.744 OA
ENDBRANCH  79  80
ENDBRANCH  53  74
ENDBRANCH  27  28
ENDBRANCH  19  22
ENDBRANCH  17  18
ENDBRANCH   1  17
TORSDOF 15
ENDMDL
MODEL 3
REMARK VINA RESULT:      -9.8      3.107      3.914
REMARK SMILES CC(=O)Oc1ccccc1C(=O)NCCCNC(=O)c1ccc(-c2c3nc(c(-c4ccc(S(=O)(=O)[O-])cc4)c4ccc([nH]4)c(-c4ccc(S(=O)(=O)[O-])cc4)c4nc(c(-c5ccc(S(=O)(=O)[O-])cc5)c5ccc2[nH]5)C=C4)C=C3)cc1
REMARK SMILES IDX 15 1 14 2 13 3 11 4 12 5 10 7 5 8 6 9 7 10 9 11 8 12 4 13
REMARK SMILES IDX 2 14 1 15 3 16 16 17 17 18 18 19 19 21 20 22 21 23 79 24
REMARK SMILES IDX 22 25 78 26 23 27 24 28 25 29 72 30 26 31 77 32 71 33 73 34
REMARK SMILES IDX 27 35 76 36 70 37 69 38 28 40 58 41 39 42 57 43 40 44 43 45
REMARK SMILES IDX 56 46 74 47 41 48 42 49 55 51 75 52 44 53 29 54 30 55 38 56
REMARK SMILES IDX 31 57 37 58 32 59 33 60 34 61 35 62 36 63 59 64 60 65 68 66
REMARK SMILES IDX 61 67 67 68 62 69 63 70 64 71 65 72 66 73 45 74 46 75 54 76
REMARK SMILES IDX 47 77 53 78 48 79 49 80 50 81 51 82 52 83
REMARK H PARENT 13 6 17 20 73 39 43 50
REMARK Flexibility Score: inf
ROOT
ATOM      1  C   UNL A   1      37.492  23.085  25.377  1.00  0.00     0.042 C 
ENDROOT
BRANCH   1   2
ATOM      2  C   UNL A   1      36.119  22.761  25.919  1.00  0.00     0.118 C 
BRANCH   2   3
ATOM      3  N   UNL A   1      35.572  21.480  25.549  1.00  0.00    -0.352 N 
ATOM      4  C   UNL A   1      34.514  21.197  24.719  1.00  0.00     0.255 C 
ATOM      5  O   UNL A   1      34.277  20.011  24.480  1.00  0.00    -0.269 OA
ATOM      6  H   UNL A   1      36.018  20.698  25.948  1.00  0.00     0.163 HD
BRANCH   4   7
ATOM      7  C   UNL A   1      33.575  22.237  24.211  1.00  0.00     0.082 A 
ATOM      8  C   UNL A   1      32.356  22.652  24.767  1.00  0.00     0.143 A 
ATOM      9  C   UNL A   1      31.534  23.566  24.091  1.00  0.00     0.048 A 
ATOM     10  C   UNL A   1      31.942  24.122  22.881  1.00  0.00     0.004 A 
ATOM     11  C   UNL A   1      33.984  22.845  23.005  1.00  0.00     0.018 A 
ATOM     12  C   UNL A   1      33.176  23.774  22.345  1.00  0.00     0.001 A 
BRANCH   8  13
ATOM     13  O   UNL A   1      31.774  22.127  25.933  1.00  0.00    -0.426 OA
BRANCH  13  14
ATOM     14  C   UNL A   1      31.771  22.893  27.091  1.00  0.00     0.308 C 
ATOM     15  C   UNL A   1      33.011  22.577  27.884  1.00  0.00     0.139 C 
ATOM     16  O   UNL A   1      30.895  23.681  27.437  1.00  0.00    -0.252 OA
ENDBRANCH  13  14
ENDBRANCH   8  13
ENDBRANCH   4   7
ENDBRANCH   2   3
ENDBRANCH   1   2
BRANCH   1  17
ATOM     17  C   UNL A   1      38.291  24.073  26.218  1.00  0.00     0.118 C 
BRANCH  17  18
ATOM     18  N   UNL A   1      39.739  24.003  26.031  1.00  0.00    -0.352 N 
ATOM     19  C   UNL A   1      40.779  24.772  26.504  1.00  0.00     0.251 C 
ATOM     20  H   UNL A   1      40.028  23.260  25.454  1.00  0.00     0.163 HD
ATOM     21  O   UNL A   1      41.914  24.556  26.082  1.00  0.00    -0.269 OA
BRANCH  19  22
ATOM     22  C   UNL A   1      40.551  25.877  27.466  1.00  0.00     0.039 A 
ATOM     23  C   UNL A   1      39.610  25.716  28.489  1.00  0.00     0.014 A 
ATOM     24  C   UNL A   1      41.253  27.074  27.375  1.00  0.00     0.014 A 
ATOM     25  C   UNL A   1      39.471  26.702  29.474  1.00  0.00     0.010 A 
ATOM     26  C   UNL A   1      41.228  27.978  28.429  1.00  0.00     0.010 A 
ATOM     27  C   UNL A   1      40.329  27.812  29.491  1.00  0.00    -0.014 A 
BRANCH  27  28
ATOM     28  C   UNL A   1      40.314  28.821  30.587  1.00  0.00     0.031 A 
ATOM     29  C   UNL A   1      41.224  28.651  31.780  1.00  0.00     0.074 A 
ATOM     30  C   UNL A   1      39.409  29.821  30.568  1.00  0.00     0.049 A 
ATOM     31  N   UNL A   1      41.260  29.335  32.895  1.00  0.00    -0.248 NA
ATOM     32  C   UNL A   1      42.189  27.539  31.735  1.00  0.00     0.031 C 
ATOM     33  C   UNL A   1      38.423  30.059  29.509  1.00  0.00     0.029 A 
ATOM     34  N   UNL A   1      39.159  30.821  31.475  1.00  0.00    -0.354 N 
ATOM     35  C   UNL A   1      42.211  28.709  33.694  1.00  0.00     0.074 A 
ATOM     36  C   UNL A   1      42.688  27.558  32.962  1.00  0.00     0.031 C 
ATOM     37  C   UNL A   1      37.701  31.149  29.811  1.00  0.00     0.029 A 
ATOM     38  C   UNL A   1      38.134  31.663  31.106  1.00  0.00     0.049 A 
ATOM     39  H   UNL A   1      39.666  30.926  32.313  1.00  0.00     0.167 HD
ATOM     40  C   UNL A   1      42.669  29.072  34.915  1.00  0.00     0.031 A 
ATOM     41  C   UNL A   1      37.594  32.722  31.740  1.00  0.00     0.031 A 
ATOM     42  C   UNL A   1      42.231  30.247  35.617  1.00  0.00     0.049 A 
ATOM     43  C   UNL A   1      38.150  33.132  33.077  1.00  0.00     0.074 A 
ATOM     44  C   UNL A   1      42.699  30.757  36.815  1.00  0.00     0.029 A 
ATOM     45  N   UNL A   1      41.230  31.103  35.180  1.00  0.00    -0.354 N 
ATOM     46  N   UNL A   1      39.106  32.571  33.777  1.00  0.00    -0.248 NA
ATOM     47  C   UNL A   1      37.563  34.326  33.702  1.00  0.00     0.031 C 
ATOM     48  C   UNL A   1      41.945  31.892  37.128  1.00  0.00     0.029 A 
ATOM     49  C   UNL A   1      41.051  32.123  36.096  1.00  0.00     0.049 A 
ATOM     50  H   UNL A   1      40.724  30.998  34.342  1.00  0.00     0.167 HD
ATOM     51  C   UNL A   1      39.255  33.360  34.913  1.00  0.00     0.074 A 
ATOM     52  C   UNL A   1      38.304  34.445  34.796  1.00  0.00     0.031 C 
ATOM     53  C   UNL A   1      40.103  33.199  35.959  1.00  0.00     0.031 A 
BRANCH  40  54
ATOM     54  C   UNL A   1      43.706  28.195  35.568  1.00  0.00    -0.014 A 
ATOM     55  C   UNL A   1      45.081  28.402  35.348  1.00  0.00     0.010 A 
ATOM     56  C   UNL A   1      43.304  27.180  36.456  1.00  0.00     0.010 A 
ATOM     57  C   UNL A   1      46.030  27.587  35.971  1.00  0.00     0.020 A 
ATOM     58  C   UNL A   1      44.251  26.383  37.105  1.00  0.00     0.020 A 
ATOM     59  C   UNL A   1      45.608  26.583  36.847  1.00  0.00     0.054 A 
BRANCH  59  60
ATOM     60  S   UNL A   1      46.865  25.567  37.671  1.00  0.00     0.124 S 
ATOM     61  O   UNL A   1      46.062  24.821  38.636  1.00  0.00    -0.237 OA
ATOM     62  O   UNL A   1      47.413  24.781  36.568  1.00  0.00    -0.237 OA
ATOM     63  O   UNL A   1      47.780  26.548  38.249  1.00  0.00    -0.744 OA
ENDBRANCH  59  60
ENDBRANCH  40  54
BRANCH  41  64
ATOM     64  C   UNL A   1      36.475  33.479  31.112  1.00  0.00    -0.014 A 
ATOM     65  C   UNL A   1      36.556  33.893  29.770  1.00  0.00     0.010 A 
ATOM     66  C   UNL A   1      35.317  33.786  31.849  1.00  0.00     0.010 A 
ATOM     67  C   UNL A   1      35.514  34.619  29.186  1.00  0.00     0.020 A 
ATOM     68  C   UNL A   1      34.260  34.485  31.260  1.00  0.00     0.020 A 
ATOM     69  C   UNL A   1      34.371  34.909  29.935  1.00  0.00     0.054 A 
BRANCH  69  70
ATOM     70  S   UNL A   1      33.011  35.815  29.144  1.00  0.00     0.124 S 
ATOM     71  O   UNL A   1      33.725  36.853  28.408  1.00  0.00    -0.237 OA
ATOM     72  O   UNL A   1      32.378  34.781  28.328  1.00  0.00    -0.237 OA
ATOM     73  O   UNL A   1      32.211  36.283  30.273  1.00  0.00    -0.744 OA
ENDBRANCH  69  70
ENDBRANCH  41  64
BRANCH  53  74
ATOM     74  C   UNL A   1      40.070  34.241  37.044  1.00  0.00    -0.014 A 
ATOM     75  C   UNL A   1      40.956  35.332  37.036  1.00  0.00     0.010 A 
ATOM     76  C   UNL A   1      39.093  34.156  38.053  1.00  0.00     0.010 A 
ATOM     77  C   UNL A   1      40.885  36.305  38.036  1.00  0.00     0.020 A 
ATOM     78  C   UNL A   1      39.000  35.142  39.038  1.00  0.00     0.020 A 
ATOM     79  C   UNL A   1      39.907  36.203  39.031  1.00  0.00     0.054 A 
BRANCH  79  80
ATOM     80  S   UNL A   1      39.807  37.503  40.291  1.00  0.00     0.124 S 
ATOM     81  O   UNL A   1      40.377  36.837  41.459  1.00  0.00    -0.237 OA
ATOM     82  O   UNL A   1      40.621  38.571  39.715  1.00  0.00    -0.237 OA
ATOM     83  O   UNL A   1      38.377  37.795  40.375  1.00  0.00    -0.744 OA
ENDBRANCH  79  80
ENDBRANCH  53  74
ENDBRANCH  27  28
ENDBRANCH  19  22
ENDBRANCH  17  18
ENDBRANCH   1  17
TORSDOF 15
ENDMDL
