MODEL 1
REMARK VINA RESULT:     -10.0      0.000      0.000
REMARK SMILES CCOc1cccc(-c2ccc([C@@H](C)C(=O)NCCCNC(=O)c3ccc(-c4c5nc(c(-c6ccc(S(=O)(=O)[O-])cc6)c6ccc([nH]6)c(-c6ccc(S(=O)(=O)[O-])cc6)c6nc(c(-c7ccc(S(=O)(=O)[O-])cc7)c7ccc4[nH]7)C=C6)C=C5)cc3)cc2F)c1
REMARK SMILES IDX 18 1 17 2 15 3 16 4 13 6 14 7 12 8 9 9 10 10 85 11 11 12
REMARK SMILES IDX 84 13 86 14 8 15 4 16 5 17 87 18 6 19 7 20 3 21 2 22 1 23
REMARK SMILES IDX 19 24 20 25 21 26 22 27 23 29 24 30 25 31 83 32 26 33 82 34
REMARK SMILES IDX 27 35 28 36 29 37 76 38 30 39 81 40 75 41 77 42 31 43 80 44
REMARK SMILES IDX 74 45 73 46 32 48 62 49 43 50 61 51 44 52 47 53 60 54 78 55
REMARK SMILES IDX 45 56 46 57 59 59 79 60 48 61 33 62 34 63 42 64 35 65 41 66
REMARK SMILES IDX 36 67 37 68 38 69 39 70 40 71 63 72 64 73 72 74 65 75 71 76
REMARK SMILES IDX 66 77 67 78 68 79 69 80 70 81 49 82 50 83 58 84 51 85 57 86
REMARK SMILES IDX 52 87 53 88 54 89 55 90 56 91
REMARK H PARENT 17 5 21 28 77 47 47 58
REMARK Flexibility Score: inf
ROOT
ATOM      1  C   UNL A   1      32.855  34.690  28.709  1.00  0.00     0.117 C 
ENDROOT
BRANCH   1   2
ATOM      2  N   UNL A   1      32.968  36.028  29.257  1.00  0.00    -0.356 N 
ATOM      3  C   UNL A   1      32.941  36.491  30.536  1.00  0.00     0.227 C 
ATOM      4  O   UNL A   1      33.018  37.718  30.674  1.00  0.00    -0.274 OA
ATOM      5  H   UNL A   1      33.086  36.731  28.579  1.00  0.00     0.163 HD
BRANCH   3   6
ATOM      6  C   UNL A   1      32.830  35.591  31.777  1.00  0.00     0.105 C 
ATOM      7  C   UNL A   1      31.960  36.152  32.899  1.00  0.00     0.023 C 
BRANCH   6   8
ATOM      8  C   UNL A   1      34.156  34.986  32.207  1.00  0.00    -0.033 A 
ATOM      9  C   UNL A   1      36.537  33.635  33.073  1.00  0.00     0.018 A 
ATOM     10  C   UNL A   1      36.376  34.085  31.751  1.00  0.00     0.012 A 
ATOM     11  C   UNL A   1      35.491  33.947  33.958  1.00  0.00     0.131 A 
ATOM     12  C   UNL A   1      35.226  34.774  31.335  1.00  0.00     0.005 A 
ATOM     13  C   UNL A   1      34.319  34.580  33.536  1.00  0.00     0.044 A 
ATOM     14  F   UNL A   1      35.573  33.637  35.261  1.00  0.00    -0.206 F 
BRANCH   9  15
ATOM     15  C   UNL A   1      37.719  32.828  33.476  1.00  0.00    -0.012 A 
ATOM     16  C   UNL A   1      38.772  30.645  33.829  1.00  0.00     0.119 A 
ATOM     17  C   UNL A   1      39.980  31.246  34.150  1.00  0.00     0.046 A 
ATOM     18  C   UNL A   1      37.658  31.423  33.513  1.00  0.00     0.055 A 
ATOM     19  C   UNL A   1      40.076  32.634  34.128  1.00  0.00     0.004 A 
ATOM     20  C   UNL A   1      38.958  33.414  33.799  1.00  0.00     0.009 A 
BRANCH  16  21
ATOM     21  O   UNL A   1      38.661  29.285  33.934  1.00  0.00    -0.494 OA
BRANCH  21  22
ATOM     22  C   UNL A   1      39.490  28.586  32.996  1.00  0.00     0.226 C 
ATOM     23  C   UNL A   1      38.727  27.468  32.301  1.00  0.00     0.049 C 
ENDBRANCH  21  22
ENDBRANCH  16  21
ENDBRANCH   9  15
ENDBRANCH   6   8
ENDBRANCH   3   6
ENDBRANCH   1   2
BRANCH   1  24
ATOM     24  C   UNL A   1      34.025  34.331  27.795  1.00  0.00     0.042 C 
BRANCH  24  25
ATOM     25  C   UNL A   1      34.781  33.073  28.210  1.00  0.00     0.118 C 
BRANCH  25  26
ATOM     26  N   UNL A   1      34.075  31.857  27.832  1.00  0.00    -0.352 N 
ATOM     27  C   UNL A   1      34.523  30.573  27.650  1.00  0.00     0.251 C 
ATOM     28  H   UNL A   1      33.110  31.978  27.681  1.00  0.00     0.163 HD
ATOM     29  O   UNL A   1      33.768  29.763  27.116  1.00  0.00    -0.269 OA
BRANCH  27  30
ATOM     30  C   UNL A   1      35.880  30.145  28.070  1.00  0.00     0.039 A 
ATOM     31  C   UNL A   1      36.908  30.176  27.120  1.00  0.00     0.014 A 
ATOM     32  C   UNL A   1      36.143  29.644  29.347  1.00  0.00     0.014 A 
ATOM     33  C   UNL A   1      38.195  29.750  27.463  1.00  0.00     0.010 A 
ATOM     34  C   UNL A   1      37.444  29.293  29.712  1.00  0.00     0.010 A 
ATOM     35  C   UNL A   1      38.482  29.330  28.771  1.00  0.00    -0.014 A 
BRANCH  35  36
ATOM     36  C   UNL A   1      39.861  28.927  29.155  1.00  0.00     0.031 A 
ATOM     37  C   UNL A   1      40.765  29.879  29.893  1.00  0.00     0.074 A 
ATOM     38  C   UNL A   1      40.313  27.705  28.807  1.00  0.00     0.049 A 
ATOM     39  N   UNL A   1      41.993  29.693  30.309  1.00  0.00    -0.248 NA
ATOM     40  C   UNL A   1      40.231  31.218  30.183  1.00  0.00     0.031 C 
ATOM     41  C   UNL A   1      39.557  26.709  28.043  1.00  0.00     0.029 A 
ATOM     42  N   UNL A   1      41.517  27.093  29.050  1.00  0.00    -0.354 N 
ATOM     43  C   UNL A   1      42.382  30.892  30.897  1.00  0.00     0.074 A 
ATOM     44  C   UNL A   1      41.277  31.813  30.739  1.00  0.00     0.031 C 
ATOM     45  C   UNL A   1      40.304  25.601  27.908  1.00  0.00     0.029 A 
ATOM     46  C   UNL A   1      41.598  25.817  28.547  1.00  0.00     0.049 A 
ATOM     47  H   UNL A   1      42.253  27.527  29.539  1.00  0.00     0.167 HD
ATOM     48  C   UNL A   1      43.541  31.195  31.530  1.00  0.00     0.031 A 
ATOM     49  C   UNL A   1      42.598  24.916  28.595  1.00  0.00     0.031 A 
ATOM     50  C   UNL A   1      44.639  30.277  31.692  1.00  0.00     0.049 A 
ATOM     51  C   UNL A   1      43.865  25.265  29.322  1.00  0.00     0.074 A 
ATOM     52  C   UNL A   1      45.836  30.473  32.359  1.00  0.00     0.029 A 
ATOM     53  N   UNL A   1      44.672  28.986  31.185  1.00  0.00    -0.354 N 
ATOM     54  N   UNL A   1      44.187  26.384  29.925  1.00  0.00    -0.248 NA
ATOM     55  C   UNL A   1      44.897  24.221  29.391  1.00  0.00     0.031 C 
ATOM     56  C   UNL A   1      46.611  29.316  32.219  1.00  0.00     0.029 A 
ATOM     57  C   UNL A   1      45.876  28.381  31.508  1.00  0.00     0.049 A 
ATOM     58  H   UNL A   1      43.948  28.564  30.669  1.00  0.00     0.167 HD
ATOM     59  C   UNL A   1      45.455  26.175  30.456  1.00  0.00     0.074 A 
ATOM     60  C   UNL A   1      45.827  24.814  30.125  1.00  0.00     0.031 C 
ATOM     61  C   UNL A   1      46.240  27.033  31.154  1.00  0.00     0.031 A 
BRANCH  48  62
ATOM     62  C   UNL A   1      43.678  32.586  32.092  1.00  0.00    -0.014 A 
ATOM     63  C   UNL A   1      43.421  32.845  33.452  1.00  0.00     0.010 A 
ATOM     64  C   UNL A   1      44.093  33.644  31.263  1.00  0.00     0.010 A 
ATOM     65  C   UNL A   1      43.527  34.143  33.958  1.00  0.00     0.020 A 
ATOM     66  C   UNL A   1      44.228  34.939  31.773  1.00  0.00     0.020 A 
ATOM     67  C   UNL A   1      43.924  35.184  33.113  1.00  0.00     0.054 A 
BRANCH  67  68
ATOM     68  S   UNL A   1      44.061  36.858  33.799  1.00  0.00     0.124 S 
ATOM     69  O   UNL A   1      44.317  37.654  32.601  1.00  0.00    -0.237 OA
ATOM     70  O   UNL A   1      42.753  37.060  34.419  1.00  0.00    -0.237 OA
ATOM     71  O   UNL A   1      45.180  36.759  34.733  1.00  0.00    -0.744 OA
ENDBRANCH  67  68
ENDBRANCH  48  62
BRANCH  49  72
ATOM     72  C   UNL A   1      42.421  23.586  27.953  1.00  0.00    -0.014 A 
ATOM     73  C   UNL A   1      42.994  23.315  26.699  1.00  0.00     0.010 A 
ATOM     74  C   UNL A   1      41.705  22.570  28.614  1.00  0.00     0.010 A 
ATOM     75  C   UNL A   1      42.847  22.055  26.111  1.00  0.00     0.020 A 
ATOM     76  C   UNL A   1      41.578  21.303  28.041  1.00  0.00     0.020 A 
ATOM     77  C   UNL A   1      42.142  21.055  26.788  1.00  0.00     0.054 A 
BRANCH  77  78
ATOM     78  S   UNL A   1      42.027  19.404  26.043  1.00  0.00     0.124 S 
ATOM     79  O   UNL A   1      40.598  19.291  25.774  1.00  0.00    -0.237 OA
ATOM     80  O   UNL A   1      42.887  19.526  24.868  1.00  0.00    -0.237 OA
ATOM     81  O   UNL A   1      42.541  18.524  27.090  1.00  0.00    -0.744 OA
ENDBRANCH  77  78
ENDBRANCH  49  72
BRANCH  61  82
ATOM     82  C   UNL A   1      47.576  26.514  31.612  1.00  0.00    -0.014 A 
ATOM     83  C   UNL A   1      48.691  26.519  30.753  1.00  0.00     0.010 A 
ATOM     84  C   UNL A   1      47.723  26.025  32.923  1.00  0.00     0.010 A 
ATOM     85  C   UNL A   1      49.914  25.996  31.180  1.00  0.00     0.020 A 
ATOM     86  C   UNL A   1      48.952  25.528  33.362  1.00  0.00     0.020 A 
ATOM     87  C   UNL A   1      50.034  25.497  32.480  1.00  0.00     0.054 A 
BRANCH  87  88
ATOM     88  S   UNL A   1      51.634  24.830  33.017  1.00  0.00     0.124 S 
ATOM     89  O   UNL A   1      51.411  24.623  34.446  1.00  0.00    -0.237 OA
ATOM     90  O   UNL A   1      51.762  23.613  32.218  1.00  0.00    -0.237 OA
ATOM     91  O   UNL A   1      52.581  25.891  32.681  1.00  0.00    -0.744 OA
ENDBRANCH  87  88
ENDBRANCH  61  82
ENDBRANCH  35  36
ENDBRANCH  27  30
ENDBRANCH  25  26
ENDBRANCH  24  25
ENDBRANCH   1  24
TORSDOF 17
ENDMDL
MODEL 2
REMARK VINA RESULT:     -10.0      4.805     11.857
REMARK SMILES CCOc1cccc(-c2ccc([C@@H](C)C(=O)NCCCNC(=O)c3ccc(-c4c5nc(c(-c6ccc(S(=O)(=O)[O-])cc6)c6ccc([nH]6)c(-c6ccc(S(=O)(=O)[O-])cc6)c6nc(c(-c7ccc(S(=O)(=O)[O-])cc7)c7ccc4[nH]7)C=C6)C=C5)cc3)cc2F)c1
REMARK SMILES IDX 18 1 17 2 15 3 16 4 13 6 14 7 12 8 9 9 10 10 85 11 11 12
REMARK SMILES IDX 84 13 86 14 8 15 4 16 5 17 87 18 6 19 7 20 3 21 2 22 1 23
REMARK SMILES IDX 19 24 20 25 21 26 22 27 23 29 24 30 25 31 83 32 26 33 82 34
REMARK SMILES IDX 27 35 28 36 29 37 76 38 30 39 81 40 75 41 77 42 31 43 80 44
REMARK SMILES IDX 74 45 73 46 32 48 62 49 43 50 61 51 44 52 47 53 60 54 78 55
REMARK SMILES IDX 45 56 46 57 59 59 79 60 48 61 33 62 34 63 42 64 35 65 41 66
REMARK SMILES IDX 36 67 37 68 38 69 39 70 40 71 63 72 64 73 72 74 65 75 71 76
REMARK SMILES IDX 66 77 67 78 68 79 69 80 70 81 49 82 50 83 58 84 51 85 57 86
REMARK SMILES IDX 52 87 53 88 54 89 55 90 56 91
REMARK H PARENT 17 5 21 28 77 47 47 58
REMARK Flexibility Score: inf
ROOT
ATOM      1  C   UNL A   1      37.045  23.402  26.187  1.00  0.00     0.117 C 
ENDROOT
BRANCH   1   2
ATOM      2  N   UNL A   1      36.049  22.398  26.507  1.00  0.00    -0.356 N 
ATOM      3  C   UNL A   1      34.838  22.111  25.957  1.00  0.00     0.227 C 
ATOM      4  O   UNL A   1      34.195  21.203  26.499  1.00  0.00    -0.274 OA
ATOM      5  H   UNL A   1      36.295  21.816  27.262  1.00  0.00     0.163 HD
BRANCH   3   6
ATOM      6  C   UNL A   1      34.255  22.831  24.732  1.00  0.00     0.105 C 
ATOM      7  C   UNL A   1      35.016  22.599  23.429  1.00  0.00     0.023 C 
BRANCH   6   8
ATOM      8  C   UNL A   1      33.847  24.268  25.012  1.00  0.00    -0.033 A 
ATOM      9  C   UNL A   1      32.939  26.973  25.334  1.00  0.00     0.018 A 
ATOM     10  C   UNL A   1      32.647  25.973  26.279  1.00  0.00     0.012 A 
ATOM     11  C   UNL A   1      33.757  26.583  24.261  1.00  0.00     0.131 A 
ATOM     12  C   UNL A   1      33.118  24.658  26.137  1.00  0.00     0.005 A 
ATOM     13  C   UNL A   1      34.179  25.262  24.085  1.00  0.00     0.044 A 
ATOM     14  F   UNL A   1      34.165  27.474  23.343  1.00  0.00    -0.206 F 
BRANCH   9  15
ATOM     15  C   UNL A   1      32.357  28.337  25.449  1.00  0.00    -0.012 A 
ATOM     16  C   UNL A   1      30.733  30.016  24.714  1.00  0.00     0.119 A 
ATOM     17  C   UNL A   1      31.156  30.900  25.695  1.00  0.00     0.046 A 
ATOM     18  C   UNL A   1      31.334  28.764  24.584  1.00  0.00     0.055 A 
ATOM     19  C   UNL A   1      32.170  30.513  26.566  1.00  0.00     0.004 A 
ATOM     20  C   UNL A   1      32.765  29.249  26.441  1.00  0.00     0.009 A 
BRANCH  16  21
ATOM     21  O   UNL A   1      29.796  30.433  23.808  1.00  0.00    -0.494 OA
BRANCH  21  22
ATOM     22  C   UNL A   1      29.463  29.420  22.849  1.00  0.00     0.226 C 
ATOM     23  C   UNL A   1      27.964  29.362  22.596  1.00  0.00     0.049 C 
ENDBRANCH  21  22
ENDBRANCH  16  21
ENDBRANCH   9  15
ENDBRANCH   6   8
ENDBRANCH   3   6
ENDBRANCH   1   2
BRANCH   1  24
ATOM     24  C   UNL A   1      38.441  22.810  26.016  1.00  0.00     0.042 C 
BRANCH  24  25
ATOM     25  C   UNL A   1      39.519  23.495  26.850  1.00  0.00     0.118 C 
BRANCH  25  26
ATOM     26  N   UNL A   1      40.525  24.146  26.022  1.00  0.00    -0.352 N 
ATOM     27  C   UNL A   1      41.086  25.396  26.098  1.00  0.00     0.251 C 
ATOM     28  H   UNL A   1      40.858  23.595  25.279  1.00  0.00     0.163 HD
ATOM     29  O   UNL A   1      41.757  25.793  25.147  1.00  0.00    -0.269 OA
BRANCH  27  30
ATOM     30  C   UNL A   1      40.900  26.272  27.282  1.00  0.00     0.039 A 
ATOM     31  C   UNL A   1      41.751  27.373  27.431  1.00  0.00     0.014 A 
ATOM     32  C   UNL A   1      39.965  25.988  28.280  1.00  0.00     0.014 A 
ATOM     33  C   UNL A   1      41.633  28.206  28.548  1.00  0.00     0.010 A 
ATOM     34  C   UNL A   1      39.795  26.863  29.355  1.00  0.00     0.010 A 
ATOM     35  C   UNL A   1      40.635  27.974  29.508  1.00  0.00    -0.014 A 
BRANCH  35  36
ATOM     36  C   UNL A   1      40.472  28.887  30.670  1.00  0.00     0.031 A 
ATOM     37  C   UNL A   1      41.341  28.742  31.892  1.00  0.00     0.074 A 
ATOM     38  C   UNL A   1      39.512  29.833  30.638  1.00  0.00     0.049 A 
ATOM     39  N   UNL A   1      41.339  29.450  32.993  1.00  0.00    -0.248 NA
ATOM     40  C   UNL A   1      42.323  27.647  31.888  1.00  0.00     0.031 C 
ATOM     41  C   UNL A   1      38.568  30.044  29.538  1.00  0.00     0.029 A 
ATOM     42  N   UNL A   1      39.172  30.795  31.556  1.00  0.00    -0.354 N 
ATOM     43  C   UNL A   1      42.307  28.882  33.814  1.00  0.00     0.074 A 
ATOM     44  C   UNL A   1      42.840  27.740  33.104  1.00  0.00     0.031 C 
ATOM     45  C   UNL A   1      37.777  31.088  29.832  1.00  0.00     0.029 A 
ATOM     46  C   UNL A   1      38.136  31.603  31.150  1.00  0.00     0.049 A 
ATOM     47  H   UNL A   1      39.627  30.898  32.423  1.00  0.00     0.167 HD
ATOM     48  C   UNL A   1      42.731  29.284  35.037  1.00  0.00     0.031 A 
ATOM     49  C   UNL A   1      37.541  32.643  31.764  1.00  0.00     0.031 A 
ATOM     50  C   UNL A   1      42.205  30.424  35.743  1.00  0.00     0.049 A 
ATOM     51  C   UNL A   1      38.044  33.086  33.109  1.00  0.00     0.074 A 
ATOM     52  C   UNL A   1      42.600  30.941  36.964  1.00  0.00     0.029 A 
ATOM     53  N   UNL A   1      41.170  31.227  35.287  1.00  0.00    -0.354 N 
ATOM     54  N   UNL A   1      39.002  32.571  33.840  1.00  0.00    -0.248 NA
ATOM     55  C   UNL A   1      37.394  34.262  33.702  1.00  0.00     0.031 C 
ATOM     56  C   UNL A   1      41.777  32.031  37.267  1.00  0.00     0.029 A 
ATOM     57  C   UNL A   1      40.902  32.225  36.210  1.00  0.00     0.049 A 
ATOM     58  H   UNL A   1      40.695  31.106  34.433  1.00  0.00     0.167 HD
ATOM     59  C   UNL A   1      39.081  33.369  34.976  1.00  0.00     0.074 A 
ATOM     60  C   UNL A   1      38.089  34.415  34.820  1.00  0.00     0.031 C 
ATOM     61  C   UNL A   1      39.898  33.246  36.051  1.00  0.00     0.031 A 
BRANCH  48  62
ATOM     62  C   UNL A   1      43.821  28.475  35.691  1.00  0.00    -0.014 A 
ATOM     63  C   UNL A   1      45.178  28.784  35.478  1.00  0.00     0.010 A 
ATOM     64  C   UNL A   1      43.491  27.410  36.549  1.00  0.00     0.010 A 
ATOM     65  C   UNL A   1      46.182  28.013  36.069  1.00  0.00     0.020 A 
ATOM     66  C   UNL A   1      44.493  26.653  37.164  1.00  0.00     0.020 A 
ATOM     67  C   UNL A   1      45.833  26.947  36.904  1.00  0.00     0.054 A 
BRANCH  67  68
ATOM     68  S   UNL A   1      47.156  25.967  37.664  1.00  0.00     0.124 S 
ATOM     69  O   UNL A   1      48.061  25.757  36.537  1.00  0.00    -0.237 OA
ATOM     70  O   UNL A   1      47.655  26.855  38.712  1.00  0.00    -0.237 OA
ATOM     71  O   UNL A   1      46.469  24.770  38.144  1.00  0.00    -0.744 OA
ENDBRANCH  67  68
ENDBRANCH  48  62
BRANCH  49  72
ATOM     72  C   UNL A   1      36.420  33.351  31.091  1.00  0.00    -0.014 A 
ATOM     73  C   UNL A   1      35.191  33.532  31.749  1.00  0.00     0.010 A 
ATOM     74  C   UNL A   1      36.589  33.879  29.797  1.00  0.00     0.010 A 
ATOM     75  C   UNL A   1      34.148  34.221  31.123  1.00  0.00     0.020 A 
ATOM     76  C   UNL A   1      35.558  34.589  29.179  1.00  0.00     0.020 A 
ATOM     77  C   UNL A   1      34.340  34.748  29.842  1.00  0.00     0.054 A 
BRANCH  77  78
ATOM     78  S   UNL A   1      32.999  35.704  29.076  1.00  0.00     0.124 S 
ATOM     79  O   UNL A   1      32.383  34.714  28.199  1.00  0.00    -0.237 OA
ATOM     80  O   UNL A   1      32.203  36.112  30.231  1.00  0.00    -0.237 OA
ATOM     81  O   UNL A   1      33.703  36.792  28.401  1.00  0.00    -0.744 OA
ENDBRANCH  77  78
ENDBRANCH  49  72
BRANCH  61  82
ATOM     82  C   UNL A   1      39.756  34.279  37.136  1.00  0.00    -0.014 A 
ATOM     83  C   UNL A   1      38.997  34.017  38.292  1.00  0.00     0.010 A 
ATOM     84  C   UNL A   1      40.398  35.523  37.005  1.00  0.00     0.010 A 
ATOM     85  C   UNL A   1      38.842  35.001  39.273  1.00  0.00     0.020 A 
ATOM     86  C   UNL A   1      40.268  36.499  37.996  1.00  0.00     0.020 A 
ATOM     87  C   UNL A   1      39.472  36.238  39.113  1.00  0.00     0.054 A 
BRANCH  87  88
ATOM     88  S   UNL A   1      39.263  37.499  40.401  1.00  0.00     0.124 S 
ATOM     89  O   UNL A   1      38.871  36.692  41.554  1.00  0.00    -0.237 OA
ATOM     90  O   UNL A   1      40.590  38.105  40.480  1.00  0.00    -0.237 OA
ATOM     91  O   UNL A   1      38.219  38.369  39.866  1.00  0.00    -0.744 OA
ENDBRANCH  87  88
ENDBRANCH  61  82
ENDBRANCH  35  36
ENDBRANCH  27  30
ENDBRANCH  25  26
ENDBRANCH  24  25
ENDBRANCH   1  24
TORSDOF 17
ENDMDL
MODEL 3
REMARK VINA RESULT:      -9.9      4.066      6.998
REMARK SMILES CCOc1cccc(-c2ccc([C@@H](C)C(=O)NCCCNC(=O)c3ccc(-c4c5nc(c(-c6ccc(S(=O)(=O)[O-])cc6)c6ccc([nH]6)c(-c6ccc(S(=O)(=O)[O-])cc6)c6nc(c(-c7ccc(S(=O)(=O)[O-])cc7)c7ccc4[nH]7)C=C6)C=C5)cc3)cc2F)c1
REMARK SMILES IDX 18 1 17 2 15 3 16 4 13 6 14 7 12 8 9 9 10 10 85 11 11 12
REMARK SMILES IDX 84 13 86 14 8 15 4 16 5 17 87 18 6 19 7 20 3 21 2 22 1 23
REMARK SMILES IDX 19 24 20 25 21 26 22 27 23 29 24 30 25 31 83 32 26 33 82 34
REMARK SMILES IDX 27 35 28 36 29 37 76 38 30 39 81 40 75 41 77 42 31 43 80 44
REMARK SMILES IDX 74 45 73 46 32 48 62 49 43 50 61 51 44 52 47 53 60 54 78 55
REMARK SMILES IDX 45 56 46 57 59 59 79 60 48 61 33 62 34 63 42 64 35 65 41 66
REMARK SMILES IDX 36 67 37 68 38 69 39 70 40 71 63 72 64 73 72 74 65 75 71 76
REMARK SMILES IDX 66 77 67 78 68 79 69 80 70 81 49 82 50 83 58 84 51 85 57 86
REMARK SMILES IDX 52 87 53 88 54 89 55 90 56 91
REMARK H PARENT 17 5 21 28 77 47 47 58
REMARK Flexibility Score: inf
ROOT
ATOM      1  C   UNL A   1      32.910  27.150  24.601  1.00  0.00     0.117 C 
ENDROOT
BRANCH   1   2
ATOM      2  N   UNL A   1      32.104  27.636  23.499  1.00  0.00    -0.356 N 
ATOM      3  C   UNL A   1      30.941  27.185  22.955  1.00  0.00     0.227 C 
ATOM      4  O   UNL A   1      30.521  27.808  21.971  1.00  0.00    -0.274 OA
ATOM      5  H   UNL A   1      32.463  28.443  23.065  1.00  0.00     0.163 HD
BRANCH   3   6
ATOM      6  C   UNL A   1      30.148  25.983  23.490  1.00  0.00     0.105 C 
ATOM      7  C   UNL A   1      29.156  26.313  24.602  1.00  0.00     0.023 C 
BRANCH   6   8
ATOM      8  C   UNL A   1      31.002  24.745  23.712  1.00  0.00    -0.033 A 
ATOM      9  C   UNL A   1      32.814  22.550  24.087  1.00  0.00     0.018 A 
ATOM     10  C   UNL A   1      31.977  23.009  25.121  1.00  0.00     0.012 A 
ATOM     11  C   UNL A   1      32.660  23.186  22.845  1.00  0.00     0.131 A 
ATOM     12  C   UNL A   1      31.068  24.061  24.927  1.00  0.00     0.005 A 
ATOM     13  C   UNL A   1      31.799  24.272  22.664  1.00  0.00     0.044 A 
ATOM     14  F   UNL A   1      33.349  22.777  21.768  1.00  0.00    -0.206 F 
BRANCH   9  15
ATOM     15  C   UNL A   1      33.834  21.496  24.332  1.00  0.00    -0.012 A 
ATOM     16  C   UNL A   1      36.160  20.860  24.764  1.00  0.00     0.119 A 
ATOM     17  C   UNL A   1      35.803  19.526  24.891  1.00  0.00     0.046 A 
ATOM     18  C   UNL A   1      35.195  21.825  24.474  1.00  0.00     0.055 A 
ATOM     19  C   UNL A   1      34.467  19.164  24.753  1.00  0.00     0.004 A 
ATOM     20  C   UNL A   1      33.497  20.137  24.473  1.00  0.00     0.009 A 
BRANCH  16  21
ATOM     21  O   UNL A   1      37.485  21.199  24.818  1.00  0.00    -0.494 OA
BRANCH  21  22
ATOM     22  C   UNL A   1      37.700  22.513  25.350  1.00  0.00     0.226 C 
ATOM     23  C   UNL A   1      38.836  22.525  26.363  1.00  0.00     0.049 C 
ENDBRANCH  21  22
ENDBRANCH  16  21
ENDBRANCH   9  15
ENDBRANCH   6   8
ENDBRANCH   3   6
ENDBRANCH   1   2
BRANCH   1  24
ATOM     24  C   UNL A   1      32.590  27.853  25.918  1.00  0.00     0.042 C 
BRANCH  24  25
ATOM     25  C   UNL A   1      33.816  28.344  26.681  1.00  0.00     0.118 C 
BRANCH  25  26
ATOM     26  N   UNL A   1      33.674  29.724  27.123  1.00  0.00    -0.352 N 
ATOM     27  C   UNL A   1      34.485  30.511  27.901  1.00  0.00     0.251 C 
ATOM     28  H   UNL A   1      32.854  30.168  26.810  1.00  0.00     0.163 HD
ATOM     29  O   UNL A   1      34.037  31.579  28.315  1.00  0.00    -0.269 OA
BRANCH  27  30
ATOM     30  C   UNL A   1      35.868  30.108  28.255  1.00  0.00     0.039 A 
ATOM     31  C   UNL A   1      36.850  30.160  27.259  1.00  0.00     0.014 A 
ATOM     32  C   UNL A   1      36.199  29.608  29.517  1.00  0.00     0.014 A 
ATOM     33  C   UNL A   1      38.159  29.758  27.540  1.00  0.00     0.010 A 
ATOM     34  C   UNL A   1      37.522  29.280  29.820  1.00  0.00     0.010 A 
ATOM     35  C   UNL A   1      38.514  29.339  28.831  1.00  0.00    -0.014 A 
BRANCH  35  36
ATOM     36  C   UNL A   1      39.917  28.960  29.149  1.00  0.00     0.031 A 
ATOM     37  C   UNL A   1      40.843  29.933  29.830  1.00  0.00     0.074 A 
ATOM     38  C   UNL A   1      40.369  27.741  28.791  1.00  0.00     0.049 A 
ATOM     39  N   UNL A   1      42.093  29.770  30.185  1.00  0.00    -0.248 NA
ATOM     40  C   UNL A   1      40.304  31.268  30.133  1.00  0.00     0.031 C 
ATOM     41  C   UNL A   1      39.591  26.726  28.077  1.00  0.00     0.029 A 
ATOM     42  N   UNL A   1      41.593  27.150  28.979  1.00  0.00    -0.354 N 
ATOM     43  C   UNL A   1      42.492  30.981  30.740  1.00  0.00     0.074 A 
ATOM     44  C   UNL A   1      41.367  31.884  30.629  1.00  0.00     0.031 C 
ATOM     45  C   UNL A   1      40.346  25.628  27.915  1.00  0.00     0.029 A 
ATOM     46  C   UNL A   1      41.668  25.869  28.485  1.00  0.00     0.049 A 
ATOM     47  H   UNL A   1      42.346  27.599  29.425  1.00  0.00     0.167 HD
ATOM     48  C   UNL A   1      43.678  31.308  31.310  1.00  0.00     0.031 A 
ATOM     49  C   UNL A   1      42.682  24.984  28.491  1.00  0.00     0.031 A 
ATOM     50  C   UNL A   1      44.796  30.408  31.426  1.00  0.00     0.049 A 
ATOM     51  C   UNL A   1      43.979  25.358  29.150  1.00  0.00     0.074 A 
ATOM     52  C   UNL A   1      46.022  30.628  32.029  1.00  0.00     0.029 A 
ATOM     53  N   UNL A   1      44.823  29.112  30.931  1.00  0.00    -0.354 N 
ATOM     54  N   UNL A   1      44.314  26.488  29.724  1.00  0.00    -0.248 NA
ATOM     55  C   UNL A   1      45.028  24.330  29.177  1.00  0.00     0.031 C 
ATOM     56  C   UNL A   1      46.806  29.481  31.862  1.00  0.00     0.029 A 
ATOM     57  C   UNL A   1      46.050  28.528  31.199  1.00  0.00     0.049 A 
ATOM     58  H   UNL A   1      44.080  28.673  30.457  1.00  0.00     0.167 HD
ATOM     59  C   UNL A   1      45.610  26.304  30.192  1.00  0.00     0.074 A 
ATOM     60  C   UNL A   1      45.985  24.945  29.857  1.00  0.00     0.031 C 
ATOM     61  C   UNL A   1      46.417  27.181  30.840  1.00  0.00     0.031 A 
BRANCH  48  62
ATOM     62  C   UNL A   1      43.822  32.706  31.851  1.00  0.00    -0.014 A 
ATOM     63  C   UNL A   1      43.449  33.013  33.173  1.00  0.00     0.010 A 
ATOM     64  C   UNL A   1      44.360  33.723  31.040  1.00  0.00     0.010 A 
ATOM     65  C   UNL A   1      43.564  34.319  33.657  1.00  0.00     0.020 A 
ATOM     66  C   UNL A   1      44.503  35.025  31.531  1.00  0.00     0.020 A 
ATOM     67  C   UNL A   1      44.085  35.319  32.830  1.00  0.00     0.054 A 
BRANCH  67  68
ATOM     68  S   UNL A   1      44.229  37.004  33.486  1.00  0.00     0.124 S 
ATOM     69  O   UNL A   1      44.310  37.798  32.263  1.00  0.00    -0.237 OA
ATOM     70  O   UNL A   1      42.996  37.158  34.254  1.00  0.00    -0.237 OA
ATOM     71  O   UNL A   1      45.453  36.961  34.283  1.00  0.00    -0.744 OA
ENDBRANCH  67  68
ENDBRANCH  48  62
BRANCH  49  72
ATOM     72  C   UNL A   1      42.494  23.644  27.873  1.00  0.00    -0.014 A 
ATOM     73  C   UNL A   1      42.846  23.419  26.532  1.00  0.00     0.010 A 
ATOM     74  C   UNL A   1      41.990  22.575  28.639  1.00  0.00     0.010 A 
ATOM     75  C   UNL A   1      42.691  22.151  25.962  1.00  0.00     0.020 A 
ATOM     76  C   UNL A   1      41.858  21.302  28.080  1.00  0.00     0.020 A 
ATOM     77  C   UNL A   1      42.200  21.099  26.742  1.00  0.00     0.054 A 
BRANCH  77  78
ATOM     78  S   UNL A   1      42.077  19.445  26.006  1.00  0.00     0.124 S 
ATOM     79  O   UNL A   1      42.585  18.597  27.079  1.00  0.00    -0.237 OA
ATOM     80  O   UNL A   1      40.648  19.328  25.727  1.00  0.00    -0.237 OA
ATOM     81  O   UNL A   1      42.927  19.538  24.821  1.00  0.00    -0.744 OA
ENDBRANCH  77  78
ENDBRANCH  49  72
BRANCH  61  82
ATOM     82  C   UNL A   1      47.782  26.686  31.236  1.00  0.00    -0.014 A 
ATOM     83  C   UNL A   1      48.866  26.755  30.341  1.00  0.00     0.010 A 
ATOM     84  C   UNL A   1      47.987  26.156  32.522  1.00  0.00     0.010 A 
ATOM     85  C   UNL A   1      50.118  26.256  30.709  1.00  0.00     0.020 A 
ATOM     86  C   UNL A   1      49.245  25.681  32.903  1.00  0.00     0.020 A 
ATOM     87  C   UNL A   1      50.296  25.714  31.986  1.00  0.00     0.054 A 
BRANCH  87  88
ATOM     88  S   UNL A   1      51.932  25.077  32.445  1.00  0.00     0.124 S 
ATOM     89  O   UNL A   1      52.796  25.727  31.464  1.00  0.00    -0.237 OA
ATOM     90  O   UNL A   1      52.084  25.540  33.823  1.00  0.00    -0.237 OA
ATOM     91  O   UNL A   1      51.794  23.630  32.293  1.00  0.00    -0.744 OA
ENDBRANCH  87  88
ENDBRANCH  61  82
ENDBRANCH  35  36
ENDBRANCH  27  30
ENDBRANCH  25  26
ENDBRANCH  24  25
ENDBRANCH   1  24
TORSDOF 17
ENDMDL
