MODEL 1
REMARK VINA RESULT:     -11.0      0.000      0.000
REMARK SMILES CC(C)[C@H]1CC[C@@H](C)C/C1=C(\F)C(=O)NCCCNC(=O)c1ccc(-c2c3nc(c(-c4ccc(S(=O)(=O)[O-])cc4)c4ccc([nH]4)c(-c4ccc(S(=O)(=O)[O-])cc4)c4nc(c(-c5ccc(S(=O)(=O)[O-])cc5)c5ccc2[nH]5)C=C4)C=C3)cc1
REMARK SMILES IDX 18 1 17 2 16 3 15 4 13 5 14 6 11 8 4 9 5 10 10 11 6 12 9 13
REMARK SMILES IDX 7 14 12 15 8 16 2 17 1 18 3 19 19 20 20 21 21 23 22 24 23 25
REMARK SMILES IDX 81 26 24 27 80 28 25 29 26 30 27 31 74 32 28 33 79 34 73 35
REMARK SMILES IDX 75 36 29 37 78 38 72 39 71 40 30 42 60 43 41 44 59 45 42 46
REMARK SMILES IDX 45 47 58 48 76 49 43 50 44 51 57 53 77 54 46 55 31 56 32 57
REMARK SMILES IDX 40 58 33 59 39 60 34 61 35 62 36 63 37 64 38 65 61 66 62 67
REMARK SMILES IDX 70 68 63 69 69 70 64 71 65 72 66 73 67 74 68 75 47 76 48 77
REMARK SMILES IDX 56 78 49 79 55 80 50 81 51 82 52 83 53 84 54 85
REMARK H PARENT 15 7 19 22 75 41 45 52
REMARK Flexibility Score: inf
ROOT
ATOM      1  C   UNL A   1      33.295  28.399  27.243  1.00  0.00     0.118 C 
ENDROOT
BRANCH   1   2
ATOM      2  C   UNL A   1      31.895  27.817  27.071  1.00  0.00     0.042 C 
BRANCH   2   3
ATOM      3  C   UNL A   1      31.826  26.356  26.644  1.00  0.00     0.118 C 
BRANCH   3   4
ATOM      4  N   UNL A   1      31.581  26.157  25.227  1.00  0.00    -0.350 N 
ATOM      5  C   UNL A   1      32.290  25.476  24.279  1.00  0.00     0.279 C 
ATOM      6  O   UNL A   1      31.686  25.129  23.268  1.00  0.00    -0.267 OA
ATOM      7  H   UNL A   1      30.761  26.587  24.890  1.00  0.00     0.163 HD
BRANCH   5   8
ATOM      8  C   UNL A   1      33.717  25.120  24.505  1.00  0.00     0.187 C 
ATOM      9  C   UNL A   1      33.696  22.632  25.455  1.00  0.00     0.021 C 
ATOM     10  C   UNL A   1      34.621  21.452  25.012  1.00  0.00     0.009 C 
ATOM     11  C   UNL A   1      34.282  23.998  25.013  1.00  0.00    -0.025 C 
ATOM     12  C   UNL A   1      36.097  21.641  25.333  1.00  0.00     0.004 C 
ATOM     13  C   UNL A   1      35.784  24.107  25.315  1.00  0.00     0.038 C 
ATOM     14  C   UNL A   1      36.633  22.953  24.777  1.00  0.00    -0.010 C 
ATOM     15  F   UNL A   1      34.535  26.174  24.266  1.00  0.00    -0.201 F 
ATOM     16  C   UNL A   1      36.714  22.943  23.248  1.00  0.00     0.008 C 
BRANCH   9  17
ATOM     17  C   UNL A   1      32.240  22.149  25.137  1.00  0.00    -0.010 C 
ATOM     18  C   UNL A   1      32.180  20.682  24.701  1.00  0.00     0.008 C 
ATOM     19  C   UNL A   1      31.160  22.550  26.144  1.00  0.00     0.008 C 
ENDBRANCH   9  17
ENDBRANCH   5   8
ENDBRANCH   3   4
ENDBRANCH   2   3
ENDBRANCH   1   2
BRANCH   1  20
ATOM     20  N   UNL A   1      33.310  29.828  27.518  1.00  0.00    -0.352 N 
ATOM     21  C   UNL A   1      34.293  30.645  28.025  1.00  0.00     0.251 C 
ATOM     22  H   UNL A   1      32.468  30.291  27.302  1.00  0.00     0.163 HD
ATOM     23  O   UNL A   1      34.021  31.814  28.281  1.00  0.00    -0.269 OA
BRANCH  21  24
ATOM     24  C   UNL A   1      35.656  30.133  28.297  1.00  0.00     0.039 A 
ATOM     25  C   UNL A   1      36.588  30.124  27.254  1.00  0.00     0.014 A 
ATOM     26  C   UNL A   1      36.019  29.634  29.550  1.00  0.00     0.014 A 
ATOM     27  C   UNL A   1      37.898  29.698  27.491  1.00  0.00     0.010 A 
ATOM     28  C   UNL A   1      37.346  29.290  29.806  1.00  0.00     0.010 A 
ATOM     29  C   UNL A   1      38.303  29.320  28.780  1.00  0.00    -0.014 A 
BRANCH  29  30
ATOM     30  C   UNL A   1      39.719  28.970  29.077  1.00  0.00     0.031 A 
ATOM     31  C   UNL A   1      40.651  29.990  29.676  1.00  0.00     0.074 A 
ATOM     32  C   UNL A   1      40.187  27.749  28.744  1.00  0.00     0.049 A 
ATOM     33  N   UNL A   1      41.927  29.884  29.947  1.00  0.00    -0.248 NA
ATOM     34  C   UNL A   1      40.080  31.310  29.991  1.00  0.00     0.031 C 
ATOM     35  C   UNL A   1      39.400  26.680  28.123  1.00  0.00     0.029 A 
ATOM     36  N   UNL A   1      41.440  27.202  28.874  1.00  0.00    -0.354 N 
ATOM     37  C   UNL A   1      42.315  31.123  30.445  1.00  0.00     0.074 A 
ATOM     38  C   UNL A   1      41.150  31.980  30.391  1.00  0.00     0.031 C 
ATOM     39  C   UNL A   1      40.179  25.600  27.954  1.00  0.00     0.029 A 
ATOM     40  C   UNL A   1      41.531  25.911  28.408  1.00  0.00     0.049 A 
ATOM     41  H   UNL A   1      42.202  27.688  29.264  1.00  0.00     0.167 HD
ATOM     42  C   UNL A   1      43.524  31.508  30.921  1.00  0.00     0.031 A 
ATOM     43  C   UNL A   1      42.583  25.071  28.342  1.00  0.00     0.031 A 
ATOM     44  C   UNL A   1      44.680  30.652  30.976  1.00  0.00     0.049 A 
ATOM     45  C   UNL A   1      43.922  25.528  28.855  1.00  0.00     0.074 A 
ATOM     46  C   UNL A   1      45.935  30.933  31.489  1.00  0.00     0.029 A 
ATOM     47  N   UNL A   1      44.729  29.352  30.494  1.00  0.00    -0.354 N 
ATOM     48  N   UNL A   1      44.250  26.683  29.385  1.00  0.00    -0.248 NA
ATOM     49  C   UNL A   1      45.028  24.566  28.771  1.00  0.00     0.031 C 
ATOM     50  C   UNL A   1      46.758  29.826  31.262  1.00  0.00     0.029 A 
ATOM     51  C   UNL A   1      46.000  28.829  30.671  1.00  0.00     0.049 A 
ATOM     52  H   UNL A   1      43.972  28.872  30.086  1.00  0.00     0.167 HD
ATOM     53  C   UNL A   1      45.594  26.574  29.724  1.00  0.00     0.074 A 
ATOM     54  C   UNL A   1      46.011  25.237  29.354  1.00  0.00     0.031 C 
ATOM     55  C   UNL A   1      46.407  27.497  30.295  1.00  0.00     0.031 A 
BRANCH  42  56
ATOM     56  C   UNL A   1      43.661  32.929  31.408  1.00  0.00    -0.014 A 
ATOM     57  C   UNL A   1      43.226  33.307  32.692  1.00  0.00     0.010 A 
ATOM     58  C   UNL A   1      44.266  33.896  30.584  1.00  0.00     0.010 A 
ATOM     59  C   UNL A   1      43.344  34.631  33.122  1.00  0.00     0.020 A 
ATOM     60  C   UNL A   1      44.417  35.215  31.021  1.00  0.00     0.020 A 
ATOM     61  C   UNL A   1      43.937  35.578  32.281  1.00  0.00     0.054 A 
BRANCH  61  62
ATOM     62  S   UNL A   1      44.088  37.287  32.870  1.00  0.00     0.124 S 
ATOM     63  O   UNL A   1      43.785  38.050  31.662  1.00  0.00    -0.237 OA
ATOM     64  O   UNL A   1      43.079  37.352  33.924  1.00  0.00    -0.237 OA
ATOM     65  O   UNL A   1      45.472  37.375  33.331  1.00  0.00    -0.744 OA
ENDBRANCH  61  62
ENDBRANCH  42  56
BRANCH  43  66
ATOM     66  C   UNL A   1      42.406  23.703  27.778  1.00  0.00    -0.014 A 
ATOM     67  C   UNL A   1      42.629  23.459  26.411  1.00  0.00     0.010 A 
ATOM     68  C   UNL A   1      42.032  22.632  28.610  1.00  0.00     0.010 A 
ATOM     69  C   UNL A   1      42.468  22.174  25.885  1.00  0.00     0.020 A 
ATOM     70  C   UNL A   1      41.899  21.339  28.094  1.00  0.00     0.020 A 
ATOM     71  C   UNL A   1      42.108  21.121  26.730  1.00  0.00     0.054 A 
BRANCH  71  72
ATOM     72  S   UNL A   1      41.963  19.452  26.036  1.00  0.00     0.124 S 
ATOM     73  O   UNL A   1      42.828  19.534  24.864  1.00  0.00    -0.237 OA
ATOM     74  O   UNL A   1      42.454  18.614  27.127  1.00  0.00    -0.237 OA
ATOM     75  O   UNL A   1      40.536  19.320  25.753  1.00  0.00    -0.744 OA
ENDBRANCH  71  72
ENDBRANCH  43  66
BRANCH  55  76
ATOM     76  C   UNL A   1      47.827  27.088  30.590  1.00  0.00    -0.014 A 
ATOM     77  C   UNL A   1      48.861  27.300  29.661  1.00  0.00     0.010 A 
ATOM     78  C   UNL A   1      48.138  26.529  31.845  1.00  0.00     0.010 A 
ATOM     79  C   UNL A   1      50.174  26.932  29.968  1.00  0.00     0.020 A 
ATOM     80  C   UNL A   1      49.454  26.189  32.167  1.00  0.00     0.020 A 
ATOM     81  C   UNL A   1      50.463  26.380  31.221  1.00  0.00     0.054 A 
BRANCH  81  82
ATOM     82  S   UNL A   1      52.181  25.954  31.612  1.00  0.00     0.124 S 
ATOM     83  O   UNL A   1      52.510  26.931  32.646  1.00  0.00    -0.237 OA
ATOM     84  O   UNL A   1      52.072  24.570  32.066  1.00  0.00    -0.237 OA
ATOM     85  O   UNL A   1      52.881  26.133  30.342  1.00  0.00    -0.744 OA
ENDBRANCH  81  82
ENDBRANCH  55  76
ENDBRANCH  29  30
ENDBRANCH  21  24
ENDBRANCH   1  20
TORSDOF 14
ENDMDL
MODEL 2
REMARK VINA RESULT:     -10.9      0.984      2.072
REMARK SMILES CC(C)[C@H]1CC[C@@H](C)C/C1=C(\F)C(=O)NCCCNC(=O)c1ccc(-c2c3nc(c(-c4ccc(S(=O)(=O)[O-])cc4)c4ccc([nH]4)c(-c4ccc(S(=O)(=O)[O-])cc4)c4nc(c(-c5ccc(S(=O)(=O)[O-])cc5)c5ccc2[nH]5)C=C4)C=C3)cc1
REMARK SMILES IDX 18 1 17 2 16 3 15 4 13 5 14 6 11 8 4 9 5 10 10 11 6 12 9 13
REMARK SMILES IDX 7 14 12 15 8 16 2 17 1 18 3 19 19 20 20 21 21 23 22 24 23 25
REMARK SMILES IDX 81 26 24 27 80 28 25 29 26 30 27 31 74 32 28 33 79 34 73 35
REMARK SMILES IDX 75 36 29 37 78 38 72 39 71 40 30 42 60 43 41 44 59 45 42 46
REMARK SMILES IDX 45 47 58 48 76 49 43 50 44 51 57 53 77 54 46 55 31 56 32 57
REMARK SMILES IDX 40 58 33 59 39 60 34 61 35 62 36 63 37 64 38 65 61 66 62 67
REMARK SMILES IDX 70 68 63 69 69 70 64 71 65 72 66 73 67 74 68 75 47 76 48 77
REMARK SMILES IDX 56 78 49 79 55 80 50 81 51 82 52 83 53 84 54 85
REMARK H PARENT 15 7 19 22 75 41 45 52
REMARK Flexibility Score: inf
ROOT
ATOM      1  C   UNL A   1      34.031  27.763  26.444  1.00  0.00     0.118 C 
ENDROOT
BRANCH   1   2
ATOM      2  C   UNL A   1      32.844  26.894  26.039  1.00  0.00     0.042 C 
BRANCH   2   3
ATOM      3  C   UNL A   1      32.266  27.154  24.654  1.00  0.00     0.118 C 
BRANCH   3   4
ATOM      4  N   UNL A   1      33.178  26.867  23.561  1.00  0.00    -0.350 N 
ATOM      5  C   UNL A   1      33.204  25.842  22.658  1.00  0.00     0.279 C 
ATOM      6  O   UNL A   1      33.821  26.031  21.614  1.00  0.00    -0.267 OA
ATOM      7  H   UNL A   1      33.902  27.524  23.451  1.00  0.00     0.163 HD
BRANCH   5   8
ATOM      8  C   UNL A   1      32.458  24.580  22.916  1.00  0.00     0.187 C 
ATOM      9  C   UNL A   1      34.311  22.756  23.493  1.00  0.00     0.021 C 
ATOM     10  C   UNL A   1      34.272  21.718  24.661  1.00  0.00     0.009 C 
ATOM     11  C   UNL A   1      32.900  23.334  23.211  1.00  0.00    -0.025 C 
ATOM     12  C   UNL A   1      33.170  20.673  24.552  1.00  0.00     0.004 C 
ATOM     13  C   UNL A   1      31.825  22.237  23.166  1.00  0.00     0.038 C 
ATOM     14  C   UNL A   1      31.799  21.312  24.385  1.00  0.00    -0.010 C 
ATOM     15  F   UNL A   1      31.132  24.731  22.679  1.00  0.00    -0.201 F 
ATOM     16  C   UNL A   1      31.334  22.026  25.657  1.00  0.00     0.008 C 
BRANCH   9  17
ATOM     17  C   UNL A   1      35.586  23.625  23.763  1.00  0.00    -0.010 C 
ATOM     18  C   UNL A   1      35.557  24.319  25.128  1.00  0.00     0.008 C 
ATOM     19  C   UNL A   1      36.929  22.981  23.413  1.00  0.00     0.008 C 
ENDBRANCH   9  17
ENDBRANCH   5   8
ENDBRANCH   3   4
ENDBRANCH   2   3
ENDBRANCH   1   2
BRANCH   1  20
ATOM     20  N   UNL A   1      33.661  29.106  26.867  1.00  0.00    -0.352 N 
ATOM     21  C   UNL A   1      34.349  30.052  27.590  1.00  0.00     0.251 C 
ATOM     22  H   UNL A   1      32.759  29.386  26.586  1.00  0.00     0.163 HD
ATOM     23  O   UNL A   1      33.770  31.080  27.927  1.00  0.00    -0.269 OA
BRANCH  21  24
ATOM     24  C   UNL A   1      35.758  29.838  27.993  1.00  0.00     0.039 A 
ATOM     25  C   UNL A   1      36.025  29.445  29.309  1.00  0.00     0.014 A 
ATOM     26  C   UNL A   1      36.818  30.048  27.109  1.00  0.00     0.014 A 
ATOM     27  C   UNL A   1      37.338  29.183  29.708  1.00  0.00     0.010 A 
ATOM     28  C   UNL A   1      38.117  29.705  27.482  1.00  0.00     0.010 A 
ATOM     29  C   UNL A   1      38.393  29.266  28.786  1.00  0.00    -0.014 A 
BRANCH  29  30
ATOM     30  C   UNL A   1      39.782  28.883  29.161  1.00  0.00     0.031 A 
ATOM     31  C   UNL A   1      40.691  29.870  29.846  1.00  0.00     0.074 A 
ATOM     32  C   UNL A   1      40.251  27.664  28.822  1.00  0.00     0.049 A 
ATOM     33  N   UNL A   1      41.946  29.733  30.192  1.00  0.00    -0.248 NA
ATOM     34  C   UNL A   1      40.122  31.189  30.163  1.00  0.00     0.031 C 
ATOM     35  C   UNL A   1      39.488  26.627  28.122  1.00  0.00     0.029 A 
ATOM     36  N   UNL A   1      41.485  27.091  29.014  1.00  0.00    -0.354 N 
ATOM     37  C   UNL A   1      42.321  30.951  30.749  1.00  0.00     0.074 A 
ATOM     38  C   UNL A   1      41.175  31.829  30.648  1.00  0.00     0.031 C 
ATOM     39  C   UNL A   1      40.259  25.538  27.971  1.00  0.00     0.029 A 
ATOM     40  C   UNL A   1      41.584  25.812  28.518  1.00  0.00     0.049 A 
ATOM     41  H   UNL A   1      42.228  27.553  29.465  1.00  0.00     0.167 HD
ATOM     42  C   UNL A   1      43.503  31.301  31.311  1.00  0.00     0.031 A 
ATOM     43  C   UNL A   1      42.625  24.956  28.493  1.00  0.00     0.031 A 
ATOM     44  C   UNL A   1      44.640  30.424  31.413  1.00  0.00     0.049 A 
ATOM     45  C   UNL A   1      43.936  25.376  29.101  1.00  0.00     0.074 A 
ATOM     46  C   UNL A   1      45.864  30.668  32.012  1.00  0.00     0.029 A 
ATOM     47  N   UNL A   1      44.699  29.138  30.898  1.00  0.00    -0.354 N 
ATOM     48  N   UNL A   1      44.248  26.509  29.684  1.00  0.00    -0.248 NA
ATOM     49  C   UNL A   1      45.030  24.397  29.059  1.00  0.00     0.031 C 
ATOM     50  C   UNL A   1      46.683  29.554  31.805  1.00  0.00     0.029 A 
ATOM     51  C   UNL A   1      45.948  28.587  31.138  1.00  0.00     0.049 A 
ATOM     52  H   UNL A   1      43.962  28.682  30.429  1.00  0.00     0.167 HD
ATOM     53  C   UNL A   1      45.567  26.367  30.103  1.00  0.00     0.074 A 
ATOM     54  C   UNL A   1      45.985  25.034  29.721  1.00  0.00     0.031 C 
ATOM     55  C   UNL A   1      46.356  27.260  30.750  1.00  0.00     0.031 A 
BRANCH  42  56
ATOM     56  C   UNL A   1      43.632  32.706  31.847  1.00  0.00    -0.014 A 
ATOM     57  C   UNL A   1      44.024  33.771  31.016  1.00  0.00     0.010 A 
ATOM     58  C   UNL A   1      43.323  32.972  33.193  1.00  0.00     0.010 A 
ATOM     59  C   UNL A   1      44.155  35.064  31.531  1.00  0.00     0.020 A 
ATOM     60  C   UNL A   1      43.421  34.269  33.707  1.00  0.00     0.020 A 
ATOM     61  C   UNL A   1      43.855  35.303  32.876  1.00  0.00     0.054 A 
BRANCH  61  62
ATOM     62  S   UNL A   1      44.023  36.992  33.515  1.00  0.00     0.124 S 
ATOM     63  O   UNL A   1      42.685  37.250  34.041  1.00  0.00    -0.237 OA
ATOM     64  O   UNL A   1      45.076  36.852  34.517  1.00  0.00    -0.237 OA
ATOM     65  O   UNL A   1      44.390  37.775  32.335  1.00  0.00    -0.744 OA
ENDBRANCH  61  62
ENDBRANCH  42  56
BRANCH  43  66
ATOM     66  C   UNL A   1      42.463  23.608  27.880  1.00  0.00    -0.014 A 
ATOM     67  C   UNL A   1      42.758  23.401  26.521  1.00  0.00     0.010 A 
ATOM     68  C   UNL A   1      42.029  22.519  28.657  1.00  0.00     0.010 A 
ATOM     69  C   UNL A   1      42.610  22.134  25.948  1.00  0.00     0.020 A 
ATOM     70  C   UNL A   1      41.908  21.244  28.096  1.00  0.00     0.020 A 
ATOM     71  C   UNL A   1      42.190  21.062  26.741  1.00  0.00     0.054 A 
BRANCH  71  72
ATOM     72  S   UNL A   1      42.063  19.416  25.990  1.00  0.00     0.124 S 
ATOM     73  O   UNL A   1      42.917  19.551  24.815  1.00  0.00    -0.237 OA
ATOM     74  O   UNL A   1      42.574  18.548  27.048  1.00  0.00    -0.237 OA
ATOM     75  O   UNL A   1      40.635  19.274  25.714  1.00  0.00    -0.744 OA
ENDBRANCH  71  72
ENDBRANCH  43  66
BRANCH  55  76
ATOM     76  C   UNL A   1      47.748  26.817  31.121  1.00  0.00    -0.014 A 
ATOM     77  C   UNL A   1      48.022  26.218  32.364  1.00  0.00     0.010 A 
ATOM     78  C   UNL A   1      48.790  26.955  30.183  1.00  0.00     0.010 A 
ATOM     79  C   UNL A   1      49.318  25.795  32.674  1.00  0.00     0.020 A 
ATOM     80  C   UNL A   1      50.079  26.504  30.478  1.00  0.00     0.020 A 
ATOM     81  C   UNL A   1      50.338  25.939  31.728  1.00  0.00     0.054 A 
BRANCH  81  82
ATOM     82  S   UNL A   1      51.999  25.340  32.138  1.00  0.00     0.124 S 
ATOM     83  O   UNL A   1      52.793  25.860  31.028  1.00  0.00    -0.237 OA
ATOM     84  O   UNL A   1      52.252  25.961  33.436  1.00  0.00    -0.237 OA
ATOM     85  O   UNL A   1      51.848  23.887  32.168  1.00  0.00    -0.744 OA
ENDBRANCH  81  82
ENDBRANCH  55  76
ENDBRANCH  29  30
ENDBRANCH  21  24
ENDBRANCH   1  20
TORSDOF 14
ENDMDL
MODEL 3
REMARK VINA RESULT:     -10.7      2.704      9.264
REMARK SMILES CC(C)[C@H]1CC[C@@H](C)C/C1=C(\F)C(=O)NCCCNC(=O)c1ccc(-c2c3nc(c(-c4ccc(S(=O)(=O)[O-])cc4)c4ccc([nH]4)c(-c4ccc(S(=O)(=O)[O-])cc4)c4nc(c(-c5ccc(S(=O)(=O)[O-])cc5)c5ccc2[nH]5)C=C4)C=C3)cc1
REMARK SMILES IDX 18 1 17 2 16 3 15 4 13 5 14 6 11 8 4 9 5 10 10 11 6 12 9 13
REMARK SMILES IDX 7 14 12 15 8 16 2 17 1 18 3 19 19 20 20 21 21 23 22 24 23 25
REMARK SMILES IDX 81 26 24 27 80 28 25 29 26 30 27 31 74 32 28 33 79 34 73 35
REMARK SMILES IDX 75 36 29 37 78 38 72 39 71 40 30 42 60 43 41 44 59 45 42 46
REMARK SMILES IDX 45 47 58 48 76 49 43 50 44 51 57 53 77 54 46 55 31 56 32 57
REMARK SMILES IDX 40 58 33 59 39 60 34 61 35 62 36 63 37 64 38 65 61 66 62 67
REMARK SMILES IDX 70 68 63 69 69 70 64 71 65 72 66 73 67 74 68 75 47 76 48 77
REMARK SMILES IDX 56 78 49 79 55 80 50 81 51 82 52 83 53 84 54 85
REMARK H PARENT 15 7 19 22 75 41 45 52
REMARK Flexibility Score: inf
ROOT
ATOM      1  C   UNL A   1      36.099  24.180  25.751  1.00  0.00     0.118 C 
ENDROOT
BRANCH   1   2
ATOM      2  C   UNL A   1      35.019  24.068  24.680  1.00  0.00     0.042 C 
BRANCH   2   3
ATOM      3  C   UNL A   1      33.872  23.111  24.983  1.00  0.00     0.118 C 
BRANCH   3   4
ATOM      4  N   UNL A   1      33.111  23.447  26.174  1.00  0.00    -0.350 N 
ATOM      5  C   UNL A   1      31.831  23.901  26.324  1.00  0.00     0.279 C 
ATOM      6  O   UNL A   1      31.302  23.733  27.419  1.00  0.00    -0.267 OA
ATOM      7  H   UNL A   1      33.601  23.327  27.019  1.00  0.00     0.163 HD
BRANCH   5   8
ATOM      8  C   UNL A   1      31.101  24.511  25.180  1.00  0.00     0.187 C 
ATOM      9  C   UNL A   1      31.088  27.132  25.653  1.00  0.00     0.021 C 
ATOM     10  C   UNL A   1      31.400  28.271  24.628  1.00  0.00     0.009 C 
ATOM     11  C   UNL A   1      30.766  25.800  24.928  1.00  0.00    -0.025 C 
ATOM     12  C   UNL A   1      30.399  28.397  23.488  1.00  0.00     0.004 C 
ATOM     13  C   UNL A   1      29.794  26.001  23.755  1.00  0.00     0.038 C 
ATOM     14  C   UNL A   1      30.212  27.078  22.751  1.00  0.00    -0.010 C 
ATOM     15  F   UNL A   1      30.600  23.565  24.349  1.00  0.00    -0.201 F 
ATOM     16  C   UNL A   1      31.452  26.684  21.946  1.00  0.00     0.008 C 
BRANCH   9  17
ATOM     17  C   UNL A   1      32.168  27.291  26.777  1.00  0.00    -0.010 C 
ATOM     18  C   UNL A   1      33.601  27.218  26.243  1.00  0.00     0.008 C 
ATOM     19  C   UNL A   1      31.930  28.413  27.789  1.00  0.00     0.008 C 
ENDBRANCH   9  17
ENDBRANCH   5   8
ENDBRANCH   3   4
ENDBRANCH   2   3
ENDBRANCH   1   2
BRANCH   1  20
ATOM     20  N   UNL A   1      37.103  23.128  25.686  1.00  0.00    -0.352 N 
ATOM     21  C   UNL A   1      38.418  23.103  26.087  1.00  0.00     0.251 C 
ATOM     22  H   UNL A   1      36.785  22.286  25.286  1.00  0.00     0.163 HD
ATOM     23  O   UNL A   1      39.106  22.123  25.813  1.00  0.00    -0.269 OA
BRANCH  21  24
ATOM     24  C   UNL A   1      39.026  24.244  26.810  1.00  0.00     0.039 A 
ATOM     25  C   UNL A   1      39.866  25.112  26.105  1.00  0.00     0.014 A 
ATOM     26  C   UNL A   1      38.805  24.454  28.173  1.00  0.00     0.014 A 
ATOM     27  C   UNL A   1      40.413  26.229  26.744  1.00  0.00     0.010 A 
ATOM     28  C   UNL A   1      39.281  25.613  28.786  1.00  0.00     0.010 A 
ATOM     29  C   UNL A   1      40.088  26.516  28.079  1.00  0.00    -0.014 A 
BRANCH  29  30
ATOM     30  C   UNL A   1      40.568  27.759  28.743  1.00  0.00     0.031 A 
ATOM     31  C   UNL A   1      41.952  27.827  29.333  1.00  0.00     0.074 A 
ATOM     32  C   UNL A   1      39.731  28.809  28.875  1.00  0.00     0.049 A 
ATOM     33  N   UNL A   1      42.518  28.801  29.999  1.00  0.00    -0.248 NA
ATOM     34  C   UNL A   1      42.803  26.637  29.175  1.00  0.00     0.031 C 
ATOM     35  C   UNL A   1      38.352  28.861  28.383  1.00  0.00     0.029 A 
ATOM     36  N   UNL A   1      39.914  30.034  29.470  1.00  0.00    -0.354 N 
ATOM     37  C   UNL A   1      43.780  28.337  30.354  1.00  0.00     0.074 A 
ATOM     38  C   UNL A   1      43.876  26.975  29.873  1.00  0.00     0.031 C 
ATOM     39  C   UNL A   1      37.827  30.062  28.669  1.00  0.00     0.029 A 
ATOM     40  C   UNL A   1      38.809  30.850  29.406  1.00  0.00     0.049 A 
ATOM     41  H   UNL A   1      40.757  30.301  29.902  1.00  0.00     0.167 HD
ATOM     42  C   UNL A   1      44.775  28.988  31.003  1.00  0.00     0.031 A 
ATOM     43  C   UNL A   1      38.601  32.090  29.894  1.00  0.00     0.031 A 
ATOM     44  C   UNL A   1      44.678  30.343  31.478  1.00  0.00     0.049 A 
ATOM     45  C   UNL A   1      39.712  32.785  30.632  1.00  0.00     0.074 A 
ATOM     46  C   UNL A   1      45.649  31.109  32.100  1.00  0.00     0.029 A 
ATOM     47  N   UNL A   1      43.542  31.134  31.393  1.00  0.00    -0.354 N 
ATOM     48  N   UNL A   1      40.922  32.351  30.897  1.00  0.00    -0.248 NA
ATOM     49  C   UNL A   1      39.434  34.139  31.127  1.00  0.00     0.031 C 
ATOM     50  C   UNL A   1      45.082  32.339  32.446  1.00  0.00     0.029 A 
ATOM     51  C   UNL A   1      43.778  32.368  31.978  1.00  0.00     0.049 A 
ATOM     52  H   UNL A   1      42.691  30.859  30.978  1.00  0.00     0.167 HD
ATOM     53  C   UNL A   1      41.559  33.393  31.565  1.00  0.00     0.074 A 
ATOM     54  C   UNL A   1      40.605  34.480  31.648  1.00  0.00     0.031 C 
ATOM     55  C   UNL A   1      42.821  33.443  32.059  1.00  0.00     0.031 A 
BRANCH  42  56
ATOM     56  C   UNL A   1      46.057  28.232  31.253  1.00  0.00    -0.014 A 
ATOM     57  C   UNL A   1      46.242  27.475  32.425  1.00  0.00     0.010 A 
ATOM     58  C   UNL A   1      47.079  28.250  30.287  1.00  0.00     0.010 A 
ATOM     59  C   UNL A   1      47.442  26.794  32.649  1.00  0.00     0.020 A 
ATOM     60  C   UNL A   1      48.269  27.544  30.491  1.00  0.00     0.020 A 
ATOM     61  C   UNL A   1      48.449  26.836  31.680  1.00  0.00     0.054 A 
BRANCH  61  62
ATOM     62  S   UNL A   1      49.991  25.934  31.994  1.00  0.00     0.124 S 
ATOM     63  O   UNL A   1      50.828  26.969  32.597  1.00  0.00    -0.237 OA
ATOM     64  O   UNL A   1      49.561  24.869  32.896  1.00  0.00    -0.237 OA
ATOM     65  O   UNL A   1      50.410  25.490  30.666  1.00  0.00    -0.744 OA
ENDBRANCH  61  62
ENDBRANCH  42  56
BRANCH  43  66
ATOM     66  C   UNL A   1      37.287  32.758  29.684  1.00  0.00    -0.014 A 
ATOM     67  C   UNL A   1      36.311  32.751  30.697  1.00  0.00     0.010 A 
ATOM     68  C   UNL A   1      37.010  33.424  28.476  1.00  0.00     0.010 A 
ATOM     69  C   UNL A   1      35.079  33.383  30.500  1.00  0.00     0.020 A 
ATOM     70  C   UNL A   1      35.791  34.084  28.286  1.00  0.00     0.020 A 
ATOM     71  C   UNL A   1      34.829  34.050  29.298  1.00  0.00     0.054 A 
BRANCH  71  72
ATOM     72  S   UNL A   1      33.248  34.914  29.089  1.00  0.00     0.124 S 
ATOM     73  O   UNL A   1      32.540  34.033  28.167  1.00  0.00    -0.237 OA
ATOM     74  O   UNL A   1      32.728  34.951  30.454  1.00  0.00    -0.237 OA
ATOM     75  O   UNL A   1      33.636  36.212  28.543  1.00  0.00    -0.744 OA
ENDBRANCH  71  72
ENDBRANCH  43  66
BRANCH  55  76
ATOM     76  C   UNL A   1      43.263  34.730  32.707  1.00  0.00    -0.014 A 
ATOM     77  C   UNL A   1      43.741  35.811  31.945  1.00  0.00     0.010 A 
ATOM     78  C   UNL A   1      43.145  34.877  34.103  1.00  0.00     0.010 A 
ATOM     79  C   UNL A   1      44.123  37.002  32.569  1.00  0.00     0.020 A 
ATOM     80  C   UNL A   1      43.495  36.076  34.726  1.00  0.00     0.020 A 
ATOM     81  C   UNL A   1      43.995  37.128  33.956  1.00  0.00     0.054 A 
BRANCH  81  82
ATOM     82  S   UNL A   1      44.454  38.699  34.735  1.00  0.00     0.124 S 
ATOM     83  O   UNL A   1      44.055  38.479  36.123  1.00  0.00    -0.237 OA
ATOM     84  O   UNL A   1      45.894  38.765  34.498  1.00  0.00    -0.237 OA
ATOM     85  O   UNL A   1      43.664  39.691  34.010  1.00  0.00    -0.744 OA
ENDBRANCH  81  82
ENDBRANCH  55  76
ENDBRANCH  29  30
ENDBRANCH  21  24
ENDBRANCH   1  20
TORSDOF 14
ENDMDL
