MODEL 1
REMARK VINA RESULT:     -12.9      0.000      0.000
REMARK SMILES O=C(CCc1cn(-c2ccc(Br)cc2)nc1-c1ccccc1)NCCCNC(=O)c1ccc(-c2c3nc(c(-c4ccc(S(=O)(=O)[O-])cc4)c4ccc([nH]4)c(-c4ccc(S(=O)(=O)[O-])cc4)c4nc(c(-c5ccc(S(=O)(=O)[O-])cc5)c5ccc2[nH]5)C=C4)C=C3)cc1
REMARK SMILES IDX 25 1 24 2 23 3 1 4 2 5 3 7 4 8 5 9 6 10 16 11 7 12 15 13
REMARK SMILES IDX 17 14 18 15 22 16 19 17 21 18 20 19 8 20 9 21 14 22 10 23
REMARK SMILES IDX 13 24 11 25 12 26 26 27 27 28 28 29 29 31 30 32 31 33 89 34
REMARK SMILES IDX 32 35 88 36 33 37 34 38 35 39 82 40 36 41 87 42 81 43 83 44
REMARK SMILES IDX 37 45 86 46 80 47 79 48 38 50 68 51 49 52 67 53 50 54 53 55
REMARK SMILES IDX 66 56 84 57 51 58 52 59 65 61 85 62 54 63 39 64 40 65 48 66
REMARK SMILES IDX 41 67 47 68 42 69 43 70 44 71 45 72 46 73 69 74 70 75 78 76
REMARK SMILES IDX 71 77 77 78 72 79 73 80 74 81 75 82 76 83 55 84 56 85 64 86
REMARK SMILES IDX 57 87 63 88 58 89 59 90 60 91 61 92 62 93
REMARK H PARENT 23 6 27 30 83 49 53 60
REMARK Flexibility Score: inf
ROOT
ATOM      1  C   UNL A   1      32.151  29.339  25.409  1.00  0.00     0.042 C 
ENDROOT
BRANCH   1   2
ATOM      2  C   UNL A   1      32.769  28.954  24.060  1.00  0.00     0.117 C 
BRANCH   2   3
ATOM      3  N   UNL A   1      33.171  27.554  23.994  1.00  0.00    -0.356 N 
ATOM      4  O   UNL A   1      33.729  27.470  21.783  1.00  0.00    -0.275 OA
ATOM      5  C   UNL A   1      33.612  26.904  22.867  1.00  0.00     0.220 C 
ATOM      6  H   UNL A   1      33.123  27.031  24.827  1.00  0.00     0.163 HD
BRANCH   5   7
ATOM      7  C   UNL A   1      33.852  25.397  23.014  1.00  0.00     0.105 C 
BRANCH   7   8
ATOM      8  C   UNL A   1      33.725  24.799  24.420  1.00  0.00     0.049 C 
BRANCH   8   9
ATOM      9  C   UNL A   1      34.889  23.985  24.898  1.00  0.00    -0.001 A 
ATOM     10  C   UNL A   1      35.951  24.333  25.728  1.00  0.00     0.119 A 
ATOM     11  C   UNL A   1      35.135  22.611  24.643  1.00  0.00     0.096 A 
ATOM     12  N   UNL A   1      36.889  23.331  25.579  1.00  0.00    -0.240 N 
ATOM     13  N   UNL A   1      36.424  22.332  24.823  1.00  0.00    -0.168 NA
BRANCH  11  14
ATOM     14  C   UNL A   1      34.258  21.522  24.270  1.00  0.00     0.002 A 
ATOM     15  C   UNL A   1      33.224  21.802  23.359  1.00  0.00     0.010 A 
ATOM     16  C   UNL A   1      34.324  20.278  24.890  1.00  0.00     0.010 A 
ATOM     17  C   UNL A   1      32.258  20.843  23.072  1.00  0.00     0.001 A 
ATOM     18  C   UNL A   1      33.353  19.318  24.600  1.00  0.00     0.001 A 
ATOM     19  C   UNL A   1      32.322  19.601  23.697  1.00  0.00     0.000 A 
ENDBRANCH  11  14
BRANCH  12  20
ATOM     20  C   UNL A   1      38.181  23.189  26.112  1.00  0.00     0.065 A 
ATOM     21  C   UNL A   1      38.755  24.211  26.839  1.00  0.00     0.029 A 
ATOM     22  C   UNL A   1      38.821  21.943  26.031  1.00  0.00     0.029 A 
ATOM     23  C   UNL A   1      39.926  23.937  27.564  1.00  0.00     0.018 A 
ATOM     24  C   UNL A   1      40.028  21.714  26.694  1.00  0.00     0.018 A 
ATOM     25  C   UNL A   1      40.559  22.706  27.494  1.00  0.00     0.018 A 
ATOM     26  Br  UNL A   1      42.140  22.416  28.484  1.00  0.00    -0.051 Br
ENDBRANCH  12  20
ENDBRANCH   8   9
ENDBRANCH   7   8
ENDBRANCH   5   7
ENDBRANCH   2   3
ENDBRANCH   1   2
BRANCH   1  27
ATOM     27  C   UNL A   1      33.181  29.692  26.469  1.00  0.00     0.118 C 
BRANCH  27  28
ATOM     28  N   UNL A   1      33.097  30.985  27.115  1.00  0.00    -0.352 N 
ATOM     29  C   UNL A   1      34.060  31.648  27.876  1.00  0.00     0.251 C 
ATOM     30  H   UNL A   1      32.244  31.463  27.002  1.00  0.00     0.163 HD
ATOM     31  O   UNL A   1      33.737  32.694  28.420  1.00  0.00    -0.269 OA
BRANCH  29  32
ATOM     32  C   UNL A   1      35.480  31.151  27.998  1.00  0.00     0.039 A 
ATOM     33  C   UNL A   1      35.774  29.783  27.862  1.00  0.00     0.014 A 
ATOM     34  C   UNL A   1      36.532  31.986  28.365  1.00  0.00     0.014 A 
ATOM     35  C   UNL A   1      37.043  29.287  28.237  1.00  0.00     0.010 A 
ATOM     36  C   UNL A   1      37.782  31.517  28.695  1.00  0.00     0.010 A 
ATOM     37  C   UNL A   1      38.012  30.157  28.761  1.00  0.00    -0.014 A 
BRANCH  37  38
ATOM     38  C   UNL A   1      39.395  29.803  29.109  1.00  0.00     0.031 A 
ATOM     39  C   UNL A   1      39.510  29.882  30.581  1.00  0.00     0.074 A 
ATOM     40  C   UNL A   1      40.306  29.161  28.326  1.00  0.00     0.049 A 
ATOM     41  N   UNL A   1      39.994  30.875  31.253  1.00  0.00    -0.248 NA
ATOM     42  C   UNL A   1      38.710  28.940  31.401  1.00  0.00     0.031 C 
ATOM     43  C   UNL A   1      40.251  28.828  26.900  1.00  0.00     0.029 A 
ATOM     44  N   UNL A   1      41.492  28.560  28.666  1.00  0.00    -0.354 N 
ATOM     45  C   UNL A   1      39.863  30.465  32.569  1.00  0.00     0.074 A 
ATOM     46  C   UNL A   1      38.756  29.550  32.587  1.00  0.00     0.031 C 
ATOM     47  C   UNL A   1      41.151  27.886  26.560  1.00  0.00     0.029 A 
ATOM     48  C   UNL A   1      42.008  27.685  27.698  1.00  0.00     0.049 A 
ATOM     49  H   UNL A   1      41.946  28.730  29.522  1.00  0.00     0.167 HD
ATOM     50  C   UNL A   1      40.966  30.436  33.369  1.00  0.00     0.031 A 
ATOM     51  C   UNL A   1      43.134  26.930  27.713  1.00  0.00     0.031 A 
ATOM     52  C   UNL A   1      42.048  31.189  32.782  1.00  0.00     0.049 A 
ATOM     53  C   UNL A   1      44.020  27.542  28.714  1.00  0.00     0.074 A 
ATOM     54  C   UNL A   1      42.285  32.513  32.486  1.00  0.00     0.029 A 
ATOM     55  N   UNL A   1      42.883  30.436  31.994  1.00  0.00    -0.354 N 
ATOM     56  N   UNL A   1      44.551  28.722  28.547  1.00  0.00    -0.248 NA
ATOM     57  C   UNL A   1      43.976  27.053  30.084  1.00  0.00     0.031 C 
ATOM     58  C   UNL A   1      43.194  32.522  31.388  1.00  0.00     0.029 A 
ATOM     59  C   UNL A   1      43.547  31.211  31.080  1.00  0.00     0.049 A 
ATOM     60  H   UNL A   1      42.991  29.461  32.076  1.00  0.00     0.167 HD
ATOM     61  C   UNL A   1      44.475  29.296  29.800  1.00  0.00     0.074 A 
ATOM     62  C   UNL A   1      44.281  28.185  30.726  1.00  0.00     0.031 C 
ATOM     63  C   UNL A   1      44.232  30.630  29.943  1.00  0.00     0.031 A 
BRANCH  50  64
ATOM     64  C   UNL A   1      41.240  29.306  34.342  1.00  0.00    -0.014 A 
ATOM     65  C   UNL A   1      41.803  29.612  35.592  1.00  0.00     0.010 A 
ATOM     66  C   UNL A   1      41.200  27.938  33.986  1.00  0.00     0.010 A 
ATOM     67  C   UNL A   1      42.301  28.602  36.430  1.00  0.00     0.020 A 
ATOM     68  C   UNL A   1      41.654  26.924  34.823  1.00  0.00     0.020 A 
ATOM     69  C   UNL A   1      42.219  27.264  36.036  1.00  0.00     0.054 A 
BRANCH  69  70
ATOM     70  S   UNL A   1      42.889  25.967  37.100  1.00  0.00     0.124 S 
ATOM     71  O   UNL A   1      43.389  26.737  38.233  1.00  0.00    -0.237 OA
ATOM     72  O   UNL A   1      41.712  25.142  37.354  1.00  0.00    -0.237 OA
ATOM     73  O   UNL A   1      43.914  25.340  36.267  1.00  0.00    -0.744 OA
ENDBRANCH  69  70
ENDBRANCH  50  64
BRANCH  51  74
ATOM     74  C   UNL A   1      43.444  25.649  27.024  1.00  0.00    -0.014 A 
ATOM     75  C   UNL A   1      42.981  25.396  25.718  1.00  0.00     0.010 A 
ATOM     76  C   UNL A   1      44.455  24.809  27.531  1.00  0.00     0.010 A 
ATOM     77  C   UNL A   1      43.589  24.420  24.908  1.00  0.00     0.020 A 
ATOM     78  C   UNL A   1      45.064  23.831  26.731  1.00  0.00     0.020 A 
ATOM     79  C   UNL A   1      44.655  23.669  25.408  1.00  0.00     0.054 A 
BRANCH  79  80
ATOM     80  S   UNL A   1      45.606  22.601  24.281  1.00  0.00     0.124 S 
ATOM     81  O   UNL A   1      46.488  23.554  23.615  1.00  0.00    -0.237 OA
ATOM     82  O   UNL A   1      46.258  21.671  25.200  1.00  0.00    -0.237 OA
ATOM     83  O   UNL A   1      44.580  22.004  23.427  1.00  0.00    -0.744 OA
ENDBRANCH  79  80
ENDBRANCH  51  74
BRANCH  63  84
ATOM     84  C   UNL A   1      44.626  31.544  28.815  1.00  0.00    -0.014 A 
ATOM     85  C   UNL A   1      43.770  31.985  27.788  1.00  0.00     0.010 A 
ATOM     86  C   UNL A   1      45.938  32.048  28.863  1.00  0.00     0.010 A 
ATOM     87  C   UNL A   1      44.231  32.902  26.826  1.00  0.00     0.020 A 
ATOM     88  C   UNL A   1      46.394  32.969  27.924  1.00  0.00     0.020 A 
ATOM     89  C   UNL A   1      45.544  33.386  26.902  1.00  0.00     0.054 A 
BRANCH  89  90
ATOM     90  S   UNL A   1      46.138  34.588  25.679  1.00  0.00     0.124 S 
ATOM     91  O   UNL A   1      45.832  35.866  26.316  1.00  0.00    -0.237 OA
ATOM     92  O   UNL A   1      47.558  34.264  25.567  1.00  0.00    -0.237 OA
ATOM     93  O   UNL A   1      45.349  34.289  24.484  1.00  0.00    -0.744 OA
ENDBRANCH  89  90
ENDBRANCH  63  84
ENDBRANCH  37  38
ENDBRANCH  29  32
ENDBRANCH  27  28
ENDBRANCH   1  27
TORSDOF 17
ENDMDL
MODEL 2
REMARK VINA RESULT:     -12.8      3.408     10.214
REMARK SMILES O=C(CCc1cn(-c2ccc(Br)cc2)nc1-c1ccccc1)NCCCNC(=O)c1ccc(-c2c3nc(c(-c4ccc(S(=O)(=O)[O-])cc4)c4ccc([nH]4)c(-c4ccc(S(=O)(=O)[O-])cc4)c4nc(c(-c5ccc(S(=O)(=O)[O-])cc5)c5ccc2[nH]5)C=C4)C=C3)cc1
REMARK SMILES IDX 25 1 24 2 23 3 1 4 2 5 3 7 4 8 5 9 6 10 16 11 7 12 15 13
REMARK SMILES IDX 17 14 18 15 22 16 19 17 21 18 20 19 8 20 9 21 14 22 10 23
REMARK SMILES IDX 13 24 11 25 12 26 26 27 27 28 28 29 29 31 30 32 31 33 89 34
REMARK SMILES IDX 32 35 88 36 33 37 34 38 35 39 82 40 36 41 87 42 81 43 83 44
REMARK SMILES IDX 37 45 86 46 80 47 79 48 38 50 68 51 49 52 67 53 50 54 53 55
REMARK SMILES IDX 66 56 84 57 51 58 52 59 65 61 85 62 54 63 39 64 40 65 48 66
REMARK SMILES IDX 41 67 47 68 42 69 43 70 44 71 45 72 46 73 69 74 70 75 78 76
REMARK SMILES IDX 71 77 77 78 72 79 73 80 74 81 75 82 76 83 55 84 56 85 64 86
REMARK SMILES IDX 57 87 63 88 58 89 59 90 60 91 61 92 62 93
REMARK H PARENT 23 6 27 30 83 49 53 60
REMARK Flexibility Score: inf
ROOT
ATOM      1  C   UNL A   1      35.541  21.823  24.904  1.00  0.00     0.042 C 
ENDROOT
BRANCH   1   2
ATOM      2  C   UNL A   1      34.440  22.063  25.941  1.00  0.00     0.117 C 
BRANCH   2   3
ATOM      3  N   UNL A   1      33.762  23.343  25.770  1.00  0.00    -0.356 N 
ATOM      4  O   UNL A   1      32.409  23.255  27.606  1.00  0.00    -0.275 OA
ATOM      5  C   UNL A   1      32.791  23.848  26.600  1.00  0.00     0.220 C 
ATOM      6  H   UNL A   1      34.022  23.891  24.995  1.00  0.00     0.163 HD
BRANCH   5   7
ATOM      7  C   UNL A   1      32.131  25.154  26.143  1.00  0.00     0.105 C 
BRANCH   7   8
ATOM      8  C   UNL A   1      32.969  26.435  26.235  1.00  0.00     0.049 C 
BRANCH   8   9
ATOM      9  C   UNL A   1      32.335  27.678  25.691  1.00  0.00    -0.001 A 
ATOM     10  C   UNL A   1      31.104  27.864  25.069  1.00  0.00     0.119 A 
ATOM     11  C   UNL A   1      32.851  28.999  25.751  1.00  0.00     0.096 A 
ATOM     12  N   UNL A   1      31.160  29.115  24.487  1.00  0.00    -0.240 N 
ATOM     13  N   UNL A   1      32.283  29.759  24.818  1.00  0.00    -0.168 NA
BRANCH  11  14
ATOM     14  C   UNL A   1      33.817  29.623  26.628  1.00  0.00     0.002 A 
ATOM     15  C   UNL A   1      34.996  28.911  26.913  1.00  0.00     0.010 A 
ATOM     16  C   UNL A   1      33.545  30.814  27.295  1.00  0.00     0.010 A 
ATOM     17  C   UNL A   1      35.895  29.384  27.863  1.00  0.00     0.001 A 
ATOM     18  C   UNL A   1      34.449  31.286  28.248  1.00  0.00     0.001 A 
ATOM     19  C   UNL A   1      35.618  30.572  28.533  1.00  0.00     0.000 A 
ENDBRANCH  11  14
BRANCH  12  20
ATOM     20  C   UNL A   1      30.241  29.796  23.672  1.00  0.00     0.065 A 
ATOM     21  C   UNL A   1      29.608  30.933  24.129  1.00  0.00     0.029 A 
ATOM     22  C   UNL A   1      30.089  29.399  22.335  1.00  0.00     0.029 A 
ATOM     23  C   UNL A   1      28.903  31.720  23.204  1.00  0.00     0.018 A 
ATOM     24  C   UNL A   1      29.316  30.153  21.449  1.00  0.00     0.018 A 
ATOM     25  C   UNL A   1      28.755  31.338  21.880  1.00  0.00     0.018 A 
ATOM     26  Br  UNL A   1      27.778  32.439  20.698  1.00  0.00    -0.051 Br
ENDBRANCH  12  20
ENDBRANCH   8   9
ENDBRANCH   7   8
ENDBRANCH   5   7
ENDBRANCH   2   3
ENDBRANCH   1   2
BRANCH   1  27
ATOM     27  C   UNL A   1      36.867  22.471  25.266  1.00  0.00     0.118 C 
BRANCH  27  28
ATOM     28  N   UNL A   1      38.034  21.628  25.419  1.00  0.00    -0.352 N 
ATOM     29  C   UNL A   1      39.241  21.910  26.060  1.00  0.00     0.251 C 
ATOM     30  H   UNL A   1      37.967  20.732  25.016  1.00  0.00     0.163 HD
ATOM     31  O   UNL A   1      40.137  21.082  25.976  1.00  0.00    -0.269 OA
BRANCH  29  32
ATOM     32  C   UNL A   1      39.449  23.155  26.886  1.00  0.00     0.039 A 
ATOM     33  C   UNL A   1      38.638  24.287  26.690  1.00  0.00     0.014 A 
ATOM     34  C   UNL A   1      40.509  23.289  27.778  1.00  0.00     0.014 A 
ATOM     35  C   UNL A   1      38.997  25.528  27.264  1.00  0.00     0.010 A 
ATOM     36  C   UNL A   1      40.844  24.483  28.371  1.00  0.00     0.010 A 
ATOM     37  C   UNL A   1      40.175  25.638  28.020  1.00  0.00    -0.014 A 
BRANCH  37  38
ATOM     38  C   UNL A   1      40.628  26.834  28.746  1.00  0.00     0.031 A 
ATOM     39  C   UNL A   1      41.839  27.330  28.057  1.00  0.00     0.074 A 
ATOM     40  C   UNL A   1      39.912  27.586  29.627  1.00  0.00     0.049 A 
ATOM     41  N   UNL A   1      43.061  27.109  28.418  1.00  0.00    -0.248 NA
ATOM     42  C   UNL A   1      41.706  27.818  26.664  1.00  0.00     0.031 C 
ATOM     43  C   UNL A   1      38.608  27.327  30.242  1.00  0.00     0.029 A 
ATOM     44  N   UNL A   1      40.162  28.843  30.118  1.00  0.00    -0.354 N 
ATOM     45  C   UNL A   1      43.803  27.768  27.452  1.00  0.00     0.074 A 
ATOM     46  C   UNL A   1      42.982  27.790  26.273  1.00  0.00     0.031 C 
ATOM     47  C   UNL A   1      38.059  28.440  30.764  1.00  0.00     0.029 A 
ATOM     48  C   UNL A   1      39.061  29.471  30.717  1.00  0.00     0.049 A 
ATOM     49  H   UNL A   1      41.047  29.270  30.055  1.00  0.00     0.167 HD
ATOM     50  C   UNL A   1      44.712  28.708  27.837  1.00  0.00     0.031 A 
ATOM     51  C   UNL A   1      38.955  30.699  31.284  1.00  0.00     0.031 A 
ATOM     52  C   UNL A   1      44.995  28.602  29.248  1.00  0.00     0.049 A 
ATOM     53  C   UNL A   1      40.326  31.105  31.630  1.00  0.00     0.074 A 
ATOM     54  C   UNL A   1      45.592  27.672  30.071  1.00  0.00     0.029 A 
ATOM     55  N   UNL A   1      44.191  29.390  30.035  1.00  0.00    -0.354 N 
ATOM     56  N   UNL A   1      41.022  30.499  32.551  1.00  0.00    -0.248 NA
ATOM     57  C   UNL A   1      41.088  31.891  30.671  1.00  0.00     0.031 C 
ATOM     58  C   UNL A   1      45.006  27.842  31.359  1.00  0.00     0.029 A 
ATOM     59  C   UNL A   1      44.117  28.912  31.317  1.00  0.00     0.049 A 
ATOM     60  H   UNL A   1      43.725  30.197  29.717  1.00  0.00     0.167 HD
ATOM     61  C   UNL A   1      42.294  30.446  32.018  1.00  0.00     0.074 A 
ATOM     62  C   UNL A   1      42.316  31.453  30.962  1.00  0.00     0.031 C 
ATOM     63  C   UNL A   1      43.100  29.370  32.243  1.00  0.00     0.031 A 
BRANCH  50  64
ATOM     64  C   UNL A   1      44.891  30.021  27.102  1.00  0.00    -0.014 A 
ATOM     65  C   UNL A   1      46.192  30.462  26.812  1.00  0.00     0.010 A 
ATOM     66  C   UNL A   1      43.849  30.958  26.906  1.00  0.00     0.010 A 
ATOM     67  C   UNL A   1      46.432  31.768  26.358  1.00  0.00     0.020 A 
ATOM     68  C   UNL A   1      44.067  32.243  26.419  1.00  0.00     0.020 A 
ATOM     69  C   UNL A   1      45.363  32.647  26.164  1.00  0.00     0.054 A 
BRANCH  69  70
ATOM     70  S   UNL A   1      45.674  34.339  25.611  1.00  0.00     0.124 S 
ATOM     71  O   UNL A   1      44.883  34.403  24.387  1.00  0.00    -0.237 OA
ATOM     72  O   UNL A   1      45.176  35.123  26.737  1.00  0.00    -0.237 OA
ATOM     73  O   UNL A   1      47.123  34.376  25.425  1.00  0.00    -0.744 OA
ENDBRANCH  69  70
ENDBRANCH  50  64
BRANCH  51  74
ATOM     74  C   UNL A   1      37.778  31.595  31.428  1.00  0.00    -0.014 A 
ATOM     75  C   UNL A   1      36.620  31.171  32.109  1.00  0.00     0.010 A 
ATOM     76  C   UNL A   1      37.912  32.974  31.168  1.00  0.00     0.010 A 
ATOM     77  C   UNL A   1      35.694  32.100  32.616  1.00  0.00     0.020 A 
ATOM     78  C   UNL A   1      36.991  33.906  31.667  1.00  0.00     0.020 A 
ATOM     79  C   UNL A   1      35.907  33.467  32.425  1.00  0.00     0.054 A 
BRANCH  79  80
ATOM     80  S   UNL A   1      34.857  34.669  33.302  1.00  0.00     0.124 S 
ATOM     81  O   UNL A   1      35.121  34.352  34.702  1.00  0.00    -0.237 OA
ATOM     82  O   UNL A   1      35.381  35.949  32.834  1.00  0.00    -0.237 OA
ATOM     83  O   UNL A   1      33.508  34.350  32.838  1.00  0.00    -0.744 OA
ENDBRANCH  79  80
ENDBRANCH  51  74
BRANCH  63  84
ATOM     84  C   UNL A   1      42.866  28.558  33.488  1.00  0.00    -0.014 A 
ATOM     85  C   UNL A   1      41.978  27.472  33.597  1.00  0.00     0.010 A 
ATOM     86  C   UNL A   1      43.673  28.884  34.593  1.00  0.00     0.010 A 
ATOM     87  C   UNL A   1      41.898  26.738  34.795  1.00  0.00     0.020 A 
ATOM     88  C   UNL A   1      43.610  28.152  35.776  1.00  0.00     0.020 A 
ATOM     89  C   UNL A   1      42.716  27.088  35.878  1.00  0.00     0.054 A 
BRANCH  89  90
ATOM     90  S   UNL A   1      42.636  26.132  37.419  1.00  0.00     0.124 S 
ATOM     91  O   UNL A   1      41.231  26.257  37.796  1.00  0.00    -0.237 OA
ATOM     92  O   UNL A   1      43.059  24.799  36.997  1.00  0.00    -0.237 OA
ATOM     93  O   UNL A   1      43.577  26.819  38.304  1.00  0.00    -0.744 OA
ENDBRANCH  89  90
ENDBRANCH  63  84
ENDBRANCH  37  38
ENDBRANCH  29  32
ENDBRANCH  27  28
ENDBRANCH   1  27
TORSDOF 17
ENDMDL
MODEL 3
REMARK VINA RESULT:     -12.7      1.757      3.378
REMARK SMILES O=C(CCc1cn(-c2ccc(Br)cc2)nc1-c1ccccc1)NCCCNC(=O)c1ccc(-c2c3nc(c(-c4ccc(S(=O)(=O)[O-])cc4)c4ccc([nH]4)c(-c4ccc(S(=O)(=O)[O-])cc4)c4nc(c(-c5ccc(S(=O)(=O)[O-])cc5)c5ccc2[nH]5)C=C4)C=C3)cc1
REMARK SMILES IDX 25 1 24 2 23 3 1 4 2 5 3 7 4 8 5 9 6 10 16 11 7 12 15 13
REMARK SMILES IDX 17 14 18 15 22 16 19 17 21 18 20 19 8 20 9 21 14 22 10 23
REMARK SMILES IDX 13 24 11 25 12 26 26 27 27 28 28 29 29 31 30 32 31 33 89 34
REMARK SMILES IDX 32 35 88 36 33 37 34 38 35 39 82 40 36 41 87 42 81 43 83 44
REMARK SMILES IDX 37 45 86 46 80 47 79 48 38 50 68 51 49 52 67 53 50 54 53 55
REMARK SMILES IDX 66 56 84 57 51 58 52 59 65 61 85 62 54 63 39 64 40 65 48 66
REMARK SMILES IDX 41 67 47 68 42 69 43 70 44 71 45 72 46 73 69 74 70 75 78 76
REMARK SMILES IDX 71 77 77 78 72 79 73 80 74 81 75 82 76 83 55 84 56 85 64 86
REMARK SMILES IDX 57 87 63 88 58 89 59 90 60 91 61 92 62 93
REMARK H PARENT 23 6 27 30 83 49 53 60
REMARK Flexibility Score: inf
ROOT
ATOM      1  C   UNL A   1      32.649  28.593  26.632  1.00  0.00     0.042 C 
ENDROOT
BRANCH   1   2
ATOM      2  C   UNL A   1      32.187  28.020  25.288  1.00  0.00     0.117 C 
BRANCH   2   3
ATOM      3  N   UNL A   1      32.870  26.782  24.929  1.00  0.00    -0.356 N 
ATOM      4  O   UNL A   1      33.032  27.129  22.679  1.00  0.00    -0.275 OA
ATOM      5  C   UNL A   1      33.236  26.414  23.658  1.00  0.00     0.220 C 
ATOM      6  H   UNL A   1      33.086  26.159  25.659  1.00  0.00     0.163 HD
BRANCH   5   7
ATOM      7  C   UNL A   1      33.825  25.006  23.511  1.00  0.00     0.105 C 
BRANCH   7   8
ATOM      8  C   UNL A   1      34.804  24.538  24.594  1.00  0.00     0.049 C 
BRANCH   8   9
ATOM      9  C   UNL A   1      34.972  23.056  24.734  1.00  0.00    -0.001 A 
ATOM     10  C   UNL A   1      34.227  22.009  24.198  1.00  0.00     0.119 A 
ATOM     11  C   UNL A   1      36.007  22.373  25.426  1.00  0.00     0.096 A 
ATOM     12  N   UNL A   1      34.607  20.879  24.894  1.00  0.00    -0.240 N 
ATOM     13  N   UNL A   1      35.622  21.134  25.725  1.00  0.00    -0.168 NA
BRANCH  11  14
ATOM     14  C   UNL A   1      37.343  22.773  25.809  1.00  0.00     0.002 A 
ATOM     15  C   UNL A   1      38.349  21.790  25.790  1.00  0.00     0.010 A 
ATOM     16  C   UNL A   1      37.614  24.036  26.325  1.00  0.00     0.010 A 
ATOM     17  C   UNL A   1      39.618  22.068  26.287  1.00  0.00     0.001 A 
ATOM     18  C   UNL A   1      38.888  24.312  26.825  1.00  0.00     0.001 A 
ATOM     19  C   UNL A   1      39.885  23.331  26.809  1.00  0.00     0.000 A 
ENDBRANCH  11  14
BRANCH  12  20
ATOM     20  C   UNL A   1      34.138  19.557  24.834  1.00  0.00     0.065 A 
ATOM     21  C   UNL A   1      34.987  18.528  24.485  1.00  0.00     0.029 A 
ATOM     22  C   UNL A   1      32.840  19.271  25.284  1.00  0.00     0.029 A 
ATOM     23  C   UNL A   1      34.552  17.207  24.685  1.00  0.00     0.018 A 
ATOM     24  C   UNL A   1      32.398  17.952  25.400  1.00  0.00     0.018 A 
ATOM     25  C   UNL A   1      33.274  16.919  25.136  1.00  0.00     0.018 A 
ATOM     26  Br  UNL A   1      32.754  15.118  25.366  1.00  0.00    -0.051 Br
ENDBRANCH  12  20
ENDBRANCH   8   9
ENDBRANCH   7   8
ENDBRANCH   5   7
ENDBRANCH   2   3
ENDBRANCH   1   2
BRANCH   1  27
ATOM     27  C   UNL A   1      33.629  29.746  26.494  1.00  0.00     0.118 C 
BRANCH  27  28
ATOM     28  N   UNL A   1      33.559  30.835  27.446  1.00  0.00    -0.352 N 
ATOM     29  C   UNL A   1      34.550  31.314  28.304  1.00  0.00     0.251 C 
ATOM     30  H   UNL A   1      32.695  31.303  27.494  1.00  0.00     0.163 HD
ATOM     31  O   UNL A   1      34.239  32.183  29.106  1.00  0.00    -0.269 OA
BRANCH  29  32
ATOM     32  C   UNL A   1      35.981  30.841  28.233  1.00  0.00     0.039 A 
ATOM     33  C   UNL A   1      36.278  29.503  27.918  1.00  0.00     0.014 A 
ATOM     34  C   UNL A   1      37.053  31.655  28.590  1.00  0.00     0.014 A 
ATOM     35  C   UNL A   1      37.584  28.999  28.112  1.00  0.00     0.010 A 
ATOM     36  C   UNL A   1      38.335  31.182  28.745  1.00  0.00     0.010 A 
ATOM     37  C   UNL A   1      38.588  29.830  28.636  1.00  0.00    -0.014 A 
BRANCH  37  38
ATOM     38  C   UNL A   1      40.003  29.472  28.809  1.00  0.00     0.031 A 
ATOM     39  C   UNL A   1      40.255  29.376  30.263  1.00  0.00     0.074 A 
ATOM     40  C   UNL A   1      40.845  28.953  27.872  1.00  0.00     0.049 A 
ATOM     41  N   UNL A   1      40.786  30.293  31.003  1.00  0.00    -0.248 NA
ATOM     42  C   UNL A   1      39.551  28.321  31.030  1.00  0.00     0.031 C 
ATOM     43  C   UNL A   1      40.660  28.793  26.427  1.00  0.00     0.029 A 
ATOM     44  N   UNL A   1      42.066  28.347  28.025  1.00  0.00    -0.354 N 
ATOM     45  C   UNL A   1      40.787  29.723  32.266  1.00  0.00     0.074 A 
ATOM     46  C   UNL A   1      39.700  28.784  32.274  1.00  0.00     0.031 C 
ATOM     47  C   UNL A   1      41.537  27.924  25.893  1.00  0.00     0.029 A 
ATOM     48  C   UNL A   1      42.501  27.609  26.914  1.00  0.00     0.049 A 
ATOM     49  H   UNL A   1      42.597  28.424  28.850  1.00  0.00     0.167 HD
ATOM     50  C   UNL A   1      41.961  29.627  32.951  1.00  0.00     0.031 A 
ATOM     51  C   UNL A   1      43.634  26.887  26.732  1.00  0.00     0.031 A 
ATOM     52  C   UNL A   1      42.971  30.474  32.363  1.00  0.00     0.049 A 
ATOM     53  C   UNL A   1      44.602  27.397  27.714  1.00  0.00     0.074 A 
ATOM     54  C   UNL A   1      43.160  31.830  32.211  1.00  0.00     0.029 A 
ATOM     55  N   UNL A   1      43.739  29.844  31.415  1.00  0.00    -0.354 N 
ATOM     56  N   UNL A   1      45.098  28.602  27.645  1.00  0.00    -0.248 NA
ATOM     57  C   UNL A   1      44.696  26.746  29.012  1.00  0.00     0.031 C 
ATOM     58  C   UNL A   1      43.960  31.995  31.043  1.00  0.00     0.029 A 
ATOM     59  C   UNL A   1      44.302  30.740  30.546  1.00  0.00     0.049 A 
ATOM     60  H   UNL A   1      43.868  28.869  31.366  1.00  0.00     0.167 HD
ATOM     61  C   UNL A   1      45.132  29.018  28.961  1.00  0.00     0.074 A 
ATOM     62  C   UNL A   1      45.043  27.799  29.757  1.00  0.00     0.031 C 
ATOM     63  C   UNL A   1      44.884  30.319  29.288  1.00  0.00     0.031 A 
BRANCH  50  64
ATOM     64  C   UNL A   1      42.343  28.396  33.749  1.00  0.00    -0.014 A 
ATOM     65  C   UNL A   1      43.226  27.467  33.176  1.00  0.00     0.010 A 
ATOM     66  C   UNL A   1      41.679  27.991  34.930  1.00  0.00     0.010 A 
ATOM     67  C   UNL A   1      43.425  26.203  33.754  1.00  0.00     0.020 A 
ATOM     68  C   UNL A   1      41.896  26.757  35.536  1.00  0.00     0.020 A 
ATOM     69  C   UNL A   1      42.758  25.861  34.932  1.00  0.00     0.054 A 
BRANCH  69  70
ATOM     70  S   UNL A   1      42.988  24.223  35.658  1.00  0.00     0.124 S 
ATOM     71  O   UNL A   1      43.656  23.508  34.577  1.00  0.00    -0.237 OA
ATOM     72  O   UNL A   1      43.805  24.521  36.831  1.00  0.00    -0.237 OA
ATOM     73  O   UNL A   1      41.624  23.786  35.951  1.00  0.00    -0.744 OA
ENDBRANCH  69  70
ENDBRANCH  50  64
BRANCH  51  74
ATOM     74  C   UNL A   1      43.896  25.708  25.865  1.00  0.00    -0.014 A 
ATOM     75  C   UNL A   1      45.211  25.299  25.572  1.00  0.00     0.010 A 
ATOM     76  C   UNL A   1      42.853  24.802  25.584  1.00  0.00     0.010 A 
ATOM     77  C   UNL A   1      45.484  23.992  25.129  1.00  0.00     0.020 A 
ATOM     78  C   UNL A   1      43.118  23.498  25.138  1.00  0.00     0.020 A 
ATOM     79  C   UNL A   1      44.436  23.087  24.952  1.00  0.00     0.054 A 
BRANCH  79  80
ATOM     80  S   UNL A   1      44.811  21.332  24.637  1.00  0.00     0.124 S 
ATOM     81  O   UNL A   1      44.715  21.247  23.183  1.00  0.00    -0.237 OA
ATOM     82  O   UNL A   1      46.154  21.190  25.192  1.00  0.00    -0.237 OA
ATOM     83  O   UNL A   1      43.764  20.622  25.370  1.00  0.00    -0.744 OA
ENDBRANCH  79  80
ENDBRANCH  51  74
BRANCH  63  84
ATOM     84  C   UNL A   1      45.156  31.373  28.249  1.00  0.00    -0.014 A 
ATOM     85  C   UNL A   1      44.225  31.842  27.303  1.00  0.00     0.010 A 
ATOM     86  C   UNL A   1      46.424  31.977  28.305  1.00  0.00     0.010 A 
ATOM     87  C   UNL A   1      44.570  32.887  26.427  1.00  0.00     0.020 A 
ATOM     88  C   UNL A   1      46.766  33.023  27.452  1.00  0.00     0.020 A 
ATOM     89  C   UNL A   1      45.843  33.469  26.509  1.00  0.00     0.054 A 
BRANCH  89  90
ATOM     90  S   UNL A   1      46.287  34.835  25.399  1.00  0.00     0.124 S 
ATOM     91  O   UNL A   1      47.714  34.616  25.183  1.00  0.00    -0.237 OA
ATOM     92  O   UNL A   1      45.431  34.602  24.238  1.00  0.00    -0.237 OA
ATOM     93  O   UNL A   1      45.955  36.032  26.171  1.00  0.00    -0.744 OA
ENDBRANCH  89  90
ENDBRANCH  63  84
ENDBRANCH  37  38
ENDBRANCH  29  32
ENDBRANCH  27  28
ENDBRANCH   1  27
TORSDOF 17
ENDMDL
