MODEL 1
REMARK VINA RESULT:     -12.9      0.000      0.000
REMARK SMILES O=C(NCCCNC(=O)c1nnn(Cc2ccccc2Cl)c1-c1ccc(Cl)cc1)c1ccc(-c2c3nc(c(-c4ccc(S(=O)(=O)[O-])cc4)c4ccc([nH]4)c(-c4ccc(S(=O)(=O)[O-])cc4)c4nc(c(-c5ccc(S(=O)(=O)[O-])cc5)c5ccc2[nH]5)C=C4)C=C3)cc1
REMARK SMILES IDX 4 1 3 2 1 3 2 4 30 6 31 7 89 8 32 9 88 10 33 11 34 12 35 13
REMARK SMILES IDX 82 14 36 15 87 16 81 17 83 18 37 19 86 20 80 21 79 22 38 24
REMARK SMILES IDX 68 25 49 26 67 27 50 28 53 29 66 30 84 31 51 32 52 33 65 35
REMARK SMILES IDX 85 36 54 37 39 38 40 39 48 40 41 41 47 42 42 43 43 44 44 45
REMARK SMILES IDX 45 46 46 47 69 48 70 49 78 50 71 51 77 52 72 53 73 54 74 55
REMARK SMILES IDX 75 56 76 57 55 58 56 59 64 60 57 61 63 62 58 63 59 64 60 65
REMARK SMILES IDX 61 66 62 67 5 68 6 69 7 70 8 71 9 73 10 74 11 75 22 76 12 77
REMARK SMILES IDX 13 78 23 79 24 80 29 81 25 82 28 83 26 84 27 85 14 86 15 87
REMARK SMILES IDX 16 88 20 89 17 90 19 91 21 92 18 93
REMARK H PARENT 3 5 83 23 53 34 7 72
REMARK Flexibility Score: inf
ROOT
ATOM      1  C   UNL A   1      37.628  22.111  24.955  1.00  0.00     0.118 C 
ENDROOT
BRANCH   1   2
ATOM      2  N   UNL A   1      38.903  21.646  25.465  1.00  0.00    -0.352 N 
ATOM      3  O   UNL A   1      40.619  21.225  26.768  1.00  0.00    -0.269 OA
ATOM      4  C   UNL A   1      39.776  22.063  26.432  1.00  0.00     0.251 C 
ATOM      5  H   UNL A   1      39.216  20.835  25.004  1.00  0.00     0.163 HD
BRANCH   4   6
ATOM      6  C   UNL A   1      39.849  23.426  27.033  1.00  0.00     0.039 A 
ATOM      7  C   UNL A   1      38.984  24.494  26.794  1.00  0.00     0.014 A 
ATOM      8  C   UNL A   1      40.944  23.641  27.899  1.00  0.00     0.014 A 
ATOM      9  C   UNL A   1      39.258  25.756  27.342  1.00  0.00     0.010 A 
ATOM     10  C   UNL A   1      41.223  24.895  28.440  1.00  0.00     0.010 A 
ATOM     11  C   UNL A   1      40.396  25.968  28.137  1.00  0.00    -0.014 A 
BRANCH  11  12
ATOM     12  C   UNL A   1      40.569  27.254  28.826  1.00  0.00     0.031 A 
ATOM     13  C   UNL A   1      41.639  28.099  28.225  1.00  0.00     0.074 A 
ATOM     14  C   UNL A   1      39.791  27.759  29.810  1.00  0.00     0.049 A 
ATOM     15  N   UNL A   1      42.808  28.339  28.717  1.00  0.00    -0.248 NA
ATOM     16  C   UNL A   1      41.450  28.614  26.860  1.00  0.00     0.031 C 
ATOM     17  C   UNL A   1      38.534  27.224  30.340  1.00  0.00     0.029 A 
ATOM     18  N   UNL A   1      39.932  28.931  30.506  1.00  0.00    -0.354 N 
ATOM     19  C   UNL A   1      43.426  29.219  27.833  1.00  0.00     0.074 A 
ATOM     20  C   UNL A   1      42.621  29.216  26.637  1.00  0.00     0.031 C 
ATOM     21  C   UNL A   1      37.928  28.166  31.106  1.00  0.00     0.029 A 
ATOM     22  C   UNL A   1      38.810  29.314  31.244  1.00  0.00     0.049 A 
ATOM     23  H   UNL A   1      40.760  29.461  30.488  1.00  0.00     0.167 HD
ATOM     24  C   UNL A   1      44.423  30.052  28.240  1.00  0.00     0.031 A 
ATOM     25  C   UNL A   1      38.614  30.491  31.904  1.00  0.00     0.031 A 
ATOM     26  C   UNL A   1      44.916  29.692  29.545  1.00  0.00     0.049 A 
ATOM     27  C   UNL A   1      39.950  31.076  32.161  1.00  0.00     0.074 A 
ATOM     28  C   UNL A   1      45.506  28.572  30.096  1.00  0.00     0.029 A 
ATOM     29  N   UNL A   1      44.464  30.446  30.601  1.00  0.00    -0.354 N 
ATOM     30  N   UNL A   1      40.816  30.551  32.978  1.00  0.00    -0.248 NA
ATOM     31  C   UNL A   1      40.492  32.003  31.183  1.00  0.00     0.031 C 
ATOM     32  C   UNL A   1      44.953  28.477  31.405  1.00  0.00     0.029 A 
ATOM     33  C   UNL A   1      44.126  29.583  31.608  1.00  0.00     0.049 A 
ATOM     34  H   UNL A   1      44.397  31.427  30.629  1.00  0.00     0.167 HD
ATOM     35  C   UNL A   1      42.035  30.709  32.340  1.00  0.00     0.074 A 
ATOM     36  C   UNL A   1      41.786  31.691  31.286  1.00  0.00     0.031 C 
ATOM     37  C   UNL A   1      43.056  29.827  32.550  1.00  0.00     0.031 A 
BRANCH  24  38
ATOM     38  C   UNL A   1      44.672  31.425  27.665  1.00  0.00    -0.014 A 
ATOM     39  C   UNL A   1      45.963  31.728  27.181  1.00  0.00     0.010 A 
ATOM     40  C   UNL A   1      43.786  32.506  27.844  1.00  0.00     0.010 A 
ATOM     41  C   UNL A   1      46.367  33.050  26.958  1.00  0.00     0.020 A 
ATOM     42  C   UNL A   1      44.166  33.826  27.584  1.00  0.00     0.020 A 
ATOM     43  C   UNL A   1      45.465  34.092  27.170  1.00  0.00     0.054 A 
BRANCH  43  44
ATOM     44  S   UNL A   1      46.023  35.798  26.949  1.00  0.00     0.124 S 
ATOM     45  O   UNL A   1      46.504  35.783  25.572  1.00  0.00    -0.237 OA
ATOM     46  O   UNL A   1      44.795  36.555  27.184  1.00  0.00    -0.237 OA
ATOM     47  O   UNL A   1      47.052  35.958  27.973  1.00  0.00    -0.744 OA
ENDBRANCH  43  44
ENDBRANCH  24  38
BRANCH  25  48
ATOM     48  C   UNL A   1      37.372  31.295  32.092  1.00  0.00    -0.014 A 
ATOM     49  C   UNL A   1      37.148  32.037  33.273  1.00  0.00     0.010 A 
ATOM     50  C   UNL A   1      36.562  31.592  30.979  1.00  0.00     0.010 A 
ATOM     51  C   UNL A   1      36.206  33.083  33.313  1.00  0.00     0.020 A 
ATOM     52  C   UNL A   1      35.619  32.632  31.014  1.00  0.00     0.020 A 
ATOM     53  C   UNL A   1      35.464  33.391  32.171  1.00  0.00     0.054 A 
BRANCH  53  54
ATOM     54  S   UNL A   1      34.396  34.867  32.159  1.00  0.00     0.124 S 
ATOM     55  O   UNL A   1      34.279  35.157  30.734  1.00  0.00    -0.237 OA
ATOM     56  O   UNL A   1      33.179  34.389  32.808  1.00  0.00    -0.237 OA
ATOM     57  O   UNL A   1      35.159  35.848  32.931  1.00  0.00    -0.744 OA
ENDBRANCH  53  54
ENDBRANCH  25  48
BRANCH  37  58
ATOM     58  C   UNL A   1      42.976  28.890  33.732  1.00  0.00    -0.014 A 
ATOM     59  C   UNL A   1      43.552  29.140  34.992  1.00  0.00     0.010 A 
ATOM     60  C   UNL A   1      42.157  27.757  33.583  1.00  0.00     0.010 A 
ATOM     61  C   UNL A   1      43.338  28.258  36.064  1.00  0.00     0.020 A 
ATOM     62  C   UNL A   1      41.921  26.888  34.648  1.00  0.00     0.020 A 
ATOM     63  C   UNL A   1      42.523  27.135  35.881  1.00  0.00     0.054 A 
BRANCH  63  64
ATOM     64  S   UNL A   1      42.221  26.012  37.273  1.00  0.00     0.124 S 
ATOM     65  O   UNL A   1      40.794  26.194  37.523  1.00  0.00    -0.237 OA
ATOM     66  O   UNL A   1      42.603  24.711  36.727  1.00  0.00    -0.237 OA
ATOM     67  O   UNL A   1      43.102  26.516  38.325  1.00  0.00    -0.744 OA
ENDBRANCH  63  64
ENDBRANCH  37  58
ENDBRANCH  11  12
ENDBRANCH   4   6
ENDBRANCH   1   2
BRANCH   1  68
ATOM     68  C   UNL A   1      36.428  21.837  25.852  1.00  0.00     0.042 C 
BRANCH  68  69
ATOM     69  C   UNL A   1      35.703  23.069  26.384  1.00  0.00     0.118 C 
BRANCH  69  70
ATOM     70  N   UNL A   1      34.632  22.791  27.324  1.00  0.00    -0.351 N 
ATOM     71  C   UNL A   1      33.263  22.818  27.126  1.00  0.00     0.274 C 
ATOM     72  H   UNL A   1      34.921  22.548  28.234  1.00  0.00     0.163 HD
ATOM     73  O   UNL A   1      32.535  22.554  28.075  1.00  0.00    -0.267 OA
BRANCH  71  74
ATOM     74  C   UNL A   1      32.734  23.182  25.816  1.00  0.00     0.178 A 
ATOM     75  N   UNL A   1      32.509  22.233  24.855  1.00  0.00    -0.124 NA
ATOM     76  C   UNL A   1      32.400  24.438  25.312  1.00  0.00     0.102 A 
ATOM     77  N   UNL A   1      31.956  22.824  23.812  1.00  0.00    -0.066 NA
ATOM     78  N   UNL A   1      31.860  24.142  24.075  1.00  0.00    -0.239 N 
BRANCH  76  79
ATOM     79  C   UNL A   1      32.528  25.760  25.914  1.00  0.00     0.002 A 
ATOM     80  C   UNL A   1      31.410  26.369  26.498  1.00  0.00     0.012 A 
ATOM     81  C   UNL A   1      33.727  26.481  25.821  1.00  0.00     0.012 A 
ATOM     82  C   UNL A   1      31.487  27.680  26.976  1.00  0.00     0.021 A 
ATOM     83  C   UNL A   1      33.803  27.794  26.292  1.00  0.00     0.021 A 
ATOM     84  C   UNL A   1      32.682  28.388  26.865  1.00  0.00     0.041 A 
ATOM     85  Cl  UNL A   1      32.766  30.012  27.426  1.00  0.00    -0.084 Cl
ENDBRANCH  76  79
BRANCH  78  86
ATOM     86  C   UNL A   1      31.128  24.998  23.150  1.00  0.00     0.183 C 
BRANCH  86  87
ATOM     87  C   UNL A   1      31.818  26.315  22.886  1.00  0.00    -0.008 A 
ATOM     88  C   UNL A   1      33.148  26.307  22.422  1.00  0.00     0.007 A 
ATOM     89  C   UNL A   1      31.195  27.556  23.098  1.00  0.00     0.046 A 
ATOM     90  C   UNL A   1      33.829  27.502  22.177  1.00  0.00     0.000 A 
ATOM     91  C   UNL A   1      31.875  28.749  22.830  1.00  0.00     0.021 A 
ATOM     92  Cl  UNL A   1      29.598  27.697  23.742  1.00  0.00    -0.084 Cl
ATOM     93  C   UNL A   1      33.190  28.722  22.372  1.00  0.00     0.002 A 
ENDBRANCH  86  87
ENDBRANCH  78  86
ENDBRANCH  71  74
ENDBRANCH  69  70
ENDBRANCH  68  69
ENDBRANCH   1  68
TORSDOF 16
ENDMDL
MODEL 2
REMARK VINA RESULT:     -12.8      3.164      9.312
REMARK SMILES O=C(NCCCNC(=O)c1nnn(Cc2ccccc2Cl)c1-c1ccc(Cl)cc1)c1ccc(-c2c3nc(c(-c4ccc(S(=O)(=O)[O-])cc4)c4ccc([nH]4)c(-c4ccc(S(=O)(=O)[O-])cc4)c4nc(c(-c5ccc(S(=O)(=O)[O-])cc5)c5ccc2[nH]5)C=C4)C=C3)cc1
REMARK SMILES IDX 4 1 3 2 1 3 2 4 30 6 31 7 89 8 32 9 88 10 33 11 34 12 35 13
REMARK SMILES IDX 82 14 36 15 87 16 81 17 83 18 37 19 86 20 80 21 79 22 38 24
REMARK SMILES IDX 68 25 49 26 67 27 50 28 53 29 66 30 84 31 51 32 52 33 65 35
REMARK SMILES IDX 85 36 54 37 39 38 40 39 48 40 41 41 47 42 42 43 43 44 44 45
REMARK SMILES IDX 45 46 46 47 69 48 70 49 78 50 71 51 77 52 72 53 73 54 74 55
REMARK SMILES IDX 75 56 76 57 55 58 56 59 64 60 57 61 63 62 58 63 59 64 60 65
REMARK SMILES IDX 61 66 62 67 5 68 6 69 7 70 8 71 9 73 10 74 11 75 22 76 12 77
REMARK SMILES IDX 13 78 23 79 24 80 29 81 25 82 28 83 26 84 27 85 14 86 15 87
REMARK SMILES IDX 16 88 20 89 17 90 19 91 21 92 18 93
REMARK H PARENT 3 5 83 23 53 34 7 72
REMARK Flexibility Score: inf
ROOT
ATOM      1  C   UNL A   1      32.792  30.128  27.255  1.00  0.00     0.118 C 
ENDROOT
BRANCH   1   2
ATOM      2  N   UNL A   1      33.295  31.373  27.801  1.00  0.00    -0.352 N 
ATOM      3  O   UNL A   1      34.558  33.109  28.260  1.00  0.00    -0.269 OA
ATOM      4  C   UNL A   1      34.533  31.888  28.070  1.00  0.00     0.251 C 
ATOM      5  H   UNL A   1      32.571  31.998  28.034  1.00  0.00     0.163 HD
BRANCH   4   6
ATOM      6  C   UNL A   1      35.799  31.117  28.236  1.00  0.00     0.039 A 
ATOM      7  C   UNL A   1      35.974  29.747  28.044  1.00  0.00     0.014 A 
ATOM      8  C   UNL A   1      36.909  31.873  28.673  1.00  0.00     0.014 A 
ATOM      9  C   UNL A   1      37.202  29.145  28.361  1.00  0.00     0.010 A 
ATOM     10  C   UNL A   1      38.128  31.278  28.994  1.00  0.00     0.010 A 
ATOM     11  C   UNL A   1      38.270  29.902  28.868  1.00  0.00    -0.014 A 
BRANCH  11  12
ATOM     12  C   UNL A   1      39.587  29.276  29.037  1.00  0.00     0.031 A 
ATOM     13  C   UNL A   1      39.957  29.070  30.466  1.00  0.00     0.074 A 
ATOM     14  C   UNL A   1      40.379  28.775  28.061  1.00  0.00     0.049 A 
ATOM     15  N   UNL A   1      40.831  29.732  31.146  1.00  0.00    -0.248 NA
ATOM     16  C   UNL A   1      39.168  28.123  31.270  1.00  0.00     0.031 C 
ATOM     17  C   UNL A   1      40.077  28.619  26.637  1.00  0.00     0.029 A 
ATOM     18  N   UNL A   1      41.626  28.217  28.163  1.00  0.00    -0.354 N 
ATOM     19  C   UNL A   1      40.867  29.144  32.407  1.00  0.00     0.074 A 
ATOM     20  C   UNL A   1      39.713  28.282  32.479  1.00  0.00     0.031 C 
ATOM     21  C   UNL A   1      41.011  27.821  26.060  1.00  0.00     0.029 A 
ATOM     22  C   UNL A   1      42.055  27.525  27.029  1.00  0.00     0.049 A 
ATOM     23  H   UNL A   1      42.178  28.297  28.975  1.00  0.00     0.167 HD
ATOM     24  C   UNL A   1      41.967  29.238  33.204  1.00  0.00     0.031 A 
ATOM     25  C   UNL A   1      43.173  26.756  26.900  1.00  0.00     0.031 A 
ATOM     26  C   UNL A   1      42.894  30.225  32.714  1.00  0.00     0.049 A 
ATOM     27  C   UNL A   1      44.121  27.182  27.955  1.00  0.00     0.074 A 
ATOM     28  C   UNL A   1      42.844  31.583  32.471  1.00  0.00     0.029 A 
ATOM     29  N   UNL A   1      43.986  29.753  32.026  1.00  0.00    -0.354 N 
ATOM     30  N   UNL A   1      44.702  28.346  27.967  1.00  0.00    -0.248 NA
ATOM     31  C   UNL A   1      44.090  26.482  29.227  1.00  0.00     0.031 C 
ATOM     32  C   UNL A   1      43.603  31.767  31.280  1.00  0.00     0.029 A 
ATOM     33  C   UNL A   1      44.139  30.532  30.911  1.00  0.00     0.049 A 
ATOM     34  H   UNL A   1      44.555  28.993  32.287  1.00  0.00     0.167 HD
ATOM     35  C   UNL A   1      44.692  28.725  29.299  1.00  0.00     0.074 A 
ATOM     36  C   UNL A   1      44.390  27.500  30.039  1.00  0.00     0.031 C 
ATOM     37  C   UNL A   1      44.657  30.042  29.653  1.00  0.00     0.031 A 
BRANCH  24  38
ATOM     38  C   UNL A   1      42.407  28.171  34.176  1.00  0.00    -0.014 A 
ATOM     39  C   UNL A   1      42.687  28.548  35.508  1.00  0.00     0.010 A 
ATOM     40  C   UNL A   1      42.828  26.889  33.772  1.00  0.00     0.010 A 
ATOM     41  C   UNL A   1      43.415  27.713  36.364  1.00  0.00     0.020 A 
ATOM     42  C   UNL A   1      43.518  26.030  34.633  1.00  0.00     0.020 A 
ATOM     43  C   UNL A   1      43.834  26.461  35.916  1.00  0.00     0.054 A 
BRANCH  43  44
ATOM     44  S   UNL A   1      44.835  25.424  37.007  1.00  0.00     0.124 S 
ATOM     45  O   UNL A   1      46.189  25.862  36.682  1.00  0.00    -0.237 OA
ATOM     46  O   UNL A   1      44.344  25.807  38.329  1.00  0.00    -0.237 OA
ATOM     47  O   UNL A   1      44.498  24.064  36.593  1.00  0.00    -0.744 OA
ENDBRANCH  43  44
ENDBRANCH  24  38
BRANCH  25  48
ATOM     48  C   UNL A   1      43.394  25.499  26.128  1.00  0.00    -0.014 A 
ATOM     49  C   UNL A   1      44.587  25.281  25.404  1.00  0.00     0.010 A 
ATOM     50  C   UNL A   1      42.572  24.382  26.368  1.00  0.00     0.010 A 
ATOM     51  C   UNL A   1      44.977  23.987  25.006  1.00  0.00     0.020 A 
ATOM     52  C   UNL A   1      42.952  23.091  25.972  1.00  0.00     0.020 A 
ATOM     53  C   UNL A   1      44.166  22.894  25.316  1.00  0.00     0.054 A 
BRANCH  53  54
ATOM     54  S   UNL A   1      44.761  21.205  24.985  1.00  0.00     0.124 S 
ATOM     55  O   UNL A   1      46.096  21.221  25.575  1.00  0.00    -0.237 OA
ATOM     56  O   UNL A   1      43.777  20.376  25.673  1.00  0.00    -0.237 OA
ATOM     57  O   UNL A   1      44.730  21.110  23.525  1.00  0.00    -0.744 OA
ENDBRANCH  53  54
ENDBRANCH  25  48
BRANCH  37  58
ATOM     58  C   UNL A   1      44.981  31.085  28.609  1.00  0.00    -0.014 A 
ATOM     59  C   UNL A   1      44.038  31.666  27.739  1.00  0.00     0.010 A 
ATOM     60  C   UNL A   1      46.294  31.587  28.608  1.00  0.00     0.010 A 
ATOM     61  C   UNL A   1      44.414  32.703  26.870  1.00  0.00     0.020 A 
ATOM     62  C   UNL A   1      46.669  32.633  27.764  1.00  0.00     0.020 A 
ATOM     63  C   UNL A   1      45.730  33.178  26.889  1.00  0.00     0.054 A 
BRANCH  63  64
ATOM     64  S   UNL A   1      46.208  34.538  25.788  1.00  0.00     0.124 S 
ATOM     65  O   UNL A   1      47.632  34.295  25.584  1.00  0.00    -0.237 OA
ATOM     66  O   UNL A   1      45.359  34.321  24.618  1.00  0.00    -0.237 OA
ATOM     67  O   UNL A   1      45.889  35.739  26.559  1.00  0.00    -0.744 OA
ENDBRANCH  63  64
ENDBRANCH  37  58
ENDBRANCH  11  12
ENDBRANCH   4   6
ENDBRANCH   1   2
BRANCH   1  68
ATOM     68  C   UNL A   1      33.030  29.925  25.765  1.00  0.00     0.042 C 
BRANCH  68  69
ATOM     69  C   UNL A   1      33.847  28.694  25.385  1.00  0.00     0.118 C 
BRANCH  69  70
ATOM     70  N   UNL A   1      34.109  28.549  23.964  1.00  0.00    -0.351 N 
ATOM     71  C   UNL A   1      33.595  27.628  23.068  1.00  0.00     0.274 C 
ATOM     72  H   UNL A   1      34.744  29.198  23.584  1.00  0.00     0.163 HD
ATOM     73  O   UNL A   1      33.968  27.684  21.902  1.00  0.00    -0.267 OA
BRANCH  71  74
ATOM     74  C   UNL A   1      32.659  26.614  23.539  1.00  0.00     0.178 A 
ATOM     75  N   UNL A   1      31.316  26.871  23.613  1.00  0.00    -0.124 NA
ATOM     76  C   UNL A   1      32.905  25.315  23.983  1.00  0.00     0.102 A 
ATOM     77  N   UNL A   1      30.703  25.763  23.986  1.00  0.00    -0.066 NA
ATOM     78  N   UNL A   1      31.635  24.811  24.189  1.00  0.00    -0.239 N 
BRANCH  76  79
ATOM     79  C   UNL A   1      34.165  24.604  24.161  1.00  0.00     0.002 A 
ATOM     80  C   UNL A   1      34.611  23.719  23.171  1.00  0.00     0.012 A 
ATOM     81  C   UNL A   1      34.886  24.706  25.360  1.00  0.00     0.012 A 
ATOM     82  C   UNL A   1      35.755  22.945  23.378  1.00  0.00     0.021 A 
ATOM     83  C   UNL A   1      36.027  23.926  25.570  1.00  0.00     0.021 A 
ATOM     84  C   UNL A   1      36.455  23.048  24.578  1.00  0.00     0.041 A 
ATOM     85  Cl  UNL A   1      37.845  22.071  24.843  1.00  0.00    -0.084 Cl
ENDBRANCH  76  79
BRANCH  78  86
ATOM     86  C   UNL A   1      31.207  23.442  24.446  1.00  0.00     0.183 C 
BRANCH  86  87
ATOM     87  C   UNL A   1      32.040  22.746  25.495  1.00  0.00    -0.008 A 
ATOM     88  C   UNL A   1      32.134  23.314  26.780  1.00  0.00     0.007 A 
ATOM     89  C   UNL A   1      32.744  21.556  25.241  1.00  0.00     0.046 A 
ATOM     90  C   UNL A   1      32.903  22.711  27.778  1.00  0.00     0.000 A 
ATOM     91  C   UNL A   1      33.495  20.945  26.251  1.00  0.00     0.021 A 
ATOM     92  Cl  UNL A   1      32.775  20.809  23.685  1.00  0.00    -0.084 Cl
ATOM     93  C   UNL A   1      33.576  21.522  27.516  1.00  0.00     0.002 A 
ENDBRANCH  86  87
ENDBRANCH  78  86
ENDBRANCH  71  74
ENDBRANCH  69  70
ENDBRANCH  68  69
ENDBRANCH   1  68
TORSDOF 16
ENDMDL
MODEL 3
REMARK VINA RESULT:     -12.0      3.014      9.219
REMARK SMILES O=C(NCCCNC(=O)c1nnn(Cc2ccccc2Cl)c1-c1ccc(Cl)cc1)c1ccc(-c2c3nc(c(-c4ccc(S(=O)(=O)[O-])cc4)c4ccc([nH]4)c(-c4ccc(S(=O)(=O)[O-])cc4)c4nc(c(-c5ccc(S(=O)(=O)[O-])cc5)c5ccc2[nH]5)C=C4)C=C3)cc1
REMARK SMILES IDX 4 1 3 2 1 3 2 4 30 6 31 7 89 8 32 9 88 10 33 11 34 12 35 13
REMARK SMILES IDX 82 14 36 15 87 16 81 17 83 18 37 19 86 20 80 21 79 22 38 24
REMARK SMILES IDX 68 25 49 26 67 27 50 28 53 29 66 30 84 31 51 32 52 33 65 35
REMARK SMILES IDX 85 36 54 37 39 38 40 39 48 40 41 41 47 42 42 43 43 44 44 45
REMARK SMILES IDX 45 46 46 47 69 48 70 49 78 50 71 51 77 52 72 53 73 54 74 55
REMARK SMILES IDX 75 56 76 57 55 58 56 59 64 60 57 61 63 62 58 63 59 64 60 65
REMARK SMILES IDX 61 66 62 67 5 68 6 69 7 70 8 71 9 73 10 74 11 75 22 76 12 77
REMARK SMILES IDX 13 78 23 79 24 80 29 81 25 82 28 83 26 84 27 85 14 86 15 87
REMARK SMILES IDX 16 88 20 89 17 90 19 91 21 92 18 93
REMARK H PARENT 3 5 83 23 53 34 7 72
REMARK Flexibility Score: inf
ROOT
ATOM      1  C   UNL A   1      33.509  30.273  26.605  1.00  0.00     0.118 C 
ENDROOT
BRANCH   1   2
ATOM      2  N   UNL A   1      33.458  31.080  27.808  1.00  0.00    -0.352 N 
ATOM      3  O   UNL A   1      33.955  32.485  29.421  1.00  0.00    -0.269 OA
ATOM      4  C   UNL A   1      34.381  31.596  28.675  1.00  0.00     0.251 C 
ATOM      5  H   UNL A   1      32.536  31.313  28.062  1.00  0.00     0.163 HD
BRANCH   4   6
ATOM      6  C   UNL A   1      35.788  31.134  28.852  1.00  0.00     0.039 A 
ATOM      7  C   UNL A   1      36.884  31.913  29.221  1.00  0.00     0.014 A 
ATOM      8  C   UNL A   1      36.011  29.769  28.568  1.00  0.00     0.014 A 
ATOM      9  C   UNL A   1      38.172  31.356  29.225  1.00  0.00     0.010 A 
ATOM     10  C   UNL A   1      37.289  29.213  28.565  1.00  0.00     0.010 A 
ATOM     11  C   UNL A   1      38.382  30.015  28.864  1.00  0.00    -0.014 A 
BRANCH  11  12
ATOM     12  C   UNL A   1      39.714  29.419  29.031  1.00  0.00     0.031 A 
ATOM     13  C   UNL A   1      40.045  29.116  30.451  1.00  0.00     0.074 A 
ATOM     14  C   UNL A   1      40.553  29.020  28.047  1.00  0.00     0.049 A 
ATOM     15  N   UNL A   1      40.873  29.752  31.209  1.00  0.00    -0.248 NA
ATOM     16  C   UNL A   1      39.263  28.086  31.155  1.00  0.00     0.031 C 
ATOM     17  C   UNL A   1      40.302  28.963  26.606  1.00  0.00     0.029 A 
ATOM     18  N   UNL A   1      41.814  28.494  28.150  1.00  0.00    -0.354 N 
ATOM     19  C   UNL A   1      40.889  29.070  32.422  1.00  0.00     0.074 A 
ATOM     20  C   UNL A   1      39.764  28.169  32.389  1.00  0.00     0.031 C 
ATOM     21  C   UNL A   1      41.281  28.242  26.003  1.00  0.00     0.029 A 
ATOM     22  C   UNL A   1      42.303  27.906  26.982  1.00  0.00     0.049 A 
ATOM     23  H   UNL A   1      42.336  28.530  28.984  1.00  0.00     0.167 HD
ATOM     24  C   UNL A   1      41.959  29.137  33.262  1.00  0.00     0.031 A 
ATOM     25  C   UNL A   1      43.449  27.184  26.834  1.00  0.00     0.031 A 
ATOM     26  C   UNL A   1      42.867  30.188  32.880  1.00  0.00     0.049 A 
ATOM     27  C   UNL A   1      44.349  27.557  27.950  1.00  0.00     0.074 A 
ATOM     28  C   UNL A   1      42.779  31.558  32.739  1.00  0.00     0.029 A 
ATOM     29  N   UNL A   1      43.996  29.804  32.197  1.00  0.00    -0.354 N 
ATOM     30  N   UNL A   1      44.889  28.735  28.070  1.00  0.00    -0.248 NA
ATOM     31  C   UNL A   1      44.300  26.762  29.164  1.00  0.00     0.031 C 
ATOM     32  C   UNL A   1      43.569  31.856  31.592  1.00  0.00     0.029 A 
ATOM     33  C   UNL A   1      44.159  30.671  31.150  1.00  0.00     0.049 A 
ATOM     34  H   UNL A   1      44.582  29.044  32.419  1.00  0.00     0.167 HD
ATOM     35  C   UNL A   1      44.824  29.010  29.426  1.00  0.00     0.074 A 
ATOM     36  C   UNL A   1      44.539  27.723  30.060  1.00  0.00     0.031 C 
ATOM     37  C   UNL A   1      44.733  30.295  29.877  1.00  0.00     0.031 A 
BRANCH  24  38
ATOM     38  C   UNL A   1      42.403  28.013  34.166  1.00  0.00    -0.014 A 
ATOM     39  C   UNL A   1      42.493  28.260  35.553  1.00  0.00     0.010 A 
ATOM     40  C   UNL A   1      43.004  26.833  33.686  1.00  0.00     0.010 A 
ATOM     41  C   UNL A   1      43.210  27.407  36.400  1.00  0.00     0.020 A 
ATOM     42  C   UNL A   1      43.685  25.952  34.531  1.00  0.00     0.020 A 
ATOM     43  C   UNL A   1      43.809  26.261  35.880  1.00  0.00     0.054 A 
BRANCH  43  44
ATOM     44  S   UNL A   1      44.793  25.207  36.972  1.00  0.00     0.124 S 
ATOM     45  O   UNL A   1      44.531  23.879  36.427  1.00  0.00    -0.237 OA
ATOM     46  O   UNL A   1      46.143  25.725  36.764  1.00  0.00    -0.237 OA
ATOM     47  O   UNL A   1      44.229  25.466  38.295  1.00  0.00    -0.744 OA
ENDBRANCH  43  44
ENDBRANCH  24  38
BRANCH  25  48
ATOM     48  C   UNL A   1      43.737  25.998  25.977  1.00  0.00    -0.014 A 
ATOM     49  C   UNL A   1      45.049  25.707  25.540  1.00  0.00     0.010 A 
ATOM     50  C   UNL A   1      42.777  24.975  25.861  1.00  0.00     0.010 A 
ATOM     51  C   UNL A   1      45.400  24.423  25.079  1.00  0.00     0.020 A 
ATOM     52  C   UNL A   1      43.119  23.694  25.399  1.00  0.00     0.020 A 
ATOM     53  C   UNL A   1      44.434  23.415  25.035  1.00  0.00     0.054 A 
BRANCH  53  54
ATOM     54  S   UNL A   1      44.929  21.708  24.635  1.00  0.00     0.124 S 
ATOM     55  O   UNL A   1      44.082  20.919  25.524  1.00  0.00    -0.237 OA
ATOM     56  O   UNL A   1      44.616  21.609  23.212  1.00  0.00    -0.237 OA
ATOM     57  O   UNL A   1      46.356  21.681  24.953  1.00  0.00    -0.744 OA
ENDBRANCH  53  54
ENDBRANCH  25  48
BRANCH  37  58
ATOM     58  C   UNL A   1      45.054  31.424  28.926  1.00  0.00    -0.014 A 
ATOM     59  C   UNL A   1      46.281  32.112  28.886  1.00  0.00     0.010 A 
ATOM     60  C   UNL A   1      44.095  31.704  27.937  1.00  0.00     0.010 A 
ATOM     61  C   UNL A   1      46.525  33.080  27.897  1.00  0.00     0.020 A 
ATOM     62  C   UNL A   1      44.338  32.648  26.938  1.00  0.00     0.020 A 
ATOM     63  C   UNL A   1      45.548  33.341  26.930  1.00  0.00     0.054 A 
BRANCH  63  64
ATOM     64  S   UNL A   1      45.875  34.568  25.635  1.00  0.00     0.124 S 
ATOM     65  O   UNL A   1      45.571  35.827  26.309  1.00  0.00    -0.237 OA
ATOM     66  O   UNL A   1      47.286  34.345  25.326  1.00  0.00    -0.237 OA
ATOM     67  O   UNL A   1      44.949  34.200  24.565  1.00  0.00    -0.744 OA
ENDBRANCH  63  64
ENDBRANCH  37  58
ENDBRANCH  11  12
ENDBRANCH   4   6
ENDBRANCH   1   2
BRANCH   1  68
ATOM     68  C   UNL A   1      33.063  28.826  26.772  1.00  0.00     0.042 C 
BRANCH  68  69
ATOM     69  C   UNL A   1      33.543  27.856  25.697  1.00  0.00     0.118 C 
BRANCH  69  70
ATOM     70  N   UNL A   1      33.849  28.466  24.415  1.00  0.00    -0.351 N 
ATOM     71  C   UNL A   1      33.816  27.909  23.149  1.00  0.00     0.274 C 
ATOM     72  H   UNL A   1      34.121  29.412  24.452  1.00  0.00     0.163 HD
ATOM     73  O   UNL A   1      34.127  28.615  22.197  1.00  0.00    -0.267 OA
BRANCH  71  74
ATOM     74  C   UNL A   1      33.442  26.508  22.991  1.00  0.00     0.178 A 
ATOM     75  N   UNL A   1      34.393  25.537  22.825  1.00  0.00    -0.124 NA
ATOM     76  C   UNL A   1      32.176  25.925  22.959  1.00  0.00     0.102 A 
ATOM     77  N   UNL A   1      33.785  24.365  22.792  1.00  0.00    -0.066 NA
ATOM     78  N   UNL A   1      32.457  24.574  22.896  1.00  0.00    -0.239 N 
BRANCH  76  79
ATOM     79  C   UNL A   1      30.855  26.539  23.019  1.00  0.00     0.002 A 
ATOM     80  C   UNL A   1      30.640  27.786  22.418  1.00  0.00     0.012 A 
ATOM     81  C   UNL A   1      29.821  25.953  23.764  1.00  0.00     0.012 A 
ATOM     82  C   UNL A   1      29.413  28.439  22.564  1.00  0.00     0.021 A 
ATOM     83  C   UNL A   1      28.597  26.609  23.917  1.00  0.00     0.021 A 
ATOM     84  C   UNL A   1      28.399  27.850  23.318  1.00  0.00     0.041 A 
ATOM     85  Cl  UNL A   1      26.902  28.670  23.523  1.00  0.00    -0.084 Cl
ENDBRANCH  76  79
BRANCH  78  86
ATOM     86  C   UNL A   1      31.570  23.430  23.056  1.00  0.00     0.183 C 
BRANCH  86  87
ATOM     87  C   UNL A   1      32.130  22.365  23.968  1.00  0.00    -0.008 A 
ATOM     88  C   UNL A   1      32.433  21.098  23.433  1.00  0.00     0.007 A 
ATOM     89  C   UNL A   1      32.351  22.578  25.340  1.00  0.00     0.046 A 
ATOM     90  C   UNL A   1      32.941  20.080  24.243  1.00  0.00     0.000 A 
ATOM     91  C   UNL A   1      32.881  21.561  26.141  1.00  0.00     0.021 A 
ATOM     92  Cl  UNL A   1      31.943  24.059  26.128  1.00  0.00    -0.084 Cl
ATOM     93  C   UNL A   1      33.174  20.314  25.594  1.00  0.00     0.002 A 
ENDBRANCH  86  87
ENDBRANCH  78  86
ENDBRANCH  71  74
ENDBRANCH  69  70
ENDBRANCH  68  69
ENDBRANCH   1  68
TORSDOF 16
ENDMDL
