MODEL 1
REMARK VINA RESULT:     -12.8      0.000      0.000
REMARK SMILES Cc1nc2cc(C(=O)NCCCNC(=O)c3ccc(-c4c5nc(c(-c6ccc(S(=O)(=O)[O-])cc6)c6ccc([nH]6)c(-c6ccc(S(=O)(=O)[O-])cc6)c6nc(c(-c7ccc(S(=O)(=O)[O-])cc7)c7ccc4[nH]7)C=C6)C=C5)cc3)ccc2n1CCC[NH+]1CCOCC1
REMARK SMILES IDX 10 1 9 2 7 3 8 4 6 6 1 7 2 8 3 9 79 10 4 11 78 12 5 13 77 14
REMARK SMILES IDX 76 15 80 16 81 17 82 18 83 19 84 20 88 21 85 23 87 24 86 25
REMARK SMILES IDX 11 26 12 27 13 28 14 29 15 31 16 32 17 33 75 34 18 35 74 36
REMARK SMILES IDX 19 37 20 38 21 39 68 40 22 41 73 42 67 43 69 44 23 45 72 46
REMARK SMILES IDX 66 47 65 48 24 50 54 51 35 52 53 53 36 54 39 55 52 56 70 57
REMARK SMILES IDX 37 58 38 59 51 61 71 62 40 63 25 64 26 65 34 66 27 67 33 68
REMARK SMILES IDX 28 69 29 70 30 71 31 72 32 73 55 74 56 75 64 76 57 77 63 78
REMARK SMILES IDX 58 79 59 80 60 81 61 82 62 83 41 84 42 85 50 86 43 87 49 88
REMARK SMILES IDX 44 89 45 90 46 91 47 92 48 93
REMARK H PARENT 9 5 83 22 13 30 69 49 39 60
REMARK Flexibility Score: inf
ROOT
ATOM      1  C   UNL A   1      39.959  20.673  26.114  1.00  0.00     0.118 C 
ENDROOT
BRANCH   1   2
ATOM      2  N   UNL A   1      39.862  22.111  26.294  1.00  0.00    -0.352 N 
ATOM      3  C   UNL A   1      38.847  23.020  26.140  1.00  0.00     0.251 C 
ATOM      4  O   UNL A   1      39.105  24.182  26.464  1.00  0.00    -0.269 OA
ATOM      5  H   UNL A   1      40.706  22.521  26.590  1.00  0.00     0.163 HD
BRANCH   3   6
ATOM      6  C   UNL A   1      37.478  22.695  25.637  1.00  0.00     0.042 A 
ATOM      7  C   UNL A   1      32.191  24.420  23.454  1.00  0.00     0.088 C 
ATOM      8  C   UNL A   1      33.352  23.799  24.137  1.00  0.00     0.106 A 
ATOM      9  N   UNL A   1      34.306  24.479  24.743  1.00  0.00    -0.233 NA
ATOM     10  N   UNL A   1      33.616  22.444  24.182  1.00  0.00    -0.328 N 
ATOM     11  C   UNL A   1      35.293  23.569  25.021  1.00  0.00     0.090 A 
ATOM     12  C   UNL A   1      34.907  22.290  24.645  1.00  0.00     0.068 A 
ATOM     13  C   UNL A   1      36.573  23.774  25.555  1.00  0.00     0.044 A 
ATOM     14  C   UNL A   1      35.767  21.194  24.729  1.00  0.00     0.029 A 
ATOM     15  C   UNL A   1      37.070  21.437  25.186  1.00  0.00     0.016 A 
BRANCH  10  16
ATOM     16  C   UNL A   1      32.779  21.360  23.703  1.00  0.00     0.130 C 
BRANCH  16  17
ATOM     17  C   UNL A   1      32.174  20.488  24.809  1.00  0.00     0.083 C 
BRANCH  17  18
ATOM     18  C   UNL A   1      32.900  19.157  25.055  1.00  0.00     0.264 C 
BRANCH  18  19
ATOM     19  N   UNL A   1      32.256  17.997  24.420  1.00  0.00    -0.331 N 
ATOM     20  C   UNL A   1      32.272  16.806  25.296  1.00  0.00     0.291 C 
ATOM     21  C   UNL A   1      32.844  17.618  23.114  1.00  0.00     0.291 C 
ATOM     22  H   UNL A   1      31.298  18.307  24.258  1.00  0.00     0.348 HD
ATOM     23  C   UNL A   1      33.633  16.097  25.364  1.00  0.00     0.221 C 
ATOM     24  C   UNL A   1      34.206  16.920  23.229  1.00  0.00     0.221 C 
ATOM     25  O   UNL A   1      34.118  15.754  24.060  1.00  0.00    -0.370 OA
ENDBRANCH  18  19
ENDBRANCH  17  18
ENDBRANCH  16  17
ENDBRANCH  10  16
ENDBRANCH   3   6
ENDBRANCH   1   2
BRANCH   1  26
ATOM     26  C   UNL A   1      41.406  20.182  26.228  1.00  0.00     0.042 C 
BRANCH  26  27
ATOM     27  C   UNL A   1      42.383  21.278  26.658  1.00  0.00     0.118 C 
BRANCH  27  28
ATOM     28  N   UNL A   1      43.027  21.951  25.545  1.00  0.00    -0.352 N 
ATOM     29  C   UNL A   1      43.270  23.251  25.196  1.00  0.00     0.251 C 
ATOM     30  H   UNL A   1      43.371  21.316  24.877  1.00  0.00     0.163 HD
ATOM     31  O   UNL A   1      43.866  23.408  24.127  1.00  0.00    -0.269 OA
BRANCH  29  32
ATOM     32  C   UNL A   1      42.863  24.458  25.972  1.00  0.00     0.039 A 
ATOM     33  C   UNL A   1      43.140  24.698  27.317  1.00  0.00     0.014 A 
ATOM     34  C   UNL A   1      42.142  25.438  25.259  1.00  0.00     0.014 A 
ATOM     35  C   UNL A   1      42.677  25.861  27.936  1.00  0.00     0.010 A 
ATOM     36  C   UNL A   1      41.692  26.610  25.870  1.00  0.00     0.010 A 
ATOM     37  C   UNL A   1      41.945  26.817  27.220  1.00  0.00    -0.014 A 
BRANCH  37  38
ATOM     38  C   UNL A   1      41.592  28.060  27.909  1.00  0.00     0.031 A 
ATOM     39  C   UNL A   1      42.596  29.156  27.799  1.00  0.00     0.074 A 
ATOM     40  C   UNL A   1      40.427  28.322  28.534  1.00  0.00     0.049 A 
ATOM     41  N   UNL A   1      43.329  29.658  28.739  1.00  0.00    -0.248 NA
ATOM     42  C   UNL A   1      42.876  29.698  26.462  1.00  0.00     0.031 C 
ATOM     43  C   UNL A   1      39.189  27.543  28.506  1.00  0.00     0.029 A 
ATOM     44  N   UNL A   1      40.087  29.421  29.276  1.00  0.00    -0.354 N 
ATOM     45  C   UNL A   1      44.038  30.706  28.157  1.00  0.00     0.074 A 
ATOM     46  C   UNL A   1      43.820  30.599  26.735  1.00  0.00     0.031 C 
ATOM     47  C   UNL A   1      38.180  28.293  29.007  1.00  0.00     0.029 A 
ATOM     48  C   UNL A   1      38.729  29.530  29.536  1.00  0.00     0.049 A 
ATOM     49  H   UNL A   1      40.747  30.077  29.594  1.00  0.00     0.167 HD
ATOM     50  C   UNL A   1      44.604  31.697  28.899  1.00  0.00     0.031 A 
ATOM     51  C   UNL A   1      38.093  30.581  30.107  1.00  0.00     0.031 A 
ATOM     52  C   UNL A   1      44.671  31.360  30.294  1.00  0.00     0.049 A 
ATOM     53  C   UNL A   1      39.085  31.342  30.901  1.00  0.00     0.074 A 
ATOM     54  C   UNL A   1      45.306  30.388  31.038  1.00  0.00     0.029 A 
ATOM     55  N   UNL A   1      43.716  31.918  31.107  1.00  0.00    -0.354 N 
ATOM     56  N   UNL A   1      39.654  30.893  31.984  1.00  0.00    -0.248 NA
ATOM     57  C   UNL A   1      39.684  32.538  30.329  1.00  0.00     0.031 C 
ATOM     58  C   UNL A   1      44.437  30.128  32.136  1.00  0.00     0.029 A 
ATOM     59  C   UNL A   1      43.332  30.979  32.029  1.00  0.00     0.049 A 
ATOM     60  H   UNL A   1      43.366  32.835  31.039  1.00  0.00     0.167 HD
ATOM     61  C   UNL A   1      40.905  31.486  31.995  1.00  0.00     0.074 A 
ATOM     62  C   UNL A   1      40.807  32.589  31.048  1.00  0.00     0.031 C 
ATOM     63  C   UNL A   1      41.982  30.858  32.550  1.00  0.00     0.031 A 
BRANCH  50  64
ATOM     64  C   UNL A   1      44.783  33.121  28.423  1.00  0.00    -0.014 A 
ATOM     65  C   UNL A   1      44.008  33.687  27.391  1.00  0.00     0.010 A 
ATOM     66  C   UNL A   1      45.564  34.011  29.192  1.00  0.00     0.010 A 
ATOM     67  C   UNL A   1      44.013  35.059  27.127  1.00  0.00     0.020 A 
ATOM     68  C   UNL A   1      45.540  35.396  28.967  1.00  0.00     0.020 A 
ATOM     69  C   UNL A   1      44.766  35.908  27.928  1.00  0.00     0.054 A 
BRANCH  69  70
ATOM     70  S   UNL A   1      44.637  37.691  27.639  1.00  0.00     0.124 S 
ATOM     71  O   UNL A   1      43.340  37.793  26.976  1.00  0.00    -0.237 OA
ATOM     72  O   UNL A   1      44.696  38.232  28.994  1.00  0.00    -0.237 OA
ATOM     73  O   UNL A   1      45.796  37.986  26.800  1.00  0.00    -0.744 OA
ENDBRANCH  69  70
ENDBRANCH  50  64
BRANCH  51  74
ATOM     74  C   UNL A   1      36.777  31.162  29.741  1.00  0.00    -0.014 A 
ATOM     75  C   UNL A   1      36.531  31.552  28.409  1.00  0.00     0.010 A 
ATOM     76  C   UNL A   1      35.906  31.638  30.740  1.00  0.00     0.010 A 
ATOM     77  C   UNL A   1      35.516  32.462  28.098  1.00  0.00     0.020 A 
ATOM     78  C   UNL A   1      34.889  32.557  30.435  1.00  0.00     0.020 A 
ATOM     79  C   UNL A   1      34.731  32.994  29.120  1.00  0.00     0.054 A 
BRANCH  79  80
ATOM     80  S   UNL A   1      33.583  34.338  28.705  1.00  0.00     0.124 S 
ATOM     81  O   UNL A   1      32.661  33.678  27.787  1.00  0.00    -0.237 OA
ATOM     82  O   UNL A   1      33.026  34.690  30.008  1.00  0.00    -0.237 OA
ATOM     83  O   UNL A   1      34.443  35.356  28.104  1.00  0.00    -0.744 OA
ENDBRANCH  79  80
ENDBRANCH  51  74
BRANCH  63  84
ATOM     84  C   UNL A   1      41.757  29.762  33.570  1.00  0.00    -0.014 A 
ATOM     85  C   UNL A   1      41.954  30.101  34.923  1.00  0.00     0.010 A 
ATOM     86  C   UNL A   1      41.531  28.412  33.247  1.00  0.00     0.010 A 
ATOM     87  C   UNL A   1      41.970  29.123  35.918  1.00  0.00     0.020 A 
ATOM     88  C   UNL A   1      41.515  27.426  34.246  1.00  0.00     0.020 A 
ATOM     89  C   UNL A   1      41.765  27.787  35.573  1.00  0.00     0.054 A 
BRANCH  89  90
ATOM     90  S   UNL A   1      41.860  26.538  36.885  1.00  0.00     0.124 S 
ATOM     91  O   UNL A   1      42.019  25.300  36.123  1.00  0.00    -0.237 OA
ATOM     92  O   UNL A   1      43.034  26.954  37.648  1.00  0.00    -0.237 OA
ATOM     93  O   UNL A   1      40.588  26.665  37.591  1.00  0.00    -0.744 OA
ENDBRANCH  89  90
ENDBRANCH  63  84
ENDBRANCH  37  38
ENDBRANCH  29  32
ENDBRANCH  27  28
ENDBRANCH  26  27
ENDBRANCH   1  26
TORSDOF 17
ENDMDL
MODEL 2
REMARK VINA RESULT:     -12.8      1.878      3.662
REMARK SMILES Cc1nc2cc(C(=O)NCCCNC(=O)c3ccc(-c4c5nc(c(-c6ccc(S(=O)(=O)[O-])cc6)c6ccc([nH]6)c(-c6ccc(S(=O)(=O)[O-])cc6)c6nc(c(-c7ccc(S(=O)(=O)[O-])cc7)c7ccc4[nH]7)C=C6)C=C5)cc3)ccc2n1CCC[NH+]1CCOCC1
REMARK SMILES IDX 10 1 9 2 7 3 8 4 6 6 1 7 2 8 3 9 79 10 4 11 78 12 5 13 77 14
REMARK SMILES IDX 76 15 80 16 81 17 82 18 83 19 84 20 88 21 85 23 87 24 86 25
REMARK SMILES IDX 11 26 12 27 13 28 14 29 15 31 16 32 17 33 75 34 18 35 74 36
REMARK SMILES IDX 19 37 20 38 21 39 68 40 22 41 73 42 67 43 69 44 23 45 72 46
REMARK SMILES IDX 66 47 65 48 24 50 54 51 35 52 53 53 36 54 39 55 52 56 70 57
REMARK SMILES IDX 37 58 38 59 51 61 71 62 40 63 25 64 26 65 34 66 27 67 33 68
REMARK SMILES IDX 28 69 29 70 30 71 31 72 32 73 55 74 56 75 64 76 57 77 63 78
REMARK SMILES IDX 58 79 59 80 60 81 61 82 62 83 41 84 42 85 50 86 43 87 49 88
REMARK SMILES IDX 44 89 45 90 46 91 47 92 48 93
REMARK H PARENT 9 5 83 22 13 30 69 49 39 60
REMARK Flexibility Score: inf
ROOT
ATOM      1  C   UNL A   1      39.363  22.612  26.430  1.00  0.00     0.118 C 
ENDROOT
BRANCH   1   2
ATOM      2  N   UNL A   1      38.898  21.412  25.755  1.00  0.00    -0.352 N 
ATOM      3  C   UNL A   1      37.714  21.056  25.162  1.00  0.00     0.251 C 
ATOM      4  O   UNL A   1      37.697  19.956  24.604  1.00  0.00    -0.269 OA
ATOM      5  H   UNL A   1      39.581  20.704  25.713  1.00  0.00     0.163 HD
BRANCH   3   6
ATOM      6  C   UNL A   1      36.484  21.902  25.136  1.00  0.00     0.042 A 
ATOM      7  C   UNL A   1      32.439  25.113  22.130  1.00  0.00     0.088 C 
ATOM      8  C   UNL A   1      33.415  24.515  23.074  1.00  0.00     0.106 A 
ATOM      9  N   UNL A   1      34.611  24.079  22.728  1.00  0.00    -0.233 NA
ATOM     10  N   UNL A   1      33.183  24.287  24.416  1.00  0.00    -0.328 N 
ATOM     11  C   UNL A   1      35.086  23.392  23.815  1.00  0.00     0.090 A 
ATOM     12  C   UNL A   1      34.196  23.470  24.877  1.00  0.00     0.068 A 
ATOM     13  C   UNL A   1      36.257  22.634  23.951  1.00  0.00     0.044 A 
ATOM     14  C   UNL A   1      34.395  22.776  26.071  1.00  0.00     0.029 A 
ATOM     15  C   UNL A   1      35.529  21.957  26.155  1.00  0.00     0.016 A 
BRANCH  10  16
ATOM     16  C   UNL A   1      32.028  24.686  25.198  1.00  0.00     0.130 C 
BRANCH  16  17
ATOM     17  C   UNL A   1      32.273  25.877  26.131  1.00  0.00     0.083 C 
BRANCH  17  18
ATOM     18  C   UNL A   1      31.657  27.205  25.666  1.00  0.00     0.264 C 
BRANCH  18  19
ATOM     19  N   UNL A   1      32.641  28.189  25.190  1.00  0.00    -0.331 N 
ATOM     20  C   UNL A   1      33.866  28.193  26.018  1.00  0.00     0.291 C 
ATOM     21  C   UNL A   1      32.125  29.575  25.121  1.00  0.00     0.291 C 
ATOM     22  H   UNL A   1      32.854  27.883  24.241  1.00  0.00     0.348 HD
ATOM     23  C   UNL A   1      33.706  28.907  27.369  1.00  0.00     0.221 C 
ATOM     24  C   UNL A   1      31.974  30.248  26.493  1.00  0.00     0.221 C 
ATOM     25  O   UNL A   1      33.219  30.244  27.207  1.00  0.00    -0.370 OA
ENDBRANCH  18  19
ENDBRANCH  17  18
ENDBRANCH  16  17
ENDBRANCH  10  16
ENDBRANCH   3   6
ENDBRANCH   1   2
BRANCH   1  26
ATOM     26  C   UNL A   1      40.769  22.428  27.012  1.00  0.00     0.042 C 
BRANCH  26  27
ATOM     27  C   UNL A   1      41.619  21.425  26.230  1.00  0.00     0.118 C 
BRANCH  27  28
ATOM     28  N   UNL A   1      42.581  22.048  25.341  1.00  0.00    -0.352 N 
ATOM     29  C   UNL A   1      43.096  23.306  25.185  1.00  0.00     0.251 C 
ATOM     30  H   UNL A   1      42.954  21.411  24.691  1.00  0.00     0.163 HD
ATOM     31  O   UNL A   1      43.922  23.429  24.274  1.00  0.00    -0.269 OA
BRANCH  29  32
ATOM     32  C   UNL A   1      42.733  24.509  25.987  1.00  0.00     0.039 A 
ATOM     33  C   UNL A   1      43.222  24.826  27.253  1.00  0.00     0.014 A 
ATOM     34  C   UNL A   1      41.816  25.399  25.389  1.00  0.00     0.014 A 
ATOM     35  C   UNL A   1      42.780  25.974  27.914  1.00  0.00     0.010 A 
ATOM     36  C   UNL A   1      41.384  26.556  26.039  1.00  0.00     0.010 A 
ATOM     37  C   UNL A   1      41.854  26.839  27.315  1.00  0.00    -0.014 A 
BRANCH  37  38
ATOM     38  C   UNL A   1      41.525  28.079  28.023  1.00  0.00     0.031 A 
ATOM     39  C   UNL A   1      42.545  29.160  27.921  1.00  0.00     0.074 A 
ATOM     40  C   UNL A   1      40.367  28.351  28.658  1.00  0.00     0.049 A 
ATOM     41  N   UNL A   1      43.291  29.637  28.863  1.00  0.00    -0.248 NA
ATOM     42  C   UNL A   1      42.827  29.714  26.590  1.00  0.00     0.031 C 
ATOM     43  C   UNL A   1      39.116  27.592  28.625  1.00  0.00     0.029 A 
ATOM     44  N   UNL A   1      40.049  29.446  29.415  1.00  0.00    -0.354 N 
ATOM     45  C   UNL A   1      44.014  30.681  28.292  1.00  0.00     0.074 A 
ATOM     46  C   UNL A   1      43.787  30.597  26.870  1.00  0.00     0.031 C 
ATOM     47  C   UNL A   1      38.122  28.352  29.142  1.00  0.00     0.029 A 
ATOM     48  C   UNL A   1      38.694  29.573  29.684  1.00  0.00     0.049 A 
ATOM     49  H   UNL A   1      40.721  30.087  29.739  1.00  0.00     0.167 HD
ATOM     50  C   UNL A   1      44.600  31.654  29.043  1.00  0.00     0.031 A 
ATOM     51  C   UNL A   1      38.079  30.626  30.273  1.00  0.00     0.031 A 
ATOM     52  C   UNL A   1      44.669  31.297  30.433  1.00  0.00     0.049 A 
ATOM     53  C   UNL A   1      39.086  31.361  31.071  1.00  0.00     0.074 A 
ATOM     54  C   UNL A   1      45.291  30.305  31.162  1.00  0.00     0.029 A 
ATOM     55  N   UNL A   1      43.727  31.859  31.259  1.00  0.00    -0.354 N 
ATOM     56  N   UNL A   1      39.654  30.889  32.144  1.00  0.00    -0.248 NA
ATOM     57  C   UNL A   1      39.702  32.555  30.511  1.00  0.00     0.031 C 
ATOM     58  C   UNL A   1      44.424  30.045  32.260  1.00  0.00     0.029 A 
ATOM     59  C   UNL A   1      43.333  30.915  32.170  1.00  0.00     0.049 A 
ATOM     60  H   UNL A   1      43.392  32.783  31.205  1.00  0.00     0.167 HD
ATOM     61  C   UNL A   1      40.915  31.461  32.156  1.00  0.00     0.074 A 
ATOM     62  C   UNL A   1      40.830  32.578  31.224  1.00  0.00     0.031 C 
ATOM     63  C   UNL A   1      41.984  30.808  32.698  1.00  0.00     0.031 A 
BRANCH  50  64
ATOM     64  C   UNL A   1      44.800  33.081  28.584  1.00  0.00    -0.014 A 
ATOM     65  C   UNL A   1      43.733  33.920  28.209  1.00  0.00     0.010 A 
ATOM     66  C   UNL A   1      46.056  33.696  28.777  1.00  0.00     0.010 A 
ATOM     67  C   UNL A   1      43.901  35.295  28.023  1.00  0.00     0.020 A 
ATOM     68  C   UNL A   1      46.226  35.082  28.639  1.00  0.00     0.020 A 
ATOM     69  C   UNL A   1      45.143  35.871  28.257  1.00  0.00     0.054 A 
BRANCH  69  70
ATOM     70  S   UNL A   1      45.285  37.672  28.138  1.00  0.00     0.124 S 
ATOM     71  O   UNL A   1      44.585  37.944  26.886  1.00  0.00    -0.237 OA
ATOM     72  O   UNL A   1      44.606  38.119  29.351  1.00  0.00    -0.237 OA
ATOM     73  O   UNL A   1      46.728  37.901  28.113  1.00  0.00    -0.744 OA
ENDBRANCH  69  70
ENDBRANCH  50  64
BRANCH  51  74
ATOM     74  C   UNL A   1      36.770  31.234  29.920  1.00  0.00    -0.014 A 
ATOM     75  C   UNL A   1      36.510  31.612  28.588  1.00  0.00     0.010 A 
ATOM     76  C   UNL A   1      35.927  31.742  30.928  1.00  0.00     0.010 A 
ATOM     77  C   UNL A   1      35.511  32.542  28.282  1.00  0.00     0.020 A 
ATOM     78  C   UNL A   1      34.927  32.681  30.629  1.00  0.00     0.020 A 
ATOM     79  C   UNL A   1      34.756  33.104  29.311  1.00  0.00     0.054 A 
BRANCH  79  80
ATOM     80  S   UNL A   1      33.632  34.470  28.898  1.00  0.00     0.124 S 
ATOM     81  O   UNL A   1      32.732  33.842  27.937  1.00  0.00    -0.237 OA
ATOM     82  O   UNL A   1      33.042  34.794  30.193  1.00  0.00    -0.237 OA
ATOM     83  O   UNL A   1      34.519  35.494  28.348  1.00  0.00    -0.744 OA
ENDBRANCH  79  80
ENDBRANCH  51  74
BRANCH  63  84
ATOM     84  C   UNL A   1      41.747  29.703  33.704  1.00  0.00    -0.014 A 
ATOM     85  C   UNL A   1      41.947  30.024  35.061  1.00  0.00     0.010 A 
ATOM     86  C   UNL A   1      41.505  28.360  33.365  1.00  0.00     0.010 A 
ATOM     87  C   UNL A   1      41.953  29.034  36.045  1.00  0.00     0.020 A 
ATOM     88  C   UNL A   1      41.478  27.362  34.352  1.00  0.00     0.020 A 
ATOM     89  C   UNL A   1      41.733  27.705  35.684  1.00  0.00     0.054 A 
BRANCH  89  90
ATOM     90  S   UNL A   1      41.813  26.439  36.980  1.00  0.00     0.124 S 
ATOM     91  O   UNL A   1      40.534  26.614  37.665  1.00  0.00    -0.237 OA
ATOM     92  O   UNL A   1      41.946  25.199  36.217  1.00  0.00    -0.237 OA
ATOM     93  O   UNL A   1      42.987  26.808  37.767  1.00  0.00    -0.744 OA
ENDBRANCH  89  90
ENDBRANCH  63  84
ENDBRANCH  37  38
ENDBRANCH  29  32
ENDBRANCH  27  28
ENDBRANCH  26  27
ENDBRANCH   1  26
TORSDOF 17
ENDMDL
MODEL 3
REMARK VINA RESULT:     -12.6      1.419      2.841
REMARK SMILES Cc1nc2cc(C(=O)NCCCNC(=O)c3ccc(-c4c5nc(c(-c6ccc(S(=O)(=O)[O-])cc6)c6ccc([nH]6)c(-c6ccc(S(=O)(=O)[O-])cc6)c6nc(c(-c7ccc(S(=O)(=O)[O-])cc7)c7ccc4[nH]7)C=C6)C=C5)cc3)ccc2n1CCC[NH+]1CCOCC1
REMARK SMILES IDX 10 1 9 2 7 3 8 4 6 6 1 7 2 8 3 9 79 10 4 11 78 12 5 13 77 14
REMARK SMILES IDX 76 15 80 16 81 17 82 18 83 19 84 20 88 21 85 23 87 24 86 25
REMARK SMILES IDX 11 26 12 27 13 28 14 29 15 31 16 32 17 33 75 34 18 35 74 36
REMARK SMILES IDX 19 37 20 38 21 39 68 40 22 41 73 42 67 43 69 44 23 45 72 46
REMARK SMILES IDX 66 47 65 48 24 50 54 51 35 52 53 53 36 54 39 55 52 56 70 57
REMARK SMILES IDX 37 58 38 59 51 61 71 62 40 63 25 64 26 65 34 66 27 67 33 68
REMARK SMILES IDX 28 69 29 70 30 71 31 72 32 73 55 74 56 75 64 76 57 77 63 78
REMARK SMILES IDX 58 79 59 80 60 81 61 82 62 83 41 84 42 85 50 86 43 87 49 88
REMARK SMILES IDX 44 89 45 90 46 91 47 92 48 93
REMARK H PARENT 9 5 83 22 13 30 69 49 39 60
REMARK Flexibility Score: inf
ROOT
ATOM      1  C   UNL A   1      39.753  20.869  25.718  1.00  0.00     0.118 C 
ENDROOT
BRANCH   1   2
ATOM      2  N   UNL A   1      39.643  22.238  26.192  1.00  0.00    -0.352 N 
ATOM      3  C   UNL A   1      38.605  23.128  26.289  1.00  0.00     0.251 C 
ATOM      4  O   UNL A   1      38.864  24.208  26.826  1.00  0.00    -0.269 OA
ATOM      5  H   UNL A   1      40.498  22.604  26.514  1.00  0.00     0.163 HD
BRANCH   3   6
ATOM      6  C   UNL A   1      37.212  22.871  25.813  1.00  0.00     0.042 A 
ATOM      7  C   UNL A   1      32.714  19.108  24.672  1.00  0.00     0.088 C 
ATOM      8  C   UNL A   1      33.743  20.175  24.722  1.00  0.00     0.106 A 
ATOM      9  N   UNL A   1      35.028  19.958  24.930  1.00  0.00    -0.233 NA
ATOM     10  N   UNL A   1      33.490  21.528  24.613  1.00  0.00    -0.328 N 
ATOM     11  C   UNL A   1      35.584  21.192  25.145  1.00  0.00     0.090 A 
ATOM     12  C   UNL A   1      34.637  22.194  24.993  1.00  0.00     0.068 A 
ATOM     13  C   UNL A   1      36.892  21.529  25.522  1.00  0.00     0.044 A 
ATOM     14  C   UNL A   1      34.922  23.536  25.253  1.00  0.00     0.029 A 
ATOM     15  C   UNL A   1      36.211  23.841  25.711  1.00  0.00     0.016 A 
BRANCH  10  16
ATOM     16  C   UNL A   1      32.227  22.173  24.307  1.00  0.00     0.130 C 
BRANCH  16  17
ATOM     17  C   UNL A   1      31.992  22.434  22.815  1.00  0.00     0.083 C 
BRANCH  17  18
ATOM     18  C   UNL A   1      32.806  23.594  22.223  1.00  0.00     0.264 C 
BRANCH  18  19
ATOM     19  N   UNL A   1      32.001  24.773  21.871  1.00  0.00    -0.331 N 
ATOM     20  C   UNL A   1      32.840  25.906  21.428  1.00  0.00     0.291 C 
ATOM     21  C   UNL A   1      31.119  25.250  22.961  1.00  0.00     0.291 C 
ATOM     22  H   UNL A   1      31.410  24.447  21.106  1.00  0.00     0.348 HD
ATOM     23  C   UNL A   1      33.547  26.648  22.573  1.00  0.00     0.221 C 
ATOM     24  C   UNL A   1      31.866  25.979  24.087  1.00  0.00     0.221 C 
ATOM     25  O   UNL A   1      32.619  27.086  23.572  1.00  0.00    -0.370 OA
ENDBRANCH  18  19
ENDBRANCH  17  18
ENDBRANCH  16  17
ENDBRANCH  10  16
ENDBRANCH   3   6
ENDBRANCH   1   2
BRANCH   1  26
ATOM     26  C   UNL A   1      40.943  20.142  26.351  1.00  0.00     0.042 C 
BRANCH  26  27
ATOM     27  C   UNL A   1      42.085  21.081  26.744  1.00  0.00     0.118 C 
BRANCH  27  28
ATOM     28  N   UNL A   1      42.722  21.725  25.610  1.00  0.00    -0.352 N 
ATOM     29  C   UNL A   1      42.995  23.014  25.244  1.00  0.00     0.251 C 
ATOM     30  H   UNL A   1      43.033  21.075  24.940  1.00  0.00     0.163 HD
ATOM     31  O   UNL A   1      43.571  23.145  24.160  1.00  0.00    -0.269 OA
BRANCH  29  32
ATOM     32  C   UNL A   1      42.642  24.239  26.018  1.00  0.00     0.039 A 
ATOM     33  C   UNL A   1      42.994  24.502  27.341  1.00  0.00     0.014 A 
ATOM     34  C   UNL A   1      41.891  25.213  25.327  1.00  0.00     0.014 A 
ATOM     35  C   UNL A   1      42.576  25.680  27.962  1.00  0.00     0.010 A 
ATOM     36  C   UNL A   1      41.485  26.400  25.939  1.00  0.00     0.010 A 
ATOM     37  C   UNL A   1      41.814  26.630  27.269  1.00  0.00    -0.014 A 
BRANCH  37  38
ATOM     38  C   UNL A   1      41.510  27.889  27.953  1.00  0.00     0.031 A 
ATOM     39  C   UNL A   1      42.551  28.948  27.830  1.00  0.00     0.074 A 
ATOM     40  C   UNL A   1      40.359  28.196  28.584  1.00  0.00     0.049 A 
ATOM     41  N   UNL A   1      43.308  29.428  28.762  1.00  0.00    -0.248 NA
ATOM     42  C   UNL A   1      42.842  29.471  26.488  1.00  0.00     0.031 C 
ATOM     43  C   UNL A   1      39.093  27.461  28.568  1.00  0.00     0.029 A 
ATOM     44  N   UNL A   1      40.062  29.310  29.321  1.00  0.00    -0.354 N 
ATOM     45  C   UNL A   1      44.050  30.447  28.170  1.00  0.00     0.074 A 
ATOM     46  C   UNL A   1      43.819  30.340  26.750  1.00  0.00     0.031 C 
ATOM     47  C   UNL A   1      38.115  28.249  29.071  1.00  0.00     0.029 A 
ATOM     48  C   UNL A   1      38.711  29.469  29.589  1.00  0.00     0.049 A 
ATOM     49  H   UNL A   1      40.748  29.945  29.631  1.00  0.00     0.167 HD
ATOM     50  C   UNL A   1      44.655  31.422  28.901  1.00  0.00     0.031 A 
ATOM     51  C   UNL A   1      38.117  30.545  30.158  1.00  0.00     0.031 A 
ATOM     52  C   UNL A   1      44.719  31.091  30.298  1.00  0.00     0.049 A 
ATOM     53  C   UNL A   1      39.140  31.275  30.941  1.00  0.00     0.074 A 
ATOM     54  C   UNL A   1      45.324  30.101  31.045  1.00  0.00     0.029 A 
ATOM     55  N   UNL A   1      43.790  31.687  31.114  1.00  0.00    -0.354 N 
ATOM     56  N   UNL A   1      39.700  30.813  32.023  1.00  0.00    -0.248 NA
ATOM     57  C   UNL A   1      39.778  32.446  30.357  1.00  0.00     0.031 C 
ATOM     58  C   UNL A   1      44.453  29.879  32.149  1.00  0.00     0.029 A 
ATOM     59  C   UNL A   1      43.379  30.768  32.044  1.00  0.00     0.049 A 
ATOM     60  H   UNL A   1      43.473  32.616  31.043  1.00  0.00     0.167 HD
ATOM     61  C   UNL A   1      40.972  31.361  32.022  1.00  0.00     0.074 A 
ATOM     62  C   UNL A   1      40.907  32.461  31.069  1.00  0.00     0.031 C 
ATOM     63  C   UNL A   1      42.029  30.698  32.575  1.00  0.00     0.031 A 
BRANCH  50  64
ATOM     64  C   UNL A   1      44.882  32.836  28.416  1.00  0.00    -0.014 A 
ATOM     65  C   UNL A   1      43.828  33.735  28.158  1.00  0.00     0.010 A 
ATOM     66  C   UNL A   1      46.184  33.380  28.462  1.00  0.00     0.010 A 
ATOM     67  C   UNL A   1      44.051  35.098  27.947  1.00  0.00     0.020 A 
ATOM     68  C   UNL A   1      46.415  34.754  28.299  1.00  0.00     0.020 A 
ATOM     69  C   UNL A   1      45.343  35.603  28.036  1.00  0.00     0.054 A 
BRANCH  69  70
ATOM     70  S   UNL A   1      45.571  37.393  27.892  1.00  0.00     0.124 S 
ATOM     71  O   UNL A   1      46.935  37.479  27.379  1.00  0.00    -0.237 OA
ATOM     72  O   UNL A   1      44.519  37.767  26.952  1.00  0.00    -0.237 OA
ATOM     73  O   UNL A   1      45.384  37.873  29.259  1.00  0.00    -0.744 OA
ENDBRANCH  69  70
ENDBRANCH  50  64
BRANCH  51  74
ATOM     74  C   UNL A   1      36.820  31.171  29.796  1.00  0.00    -0.014 A 
ATOM     75  C   UNL A   1      36.638  31.708  28.506  1.00  0.00     0.010 A 
ATOM     76  C   UNL A   1      35.901  31.536  30.800  1.00  0.00     0.010 A 
ATOM     77  C   UNL A   1      35.639  32.653  28.250  1.00  0.00     0.020 A 
ATOM     78  C   UNL A   1      34.900  32.489  30.551  1.00  0.00     0.020 A 
ATOM     79  C   UNL A   1      34.805  33.071  29.287  1.00  0.00     0.054 A 
BRANCH  79  80
ATOM     80  S   UNL A   1      33.678  34.459  28.971  1.00  0.00     0.124 S 
ATOM     81  O   UNL A   1      32.672  33.844  28.111  1.00  0.00    -0.237 OA
ATOM     82  O   UNL A   1      33.227  34.811  30.314  1.00  0.00    -0.237 OA
ATOM     83  O   UNL A   1      34.530  35.457  28.323  1.00  0.00    -0.744 OA
ENDBRANCH  79  80
ENDBRANCH  51  74
BRANCH  63  84
ATOM     84  C   UNL A   1      41.772  29.617  33.603  1.00  0.00    -0.014 A 
ATOM     85  C   UNL A   1      41.905  29.981  34.957  1.00  0.00     0.010 A 
ATOM     86  C   UNL A   1      41.575  28.259  33.293  1.00  0.00     0.010 A 
ATOM     87  C   UNL A   1      41.889  29.020  35.969  1.00  0.00     0.020 A 
ATOM     88  C   UNL A   1      41.527  27.290  34.308  1.00  0.00     0.020 A 
ATOM     89  C   UNL A   1      41.715  27.677  35.638  1.00  0.00     0.054 A 
BRANCH  89  90
ATOM     90  S   UNL A   1      41.766  26.450  36.974  1.00  0.00     0.124 S 
ATOM     91  O   UNL A   1      41.916  25.196  36.239  1.00  0.00    -0.237 OA
ATOM     92  O   UNL A   1      42.934  26.861  37.749  1.00  0.00    -0.237 OA
ATOM     93  O   UNL A   1      40.484  26.613  37.656  1.00  0.00    -0.744 OA
ENDBRANCH  89  90
ENDBRANCH  63  84
ENDBRANCH  37  38
ENDBRANCH  29  32
ENDBRANCH  27  28
ENDBRANCH  26  27
ENDBRANCH   1  26
TORSDOF 17
ENDMDL
