MODEL 1
REMARK VINA RESULT:     -11.2      0.000      0.000
REMARK SMILES CC(C)c1ccc([C@]2(C(=O)NCCCNC(=O)c3ccc(-c4c5nc(c(-c6ccc(S(=O)(=O)[O-])cc6)c6ccc([nH]6)c(-c6ccc(S(=O)(=O)[O-])cc6)c6nc(c(-c7ccc(S(=O)(=O)[O-])cc7)c7ccc4[nH]7)C=C6)C=C5)cc3)CCC[C@@H]2C)cc1
REMARK SMILES IDX 13 1 12 2 11 3 9 4 10 5 8 7 78 8 81 9 79 10 80 11 82 12 7 13
REMARK SMILES IDX 4 14 5 15 84 16 6 17 83 18 2 19 1 20 3 21 14 22 15 23 16 24
REMARK SMILES IDX 17 26 18 27 19 28 77 29 20 30 76 31 21 32 22 33 23 34 70 35
REMARK SMILES IDX 24 36 75 37 69 38 71 39 25 40 74 41 68 42 67 43 26 45 56 46
REMARK SMILES IDX 37 47 55 48 38 49 41 50 54 51 72 52 39 53 40 54 53 56 73 57
REMARK SMILES IDX 42 58 27 59 28 60 36 61 29 62 35 63 30 64 31 65 32 66 33 67
REMARK SMILES IDX 34 68 57 69 58 70 66 71 59 72 65 73 60 74 61 75 62 76 63 77
REMARK SMILES IDX 64 78 43 79 44 80 52 81 45 82 51 83 46 84 47 85 48 86 49 87
REMARK SMILES IDX 50 88
REMARK H PARENT 11 6 15 25 71 44 41 55
REMARK Flexibility Score: inf
ROOT
ATOM      1  C   UNL A   1      33.239  27.842  27.063  1.00  0.00     0.042 C 
ENDROOT
BRANCH   1   2
ATOM      2  C   UNL A   1      31.846  27.593  26.514  1.00  0.00     0.117 C 
BRANCH   2   3
ATOM      3  N   UNL A   1      31.330  26.291  26.832  1.00  0.00    -0.355 N 
ATOM      4  C   UNL A   1      31.600  25.056  26.349  1.00  0.00     0.230 C 
ATOM      5  O   UNL A   1      31.360  24.178  27.193  1.00  0.00    -0.274 OA
ATOM      6  H   UNL A   1      30.645  26.299  27.538  1.00  0.00     0.163 HD
BRANCH   4   7
ATOM      7  C   UNL A   1      32.106  24.682  24.879  1.00  0.00     0.077 C 
ATOM      8  C   UNL A   1      31.108  23.747  24.150  1.00  0.00     0.022 C 
ATOM      9  C   UNL A   1      32.235  25.885  23.863  1.00  0.00     0.006 C 
ATOM     10  C   UNL A   1      30.294  24.563  23.153  1.00  0.00     0.002 C 
ATOM     11  C   UNL A   1      30.932  25.932  23.040  1.00  0.00     0.005 C 
ATOM     12  C   UNL A   1      33.336  25.810  22.780  1.00  0.00     0.009 C 
BRANCH   7  13
ATOM     13  C   UNL A   1      33.457  23.944  25.145  1.00  0.00    -0.032 A 
ATOM     14  C   UNL A   1      35.948  22.571  25.506  1.00  0.00    -0.045 A 
ATOM     15  C   UNL A   1      34.787  21.888  25.126  1.00  0.00     0.004 A 
ATOM     16  C   UNL A   1      35.853  23.964  25.644  1.00  0.00     0.004 A 
ATOM     17  C   UNL A   1      33.584  22.568  24.906  1.00  0.00     0.005 A 
ATOM     18  C   UNL A   1      34.636  24.639  25.456  1.00  0.00     0.005 A 
BRANCH  14  19
ATOM     19  C   UNL A   1      37.260  21.851  25.804  1.00  0.00     0.013 C 
ATOM     20  C   UNL A   1      37.724  20.881  24.706  1.00  0.00     0.012 C 
ATOM     21  C   UNL A   1      38.413  22.816  26.112  1.00  0.00     0.012 C 
ENDBRANCH  14  19
ENDBRANCH   7  13
ENDBRANCH   4   7
ENDBRANCH   2   3
ENDBRANCH   1   2
BRANCH   1  22
ATOM     22  C   UNL A   1      34.038  28.806  26.200  1.00  0.00     0.118 C 
BRANCH  22  23
ATOM     23  N   UNL A   1      33.956  30.179  26.697  1.00  0.00    -0.352 N 
ATOM     24  C   UNL A   1      34.754  30.846  27.597  1.00  0.00     0.251 C 
ATOM     25  H   UNL A   1      33.212  30.709  26.329  1.00  0.00     0.163 HD
ATOM     26  O   UNL A   1      34.386  31.912  28.066  1.00  0.00    -0.269 OA
BRANCH  24  27
ATOM     27  C   UNL A   1      36.051  30.259  27.990  1.00  0.00     0.039 A 
ATOM     28  C   UNL A   1      37.132  30.315  27.106  1.00  0.00     0.014 A 
ATOM     29  C   UNL A   1      36.190  29.652  29.237  1.00  0.00     0.014 A 
ATOM     30  C   UNL A   1      38.376  29.820  27.507  1.00  0.00     0.010 A 
ATOM     31  C   UNL A   1      37.445  29.263  29.674  1.00  0.00     0.010 A 
ATOM     32  C   UNL A   1      38.548  29.323  28.808  1.00  0.00    -0.014 A 
BRANCH  32  33
ATOM     33  C   UNL A   1      39.845  28.802  29.302  1.00  0.00     0.031 A 
ATOM     34  C   UNL A   1      40.761  29.729  30.054  1.00  0.00     0.074 A 
ATOM     35  C   UNL A   1      40.249  27.562  28.968  1.00  0.00     0.049 A 
ATOM     36  N   UNL A   1      42.015  29.567  30.383  1.00  0.00    -0.248 NA
ATOM     37  C   UNL A   1      40.201  31.037  30.439  1.00  0.00     0.031 C 
ATOM     38  C   UNL A   1      39.464  26.584  28.212  1.00  0.00     0.029 A 
ATOM     39  N   UNL A   1      41.440  26.923  29.201  1.00  0.00    -0.354 N 
ATOM     40  C   UNL A   1      42.405  30.766  30.968  1.00  0.00     0.074 A 
ATOM     41  C   UNL A   1      41.274  31.663  30.897  1.00  0.00     0.031 C 
ATOM     42  C   UNL A   1      40.190  25.466  28.053  1.00  0.00     0.029 A 
ATOM     43  C   UNL A   1      41.508  25.665  28.649  1.00  0.00     0.049 A 
ATOM     44  H   UNL A   1      42.177  27.326  29.716  1.00  0.00     0.167 HD
ATOM     45  C   UNL A   1      43.594  31.086  31.532  1.00  0.00     0.031 A 
ATOM     46  C   UNL A   1      42.524  24.782  28.608  1.00  0.00     0.031 A 
ATOM     47  C   UNL A   1      44.702  30.175  31.622  1.00  0.00     0.049 A 
ATOM     48  C   UNL A   1      43.831  25.144  29.258  1.00  0.00     0.074 A 
ATOM     49  C   UNL A   1      45.932  30.369  32.222  1.00  0.00     0.029 A 
ATOM     50  N   UNL A   1      44.705  28.889  31.101  1.00  0.00    -0.354 N 
ATOM     51  N   UNL A   1      44.174  26.267  29.844  1.00  0.00    -0.248 NA
ATOM     52  C   UNL A   1      44.884  24.120  29.252  1.00  0.00     0.031 C 
ATOM     53  C   UNL A   1      46.696  29.214  32.029  1.00  0.00     0.029 A 
ATOM     54  C   UNL A   1      45.920  28.279  31.359  1.00  0.00     0.049 A 
ATOM     55  H   UNL A   1      43.955  28.471  30.620  1.00  0.00     0.167 HD
ATOM     56  C   UNL A   1      45.469  26.072  30.309  1.00  0.00     0.074 A 
ATOM     57  C   UNL A   1      45.847  24.724  29.935  1.00  0.00     0.031 C 
ATOM     58  C   UNL A   1      46.269  26.929  30.991  1.00  0.00     0.031 A 
BRANCH  45  59
ATOM     59  C   UNL A   1      43.745  32.483  32.077  1.00  0.00    -0.014 A 
ATOM     60  C   UNL A   1      43.336  32.804  33.385  1.00  0.00     0.010 A 
ATOM     61  C   UNL A   1      44.292  33.494  31.266  1.00  0.00     0.010 A 
ATOM     62  C   UNL A   1      43.403  34.121  33.846  1.00  0.00     0.020 A 
ATOM     63  C   UNL A   1      44.394  34.807  31.737  1.00  0.00     0.020 A 
ATOM     64  C   UNL A   1      43.923  35.117  33.014  1.00  0.00     0.054 A 
BRANCH  64  65
ATOM     65  S   UNL A   1      43.981  36.821  33.630  1.00  0.00     0.124 S 
ATOM     66  O   UNL A   1      43.018  36.775  34.728  1.00  0.00    -0.237 OA
ATOM     67  O   UNL A   1      45.378  36.972  34.028  1.00  0.00    -0.237 OA
ATOM     68  O   UNL A   1      43.574  37.620  32.477  1.00  0.00    -0.744 OA
ENDBRANCH  64  65
ENDBRANCH  45  59
BRANCH  46  69
ATOM     69  C   UNL A   1      42.324  23.464  27.945  1.00  0.00    -0.014 A 
ATOM     70  C   UNL A   1      42.591  23.312  26.574  1.00  0.00     0.010 A 
ATOM     71  C   UNL A   1      41.924  22.341  28.692  1.00  0.00     0.010 A 
ATOM     72  C   UNL A   1      42.461  22.062  25.960  1.00  0.00     0.020 A 
ATOM     73  C   UNL A   1      41.816  21.085  28.088  1.00  0.00     0.020 A 
ATOM     74  C   UNL A   1      42.082  20.955  26.724  1.00  0.00     0.054 A 
BRANCH  74  75
ATOM     75  S   UNL A   1      42.002  19.328  25.923  1.00  0.00     0.124 S 
ATOM     76  O   UNL A   1      40.576  19.198  25.640  1.00  0.00    -0.237 OA
ATOM     77  O   UNL A   1      42.865  19.508  24.757  1.00  0.00    -0.237 OA
ATOM     78  O   UNL A   1      42.525  18.419  26.941  1.00  0.00    -0.744 OA
ENDBRANCH  74  75
ENDBRANCH  46  69
BRANCH  58  79
ATOM     79  C   UNL A   1      47.615  26.427  31.436  1.00  0.00    -0.014 A 
ATOM     80  C   UNL A   1      47.771  25.721  32.641  1.00  0.00     0.010 A 
ATOM     81  C   UNL A   1      48.719  26.579  30.578  1.00  0.00     0.010 A 
ATOM     82  C   UNL A   1      49.014  25.182  32.983  1.00  0.00     0.020 A 
ATOM     83  C   UNL A   1      49.956  26.020  30.904  1.00  0.00     0.020 A 
ATOM     84  C   UNL A   1      50.097  25.329  32.109  1.00  0.00     0.054 A 
BRANCH  84  85
ATOM     85  S   UNL A   1      51.677  24.547  32.536  1.00  0.00     0.124 S 
ATOM     86  O   UNL A   1      51.824  24.908  33.943  1.00  0.00    -0.237 OA
ATOM     87  O   UNL A   1      51.415  23.133  32.274  1.00  0.00    -0.237 OA
ATOM     88  O   UNL A   1      52.633  25.176  31.627  1.00  0.00    -0.744 OA
ENDBRANCH  84  85
ENDBRANCH  58  79
ENDBRANCH  32  33
ENDBRANCH  24  27
ENDBRANCH  22  23
ENDBRANCH   1  22
TORSDOF 15
ENDMDL
MODEL 2
REMARK VINA RESULT:     -10.8      1.604      2.275
REMARK SMILES CC(C)c1ccc([C@]2(C(=O)NCCCNC(=O)c3ccc(-c4c5nc(c(-c6ccc(S(=O)(=O)[O-])cc6)c6ccc([nH]6)c(-c6ccc(S(=O)(=O)[O-])cc6)c6nc(c(-c7ccc(S(=O)(=O)[O-])cc7)c7ccc4[nH]7)C=C6)C=C5)cc3)CCC[C@@H]2C)cc1
REMARK SMILES IDX 13 1 12 2 11 3 9 4 10 5 8 7 78 8 81 9 79 10 80 11 82 12 7 13
REMARK SMILES IDX 4 14 5 15 84 16 6 17 83 18 2 19 1 20 3 21 14 22 15 23 16 24
REMARK SMILES IDX 17 26 18 27 19 28 77 29 20 30 76 31 21 32 22 33 23 34 70 35
REMARK SMILES IDX 24 36 75 37 69 38 71 39 25 40 74 41 68 42 67 43 26 45 56 46
REMARK SMILES IDX 37 47 55 48 38 49 41 50 54 51 72 52 39 53 40 54 53 56 73 57
REMARK SMILES IDX 42 58 27 59 28 60 36 61 29 62 35 63 30 64 31 65 32 66 33 67
REMARK SMILES IDX 34 68 57 69 58 70 66 71 59 72 65 73 60 74 61 75 62 76 63 77
REMARK SMILES IDX 64 78 43 79 44 80 52 81 45 82 51 83 46 84 47 85 48 86 49 87
REMARK SMILES IDX 50 88
REMARK H PARENT 11 6 15 25 71 44 41 55
REMARK Flexibility Score: inf
ROOT
ATOM      1  C   UNL A   1      32.887  27.533  26.254  1.00  0.00     0.042 C 
ENDROOT
BRANCH   1   2
ATOM      2  C   UNL A   1      33.437  26.289  25.581  1.00  0.00     0.117 C 
BRANCH   2   3
ATOM      3  N   UNL A   1      33.183  25.081  26.316  1.00  0.00    -0.355 N 
ATOM      4  C   UNL A   1      33.088  23.784  25.941  1.00  0.00     0.230 C 
ATOM      5  O   UNL A   1      33.378  23.020  26.876  1.00  0.00    -0.274 OA
ATOM      6  H   UNL A   1      33.053  25.225  27.281  1.00  0.00     0.163 HD
BRANCH   4   7
ATOM      7  C   UNL A   1      32.614  23.220  24.522  1.00  0.00     0.077 C 
ATOM      8  C   UNL A   1      31.080  23.346  24.339  1.00  0.00     0.022 C 
ATOM      9  C   UNL A   1      33.161  23.986  23.253  1.00  0.00     0.006 C 
ATOM     10  C   UNL A   1      30.778  24.539  23.439  1.00  0.00     0.002 C 
ATOM     11  C   UNL A   1      32.086  25.006  22.833  1.00  0.00     0.005 C 
ATOM     12  C   UNL A   1      33.405  23.174  21.960  1.00  0.00     0.009 C 
BRANCH   7  13
ATOM     13  C   UNL A   1      33.040  21.718  24.575  1.00  0.00    -0.032 A 
ATOM     14  C   UNL A   1      33.802  18.954  24.545  1.00  0.00    -0.045 A 
ATOM     15  C   UNL A   1      32.472  19.346  24.354  1.00  0.00     0.004 A 
ATOM     16  C   UNL A   1      34.753  19.975  24.692  1.00  0.00     0.004 A 
ATOM     17  C   UNL A   1      32.111  20.698  24.323  1.00  0.00     0.005 A 
ATOM     18  C   UNL A   1      34.383  21.329  24.695  1.00  0.00     0.005 A 
BRANCH  14  19
ATOM     19  C   UNL A   1      34.218  17.489  24.636  1.00  0.00     0.013 C 
ATOM     20  C   UNL A   1      33.364  16.637  25.589  1.00  0.00     0.012 C 
ATOM     21  C   UNL A   1      34.253  16.793  23.269  1.00  0.00     0.012 C 
ENDBRANCH  14  19
ENDBRANCH   7  13
ENDBRANCH   4   7
ENDBRANCH   2   3
ENDBRANCH   1   2
BRANCH   1  22
ATOM     22  C   UNL A   1      33.881  28.156  27.221  1.00  0.00     0.118 C 
BRANCH  22  23
ATOM     23  N   UNL A   1      33.675  29.597  27.360  1.00  0.00    -0.352 N 
ATOM     24  C   UNL A   1      34.467  30.554  27.952  1.00  0.00     0.251 C 
ATOM     25  H   UNL A   1      32.838  29.936  26.968  1.00  0.00     0.163 HD
ATOM     26  O   UNL A   1      34.015  31.666  28.179  1.00  0.00    -0.269 OA
BRANCH  24  27
ATOM     27  C   UNL A   1      35.859  30.220  28.314  1.00  0.00     0.039 A 
ATOM     28  C   UNL A   1      36.151  29.784  29.609  1.00  0.00     0.014 A 
ATOM     29  C   UNL A   1      36.874  30.343  27.365  1.00  0.00     0.014 A 
ATOM     30  C   UNL A   1      37.458  29.403  29.929  1.00  0.00     0.010 A 
ATOM     31  C   UNL A   1      38.141  29.863  27.650  1.00  0.00     0.010 A 
ATOM     32  C   UNL A   1      38.453  29.407  28.941  1.00  0.00    -0.014 A 
BRANCH  32  33
ATOM     33  C   UNL A   1      39.852  28.997  29.210  1.00  0.00     0.031 A 
ATOM     34  C   UNL A   1      40.825  30.026  29.719  1.00  0.00     0.074 A 
ATOM     35  C   UNL A   1      40.273  27.762  28.881  1.00  0.00     0.049 A 
ATOM     36  N   UNL A   1      42.126  29.960  29.814  1.00  0.00    -0.248 NA
ATOM     37  C   UNL A   1      40.257  31.324  30.126  1.00  0.00     0.031 C 
ATOM     38  C   UNL A   1      39.431  26.690  28.346  1.00  0.00     0.029 A 
ATOM     39  N   UNL A   1      41.528  27.210  28.921  1.00  0.00    -0.354 N 
ATOM     40  C   UNL A   1      42.534  31.218  30.243  1.00  0.00     0.074 A 
ATOM     41  C   UNL A   1      41.349  32.041  30.334  1.00  0.00     0.031 C 
ATOM     42  C   UNL A   1      40.191  25.606  28.119  1.00  0.00     0.029 A 
ATOM     43  C   UNL A   1      41.579  25.922  28.441  1.00  0.00     0.049 A 
ATOM     44  H   UNL A   1      42.317  27.690  29.262  1.00  0.00     0.167 HD
ATOM     45  C   UNL A   1      43.782  31.644  30.552  1.00  0.00     0.031 A 
ATOM     46  C   UNL A   1      42.629  25.098  28.262  1.00  0.00     0.031 A 
ATOM     47  C   UNL A   1      44.947  30.807  30.484  1.00  0.00     0.049 A 
ATOM     48  C   UNL A   1      44.005  25.579  28.630  1.00  0.00     0.074 A 
ATOM     49  C   UNL A   1      46.250  31.113  30.829  1.00  0.00     0.029 A 
ATOM     50  N   UNL A   1      44.943  29.489  30.050  1.00  0.00    -0.354 N 
ATOM     51  N   UNL A   1      44.372  26.758  29.072  1.00  0.00    -0.248 NA
ATOM     52  C   UNL A   1      45.107  24.619  28.486  1.00  0.00     0.031 C 
ATOM     53  C   UNL A   1      47.044  29.992  30.562  1.00  0.00     0.029 A 
ATOM     54  C   UNL A   1      46.225  28.969  30.109  1.00  0.00     0.049 A 
ATOM     55  H   UNL A   1      44.148  28.996  29.744  1.00  0.00     0.167 HD
ATOM     56  C   UNL A   1      45.741  26.671  29.295  1.00  0.00     0.074 A 
ATOM     57  C   UNL A   1      46.136  25.324  28.937  1.00  0.00     0.031 C 
ATOM     58  C   UNL A   1      46.592  27.619  29.761  1.00  0.00     0.031 A 
BRANCH  45  59
ATOM     59  C   UNL A   1      43.934  33.082  30.975  1.00  0.00    -0.014 A 
ATOM     60  C   UNL A   1      43.592  33.501  32.274  1.00  0.00     0.010 A 
ATOM     61  C   UNL A   1      44.413  34.035  30.056  1.00  0.00     0.010 A 
ATOM     62  C   UNL A   1      43.657  34.851  32.625  1.00  0.00     0.020 A 
ATOM     63  C   UNL A   1      44.514  35.382  30.415  1.00  0.00     0.020 A 
ATOM     64  C   UNL A   1      44.109  35.786  31.688  1.00  0.00     0.054 A 
BRANCH  64  65
ATOM     65  S   UNL A   1      44.166  37.535  32.163  1.00  0.00     0.124 S 
ATOM     66  O   UNL A   1      45.590  37.726  32.429  1.00  0.00    -0.237 OA
ATOM     67  O   UNL A   1      43.655  38.209  30.972  1.00  0.00    -0.237 OA
ATOM     68  O   UNL A   1      43.298  37.604  33.335  1.00  0.00    -0.744 OA
ENDBRANCH  64  65
ENDBRANCH  45  59
BRANCH  46  69
ATOM     69  C   UNL A   1      42.401  23.727  27.727  1.00  0.00    -0.014 A 
ATOM     70  C   UNL A   1      42.451  23.487  26.343  1.00  0.00     0.010 A 
ATOM     71  C   UNL A   1      42.194  22.644  28.601  1.00  0.00     0.010 A 
ATOM     72  C   UNL A   1      42.296  22.191  25.842  1.00  0.00     0.020 A 
ATOM     73  C   UNL A   1      42.064  21.343  28.106  1.00  0.00     0.020 A 
ATOM     74  C   UNL A   1      42.112  21.126  26.728  1.00  0.00     0.054 A 
BRANCH  74  75
ATOM     75  S   UNL A   1      41.998  19.443  26.058  1.00  0.00     0.124 S 
ATOM     76  O   UNL A   1      42.532  18.642  27.154  1.00  0.00    -0.237 OA
ATOM     77  O   UNL A   1      40.565  19.300  25.808  1.00  0.00    -0.237 OA
ATOM     78  O   UNL A   1      42.829  19.495  24.857  1.00  0.00    -0.744 OA
ENDBRANCH  74  75
ENDBRANCH  46  69
BRANCH  58  79
ATOM     79  C   UNL A   1      48.028  27.228  29.973  1.00  0.00    -0.014 A 
ATOM     80  C   UNL A   1      49.005  27.470  28.992  1.00  0.00     0.010 A 
ATOM     81  C   UNL A   1      48.418  26.704  31.219  1.00  0.00     0.010 A 
ATOM     82  C   UNL A   1      50.348  27.185  29.254  1.00  0.00     0.020 A 
ATOM     83  C   UNL A   1      49.762  26.444  31.493  1.00  0.00     0.020 A 
ATOM     84  C   UNL A   1      50.719  26.681  30.505  1.00  0.00     0.054 A 
BRANCH  84  85
ATOM     85  S   UNL A   1      52.478  26.401  30.848  1.00  0.00     0.124 S 
ATOM     86  O   UNL A   1      52.439  25.187  31.659  1.00  0.00    -0.237 OA
ATOM     87  O   UNL A   1      53.044  26.246  29.510  1.00  0.00    -0.237 OA
ATOM     88  O   UNL A   1      52.890  27.612  31.556  1.00  0.00    -0.744 OA
ENDBRANCH  84  85
ENDBRANCH  58  79
ENDBRANCH  32  33
ENDBRANCH  24  27
ENDBRANCH  22  23
ENDBRANCH   1  22
TORSDOF 15
ENDMDL
MODEL 3
REMARK VINA RESULT:     -10.8      3.313      4.099
REMARK SMILES CC(C)c1ccc([C@]2(C(=O)NCCCNC(=O)c3ccc(-c4c5nc(c(-c6ccc(S(=O)(=O)[O-])cc6)c6ccc([nH]6)c(-c6ccc(S(=O)(=O)[O-])cc6)c6nc(c(-c7ccc(S(=O)(=O)[O-])cc7)c7ccc4[nH]7)C=C6)C=C5)cc3)CCC[C@@H]2C)cc1
REMARK SMILES IDX 13 1 12 2 11 3 9 4 10 5 8 7 78 8 81 9 79 10 80 11 82 12 7 13
REMARK SMILES IDX 4 14 5 15 84 16 6 17 83 18 2 19 1 20 3 21 14 22 15 23 16 24
REMARK SMILES IDX 17 26 18 27 19 28 77 29 20 30 76 31 21 32 22 33 23 34 70 35
REMARK SMILES IDX 24 36 75 37 69 38 71 39 25 40 74 41 68 42 67 43 26 45 56 46
REMARK SMILES IDX 37 47 55 48 38 49 41 50 54 51 72 52 39 53 40 54 53 56 73 57
REMARK SMILES IDX 42 58 27 59 28 60 36 61 29 62 35 63 30 64 31 65 32 66 33 67
REMARK SMILES IDX 34 68 57 69 58 70 66 71 59 72 65 73 60 74 61 75 62 76 63 77
REMARK SMILES IDX 64 78 43 79 44 80 52 81 45 82 51 83 46 84 47 85 48 86 49 87
REMARK SMILES IDX 50 88
REMARK H PARENT 11 6 15 25 71 44 41 55
REMARK Flexibility Score: inf
ROOT
ATOM      1  C   UNL A   1      34.104  29.017  27.398  1.00  0.00     0.042 C 
ENDROOT
BRANCH   1   2
ATOM      2  C   UNL A   1      33.415  29.682  26.221  1.00  0.00     0.117 C 
BRANCH   2   3
ATOM      3  N   UNL A   1      33.961  29.301  24.948  1.00  0.00    -0.355 N 
ATOM      4  C   UNL A   1      33.437  28.649  23.884  1.00  0.00     0.230 C 
ATOM      5  O   UNL A   1      34.014  28.964  22.831  1.00  0.00    -0.274 OA
ATOM      6  H   UNL A   1      34.901  29.566  24.826  1.00  0.00     0.163 HD
BRANCH   4   7
ATOM      7  C   UNL A   1      32.270  27.556  23.900  1.00  0.00     0.077 C 
ATOM      8  C   UNL A   1      30.999  28.086  24.611  1.00  0.00     0.022 C 
ATOM      9  C   UNL A   1      31.704  27.125  22.489  1.00  0.00     0.006 C 
ATOM     10  C   UNL A   1      29.968  28.486  23.561  1.00  0.00     0.002 C 
ATOM     11  C   UNL A   1      30.449  27.976  22.218  1.00  0.00     0.005 C 
ATOM     12  C   UNL A   1      31.195  25.675  22.320  1.00  0.00     0.009 C 
BRANCH   7  13
ATOM     13  C   UNL A   1      32.900  26.376  24.706  1.00  0.00    -0.032 A 
ATOM     14  C   UNL A   1      33.969  24.129  26.131  1.00  0.00    -0.045 A 
ATOM     15  C   UNL A   1      32.710  24.656  26.439  1.00  0.00     0.004 A 
ATOM     16  C   UNL A   1      34.658  24.710  25.055  1.00  0.00     0.004 A 
ATOM     17  C   UNL A   1      32.172  25.723  25.712  1.00  0.00     0.005 A 
ATOM     18  C   UNL A   1      34.130  25.802  24.349  1.00  0.00     0.005 A 
BRANCH  14  19
ATOM     19  C   UNL A   1      34.605  23.001  26.939  1.00  0.00     0.013 C 
ATOM     20  C   UNL A   1      33.638  22.257  27.873  1.00  0.00     0.012 C 
ATOM     21  C   UNL A   1      35.316  21.965  26.058  1.00  0.00     0.012 C 
ENDBRANCH  14  19
ENDBRANCH   7  13
ENDBRANCH   4   7
ENDBRANCH   2   3
ENDBRANCH   1   2
BRANCH   1  22
ATOM     22  C   UNL A   1      35.400  29.715  27.779  1.00  0.00     0.118 C 
BRANCH  22  23
ATOM     23  N   UNL A   1      35.415  30.105  29.189  1.00  0.00    -0.352 N 
ATOM     24  C   UNL A   1      36.372  29.901  30.156  1.00  0.00     0.251 C 
ATOM     25  H   UNL A   1      34.614  30.591  29.493  1.00  0.00     0.163 HD
ATOM     26  O   UNL A   1      36.100  30.090  31.332  1.00  0.00    -0.269 OA
BRANCH  24  27
ATOM     27  C   UNL A   1      37.720  29.448  29.759  1.00  0.00     0.039 A 
ATOM     28  C   UNL A   1      38.190  29.725  28.472  1.00  0.00     0.014 A 
ATOM     29  C   UNL A   1      38.515  28.748  30.665  1.00  0.00     0.014 A 
ATOM     30  C   UNL A   1      39.492  29.356  28.120  1.00  0.00     0.010 A 
ATOM     31  C   UNL A   1      39.838  28.482  30.354  1.00  0.00     0.010 A 
ATOM     32  C   UNL A   1      40.335  28.764  29.072  1.00  0.00    -0.014 A 
BRANCH  32  33
ATOM     33  C   UNL A   1      41.731  28.367  28.769  1.00  0.00     0.031 A 
ATOM     34  C   UNL A   1      42.798  29.427  28.743  1.00  0.00     0.074 A 
ATOM     35  C   UNL A   1      42.012  27.104  28.396  1.00  0.00     0.049 A 
ATOM     36  N   UNL A   1      44.023  29.358  28.295  1.00  0.00    -0.248 NA
ATOM     37  C   UNL A   1      42.413  30.760  29.242  1.00  0.00     0.031 C 
ATOM     38  C   UNL A   1      41.055  25.997  28.347  1.00  0.00     0.029 A 
ATOM     39  N   UNL A   1      43.186  26.547  27.957  1.00  0.00    -0.354 N 
ATOM     40  C   UNL A   1      44.537  30.645  28.413  1.00  0.00     0.074 A 
ATOM     41  C   UNL A   1      43.474  31.483  28.920  1.00  0.00     0.031 C 
ATOM     42  C   UNL A   1      41.682  24.892  27.914  1.00  0.00     0.029 A 
ATOM     43  C   UNL A   1      43.070  25.223  27.605  1.00  0.00     0.049 A 
ATOM     44  H   UNL A   1      44.032  27.048  27.900  1.00  0.00     0.167 HD
ATOM     45  C   UNL A   1      45.788  31.086  28.140  1.00  0.00     0.031 A 
ATOM     46  C   UNL A   1      43.974  24.378  27.074  1.00  0.00     0.031 A 
ATOM     47  C   UNL A   1      46.844  30.236  27.664  1.00  0.00     0.049 A 
ATOM     48  C   UNL A   1      45.365  24.877  26.797  1.00  0.00     0.074 A 
ATOM     49  C   UNL A   1      48.164  30.560  27.410  1.00  0.00     0.029 A 
ATOM     50  N   UNL A   1      46.697  28.886  27.378  1.00  0.00    -0.354 N 
ATOM     51  N   UNL A   1      45.849  26.087  26.951  1.00  0.00    -0.248 NA
ATOM     52  C   UNL A   1      46.335  23.899  26.288  1.00  0.00     0.031 C 
ATOM     53  C   UNL A   1      48.807  29.414  26.931  1.00  0.00     0.029 A 
ATOM     54  C   UNL A   1      47.902  28.363  26.942  1.00  0.00     0.049 A 
ATOM     55  H   UNL A   1      45.861  28.375  27.471  1.00  0.00     0.167 HD
ATOM     56  C   UNL A   1      47.190  26.008  26.592  1.00  0.00     0.074 A 
ATOM     57  C   UNL A   1      47.439  24.632  26.213  1.00  0.00     0.031 C 
ATOM     58  C   UNL A   1      48.130  26.985  26.585  1.00  0.00     0.031 A 
BRANCH  45  59
ATOM     59  C   UNL A   1      46.061  32.554  28.344  1.00  0.00    -0.014 A 
ATOM     60  C   UNL A   1      46.433  33.059  29.604  1.00  0.00     0.010 A 
ATOM     61  C   UNL A   1      45.932  33.446  27.264  1.00  0.00     0.010 A 
ATOM     62  C   UNL A   1      46.599  34.432  29.797  1.00  0.00     0.020 A 
ATOM     63  C   UNL A   1      46.133  34.818  27.445  1.00  0.00     0.020 A 
ATOM     64  C   UNL A   1      46.437  35.305  28.716  1.00  0.00     0.054 A 
BRANCH  64  65
ATOM     65  S   UNL A   1      46.640  37.084  28.998  1.00  0.00     0.124 S 
ATOM     66  O   UNL A   1      47.279  37.108  30.312  1.00  0.00    -0.237 OA
ATOM     67  O   UNL A   1      47.489  37.493  27.882  1.00  0.00    -0.237 OA
ATOM     68  O   UNL A   1      45.274  37.599  28.961  1.00  0.00    -0.744 OA
ENDBRANCH  64  65
ENDBRANCH  45  59
BRANCH  46  69
ATOM     69  C   UNL A   1      43.584  22.968  26.795  1.00  0.00    -0.014 A 
ATOM     70  C   UNL A   1      43.963  22.351  25.590  1.00  0.00     0.010 A 
ATOM     71  C   UNL A   1      42.885  22.216  27.757  1.00  0.00     0.010 A 
ATOM     72  C   UNL A   1      43.650  21.010  25.350  1.00  0.00     0.020 A 
ATOM     73  C   UNL A   1      42.591  20.868  27.532  1.00  0.00     0.020 A 
ATOM     74  C   UNL A   1      42.973  20.274  26.326  1.00  0.00     0.054 A 
BRANCH  74  75
ATOM     75  S   UNL A   1      42.652  18.513  26.027  1.00  0.00     0.124 S 
ATOM     76  O   UNL A   1      43.507  18.240  24.877  1.00  0.00    -0.237 OA
ATOM     77  O   UNL A   1      43.068  17.899  27.285  1.00  0.00    -0.237 OA
ATOM     78  O   UNL A   1      41.215  18.467  25.766  1.00  0.00    -0.744 OA
ENDBRANCH  74  75
ENDBRANCH  46  69
BRANCH  58  79
ATOM     79  C   UNL A   1      49.536  26.601  26.212  1.00  0.00    -0.014 A 
ATOM     80  C   UNL A   1      50.025  26.790  24.909  1.00  0.00     0.010 A 
ATOM     81  C   UNL A   1      50.408  26.141  27.216  1.00  0.00     0.010 A 
ATOM     82  C   UNL A   1      51.364  26.516  24.615  1.00  0.00     0.020 A 
ATOM     83  C   UNL A   1      51.751  25.892  26.932  1.00  0.00     0.020 A 
ATOM     84  C   UNL A   1      52.220  26.076  25.630  1.00  0.00     0.054 A 
BRANCH  84  85
ATOM     85  S   UNL A   1      53.972  25.810  25.242  1.00  0.00     0.124 S 
ATOM     86  O   UNL A   1      54.617  26.137  26.510  1.00  0.00    -0.237 OA
ATOM     87  O   UNL A   1      54.005  24.398  24.865  1.00  0.00    -0.237 OA
ATOM     88  O   UNL A   1      54.232  26.746  24.150  1.00  0.00    -0.744 OA
ENDBRANCH  84  85
ENDBRANCH  58  79
ENDBRANCH  32  33
ENDBRANCH  24  27
ENDBRANCH  22  23
ENDBRANCH   1  22
TORSDOF 15
ENDMDL
