MODEL 1
REMARK VINA RESULT:     -12.2      0.000      0.000
REMARK SMILES Cc1ccccc1CCNS(=O)(=O)c1ccc(C(=O)NCCCNC(=O)c2ccc(-c3c4nc(c(-c5ccc(S(=O)(=O)[O-])cc5)c5ccc([nH]5)c(-c5ccc(S(=O)(=O)[O-])cc5)c5nc(c(-c6ccc(S(=O)(=O)[O-])cc6)c6ccc3[nH]6)C=C5)C=C4)cc2)o1
REMARK SMILES IDX 21 1 20 2 18 3 19 4 17 6 14 7 15 8 87 9 16 10 11 11 12 12
REMARK SMILES IDX 13 13 10 14 9 16 8 17 7 18 1 19 2 20 3 21 4 22 6 23 5 24
REMARK SMILES IDX 22 25 23 26 24 27 25 28 26 30 27 31 28 32 86 33 29 34 85 35
REMARK SMILES IDX 30 36 31 37 32 38 79 39 33 40 84 41 78 42 80 43 34 44 83 45
REMARK SMILES IDX 77 46 76 47 35 49 65 50 46 51 64 52 47 53 50 54 63 55 81 56
REMARK SMILES IDX 48 57 49 58 62 60 82 61 51 62 36 63 37 64 45 65 38 66 44 67
REMARK SMILES IDX 39 68 40 69 41 70 42 71 43 72 66 73 67 74 75 75 68 76 74 77
REMARK SMILES IDX 69 78 70 79 71 80 72 81 73 82 52 83 53 84 61 85 54 86 60 87
REMARK SMILES IDX 55 88 56 89 57 90 58 91 59 92
REMARK H PARENT 20 5 10 15 24 29 80 48 50 59
REMARK Flexibility Score: inf
ROOT
ATOM      1  C   UNL A   1      35.832  21.828  24.148  1.00  0.00     0.118 C 
ENDROOT
BRANCH   1   2
ATOM      2  N   UNL A   1      34.484  21.635  24.667  1.00  0.00    -0.349 N 
ATOM      3  C   UNL A   1      33.469  22.541  24.866  1.00  0.00     0.287 C 
ATOM      4  O   UNL A   1      32.384  22.084  25.235  1.00  0.00    -0.266 OA
ATOM      5  H   UNL A   1      34.267  20.707  24.917  1.00  0.00     0.163 HD
BRANCH   3   6
ATOM      6  C   UNL A   1      33.673  23.964  24.638  1.00  0.00     0.193 A 
ATOM      7  C   UNL A   1      33.542  25.797  23.356  1.00  0.00     0.234 A 
ATOM      8  C   UNL A   1      34.102  26.173  24.566  1.00  0.00     0.065 A 
ATOM      9  O   UNL A   1      33.268  24.451  23.421  1.00  0.00    -0.438 OA
ATOM     10  C   UNL A   1      34.174  25.019  25.376  1.00  0.00     0.058 A 
BRANCH   7  11
ATOM     11  S   UNL A   1      33.153  26.760  21.911  1.00  0.00     0.273 S 
ATOM     12  O   UNL A   1      33.224  25.862  20.777  1.00  0.00    -0.204 OA
ATOM     13  O   UNL A   1      33.987  27.938  21.992  1.00  0.00    -0.204 OA
BRANCH  11  14
ATOM     14  N   UNL A   1      31.563  27.300  22.046  1.00  0.00    -0.208 NA
ATOM     15  H   UNL A   1      31.096  27.104  21.161  1.00  0.00     0.141 HD
BRANCH  14  16
ATOM     16  C   UNL A   1      31.351  28.740  22.351  1.00  0.00     0.104 C 
BRANCH  16  17
ATOM     17  C   UNL A   1      30.410  28.889  23.564  1.00  0.00     0.052 C 
BRANCH  17  18
ATOM     18  C   UNL A   1      31.109  28.628  24.889  1.00  0.00    -0.044 A 
ATOM     19  C   UNL A   1      30.285  26.197  25.129  1.00  0.00     0.044 C 
ATOM     20  C   UNL A   1      30.980  27.435  25.627  1.00  0.00    -0.048 A 
ATOM     21  C   UNL A   1      31.575  27.357  26.903  1.00  0.00     0.004 A 
ATOM     22  C   UNL A   1      32.277  28.432  27.445  1.00  0.00     0.000 A 
ATOM     23  C   UNL A   1      31.880  29.679  25.431  1.00  0.00     0.004 A 
ATOM     24  C   UNL A   1      32.438  29.593  26.704  1.00  0.00     0.000 A 
ENDBRANCH  17  18
ENDBRANCH  16  17
ENDBRANCH  14  16
ENDBRANCH  11  14
ENDBRANCH   7  11
ENDBRANCH   3   6
ENDBRANCH   1   2
BRANCH   1  25
ATOM     25  C   UNL A   1      36.888  21.448  25.179  1.00  0.00     0.042 C 
BRANCH  25  26
ATOM     26  C   UNL A   1      37.676  22.644  25.666  1.00  0.00     0.118 C 
BRANCH  26  27
ATOM     27  N   UNL A   1      38.754  22.317  26.591  1.00  0.00    -0.352 N 
ATOM     28  C   UNL A   1      39.956  23.023  26.606  1.00  0.00     0.251 C 
ATOM     29  H   UNL A   1      38.629  21.575  27.225  1.00  0.00     0.163 HD
ATOM     30  O   UNL A   1      41.060  22.507  26.530  1.00  0.00    -0.269 OA
BRANCH  28  31
ATOM     31  C   UNL A   1      39.804  24.473  26.851  1.00  0.00     0.039 A 
ATOM     32  C   UNL A   1      40.468  25.372  26.011  1.00  0.00     0.014 A 
ATOM     33  C   UNL A   1      39.322  24.862  28.094  1.00  0.00     0.014 A 
ATOM     34  C   UNL A   1      40.847  26.608  26.516  1.00  0.00     0.010 A 
ATOM     35  C   UNL A   1      39.855  25.985  28.654  1.00  0.00     0.010 A 
ATOM     36  C   UNL A   1      40.631  26.840  27.865  1.00  0.00    -0.014 A 
BRANCH  36  37
ATOM     37  C   UNL A   1      41.011  28.028  28.588  1.00  0.00     0.031 A 
ATOM     38  C   UNL A   1      39.995  29.093  28.624  1.00  0.00     0.074 A 
ATOM     39  C   UNL A   1      42.043  27.903  29.448  1.00  0.00     0.049 A 
ATOM     40  N   UNL A   1      40.176  30.246  29.144  1.00  0.00    -0.248 NA
ATOM     41  C   UNL A   1      38.656  28.937  28.042  1.00  0.00     0.031 C 
ATOM     42  C   UNL A   1      42.338  28.657  30.658  1.00  0.00     0.029 A 
ATOM     43  N   UNL A   1      43.189  27.139  29.243  1.00  0.00    -0.354 N 
ATOM     44  C   UNL A   1      38.929  30.813  29.304  1.00  0.00     0.074 A 
ATOM     45  C   UNL A   1      38.036  30.030  28.491  1.00  0.00     0.031 C 
ATOM     46  C   UNL A   1      43.650  28.531  30.937  1.00  0.00     0.029 A 
ATOM     47  C   UNL A   1      44.265  27.845  29.807  1.00  0.00     0.049 A 
ATOM     48  H   UNL A   1      43.235  26.268  28.787  1.00  0.00     0.167 HD
ATOM     49  C   UNL A   1      38.790  31.778  30.250  1.00  0.00     0.031 A 
ATOM     50  C   UNL A   1      45.175  28.419  28.955  1.00  0.00     0.031 A 
ATOM     51  C   UNL A   1      40.097  32.104  30.823  1.00  0.00     0.049 A 
ATOM     52  C   UNL A   1      45.085  29.939  28.921  1.00  0.00     0.074 A 
ATOM     53  C   UNL A   1      40.749  31.741  31.989  1.00  0.00     0.029 A 
ATOM     54  N   UNL A   1      41.072  32.581  29.967  1.00  0.00    -0.354 N 
ATOM     55  N   UNL A   1      44.119  30.632  29.462  1.00  0.00    -0.248 NA
ATOM     56  C   UNL A   1      46.059  30.797  28.250  1.00  0.00     0.031 C 
ATOM     57  C   UNL A   1      42.146  31.969  31.793  1.00  0.00     0.029 A 
ATOM     58  C   UNL A   1      42.329  32.495  30.526  1.00  0.00     0.049 A 
ATOM     59  H   UNL A   1      40.890  32.939  29.068  1.00  0.00     0.167 HD
ATOM     60  C   UNL A   1      44.313  31.969  29.247  1.00  0.00     0.074 A 
ATOM     61  C   UNL A   1      45.528  32.019  28.449  1.00  0.00     0.031 C 
ATOM     62  C   UNL A   1      43.465  32.928  29.727  1.00  0.00     0.031 A 
BRANCH  49  63
ATOM     63  C   UNL A   1      37.491  32.275  30.826  1.00  0.00    -0.014 A 
ATOM     64  C   UNL A   1      37.228  33.659  30.755  1.00  0.00     0.010 A 
ATOM     65  C   UNL A   1      36.516  31.489  31.470  1.00  0.00     0.010 A 
ATOM     66  C   UNL A   1      36.091  34.235  31.327  1.00  0.00     0.020 A 
ATOM     67  C   UNL A   1      35.370  32.054  32.056  1.00  0.00     0.020 A 
ATOM     68  C   UNL A   1      35.168  33.429  31.983  1.00  0.00     0.054 A 
BRANCH  68  69
ATOM     69  S   UNL A   1      33.710  34.208  32.719  1.00  0.00     0.124 S 
ATOM     70  O   UNL A   1      33.023  33.071  33.328  1.00  0.00    -0.237 OA
ATOM     71  O   UNL A   1      34.303  35.160  33.654  1.00  0.00    -0.237 OA
ATOM     72  O   UNL A   1      33.023  34.806  31.577  1.00  0.00    -0.744 OA
ENDBRANCH  68  69
ENDBRANCH  49  63
BRANCH  50  73
ATOM     73  C   UNL A   1      45.473  27.519  27.784  1.00  0.00    -0.014 A 
ATOM     74  C   UNL A   1      44.886  27.880  26.546  1.00  0.00     0.010 A 
ATOM     75  C   UNL A   1      46.651  26.751  27.765  1.00  0.00     0.010 A 
ATOM     76  C   UNL A   1      45.588  27.709  25.347  1.00  0.00     0.020 A 
ATOM     77  C   UNL A   1      47.341  26.551  26.555  1.00  0.00     0.020 A 
ATOM     78  C   UNL A   1      46.851  27.122  25.375  1.00  0.00     0.054 A 
BRANCH  78  79
ATOM     79  S   UNL A   1      47.914  27.305  23.906  1.00  0.00     0.124 S 
ATOM     80  O   UNL A   1      49.123  27.901  24.466  1.00  0.00    -0.237 OA
ATOM     81  O   UNL A   1      48.053  25.920  23.440  1.00  0.00    -0.237 OA
ATOM     82  O   UNL A   1      47.139  28.177  23.031  1.00  0.00    -0.744 OA
ENDBRANCH  78  79
ENDBRANCH  50  73
BRANCH  62  83
ATOM     83  C   UNL A   1      43.615  34.402  29.455  1.00  0.00    -0.014 A 
ATOM     84  C   UNL A   1      44.087  35.307  30.412  1.00  0.00     0.010 A 
ATOM     85  C   UNL A   1      43.181  34.943  28.219  1.00  0.00     0.010 A 
ATOM     86  C   UNL A   1      44.223  36.668  30.110  1.00  0.00     0.020 A 
ATOM     87  C   UNL A   1      43.283  36.298  27.916  1.00  0.00     0.020 A 
ATOM     88  C   UNL A   1      43.838  37.149  28.856  1.00  0.00     0.054 A 
BRANCH  88  89
ATOM     89  S   UNL A   1      44.039  38.903  28.478  1.00  0.00     0.124 S 
ATOM     90  O   UNL A   1      43.578  38.983  27.095  1.00  0.00    -0.237 OA
ATOM     91  O   UNL A   1      43.164  39.524  29.470  1.00  0.00    -0.237 OA
ATOM     92  O   UNL A   1      45.467  39.142  28.670  1.00  0.00    -0.744 OA
ENDBRANCH  88  89
ENDBRANCH  62  83
ENDBRANCH  36  37
ENDBRANCH  28  31
ENDBRANCH  26  27
ENDBRANCH  25  26
ENDBRANCH   1  25
TORSDOF 18
ENDMDL
MODEL 2
REMARK VINA RESULT:     -12.0      1.432      2.089
REMARK SMILES Cc1ccccc1CCNS(=O)(=O)c1ccc(C(=O)NCCCNC(=O)c2ccc(-c3c4nc(c(-c5ccc(S(=O)(=O)[O-])cc5)c5ccc([nH]5)c(-c5ccc(S(=O)(=O)[O-])cc5)c5nc(c(-c6ccc(S(=O)(=O)[O-])cc6)c6ccc3[nH]6)C=C5)C=C4)cc2)o1
REMARK SMILES IDX 21 1 20 2 18 3 19 4 17 6 14 7 15 8 87 9 16 10 11 11 12 12
REMARK SMILES IDX 13 13 10 14 9 16 8 17 7 18 1 19 2 20 3 21 4 22 6 23 5 24
REMARK SMILES IDX 22 25 23 26 24 27 25 28 26 30 27 31 28 32 86 33 29 34 85 35
REMARK SMILES IDX 30 36 31 37 32 38 79 39 33 40 84 41 78 42 80 43 34 44 83 45
REMARK SMILES IDX 77 46 76 47 35 49 65 50 46 51 64 52 47 53 50 54 63 55 81 56
REMARK SMILES IDX 48 57 49 58 62 60 82 61 51 62 36 63 37 64 45 65 38 66 44 67
REMARK SMILES IDX 39 68 40 69 41 70 42 71 43 72 66 73 67 74 75 75 68 76 74 77
REMARK SMILES IDX 69 78 70 79 71 80 72 81 73 82 52 83 53 84 61 85 54 86 60 87
REMARK SMILES IDX 55 88 56 89 57 90 58 91 59 92
REMARK H PARENT 20 5 10 15 24 29 80 48 50 59
REMARK Flexibility Score: inf
ROOT
ATOM      1  C   UNL A   1      35.886  21.143  24.722  1.00  0.00     0.118 C 
ENDROOT
BRANCH   1   2
ATOM      2  N   UNL A   1      34.946  20.122  25.163  1.00  0.00    -0.349 N 
ATOM      3  C   UNL A   1      33.571  20.106  25.136  1.00  0.00     0.287 C 
ATOM      4  O   UNL A   1      33.022  19.061  25.492  1.00  0.00    -0.266 OA
ATOM      5  H   UNL A   1      35.362  19.313  25.542  1.00  0.00     0.163 HD
BRANCH   3   6
ATOM      6  C   UNL A   1      32.813  21.269  24.698  1.00  0.00     0.193 A 
ATOM      7  C   UNL A   1      31.611  23.114  25.114  1.00  0.00     0.234 A 
ATOM      8  C   UNL A   1      31.702  22.976  23.739  1.00  0.00     0.065 A 
ATOM      9  O   UNL A   1      32.309  22.077  25.687  1.00  0.00    -0.438 OA
ATOM     10  C   UNL A   1      32.468  21.820  23.479  1.00  0.00     0.058 A 
BRANCH   7  11
ATOM     11  S   UNL A   1      30.813  24.360  26.104  1.00  0.00     0.273 S 
ATOM     12  O   UNL A   1      30.146  23.669  27.189  1.00  0.00    -0.204 OA
ATOM     13  O   UNL A   1      30.078  25.185  25.172  1.00  0.00    -0.204 OA
BRANCH  11  14
ATOM     14  N   UNL A   1      32.002  25.349  26.771  1.00  0.00    -0.208 NA
ATOM     15  H   UNL A   1      31.599  26.280  26.884  1.00  0.00     0.141 HD
BRANCH  14  16
ATOM     16  C   UNL A   1      33.272  25.503  26.012  1.00  0.00     0.104 C 
BRANCH  16  17
ATOM     17  C   UNL A   1      33.176  26.718  25.067  1.00  0.00     0.052 C 
BRANCH  17  18
ATOM     18  C   UNL A   1      33.210  28.047  25.805  1.00  0.00    -0.044 A 
ATOM     19  C   UNL A   1      31.129  29.029  24.642  1.00  0.00     0.044 C 
ATOM     20  C   UNL A   1      32.328  29.114  25.548  1.00  0.00    -0.048 A 
ATOM     21  C   UNL A   1      32.536  30.342  26.208  1.00  0.00     0.004 A 
ATOM     22  C   UNL A   1      33.594  30.519  27.099  1.00  0.00     0.000 A 
ATOM     23  C   UNL A   1      34.234  28.230  26.760  1.00  0.00     0.004 A 
ATOM     24  C   UNL A   1      34.439  29.458  27.382  1.00  0.00     0.000 A 
ENDBRANCH  17  18
ENDBRANCH  16  17
ENDBRANCH  14  16
ENDBRANCH  11  14
ENDBRANCH   7  11
ENDBRANCH   3   6
ENDBRANCH   1   2
BRANCH   1  25
ATOM     25  C   UNL A   1      36.319  22.040  25.876  1.00  0.00     0.042 C 
BRANCH  25  26
ATOM     26  C   UNL A   1      37.656  22.702  25.623  1.00  0.00     0.118 C 
BRANCH  26  27
ATOM     27  N   UNL A   1      38.688  22.363  26.595  1.00  0.00    -0.352 N 
ATOM     28  C   UNL A   1      39.896  23.054  26.663  1.00  0.00     0.251 C 
ATOM     29  H   UNL A   1      38.526  21.623  27.223  1.00  0.00     0.163 HD
ATOM     30  O   UNL A   1      40.997  22.524  26.636  1.00  0.00    -0.269 OA
BRANCH  28  31
ATOM     31  C   UNL A   1      39.752  24.505  26.900  1.00  0.00     0.039 A 
ATOM     32  C   UNL A   1      40.419  25.397  26.055  1.00  0.00     0.014 A 
ATOM     33  C   UNL A   1      39.273  24.904  28.142  1.00  0.00     0.014 A 
ATOM     34  C   UNL A   1      40.803  26.634  26.552  1.00  0.00     0.010 A 
ATOM     35  C   UNL A   1      39.812  26.027  28.695  1.00  0.00     0.010 A 
ATOM     36  C   UNL A   1      40.592  26.875  27.901  1.00  0.00    -0.014 A 
BRANCH  36  37
ATOM     37  C   UNL A   1      40.978  28.064  28.617  1.00  0.00     0.031 A 
ATOM     38  C   UNL A   1      39.974  29.141  28.635  1.00  0.00     0.074 A 
ATOM     39  C   UNL A   1      42.001  27.935  29.487  1.00  0.00     0.049 A 
ATOM     40  N   UNL A   1      40.163  30.296  29.147  1.00  0.00    -0.248 NA
ATOM     41  C   UNL A   1      38.638  28.994  28.042  1.00  0.00     0.031 C 
ATOM     42  C   UNL A   1      42.294  28.696  30.693  1.00  0.00     0.029 A 
ATOM     43  N   UNL A   1      43.140  27.156  29.299  1.00  0.00    -0.354 N 
ATOM     44  C   UNL A   1      38.921  30.878  29.291  1.00  0.00     0.074 A 
ATOM     45  C   UNL A   1      38.027  30.097  28.477  1.00  0.00     0.031 C 
ATOM     46  C   UNL A   1      43.602  28.558  30.984  1.00  0.00     0.029 A 
ATOM     47  C   UNL A   1      44.219  27.856  29.867  1.00  0.00     0.049 A 
ATOM     48  H   UNL A   1      43.181  26.281  28.851  1.00  0.00     0.167 HD
ATOM     49  C   UNL A   1      38.785  31.852  30.227  1.00  0.00     0.031 A 
ATOM     50  C   UNL A   1      45.143  28.413  29.018  1.00  0.00     0.031 A 
ATOM     51  C   UNL A   1      40.090  32.169  30.809  1.00  0.00     0.049 A 
ATOM     52  C   UNL A   1      45.070  29.933  28.970  1.00  0.00     0.074 A 
ATOM     53  C   UNL A   1      40.728  31.810  31.983  1.00  0.00     0.029 A 
ATOM     54  N   UNL A   1      41.078  32.628  29.958  1.00  0.00    -0.354 N 
ATOM     55  N   UNL A   1      44.107  30.642  29.496  1.00  0.00    -0.248 NA
ATOM     56  C   UNL A   1      46.059  30.775  28.300  1.00  0.00     0.031 C 
ATOM     57  C   UNL A   1      42.128  32.020  31.798  1.00  0.00     0.029 A 
ATOM     58  C   UNL A   1      42.328  32.533  30.528  1.00  0.00     0.049 A 
ATOM     59  H   UNL A   1      40.907  32.980  29.054  1.00  0.00     0.167 HD
ATOM     60  C   UNL A   1      44.318  31.974  29.271  1.00  0.00     0.074 A 
ATOM     61  C   UNL A   1      45.540  32.004  28.484  1.00  0.00     0.031 C 
ATOM     62  C   UNL A   1      43.476  32.947  29.736  1.00  0.00     0.031 A 
BRANCH  49  63
ATOM     63  C   UNL A   1      37.486  32.369  30.787  1.00  0.00    -0.014 A 
ATOM     64  C   UNL A   1      37.453  33.701  31.248  1.00  0.00     0.010 A 
ATOM     65  C   UNL A   1      36.295  31.631  30.933  1.00  0.00     0.010 A 
ATOM     66  C   UNL A   1      36.324  34.255  31.857  1.00  0.00     0.020 A 
ATOM     67  C   UNL A   1      35.153  32.172  31.549  1.00  0.00     0.020 A 
ATOM     68  C   UNL A   1      35.179  33.483  32.012  1.00  0.00     0.054 A 
BRANCH  68  69
ATOM     69  S   UNL A   1      33.736  34.229  32.810  1.00  0.00     0.124 S 
ATOM     70  O   UNL A   1      34.349  35.089  33.820  1.00  0.00    -0.237 OA
ATOM     71  O   UNL A   1      33.089  34.924  31.701  1.00  0.00    -0.237 OA
ATOM     72  O   UNL A   1      33.000  33.084  33.338  1.00  0.00    -0.744 OA
ENDBRANCH  68  69
ENDBRANCH  49  63
BRANCH  50  73
ATOM     73  C   UNL A   1      45.441  27.499  27.856  1.00  0.00    -0.014 A 
ATOM     74  C   UNL A   1      44.833  27.831  26.620  1.00  0.00     0.010 A 
ATOM     75  C   UNL A   1      46.631  26.750  27.834  1.00  0.00     0.010 A 
ATOM     76  C   UNL A   1      45.523  27.653  25.415  1.00  0.00     0.020 A 
ATOM     77  C   UNL A   1      47.310  26.542  26.619  1.00  0.00     0.020 A 
ATOM     78  C   UNL A   1      46.795  27.086  25.437  1.00  0.00     0.054 A 
BRANCH  78  79
ATOM     79  S   UNL A   1      47.838  27.264  23.952  1.00  0.00     0.124 S 
ATOM     80  O   UNL A   1      48.018  25.879  23.528  1.00  0.00    -0.237 OA
ATOM     81  O   UNL A   1      46.999  28.088  23.073  1.00  0.00    -0.237 OA
ATOM     82  O   UNL A   1      49.038  27.921  24.455  1.00  0.00    -0.744 OA
ENDBRANCH  78  79
ENDBRANCH  50  73
BRANCH  62  83
ATOM     83  C   UNL A   1      43.645  34.417  29.452  1.00  0.00    -0.014 A 
ATOM     84  C   UNL A   1      44.156  35.318  30.393  1.00  0.00     0.010 A 
ATOM     85  C   UNL A   1      43.191  34.958  28.224  1.00  0.00     0.010 A 
ATOM     86  C   UNL A   1      44.308  36.675  30.080  1.00  0.00     0.020 A 
ATOM     87  C   UNL A   1      43.308  36.310  27.912  1.00  0.00     0.020 A 
ATOM     88  C   UNL A   1      43.901  37.156  28.834  1.00  0.00     0.054 A 
BRANCH  88  89
ATOM     89  S   UNL A   1      44.123  38.905  28.442  1.00  0.00     0.124 S 
ATOM     90  O   UNL A   1      45.489  39.158  28.890  1.00  0.00    -0.237 OA
ATOM     91  O   UNL A   1      43.924  38.913  26.994  1.00  0.00    -0.237 OA
ATOM     92  O   UNL A   1      43.083  39.574  29.218  1.00  0.00    -0.744 OA
ENDBRANCH  88  89
ENDBRANCH  62  83
ENDBRANCH  36  37
ENDBRANCH  28  31
ENDBRANCH  26  27
ENDBRANCH  25  26
ENDBRANCH   1  25
TORSDOF 18
ENDMDL
MODEL 3
REMARK VINA RESULT:     -11.9      2.284      3.107
REMARK SMILES Cc1ccccc1CCNS(=O)(=O)c1ccc(C(=O)NCCCNC(=O)c2ccc(-c3c4nc(c(-c5ccc(S(=O)(=O)[O-])cc5)c5ccc([nH]5)c(-c5ccc(S(=O)(=O)[O-])cc5)c5nc(c(-c6ccc(S(=O)(=O)[O-])cc6)c6ccc3[nH]6)C=C5)C=C4)cc2)o1
REMARK SMILES IDX 21 1 20 2 18 3 19 4 17 6 14 7 15 8 87 9 16 10 11 11 12 12
REMARK SMILES IDX 13 13 10 14 9 16 8 17 7 18 1 19 2 20 3 21 4 22 6 23 5 24
REMARK SMILES IDX 22 25 23 26 24 27 25 28 26 30 27 31 28 32 86 33 29 34 85 35
REMARK SMILES IDX 30 36 31 37 32 38 79 39 33 40 84 41 78 42 80 43 34 44 83 45
REMARK SMILES IDX 77 46 76 47 35 49 65 50 46 51 64 52 47 53 50 54 63 55 81 56
REMARK SMILES IDX 48 57 49 58 62 60 82 61 51 62 36 63 37 64 45 65 38 66 44 67
REMARK SMILES IDX 39 68 40 69 41 70 42 71 43 72 66 73 67 74 75 75 68 76 74 77
REMARK SMILES IDX 69 78 70 79 71 80 72 81 73 82 52 83 53 84 61 85 54 86 60 87
REMARK SMILES IDX 55 88 56 89 57 90 58 91 59 92
REMARK H PARENT 20 5 10 15 24 29 80 48 50 59
REMARK Flexibility Score: inf
ROOT
ATOM      1  C   UNL A   1      35.386  21.632  26.097  1.00  0.00     0.118 C 
ENDROOT
BRANCH   1   2
ATOM      2  N   UNL A   1      34.823  20.417  25.523  1.00  0.00    -0.349 N 
ATOM      3  C   UNL A   1      33.704  20.236  24.744  1.00  0.00     0.287 C 
ATOM      4  O   UNL A   1      33.509  19.097  24.311  1.00  0.00    -0.266 OA
ATOM      5  H   UNL A   1      35.324  19.594  25.726  1.00  0.00     0.163 HD
BRANCH   3   6
ATOM      6  C   UNL A   1      32.808  21.343  24.443  1.00  0.00     0.193 A 
ATOM      7  C   UNL A   1      31.520  23.067  25.070  1.00  0.00     0.234 A 
ATOM      8  C   UNL A   1      31.456  22.978  23.689  1.00  0.00     0.065 A 
ATOM      9  O   UNL A   1      32.363  22.076  25.515  1.00  0.00    -0.438 OA
ATOM     10  C   UNL A   1      32.276  21.898  23.296  1.00  0.00     0.058 A 
BRANCH   7  11
ATOM     11  S   UNL A   1      30.748  24.210  26.194  1.00  0.00     0.273 S 
ATOM     12  O   UNL A   1      30.255  23.431  27.311  1.00  0.00    -0.204 OA
ATOM     13  O   UNL A   1      29.860  25.013  25.384  1.00  0.00    -0.204 OA
BRANCH  11  14
ATOM     14  N   UNL A   1      31.931  25.261  26.775  1.00  0.00    -0.208 NA
ATOM     15  H   UNL A   1      31.592  26.213  26.634  1.00  0.00     0.141 HD
BRANCH  14  16
ATOM     16  C   UNL A   1      33.284  25.176  26.166  1.00  0.00     0.104 C 
BRANCH  16  17
ATOM     17  C   UNL A   1      33.602  26.479  25.405  1.00  0.00     0.052 C 
BRANCH  17  18
ATOM     18  C   UNL A   1      32.975  26.525  24.021  1.00  0.00    -0.044 A 
ATOM     19  C   UNL A   1      31.109  28.189  24.650  1.00  0.00     0.044 C 
ATOM     20  C   UNL A   1      31.802  27.238  23.710  1.00  0.00    -0.048 A 
ATOM     21  C   UNL A   1      31.244  27.104  22.422  1.00  0.00     0.004 A 
ATOM     22  C   UNL A   1      31.827  26.279  21.461  1.00  0.00     0.000 A 
ATOM     23  C   UNL A   1      33.583  25.748  23.011  1.00  0.00     0.004 A 
ATOM     24  C   UNL A   1      33.004  25.607  21.752  1.00  0.00     0.000 A 
ENDBRANCH  17  18
ENDBRANCH  16  17
ENDBRANCH  14  16
ENDBRANCH  11  14
ENDBRANCH   7  11
ENDBRANCH   3   6
ENDBRANCH   1   2
BRANCH   1  25
ATOM     25  C   UNL A   1      35.917  22.567  25.016  1.00  0.00     0.042 C 
BRANCH  25  26
ATOM     26  C   UNL A   1      37.428  22.569  24.945  1.00  0.00     0.118 C 
BRANCH  26  27
ATOM     27  N   UNL A   1      38.087  22.096  26.156  1.00  0.00    -0.352 N 
ATOM     28  C   UNL A   1      39.337  22.569  26.551  1.00  0.00     0.251 C 
ATOM     29  H   UNL A   1      37.635  21.421  26.711  1.00  0.00     0.163 HD
ATOM     30  O   UNL A   1      40.293  21.855  26.816  1.00  0.00    -0.269 OA
BRANCH  28  31
ATOM     31  C   UNL A   1      39.396  24.032  26.751  1.00  0.00     0.039 A 
ATOM     32  C   UNL A   1      40.038  24.819  25.790  1.00  0.00     0.014 A 
ATOM     33  C   UNL A   1      39.145  24.510  28.030  1.00  0.00     0.014 A 
ATOM     34  C   UNL A   1      40.629  26.011  26.184  1.00  0.00     0.010 A 
ATOM     35  C   UNL A   1      39.882  25.572  28.463  1.00  0.00     0.010 A 
ATOM     36  C   UNL A   1      40.636  26.303  27.539  1.00  0.00    -0.014 A 
BRANCH  36  37
ATOM     37  C   UNL A   1      41.254  27.453  28.152  1.00  0.00     0.031 A 
ATOM     38  C   UNL A   1      40.343  28.571  28.448  1.00  0.00     0.074 A 
ATOM     39  C   UNL A   1      42.459  27.253  28.723  1.00  0.00     0.049 A 
ATOM     40  N   UNL A   1      40.716  29.701  28.914  1.00  0.00    -0.248 NA
ATOM     41  C   UNL A   1      38.894  28.501  28.220  1.00  0.00     0.031 C 
ATOM     42  C   UNL A   1      43.092  27.964  29.825  1.00  0.00     0.029 A 
ATOM     43  N   UNL A   1      43.470  26.431  28.232  1.00  0.00    -0.354 N 
ATOM     44  C   UNL A   1      39.584  30.332  29.386  1.00  0.00     0.074 A 
ATOM     45  C   UNL A   1      38.472  29.617  28.818  1.00  0.00     0.031 C 
ATOM     46  C   UNL A   1      44.422  27.760  29.765  1.00  0.00     0.029 A 
ATOM     47  C   UNL A   1      44.693  27.065  28.513  1.00  0.00     0.049 A 
ATOM     48  H   UNL A   1      43.350  25.569  27.774  1.00  0.00     0.167 HD
ATOM     49  C   UNL A   1      39.744  31.283  30.343  1.00  0.00     0.031 A 
ATOM     50  C   UNL A   1      45.393  27.606  27.463  1.00  0.00     0.031 A 
ATOM     51  C   UNL A   1      41.169  31.525  30.571  1.00  0.00     0.049 A 
ATOM     52  C   UNL A   1      45.386  29.129  27.463  1.00  0.00     0.074 A 
ATOM     53  C   UNL A   1      42.070  31.102  31.533  1.00  0.00     0.029 A 
ATOM     54  N   UNL A   1      41.925  31.965  29.501  1.00  0.00    -0.354 N 
ATOM     55  N   UNL A   1      44.629  29.863  28.234  1.00  0.00    -0.248 NA
ATOM     56  C   UNL A   1      46.209  29.946  26.574  1.00  0.00     0.031 C 
ATOM     57  C   UNL A   1      43.384  31.257  30.994  1.00  0.00     0.029 A 
ATOM     58  C   UNL A   1      43.274  31.798  29.725  1.00  0.00     0.049 A 
ATOM     59  H   UNL A   1      41.544  32.352  28.679  1.00  0.00     0.167 HD
ATOM     60  C   UNL A   1      44.840  31.191  27.985  1.00  0.00     0.074 A 
ATOM     61  C   UNL A   1      45.818  31.191  26.908  1.00  0.00     0.031 C 
ATOM     62  C   UNL A   1      44.198  32.185  28.670  1.00  0.00     0.031 A 
BRANCH  49  63
ATOM     63  C   UNL A   1      38.661  31.839  31.230  1.00  0.00    -0.014 A 
ATOM     64  C   UNL A   1      38.864  33.117  31.791  1.00  0.00     0.010 A 
ATOM     65  C   UNL A   1      37.467  31.184  31.589  1.00  0.00     0.010 A 
ATOM     66  C   UNL A   1      37.961  33.691  32.689  1.00  0.00     0.020 A 
ATOM     67  C   UNL A   1      36.552  31.746  32.496  1.00  0.00     0.020 A 
ATOM     68  C   UNL A   1      36.810  32.998  33.044  1.00  0.00     0.054 A 
BRANCH  68  69
ATOM     69  S   UNL A   1      35.664  33.769  34.215  1.00  0.00     0.124 S 
ATOM     70  O   UNL A   1      35.810  35.189  33.904  1.00  0.00    -0.237 OA
ATOM     71  O   UNL A   1      34.386  33.170  33.840  1.00  0.00    -0.237 OA
ATOM     72  O   UNL A   1      36.179  33.366  35.521  1.00  0.00    -0.744 OA
ENDBRANCH  68  69
ENDBRANCH  49  63
BRANCH  50  73
ATOM     73  C   UNL A   1      45.334  26.716  26.248  1.00  0.00    -0.014 A 
ATOM     74  C   UNL A   1      46.293  25.675  26.182  1.00  0.00     0.010 A 
ATOM     75  C   UNL A   1      44.124  26.554  25.549  1.00  0.00     0.010 A 
ATOM     76  C   UNL A   1      45.950  24.421  25.662  1.00  0.00     0.020 A 
ATOM     77  C   UNL A   1      43.792  25.302  24.998  1.00  0.00     0.020 A 
ATOM     78  C   UNL A   1      44.669  24.223  25.152  1.00  0.00     0.054 A 
BRANCH  78  79
ATOM     79  S   UNL A   1      44.105  22.509  24.894  1.00  0.00     0.124 S 
ATOM     80  O   UNL A   1      42.652  22.648  24.929  1.00  0.00    -0.237 OA
ATOM     81  O   UNL A   1      44.675  22.182  23.582  1.00  0.00    -0.237 OA
ATOM     82  O   UNL A   1      44.687  21.786  26.019  1.00  0.00    -0.744 OA
ENDBRANCH  78  79
ENDBRANCH  50  73
BRANCH  62  83
ATOM     83  C   UNL A   1      44.360  33.654  28.378  1.00  0.00    -0.014 A 
ATOM     84  C   UNL A   1      44.935  34.550  29.287  1.00  0.00     0.010 A 
ATOM     85  C   UNL A   1      43.837  34.202  27.181  1.00  0.00     0.010 A 
ATOM     86  C   UNL A   1      45.079  35.906  28.967  1.00  0.00     0.020 A 
ATOM     87  C   UNL A   1      43.947  35.553  26.863  1.00  0.00     0.020 A 
ATOM     88  C   UNL A   1      44.600  36.393  27.749  1.00  0.00     0.054 A 
BRANCH  88  89
ATOM     89  S   UNL A   1      44.813  38.140  27.346  1.00  0.00     0.124 S 
ATOM     90  O   UNL A   1      45.934  38.115  26.411  1.00  0.00    -0.237 OA
ATOM     91  O   UNL A   1      43.514  38.471  26.763  1.00  0.00    -0.237 OA
ATOM     92  O   UNL A   1      45.095  38.766  28.635  1.00  0.00    -0.744 OA
ENDBRANCH  88  89
ENDBRANCH  62  83
ENDBRANCH  36  37
ENDBRANCH  28  31
ENDBRANCH  26  27
ENDBRANCH  25  26
ENDBRANCH   1  25
TORSDOF 18
ENDMDL
