MODEL 1
REMARK VINA RESULT:     -13.7      0.000      0.000
REMARK SMILES Cc1ccc2nc(C(=O)N3CCC4(CC3)[C@H](C(=O)NCCCNC(=O)c3ccc(-c5c6nc(c(-c7ccc(S(=O)(=O)[O-])cc7)c7ccc([nH]7)c(-c7ccc(S(=O)(=O)[O-])cc7)c7nc(c(-c8ccc(S(=O)(=O)[O-])cc8)c8ccc5[nH]8)C=C7)C=C6)cc3)CC(=O)N4C)cn2c1
REMARK SMILES IDX 22 1 21 2 20 3 19 4 17 5 18 6 16 8 8 9 9 10 10 11 11 12
REMARK SMILES IDX 15 13 12 14 14 15 13 16 89 17 86 18 87 19 90 20 88 21 7 22
REMARK SMILES IDX 1 23 2 24 3 25 93 26 4 27 92 28 5 29 91 30 6 31 23 32 24 33
REMARK SMILES IDX 25 35 26 36 27 37 85 38 28 39 84 40 29 41 30 42 31 43 78 44
REMARK SMILES IDX 32 45 83 46 77 47 79 48 33 49 82 50 76 51 75 52 34 54 64 55
REMARK SMILES IDX 45 56 63 57 46 58 49 59 62 60 80 61 47 62 48 63 61 65 81 66
REMARK SMILES IDX 50 67 35 68 36 69 44 70 37 71 43 72 38 73 39 74 40 75 41 76
REMARK SMILES IDX 42 77 65 78 66 79 74 80 67 81 73 82 68 83 69 84 70 85 71 86
REMARK SMILES IDX 72 87 51 88 52 89 60 90 53 91 59 92 54 93 55 94 56 95 57 96
REMARK SMILES IDX 58 97
REMARK H PARENT 19 7 23 34 79 53 49 64
REMARK Flexibility Score: inf
ROOT
ATOM      1  C   UNL A   1      35.451  29.685  27.343  1.00  0.00     0.118 C 
ENDROOT
BRANCH   1   2
ATOM      2  C   UNL A   1      34.596  28.554  26.784  1.00  0.00     0.042 C 
BRANCH   2   3
ATOM      3  C   UNL A   1      33.986  28.839  25.400  1.00  0.00     0.117 C 
BRANCH   3   4
ATOM      4  N   UNL A   1      32.793  29.685  25.402  1.00  0.00    -0.356 N 
ATOM      5  C   UNL A   1      31.607  29.661  24.741  1.00  0.00     0.226 C 
ATOM      6  O   UNL A   1      30.790  30.532  25.065  1.00  0.00    -0.275 OA
ATOM      7  H   UNL A   1      32.867  30.444  26.024  1.00  0.00     0.163 HD
BRANCH   5   8
ATOM      8  C   UNL A   1      31.216  28.655  23.652  1.00  0.00     0.113 C 
ATOM      9  C   UNL A   1      31.545  23.765  26.243  1.00  0.00     0.274 C 
ATOM     10  O   UNL A   1      31.076  23.436  27.333  1.00  0.00    -0.267 OA
ATOM     11  N   UNL A   1      30.935  24.714  25.436  1.00  0.00    -0.337 N 
ATOM     12  C   UNL A   1      30.246  25.778  26.117  1.00  0.00     0.122 C 
ATOM     13  C   UNL A   1      30.918  24.724  23.971  1.00  0.00     0.122 C 
ATOM     14  C   UNL A   1      30.799  27.077  25.587  1.00  0.00     0.051 C 
ATOM     15  C   UNL A   1      31.230  26.102  23.353  1.00  0.00     0.051 C 
ATOM     16  C   UNL A   1      30.560  27.306  24.085  1.00  0.00     0.058 C 
ATOM     17  N   UNL A   1      29.171  27.501  23.623  1.00  0.00    -0.339 N 
ATOM     18  C   UNL A   1      30.306  29.299  22.616  1.00  0.00     0.116 C 
ATOM     19  C   UNL A   1      29.001  28.603  22.794  1.00  0.00     0.223 C 
ATOM     20  C   UNL A   1      28.028  26.639  23.867  1.00  0.00     0.147 C 
ATOM     21  O   UNL A   1      27.955  28.975  22.275  1.00  0.00    -0.275 OA
BRANCH   9  22
ATOM     22  C   UNL A   1      32.881  23.324  25.848  1.00  0.00     0.147 A 
ATOM     23  C   UNL A   1      37.679  19.969  24.848  1.00  0.00     0.046 C 
ATOM     24  C   UNL A   1      36.726  21.079  25.149  1.00  0.00    -0.034 A 
ATOM     25  C   UNL A   1      37.247  22.413  25.446  1.00  0.00     0.009 A 
ATOM     26  C   UNL A   1      35.390  20.902  25.152  1.00  0.00     0.096 A 
ATOM     27  C   UNL A   1      36.432  23.454  25.706  1.00  0.00     0.048 A 
ATOM     28  N   UNL A   1      34.561  21.982  25.427  1.00  0.00    -0.306 N 
ATOM     29  C   UNL A   1      35.024  23.262  25.701  1.00  0.00     0.137 A 
ATOM     30  C   UNL A   1      33.201  22.021  25.515  1.00  0.00     0.127 A 
ATOM     31  N   UNL A   1      34.032  24.091  25.941  1.00  0.00    -0.223 NA
ENDBRANCH   9  22
ENDBRANCH   5   8
ENDBRANCH   3   4
ENDBRANCH   2   3
ENDBRANCH   1   2
BRANCH   1  32
ATOM     32  N   UNL A   1      35.367  29.783  28.780  1.00  0.00    -0.352 N 
ATOM     33  C   UNL A   1      36.294  29.713  29.781  1.00  0.00     0.251 C 
ATOM     34  H   UNL A   1      34.450  29.933  29.107  1.00  0.00     0.163 HD
ATOM     35  O   UNL A   1      35.855  29.869  30.925  1.00  0.00    -0.269 OA
BRANCH  33  36
ATOM     36  C   UNL A   1      37.740  29.396  29.597  1.00  0.00     0.039 A 
ATOM     37  C   UNL A   1      38.543  29.751  28.509  1.00  0.00     0.014 A 
ATOM     38  C   UNL A   1      38.312  28.630  30.627  1.00  0.00     0.014 A 
ATOM     39  C   UNL A   1      39.838  29.247  28.391  1.00  0.00     0.010 A 
ATOM     40  C   UNL A   1      39.609  28.151  30.531  1.00  0.00     0.010 A 
ATOM     41  C   UNL A   1      40.350  28.411  29.383  1.00  0.00    -0.014 A 
BRANCH  41  42
ATOM     42  C   UNL A   1      41.718  27.909  29.263  1.00  0.00     0.031 A 
ATOM     43  C   UNL A   1      41.834  26.528  28.706  1.00  0.00     0.074 A 
ATOM     44  C   UNL A   1      42.793  28.698  29.473  1.00  0.00     0.049 A 
ATOM     45  N   UNL A   1      42.430  25.508  29.231  1.00  0.00    -0.248 NA
ATOM     46  C   UNL A   1      41.106  26.213  27.464  1.00  0.00     0.031 C 
ATOM     47  C   UNL A   1      42.812  30.135  29.764  1.00  0.00     0.029 A 
ATOM     48  N   UNL A   1      44.117  28.408  29.331  1.00  0.00    -0.354 N 
ATOM     49  C   UNL A   1      42.304  24.464  28.316  1.00  0.00     0.074 A 
ATOM     50  C   UNL A   1      41.372  24.915  27.315  1.00  0.00     0.031 C 
ATOM     51  C   UNL A   1      44.044  30.628  29.503  1.00  0.00     0.029 A 
ATOM     52  C   UNL A   1      44.930  29.527  29.165  1.00  0.00     0.049 A 
ATOM     53  H   UNL A   1      44.468  27.489  29.346  1.00  0.00     0.167 HD
ATOM     54  C   UNL A   1      43.107  23.364  28.355  1.00  0.00     0.031 A 
ATOM     55  C   UNL A   1      46.208  29.550  28.698  1.00  0.00     0.031 A 
ATOM     56  C   UNL A   1      43.786  23.247  29.616  1.00  0.00     0.049 A 
ATOM     57  C   UNL A   1      46.755  28.182  28.876  1.00  0.00     0.074 A 
ATOM     58  C   UNL A   1      43.363  23.079  30.918  1.00  0.00     0.029 A 
ATOM     59  N   UNL A   1      45.080  23.704  29.689  1.00  0.00    -0.354 N 
ATOM     60  N   UNL A   1      46.964  27.643  30.045  1.00  0.00    -0.248 NA
ATOM     61  C   UNL A   1      46.618  27.249  27.769  1.00  0.00     0.031 C 
ATOM     62  C   UNL A   1      44.220  23.916  31.686  1.00  0.00     0.029 A 
ATOM     63  C   UNL A   1      45.174  24.467  30.826  1.00  0.00     0.049 A 
ATOM     64  H   UNL A   1      45.804  23.520  29.046  1.00  0.00     0.167 HD
ATOM     65  C   UNL A   1      46.531  26.333  29.904  1.00  0.00     0.074 A 
ATOM     66  C   UNL A   1      46.410  26.124  28.460  1.00  0.00     0.031 C 
ATOM     67  C   UNL A   1      46.028  25.629  30.962  1.00  0.00     0.031 A 
BRANCH  54  68
ATOM     68  C   UNL A   1      43.509  22.555  27.149  1.00  0.00    -0.014 A 
ATOM     69  C   UNL A   1      44.757  22.699  26.511  1.00  0.00     0.010 A 
ATOM     70  C   UNL A   1      42.726  21.443  26.776  1.00  0.00     0.010 A 
ATOM     71  C   UNL A   1      45.202  21.795  25.544  1.00  0.00     0.020 A 
ATOM     72  C   UNL A   1      43.180  20.505  25.836  1.00  0.00     0.020 A 
ATOM     73  C   UNL A   1      44.415  20.695  25.221  1.00  0.00     0.054 A 
BRANCH  73  74
ATOM     74  S   UNL A   1      45.069  19.495  24.035  1.00  0.00     0.124 S 
ATOM     75  O   UNL A   1      44.523  19.992  22.774  1.00  0.00    -0.237 OA
ATOM     76  O   UNL A   1      46.512  19.645  24.200  1.00  0.00    -0.237 OA
ATOM     77  O   UNL A   1      44.520  18.222  24.494  1.00  0.00    -0.744 OA
ENDBRANCH  73  74
ENDBRANCH  54  68
BRANCH  55  78
ATOM     78  C   UNL A   1      46.782  30.505  27.706  1.00  0.00    -0.014 A 
ATOM     79  C   UNL A   1      48.132  30.900  27.808  1.00  0.00     0.010 A 
ATOM     80  C   UNL A   1      45.942  31.273  26.873  1.00  0.00     0.010 A 
ATOM     81  C   UNL A   1      48.598  32.072  27.203  1.00  0.00     0.020 A 
ATOM     82  C   UNL A   1      46.403  32.455  26.263  1.00  0.00     0.020 A 
ATOM     83  C   UNL A   1      47.718  32.870  26.475  1.00  0.00     0.054 A 
BRANCH  83  84
ATOM     84  S   UNL A   1      48.300  34.503  25.929  1.00  0.00     0.124 S 
ATOM     85  O   UNL A   1      48.373  35.234  27.191  1.00  0.00    -0.237 OA
ATOM     86  O   UNL A   1      49.588  34.192  25.312  1.00  0.00    -0.237 OA
ATOM     87  O   UNL A   1      47.262  34.951  25.005  1.00  0.00    -0.744 OA
ENDBRANCH  83  84
ENDBRANCH  55  78
BRANCH  67  88
ATOM     88  C   UNL A   1      46.121  26.212  32.358  1.00  0.00    -0.014 A 
ATOM     89  C   UNL A   1      47.064  25.639  33.231  1.00  0.00     0.010 A 
ATOM     90  C   UNL A   1      45.178  27.112  32.896  1.00  0.00     0.010 A 
ATOM     91  C   UNL A   1      47.038  25.908  34.600  1.00  0.00     0.020 A 
ATOM     92  C   UNL A   1      45.165  27.411  34.269  1.00  0.00     0.020 A 
ATOM     93  C   UNL A   1      46.080  26.782  35.116  1.00  0.00     0.054 A 
BRANCH  93  94
ATOM     94  S   UNL A   1      46.046  27.045  36.910  1.00  0.00     0.124 S 
ATOM     95  O   UNL A   1      45.559  25.758  37.404  1.00  0.00    -0.237 OA
ATOM     96  O   UNL A   1      47.444  27.341  37.219  1.00  0.00    -0.237 OA
ATOM     97  O   UNL A   1      45.125  28.164  37.089  1.00  0.00    -0.744 OA
ENDBRANCH  93  94
ENDBRANCH  67  88
ENDBRANCH  41  42
ENDBRANCH  33  36
ENDBRANCH   1  32
TORSDOF 14
ENDMDL
MODEL 2
REMARK VINA RESULT:     -13.4      3.342      9.063
REMARK SMILES Cc1ccc2nc(C(=O)N3CCC4(CC3)[C@H](C(=O)NCCCNC(=O)c3ccc(-c5c6nc(c(-c7ccc(S(=O)(=O)[O-])cc7)c7ccc([nH]7)c(-c7ccc(S(=O)(=O)[O-])cc7)c7nc(c(-c8ccc(S(=O)(=O)[O-])cc8)c8ccc5[nH]8)C=C7)C=C6)cc3)CC(=O)N4C)cn2c1
REMARK SMILES IDX 22 1 21 2 20 3 19 4 17 5 18 6 16 8 8 9 9 10 10 11 11 12
REMARK SMILES IDX 15 13 12 14 14 15 13 16 89 17 86 18 87 19 90 20 88 21 7 22
REMARK SMILES IDX 1 23 2 24 3 25 93 26 4 27 92 28 5 29 91 30 6 31 23 32 24 33
REMARK SMILES IDX 25 35 26 36 27 37 85 38 28 39 84 40 29 41 30 42 31 43 78 44
REMARK SMILES IDX 32 45 83 46 77 47 79 48 33 49 82 50 76 51 75 52 34 54 64 55
REMARK SMILES IDX 45 56 63 57 46 58 49 59 62 60 80 61 47 62 48 63 61 65 81 66
REMARK SMILES IDX 50 67 35 68 36 69 44 70 37 71 43 72 38 73 39 74 40 75 41 76
REMARK SMILES IDX 42 77 65 78 66 79 74 80 67 81 73 82 68 83 69 84 70 85 71 86
REMARK SMILES IDX 72 87 51 88 52 89 60 90 53 91 59 92 54 93 55 94 56 95 57 96
REMARK SMILES IDX 58 97
REMARK H PARENT 19 7 23 34 79 53 49 64
REMARK Flexibility Score: inf
ROOT
ATOM      1  C   UNL A   1      40.898  21.708  26.188  1.00  0.00     0.118 C 
ENDROOT
BRANCH   1   2
ATOM      2  C   UNL A   1      39.706  22.647  26.329  1.00  0.00     0.042 C 
BRANCH   2   3
ATOM      3  C   UNL A   1      38.347  22.006  25.998  1.00  0.00     0.117 C 
BRANCH   3   4
ATOM      4  N   UNL A   1      37.840  22.266  24.651  1.00  0.00    -0.356 N 
ATOM      5  C   UNL A   1      36.603  22.339  24.095  1.00  0.00     0.226 C 
ATOM      6  O   UNL A   1      36.565  22.659  22.900  1.00  0.00    -0.275 OA
ATOM      7  H   UNL A   1      38.561  22.425  23.999  1.00  0.00     0.163 HD
BRANCH   5   8
ATOM      8  C   UNL A   1      35.284  22.065  24.825  1.00  0.00     0.113 C 
ATOM      9  C   UNL A   1      31.827  25.836  22.688  1.00  0.00     0.274 C 
ATOM     10  O   UNL A   1      31.625  26.115  21.506  1.00  0.00    -0.267 OA
ATOM     11  N   UNL A   1      32.191  24.559  23.090  1.00  0.00    -0.337 N 
ATOM     12  C   UNL A   1      33.006  23.812  22.169  1.00  0.00     0.122 C 
ATOM     13  C   UNL A   1      31.816  23.907  24.347  1.00  0.00     0.122 C 
ATOM     14  C   UNL A   1      34.232  23.363  22.923  1.00  0.00     0.051 C 
ATOM     15  C   UNL A   1      32.988  23.198  25.057  1.00  0.00     0.051 C 
ATOM     16  C   UNL A   1      33.946  22.419  24.102  1.00  0.00     0.058 C 
ATOM     17  N   UNL A   1      33.416  21.072  23.804  1.00  0.00    -0.339 N 
ATOM     18  C   UNL A   1      35.198  20.612  25.270  1.00  0.00     0.116 C 
ATOM     19  C   UNL A   1      34.092  20.044  24.449  1.00  0.00     0.223 C 
ATOM     20  C   UNL A   1      32.250  20.737  23.006  1.00  0.00     0.147 C 
ATOM     21  O   UNL A   1      33.845  18.846  24.375  1.00  0.00    -0.275 OA
BRANCH   9  22
ATOM     22  C   UNL A   1      31.899  26.891  23.697  1.00  0.00     0.147 A 
ATOM     23  C   UNL A   1      31.315  32.082  26.522  1.00  0.00     0.046 C 
ATOM     24  C   UNL A   1      31.775  30.756  26.011  1.00  0.00    -0.034 A 
ATOM     25  C   UNL A   1      33.034  30.194  26.500  1.00  0.00     0.009 A 
ATOM     26  C   UNL A   1      31.066  30.045  25.112  1.00  0.00     0.096 A 
ATOM     27  C   UNL A   1      33.484  28.993  26.086  1.00  0.00     0.048 A 
ATOM     28  N   UNL A   1      31.545  28.812  24.690  1.00  0.00    -0.306 N 
ATOM     29  C   UNL A   1      32.729  28.245  25.144  1.00  0.00     0.137 A 
ATOM     30  C   UNL A   1      31.015  27.950  23.775  1.00  0.00     0.127 A 
ATOM     31  N   UNL A   1      32.956  27.082  24.574  1.00  0.00    -0.223 NA
ENDBRANCH   9  22
ENDBRANCH   5   8
ENDBRANCH   3   4
ENDBRANCH   2   3
ENDBRANCH   1   2
BRANCH   1  32
ATOM     32  N   UNL A   1      41.936  22.254  25.347  1.00  0.00    -0.352 N 
ATOM     33  C   UNL A   1      42.563  23.468  25.298  1.00  0.00     0.251 C 
ATOM     34  H   UNL A   1      42.260  21.621  24.667  1.00  0.00     0.163 HD
ATOM     35  O   UNL A   1      43.443  23.577  24.439  1.00  0.00    -0.269 OA
BRANCH  33  36
ATOM     36  C   UNL A   1      42.215  24.652  26.134  1.00  0.00     0.039 A 
ATOM     37  C   UNL A   1      41.486  25.777  25.733  1.00  0.00     0.014 A 
ATOM     38  C   UNL A   1      42.716  24.617  27.447  1.00  0.00     0.014 A 
ATOM     39  C   UNL A   1      41.375  26.885  26.572  1.00  0.00     0.010 A 
ATOM     40  C   UNL A   1      42.582  25.703  28.298  1.00  0.00     0.010 A 
ATOM     41  C   UNL A   1      41.963  26.860  27.836  1.00  0.00    -0.014 A 
BRANCH  41  42
ATOM     42  C   UNL A   1      41.818  28.016  28.718  1.00  0.00     0.031 A 
ATOM     43  C   UNL A   1      42.922  29.018  28.628  1.00  0.00     0.074 A 
ATOM     44  C   UNL A   1      40.690  28.243  29.425  1.00  0.00     0.049 A 
ATOM     45  N   UNL A   1      43.661  29.473  29.586  1.00  0.00    -0.248 NA
ATOM     46  C   UNL A   1      43.327  29.492  27.293  1.00  0.00     0.031 C 
ATOM     47  C   UNL A   1      39.439  27.479  29.394  1.00  0.00     0.029 A 
ATOM     48  N   UNL A   1      40.371  29.299  30.224  1.00  0.00    -0.354 N 
ATOM     49  C   UNL A   1      44.513  30.415  29.013  1.00  0.00     0.074 A 
ATOM     50  C   UNL A   1      44.354  30.290  27.588  1.00  0.00     0.031 C 
ATOM     51  C   UNL A   1      38.440  28.233  29.904  1.00  0.00     0.029 A 
ATOM     52  C   UNL A   1      39.002  29.469  30.423  1.00  0.00     0.049 A 
ATOM     53  H   UNL A   1      41.048  29.889  30.627  1.00  0.00     0.167 HD
ATOM     54  C   UNL A   1      45.165  31.352  29.758  1.00  0.00     0.031 A 
ATOM     55  C   UNL A   1      38.374  30.580  30.895  1.00  0.00     0.031 A 
ATOM     56  C   UNL A   1      45.170  31.011  31.154  1.00  0.00     0.049 A 
ATOM     57  C   UNL A   1      39.394  31.373  31.626  1.00  0.00     0.074 A 
ATOM     58  C   UNL A   1      45.691  29.960  31.880  1.00  0.00     0.029 A 
ATOM     59  N   UNL A   1      44.226  31.603  31.959  1.00  0.00    -0.354 N 
ATOM     60  N   UNL A   1      39.961  30.964  32.727  1.00  0.00    -0.248 NA
ATOM     61  C   UNL A   1      40.123  32.389  30.883  1.00  0.00     0.031 C 
ATOM     62  C   UNL A   1      44.695  29.665  32.851  1.00  0.00     0.029 A 
ATOM     63  C   UNL A   1      43.673  30.610  32.727  1.00  0.00     0.049 A 
ATOM     64  H   UNL A   1      43.991  32.560  31.981  1.00  0.00     0.167 HD
ATOM     65  C   UNL A   1      41.295  31.314  32.579  1.00  0.00     0.074 A 
ATOM     66  C   UNL A   1      41.319  32.265  31.465  1.00  0.00     0.031 C 
ATOM     67  C   UNL A   1      42.293  30.591  33.169  1.00  0.00     0.031 A 
BRANCH  54  68
ATOM     68  C   UNL A   1      45.541  32.725  29.266  1.00  0.00    -0.014 A 
ATOM     69  C   UNL A   1      46.830  33.045  28.794  1.00  0.00     0.010 A 
ATOM     70  C   UNL A   1      44.523  33.674  29.033  1.00  0.00     0.010 A 
ATOM     71  C   UNL A   1      47.100  34.247  28.136  1.00  0.00     0.020 A 
ATOM     72  C   UNL A   1      44.774  34.866  28.337  1.00  0.00     0.020 A 
ATOM     73  C   UNL A   1      46.066  35.145  27.900  1.00  0.00     0.054 A 
BRANCH  73  74
ATOM     74  S   UNL A   1      46.437  36.647  26.959  1.00  0.00     0.124 S 
ATOM     75  O   UNL A   1      45.121  37.276  26.869  1.00  0.00    -0.237 OA
ATOM     76  O   UNL A   1      47.403  37.324  27.819  1.00  0.00    -0.237 OA
ATOM     77  O   UNL A   1      46.974  36.140  25.699  1.00  0.00    -0.744 OA
ENDBRANCH  73  74
ENDBRANCH  54  68
BRANCH  55  78
ATOM     78  C   UNL A   1      37.131  31.204  30.355  1.00  0.00    -0.014 A 
ATOM     79  C   UNL A   1      37.163  31.885  29.120  1.00  0.00     0.010 A 
ATOM     80  C   UNL A   1      36.011  31.418  31.185  1.00  0.00     0.010 A 
ATOM     81  C   UNL A   1      36.185  32.824  28.777  1.00  0.00     0.020 A 
ATOM     82  C   UNL A   1      35.023  32.363  30.848  1.00  0.00     0.020 A 
ATOM     83  C   UNL A   1      35.147  33.095  29.667  1.00  0.00     0.054 A 
BRANCH  83  84
ATOM     84  S   UNL A   1      34.052  34.497  29.298  1.00  0.00     0.124 S 
ATOM     85  O   UNL A   1      33.987  35.176  30.590  1.00  0.00    -0.237 OA
ATOM     86  O   UNL A   1      34.787  35.210  28.255  1.00  0.00    -0.237 OA
ATOM     87  O   UNL A   1      32.811  33.865  28.861  1.00  0.00    -0.744 OA
ENDBRANCH  83  84
ENDBRANCH  55  78
BRANCH  67  88
ATOM     88  C   UNL A   1      41.939  29.502  34.162  1.00  0.00    -0.014 A 
ATOM     89  C   UNL A   1      42.352  29.689  35.493  1.00  0.00     0.010 A 
ATOM     90  C   UNL A   1      41.443  28.235  33.791  1.00  0.00     0.010 A 
ATOM     91  C   UNL A   1      42.324  28.639  36.413  1.00  0.00     0.020 A 
ATOM     92  C   UNL A   1      41.383  27.181  34.719  1.00  0.00     0.020 A 
ATOM     93  C   UNL A   1      41.853  27.386  36.018  1.00  0.00     0.054 A 
BRANCH  93  94
ATOM     94  S   UNL A   1      41.901  26.038  37.231  1.00  0.00     0.124 S 
ATOM     95  O   UNL A   1      42.862  26.537  38.212  1.00  0.00    -0.237 OA
ATOM     96  O   UNL A   1      40.516  25.972  37.695  1.00  0.00    -0.237 OA
ATOM     97  O   UNL A   1      42.349  24.881  36.460  1.00  0.00    -0.744 OA
ENDBRANCH  93  94
ENDBRANCH  67  88
ENDBRANCH  41  42
ENDBRANCH  33  36
ENDBRANCH   1  32
TORSDOF 14
ENDMDL
MODEL 3
REMARK VINA RESULT:     -13.4      2.083      7.339
REMARK SMILES Cc1ccc2nc(C(=O)N3CCC4(CC3)[C@H](C(=O)NCCCNC(=O)c3ccc(-c5c6nc(c(-c7ccc(S(=O)(=O)[O-])cc7)c7ccc([nH]7)c(-c7ccc(S(=O)(=O)[O-])cc7)c7nc(c(-c8ccc(S(=O)(=O)[O-])cc8)c8ccc5[nH]8)C=C7)C=C6)cc3)CC(=O)N4C)cn2c1
REMARK SMILES IDX 22 1 21 2 20 3 19 4 17 5 18 6 16 8 8 9 9 10 10 11 11 12
REMARK SMILES IDX 15 13 12 14 14 15 13 16 89 17 86 18 87 19 90 20 88 21 7 22
REMARK SMILES IDX 1 23 2 24 3 25 93 26 4 27 92 28 5 29 91 30 6 31 23 32 24 33
REMARK SMILES IDX 25 35 26 36 27 37 85 38 28 39 84 40 29 41 30 42 31 43 78 44
REMARK SMILES IDX 32 45 83 46 77 47 79 48 33 49 82 50 76 51 75 52 34 54 64 55
REMARK SMILES IDX 45 56 63 57 46 58 49 59 62 60 80 61 47 62 48 63 61 65 81 66
REMARK SMILES IDX 50 67 35 68 36 69 44 70 37 71 43 72 38 73 39 74 40 75 41 76
REMARK SMILES IDX 42 77 65 78 66 79 74 80 67 81 73 82 68 83 69 84 70 85 71 86
REMARK SMILES IDX 72 87 51 88 52 89 60 90 53 91 59 92 54 93 55 94 56 95 57 96
REMARK SMILES IDX 58 97
REMARK H PARENT 19 7 23 34 79 53 49 64
REMARK Flexibility Score: inf
ROOT
ATOM      1  C   UNL A   1      35.660  31.678  28.843  1.00  0.00     0.118 C 
ENDROOT
BRANCH   1   2
ATOM      2  C   UNL A   1      34.406  31.555  27.986  1.00  0.00     0.042 C 
BRANCH   2   3
ATOM      3  C   UNL A   1      34.197  30.167  27.356  1.00  0.00     0.117 C 
BRANCH   3   4
ATOM      4  N   UNL A   1      32.948  29.495  27.717  1.00  0.00    -0.356 N 
ATOM      5  C   UNL A   1      32.089  28.668  27.067  1.00  0.00     0.226 C 
ATOM      6  O   UNL A   1      31.146  28.231  27.740  1.00  0.00    -0.275 OA
ATOM      7  H   UNL A   1      32.668  29.686  28.641  1.00  0.00     0.163 HD
BRANCH   5   8
ATOM      8  C   UNL A   1      32.203  28.243  25.598  1.00  0.00     0.113 C 
ATOM      9  C   UNL A   1      31.184  22.797  25.753  1.00  0.00     0.274 C 
ATOM     10  O   UNL A   1      30.264  22.199  26.312  1.00  0.00    -0.267 OA
ATOM     11  N   UNL A   1      31.031  24.083  25.259  1.00  0.00    -0.337 N 
ATOM     12  C   UNL A   1      30.141  24.944  25.992  1.00  0.00     0.122 C 
ATOM     13  C   UNL A   1      31.679  24.635  24.065  1.00  0.00     0.122 C 
ATOM     14  C   UNL A   1      30.912  26.194  26.333  1.00  0.00     0.051 C 
ATOM     15  C   UNL A   1      32.277  26.042  24.274  1.00  0.00     0.051 C 
ATOM     16  C   UNL A   1      31.383  27.006  25.115  1.00  0.00     0.058 C 
ATOM     17  N   UNL A   1      30.359  27.653  24.270  1.00  0.00    -0.339 N 
ATOM     18  C   UNL A   1      31.878  29.403  24.669  1.00  0.00     0.116 C 
ATOM     19  C   UNL A   1      30.614  28.991  23.998  1.00  0.00     0.223 C 
ATOM     20  C   UNL A   1      29.204  27.029  23.647  1.00  0.00     0.147 C 
ATOM     21  O   UNL A   1      29.926  29.744  23.318  1.00  0.00    -0.275 OA
BRANCH   9  22
ATOM     22  C   UNL A   1      32.541  22.254  25.775  1.00  0.00     0.147 A 
ATOM     23  C   UNL A   1      38.461  21.785  25.696  1.00  0.00     0.046 C 
ATOM     24  C   UNL A   1      36.989  21.568  25.556  1.00  0.00    -0.034 A 
ATOM     25  C   UNL A   1      36.500  20.334  24.941  1.00  0.00     0.009 A 
ATOM     26  C   UNL A   1      36.084  22.469  25.985  1.00  0.00     0.096 A 
ATOM     27  C   UNL A   1      35.183  20.081  24.807  1.00  0.00     0.048 A 
ATOM     28  N   UNL A   1      34.731  22.198  25.836  1.00  0.00    -0.306 N 
ATOM     29  C   UNL A   1      34.233  21.032  25.268  1.00  0.00     0.137 A 
ATOM     30  C   UNL A   1      33.657  22.972  26.163  1.00  0.00     0.127 A 
ATOM     31  N   UNL A   1      32.919  21.035  25.235  1.00  0.00    -0.223 NA
ENDBRANCH   9  22
ENDBRANCH   5   8
ENDBRANCH   3   4
ENDBRANCH   2   3
ENDBRANCH   1   2
BRANCH   1  32
ATOM     32  N   UNL A   1      35.359  31.815  30.247  1.00  0.00    -0.352 N 
ATOM     33  C   UNL A   1      36.037  31.491  31.389  1.00  0.00     0.251 C 
ATOM     34  H   UNL A   1      34.482  32.228  30.419  1.00  0.00     0.163 HD
ATOM     35  O   UNL A   1      35.469  31.782  32.446  1.00  0.00    -0.269 OA
BRANCH  33  36
ATOM     36  C   UNL A   1      37.339  30.765  31.441  1.00  0.00     0.039 A 
ATOM     37  C   UNL A   1      38.604  31.327  31.636  1.00  0.00     0.014 A 
ATOM     38  C   UNL A   1      37.250  29.377  31.234  1.00  0.00     0.014 A 
ATOM     39  C   UNL A   1      39.753  30.548  31.499  1.00  0.00     0.010 A 
ATOM     40  C   UNL A   1      38.386  28.592  31.128  1.00  0.00     0.010 A 
ATOM     41  C   UNL A   1      39.640  29.190  31.200  1.00  0.00    -0.014 A 
BRANCH  41  42
ATOM     42  C   UNL A   1      40.849  28.378  31.084  1.00  0.00     0.031 A 
ATOM     43  C   UNL A   1      41.485  28.008  32.383  1.00  0.00     0.074 A 
ATOM     44  C   UNL A   1      41.254  27.858  29.906  1.00  0.00     0.049 A 
ATOM     45  N   UNL A   1      42.705  28.215  32.758  1.00  0.00    -0.248 NA
ATOM     46  C   UNL A   1      40.633  27.435  33.440  1.00  0.00     0.031 C 
ATOM     47  C   UNL A   1      40.573  27.927  28.609  1.00  0.00     0.029 A 
ATOM     48  N   UNL A   1      42.304  27.029  29.644  1.00  0.00    -0.354 N 
ATOM     49  C   UNL A   1      42.829  27.652  34.027  1.00  0.00     0.074 A 
ATOM     50  C   UNL A   1      41.497  27.306  34.448  1.00  0.00     0.031 C 
ATOM     51  C   UNL A   1      41.063  26.966  27.794  1.00  0.00     0.029 A 
ATOM     52  C   UNL A   1      42.179  26.313  28.455  1.00  0.00     0.049 A 
ATOM     53  H   UNL A   1      43.081  26.945  30.241  1.00  0.00     0.167 HD
ATOM     54  C   UNL A   1      44.042  27.353  34.572  1.00  0.00     0.031 A 
ATOM     55  C   UNL A   1      42.885  25.208  28.087  1.00  0.00     0.031 A 
ATOM     56  C   UNL A   1      45.113  28.017  33.881  1.00  0.00     0.049 A 
ATOM     57  C   UNL A   1      44.124  25.197  28.903  1.00  0.00     0.074 A 
ATOM     58  C   UNL A   1      45.445  29.341  33.678  1.00  0.00     0.029 A 
ATOM     59  N   UNL A   1      45.806  27.298  32.937  1.00  0.00    -0.354 N 
ATOM     60  N   UNL A   1      45.061  26.096  28.791  1.00  0.00    -0.248 NA
ATOM     61  C   UNL A   1      44.098  24.470  30.163  1.00  0.00     0.031 C 
ATOM     62  C   UNL A   1      45.898  29.395  32.331  1.00  0.00     0.029 A 
ATOM     63  C   UNL A   1      45.909  28.093  31.823  1.00  0.00     0.049 A 
ATOM     64  H   UNL A   1      46.161  26.385  33.039  1.00  0.00     0.167 HD
ATOM     65  C   UNL A   1      45.437  26.369  30.098  1.00  0.00     0.074 A 
ATOM     66  C   UNL A   1      44.873  25.277  30.893  1.00  0.00     0.031 C 
ATOM     67  C   UNL A   1      45.915  27.596  30.462  1.00  0.00     0.031 A 
BRANCH  54  68
ATOM     68  C   UNL A   1      44.289  26.229  35.543  1.00  0.00    -0.014 A 
ATOM     69  C   UNL A   1      44.478  24.892  35.137  1.00  0.00     0.010 A 
ATOM     70  C   UNL A   1      44.587  26.534  36.888  1.00  0.00     0.010 A 
ATOM     71  C   UNL A   1      44.926  23.907  36.019  1.00  0.00     0.020 A 
ATOM     72  C   UNL A   1      45.077  25.561  37.772  1.00  0.00     0.020 A 
ATOM     73  C   UNL A   1      45.236  24.251  37.330  1.00  0.00     0.054 A 
BRANCH  73  74
ATOM     74  S   UNL A   1      45.906  22.967  38.415  1.00  0.00     0.124 S 
ATOM     75  O   UNL A   1      45.578  21.749  37.676  1.00  0.00    -0.237 OA
ATOM     76  O   UNL A   1      47.324  23.310  38.468  1.00  0.00    -0.237 OA
ATOM     77  O   UNL A   1      45.173  23.155  39.665  1.00  0.00    -0.744 OA
ENDBRANCH  73  74
ENDBRANCH  54  68
BRANCH  55  78
ATOM     78  C   UNL A   1      42.342  23.967  27.461  1.00  0.00    -0.014 A 
ATOM     79  C   UNL A   1      41.709  22.994  28.261  1.00  0.00     0.010 A 
ATOM     80  C   UNL A   1      42.730  23.586  26.159  1.00  0.00     0.010 A 
ATOM     81  C   UNL A   1      41.572  21.670  27.830  1.00  0.00     0.020 A 
ATOM     82  C   UNL A   1      42.597  22.255  25.719  1.00  0.00     0.020 A 
ATOM     83  C   UNL A   1      42.062  21.296  26.581  1.00  0.00     0.054 A 
BRANCH  83  84
ATOM     84  S   UNL A   1      42.096  19.527  26.171  1.00  0.00     0.124 S 
ATOM     85  O   UNL A   1      40.713  19.284  25.771  1.00  0.00    -0.237 OA
ATOM     86  O   UNL A   1      43.078  19.468  25.091  1.00  0.00    -0.237 OA
ATOM     87  O   UNL A   1      42.507  18.888  27.418  1.00  0.00    -0.744 OA
ENDBRANCH  83  84
ENDBRANCH  55  78
BRANCH  67  88
ATOM     88  C   UNL A   1      46.228  28.624  29.392  1.00  0.00    -0.014 A 
ATOM     89  C   UNL A   1      47.579  28.966  29.207  1.00  0.00     0.010 A 
ATOM     90  C   UNL A   1      45.248  29.412  28.753  1.00  0.00     0.010 A 
ATOM     91  C   UNL A   1      47.945  30.085  28.457  1.00  0.00     0.020 A 
ATOM     92  C   UNL A   1      45.611  30.522  27.971  1.00  0.00     0.020 A 
ATOM     93  C   UNL A   1      46.959  30.866  27.854  1.00  0.00     0.054 A 
BRANCH  93  94
ATOM     94  S   UNL A   1      47.482  32.347  26.947  1.00  0.00     0.124 S 
ATOM     95  O   UNL A   1      48.780  31.941  26.411  1.00  0.00    -0.237 OA
ATOM     96  O   UNL A   1      46.422  32.508  25.952  1.00  0.00    -0.237 OA
ATOM     97  O   UNL A   1      47.535  33.391  27.967  1.00  0.00    -0.744 OA
ENDBRANCH  93  94
ENDBRANCH  67  88
ENDBRANCH  41  42
ENDBRANCH  33  36
ENDBRANCH   1  32
TORSDOF 14
ENDMDL
