MODEL 1
REMARK VINA RESULT:      -9.9      0.000      0.000
REMARK SMILES CCN(CC)C(=O)[C@H](C)S[C@H](C)C(=O)NCCCNC(=O)c1ccc(-c2c3nc(c(-c4ccc(S(=O)(=O)[O-])cc4)c4ccc([nH]4)c(-c4ccc(S(=O)(=O)[O-])cc4)c4nc(c(-c5ccc(S(=O)(=O)[O-])cc5)c5ccc2[nH]5)C=C4)C=C3)cc1
REMARK SMILES IDX 16 1 15 2 13 3 14 4 11 6 12 7 10 8 8 9 9 10 6 11 3 12 7 13
REMARK SMILES IDX 2 14 1 15 4 16 5 17 17 18 18 19 19 20 20 21 21 23 22 24
REMARK SMILES IDX 23 25 81 26 24 27 80 28 25 29 26 30 27 31 74 32 28 33 79 34
REMARK SMILES IDX 73 35 75 36 29 37 78 38 72 39 71 40 30 42 60 43 41 44 59 45
REMARK SMILES IDX 42 46 45 47 58 48 76 49 43 50 44 51 57 53 77 54 46 55 31 56
REMARK SMILES IDX 32 57 40 58 33 59 39 60 34 61 35 62 36 63 37 64 38 65 61 66
REMARK SMILES IDX 62 67 70 68 63 69 69 70 64 71 65 72 66 73 67 74 68 75 47 76
REMARK SMILES IDX 48 77 56 78 49 79 55 80 50 81 51 82 52 83 53 84 54 85
REMARK H PARENT 15 5 19 22 75 41 45 52
REMARK Flexibility Score: inf
ROOT
ATOM      1  C   UNL A   1      32.638  29.021  24.575  1.00  0.00     0.117 C 
ENDROOT
BRANCH   1   2
ATOM      2  N   UNL A   1      31.837  29.324  23.419  1.00  0.00    -0.355 N 
ATOM      3  C   UNL A   1      31.149  28.436  22.636  1.00  0.00     0.232 C 
ATOM      4  O   UNL A   1      30.235  28.892  21.940  1.00  0.00    -0.274 OA
ATOM      5  H   UNL A   1      31.777  30.273  23.164  1.00  0.00     0.163 HD
BRANCH   3   6
ATOM      6  C   UNL A   1      31.556  26.960  22.525  1.00  0.00     0.133 C 
ATOM      7  C   UNL A   1      33.040  26.681  22.290  1.00  0.00     0.030 C 
BRANCH   6   8
ATOM      8  S   UNL A   1      30.614  25.726  23.531  1.00  0.00    -0.136 SA
BRANCH   8   9
ATOM      9  C   UNL A   1      31.414  25.542  25.189  1.00  0.00     0.133 C 
ATOM     10  C   UNL A   1      30.838  26.439  26.282  1.00  0.00     0.030 C 
BRANCH   9  11
ATOM     11  C   UNL A   1      31.685  24.065  25.557  1.00  0.00     0.235 C 
ATOM     12  N   UNL A   1      32.975  23.676  25.928  1.00  0.00    -0.342 N 
ATOM     13  O   UNL A   1      30.789  23.219  25.512  1.00  0.00    -0.274 OA
BRANCH  12  14
ATOM     14  C   UNL A   1      33.198  22.254  26.227  1.00  0.00     0.116 C 
ATOM     15  C   UNL A   1      33.866  22.038  27.575  1.00  0.00     0.027 C 
ENDBRANCH  12  14
BRANCH  12  16
ATOM     16  C   UNL A   1      34.168  24.523  25.891  1.00  0.00     0.116 C 
ATOM     17  C   UNL A   1      35.037  24.200  24.682  1.00  0.00     0.027 C 
ENDBRANCH  12  16
ENDBRANCH   9  11
ENDBRANCH   8   9
ENDBRANCH   6   8
ENDBRANCH   3   6
ENDBRANCH   1   2
BRANCH   1  18
ATOM     18  C   UNL A   1      32.387  29.882  25.796  1.00  0.00     0.042 C 
BRANCH  18  19
ATOM     19  C   UNL A   1      33.409  29.639  26.897  1.00  0.00     0.118 C 
BRANCH  19  20
ATOM     20  N   UNL A   1      33.594  30.764  27.814  1.00  0.00    -0.352 N 
ATOM     21  C   UNL A   1      34.697  31.133  28.554  1.00  0.00     0.251 C 
ATOM     22  H   UNL A   1      32.809  31.349  27.919  1.00  0.00     0.163 HD
ATOM     23  O   UNL A   1      34.656  32.141  29.243  1.00  0.00    -0.269 OA
BRANCH  21  24
ATOM     24  C   UNL A   1      35.875  30.243  28.600  1.00  0.00     0.039 A 
ATOM     25  C   UNL A   1      36.731  30.248  27.495  1.00  0.00     0.014 A 
ATOM     26  C   UNL A   1      36.216  29.535  29.752  1.00  0.00     0.014 A 
ATOM     27  C   UNL A   1      38.000  29.688  27.612  1.00  0.00     0.010 A 
ATOM     28  C   UNL A   1      37.518  29.087  29.909  1.00  0.00     0.010 A 
ATOM     29  C   UNL A   1      38.432  29.197  28.853  1.00  0.00    -0.014 A 
BRANCH  29  30
ATOM     30  C   UNL A   1      39.857  28.878  29.089  1.00  0.00     0.031 A 
ATOM     31  C   UNL A   1      40.768  29.895  29.706  1.00  0.00     0.074 A 
ATOM     32  C   UNL A   1      40.335  27.693  28.656  1.00  0.00     0.049 A 
ATOM     33  N   UNL A   1      42.050  29.809  29.949  1.00  0.00    -0.248 NA
ATOM     34  C   UNL A   1      40.171  31.193  30.064  1.00  0.00     0.031 C 
ATOM     35  C   UNL A   1      39.552  26.659  27.968  1.00  0.00     0.029 A 
ATOM     36  N   UNL A   1      41.591  27.150  28.736  1.00  0.00    -0.354 N 
ATOM     37  C   UNL A   1      42.415  31.045  30.469  1.00  0.00     0.074 A 
ATOM     38  C   UNL A   1      41.235  31.881  30.449  1.00  0.00     0.031 C 
ATOM     39  C   UNL A   1      40.327  25.587  27.751  1.00  0.00     0.029 A 
ATOM     40  C   UNL A   1      41.670  25.868  28.242  1.00  0.00     0.049 A 
ATOM     41  H   UNL A   1      42.363  27.630  29.112  1.00  0.00     0.167 HD
ATOM     42  C   UNL A   1      43.620  31.439  30.943  1.00  0.00     0.031 A 
ATOM     43  C   UNL A   1      42.707  25.010  28.207  1.00  0.00     0.031 A 
ATOM     44  C   UNL A   1      44.781  30.594  30.967  1.00  0.00     0.049 A 
ATOM     45  C   UNL A   1      44.023  25.453  28.775  1.00  0.00     0.074 A 
ATOM     46  C   UNL A   1      46.045  30.873  31.454  1.00  0.00     0.029 A 
ATOM     47  N   UNL A   1      44.814  29.293  30.485  1.00  0.00    -0.354 N 
ATOM     48  N   UNL A   1      44.337  26.609  29.313  1.00  0.00    -0.248 NA
ATOM     49  C   UNL A   1      45.119  24.479  28.743  1.00  0.00     0.031 C 
ATOM     50  C   UNL A   1      46.848  29.744  31.247  1.00  0.00     0.029 A 
ATOM     51  C   UNL A   1      46.075  28.753  30.662  1.00  0.00     0.049 A 
ATOM     52  H   UNL A   1      44.051  28.823  30.077  1.00  0.00     0.167 HD
ATOM     53  C   UNL A   1      45.664  26.494  29.702  1.00  0.00     0.074 A 
ATOM     54  C   UNL A   1      46.089  25.153  29.349  1.00  0.00     0.031 C 
ATOM     55  C   UNL A   1      46.462  27.413  30.299  1.00  0.00     0.031 A 
BRANCH  42  56
ATOM     56  C   UNL A   1      43.711  32.846  31.466  1.00  0.00    -0.014 A 
ATOM     57  C   UNL A   1      44.063  33.909  30.612  1.00  0.00     0.010 A 
ATOM     58  C   UNL A   1      43.495  33.105  32.831  1.00  0.00     0.010 A 
ATOM     59  C   UNL A   1      44.270  35.190  31.125  1.00  0.00     0.020 A 
ATOM     60  C   UNL A   1      43.675  34.394  33.344  1.00  0.00     0.020 A 
ATOM     61  C   UNL A   1      44.091  35.421  32.492  1.00  0.00     0.054 A 
BRANCH  61  62
ATOM     62  S   UNL A   1      44.408  37.083  33.146  1.00  0.00     0.124 S 
ATOM     63  O   UNL A   1      43.683  37.048  34.414  1.00  0.00    -0.237 OA
ATOM     64  O   UNL A   1      45.863  37.119  33.257  1.00  0.00    -0.237 OA
ATOM     65  O   UNL A   1      43.842  37.966  32.128  1.00  0.00    -0.744 OA
ENDBRANCH  61  62
ENDBRANCH  42  56
BRANCH  43  66
ATOM     66  C   UNL A   1      42.515  23.635  27.674  1.00  0.00    -0.014 A 
ATOM     67  C   UNL A   1      42.795  23.360  26.323  1.00  0.00     0.010 A 
ATOM     68  C   UNL A   1      42.095  22.588  28.513  1.00  0.00     0.010 A 
ATOM     69  C   UNL A   1      42.651  22.065  25.819  1.00  0.00     0.020 A 
ATOM     70  C   UNL A   1      41.970  21.286  28.015  1.00  0.00     0.020 A 
ATOM     71  C   UNL A   1      42.240  21.034  26.668  1.00  0.00     0.054 A 
BRANCH  71  72
ATOM     72  S   UNL A   1      42.126  19.347  26.008  1.00  0.00     0.124 S 
ATOM     73  O   UNL A   1      42.615  18.549  27.128  1.00  0.00    -0.237 OA
ATOM     74  O   UNL A   1      40.701  19.218  25.713  1.00  0.00    -0.237 OA
ATOM     75  O   UNL A   1      42.995  19.383  24.835  1.00  0.00    -0.744 OA
ENDBRANCH  71  72
ENDBRANCH  43  66
BRANCH  55  76
ATOM     76  C   UNL A   1      47.863  26.984  30.629  1.00  0.00    -0.014 A 
ATOM     77  C   UNL A   1      48.918  27.214  29.730  1.00  0.00     0.010 A 
ATOM     78  C   UNL A   1      48.130  26.393  31.876  1.00  0.00     0.010 A 
ATOM     79  C   UNL A   1      50.220  26.838  30.066  1.00  0.00     0.020 A 
ATOM     80  C   UNL A   1      49.433  26.034  32.222  1.00  0.00     0.020 A 
ATOM     81  C   UNL A   1      50.468  26.248  31.310  1.00  0.00     0.054 A 
BRANCH  81  82
ATOM     82  S   UNL A   1      52.173  25.815  31.749  1.00  0.00     0.124 S 
ATOM     83  O   UNL A   1      52.042  24.411  32.126  1.00  0.00    -0.237 OA
ATOM     84  O   UNL A   1      52.901  26.068  30.508  1.00  0.00    -0.237 OA
ATOM     85  O   UNL A   1      52.488  26.729  32.845  1.00  0.00    -0.744 OA
ENDBRANCH  81  82
ENDBRANCH  55  76
ENDBRANCH  29  30
ENDBRANCH  21  24
ENDBRANCH  19  20
ENDBRANCH  18  19
ENDBRANCH   1  18
TORSDOF 18
ENDMDL
MODEL 2
REMARK VINA RESULT:      -9.7      2.522      9.414
REMARK SMILES CCN(CC)C(=O)[C@H](C)S[C@H](C)C(=O)NCCCNC(=O)c1ccc(-c2c3nc(c(-c4ccc(S(=O)(=O)[O-])cc4)c4ccc([nH]4)c(-c4ccc(S(=O)(=O)[O-])cc4)c4nc(c(-c5ccc(S(=O)(=O)[O-])cc5)c5ccc2[nH]5)C=C4)C=C3)cc1
REMARK SMILES IDX 16 1 15 2 13 3 14 4 11 6 12 7 10 8 8 9 9 10 6 11 3 12 7 13
REMARK SMILES IDX 2 14 1 15 4 16 5 17 17 18 18 19 19 20 20 21 21 23 22 24
REMARK SMILES IDX 23 25 81 26 24 27 80 28 25 29 26 30 27 31 74 32 28 33 79 34
REMARK SMILES IDX 73 35 75 36 29 37 78 38 72 39 71 40 30 42 60 43 41 44 59 45
REMARK SMILES IDX 42 46 45 47 58 48 76 49 43 50 44 51 57 53 77 54 46 55 31 56
REMARK SMILES IDX 32 57 40 58 33 59 39 60 34 61 35 62 36 63 37 64 38 65 61 66
REMARK SMILES IDX 62 67 70 68 63 69 69 70 64 71 65 72 66 73 67 74 68 75 47 76
REMARK SMILES IDX 48 77 56 78 49 79 55 80 50 81 51 82 52 83 53 84 54 85
REMARK H PARENT 15 5 19 22 75 41 45 52
REMARK Flexibility Score: inf
ROOT
ATOM      1  C   UNL A   1      35.047  21.743  25.763  1.00  0.00     0.117 C 
ENDROOT
BRANCH   1   2
ATOM      2  N   UNL A   1      34.523  21.926  24.436  1.00  0.00    -0.355 N 
ATOM      3  C   UNL A   1      33.562  22.820  24.044  1.00  0.00     0.232 C 
ATOM      4  O   UNL A   1      33.510  23.096  22.840  1.00  0.00    -0.274 OA
ATOM      5  H   UNL A   1      34.895  21.346  23.733  1.00  0.00     0.163 HD
BRANCH   3   6
ATOM      6  C   UNL A   1      32.514  23.371  25.020  1.00  0.00     0.133 C 
ATOM      7  C   UNL A   1      31.597  22.345  25.683  1.00  0.00     0.030 C 
BRANCH   6   8
ATOM      8  S   UNL A   1      32.960  24.869  26.011  1.00  0.00    -0.136 SA
BRANCH   8   9
ATOM      9  C   UNL A   1      31.846  26.270  25.544  1.00  0.00     0.133 C 
ATOM     10  C   UNL A   1      30.460  25.853  25.059  1.00  0.00     0.030 C 
BRANCH   9  11
ATOM     11  C   UNL A   1      31.918  27.446  26.547  1.00  0.00     0.235 C 
ATOM     12  N   UNL A   1      32.822  28.487  26.318  1.00  0.00    -0.342 N 
ATOM     13  O   UNL A   1      31.208  27.473  27.554  1.00  0.00    -0.274 OA
BRANCH  12  14
ATOM     14  C   UNL A   1      32.889  29.562  27.318  1.00  0.00     0.116 C 
ATOM     15  C   UNL A   1      34.221  30.293  27.301  1.00  0.00     0.027 C 
ENDBRANCH  12  14
BRANCH  12  16
ATOM     16  C   UNL A   1      33.827  28.530  25.255  1.00  0.00     0.116 C 
ATOM     17  C   UNL A   1      33.224  29.010  23.942  1.00  0.00     0.027 C 
ENDBRANCH  12  16
ENDBRANCH   9  11
ENDBRANCH   8   9
ENDBRANCH   6   8
ENDBRANCH   3   6
ENDBRANCH   1   2
BRANCH   1  18
ATOM     18  C   UNL A   1      36.161  22.686  26.167  1.00  0.00     0.042 C 
BRANCH  18  19
ATOM     19  C   UNL A   1      37.304  22.699  25.163  1.00  0.00     0.118 C 
BRANCH  19  20
ATOM     20  N   UNL A   1      38.550  22.106  25.651  1.00  0.00    -0.352 N 
ATOM     21  C   UNL A   1      39.538  22.646  26.446  1.00  0.00     0.251 C 
ATOM     22  H   UNL A   1      38.706  21.175  25.367  1.00  0.00     0.163 HD
ATOM     23  O   UNL A   1      40.496  21.962  26.773  1.00  0.00    -0.269 OA
BRANCH  21  24
ATOM     24  C   UNL A   1      39.488  24.080  26.798  1.00  0.00     0.039 A 
ATOM     25  C   UNL A   1      38.947  24.421  28.041  1.00  0.00     0.014 A 
ATOM     26  C   UNL A   1      40.089  25.052  26.000  1.00  0.00     0.014 A 
ATOM     27  C   UNL A   1      39.164  25.696  28.552  1.00  0.00     0.010 A 
ATOM     28  C   UNL A   1      40.411  26.279  26.558  1.00  0.00     0.010 A 
ATOM     29  C   UNL A   1      39.984  26.596  27.854  1.00  0.00    -0.014 A 
BRANCH  29  30
ATOM     30  C   UNL A   1      40.480  27.831  28.502  1.00  0.00     0.031 A 
ATOM     31  C   UNL A   1      41.899  27.921  28.974  1.00  0.00     0.074 A 
ATOM     32  C   UNL A   1      39.607  28.832  28.736  1.00  0.00     0.049 A 
ATOM     33  N   UNL A   1      42.496  28.903  29.597  1.00  0.00    -0.248 NA
ATOM     34  C   UNL A   1      42.751  26.741  28.751  1.00  0.00     0.031 C 
ATOM     35  C   UNL A   1      38.180  28.817  28.390  1.00  0.00     0.029 A 
ATOM     36  N   UNL A   1      39.789  30.063  29.313  1.00  0.00    -0.354 N 
ATOM     37  C   UNL A   1      43.784  28.453  29.857  1.00  0.00     0.074 A 
ATOM     38  C   UNL A   1      43.863  27.090  29.379  1.00  0.00     0.031 C 
ATOM     39  C   UNL A   1      37.636  30.003  28.700  1.00  0.00     0.029 A 
ATOM     40  C   UNL A   1      38.658  30.847  29.304  1.00  0.00     0.049 A 
ATOM     41  H   UNL A   1      40.645  30.357  29.696  1.00  0.00     0.167 HD
ATOM     42  C   UNL A   1      44.815  29.123  30.421  1.00  0.00     0.031 A 
ATOM     43  C   UNL A   1      38.474  32.113  29.723  1.00  0.00     0.031 A 
ATOM     44  C   UNL A   1      44.726  30.481  30.881  1.00  0.00     0.049 A 
ATOM     45  C   UNL A   1      39.642  32.852  30.307  1.00  0.00     0.074 A 
ATOM     46  C   UNL A   1      45.714  31.274  31.437  1.00  0.00     0.029 A 
ATOM     47  N   UNL A   1      43.573  31.252  30.828  1.00  0.00    -0.354 N 
ATOM     48  N   UNL A   1      40.869  32.428  30.496  1.00  0.00    -0.248 NA
ATOM     49  C   UNL A   1      39.406  34.239  30.724  1.00  0.00     0.031 C 
ATOM     50  C   UNL A   1      45.150  32.520  31.739  1.00  0.00     0.029 A 
ATOM     51  C   UNL A   1      43.822  32.512  31.342  1.00  0.00     0.049 A 
ATOM     52  H   UNL A   1      42.706  30.947  30.478  1.00  0.00     0.167 HD
ATOM     53  C   UNL A   1      41.560  33.504  31.038  1.00  0.00     0.074 A 
ATOM     54  C   UNL A   1      40.616  34.601  31.133  1.00  0.00     0.031 C 
ATOM     55  C   UNL A   1      42.858  33.580  31.420  1.00  0.00     0.031 A 
BRANCH  42  56
ATOM     56  C   UNL A   1      46.113  28.374  30.557  1.00  0.00    -0.014 A 
ATOM     57  C   UNL A   1      46.364  27.573  31.687  1.00  0.00     0.010 A 
ATOM     58  C   UNL A   1      47.111  28.510  29.576  1.00  0.00     0.010 A 
ATOM     59  C   UNL A   1      47.615  26.981  31.871  1.00  0.00     0.020 A 
ATOM     60  C   UNL A   1      48.356  27.895  29.744  1.00  0.00     0.020 A 
ATOM     61  C   UNL A   1      48.610  27.161  30.905  1.00  0.00     0.054 A 
BRANCH  61  62
ATOM     62  S   UNL A   1      50.242  26.421  31.185  1.00  0.00     0.124 S 
ATOM     63  O   UNL A   1      49.916  24.998  31.262  1.00  0.00    -0.237 OA
ATOM     64  O   UNL A   1      50.993  26.828  30.000  1.00  0.00    -0.237 OA
ATOM     65  O   UNL A   1      50.685  27.028  32.437  1.00  0.00    -0.744 OA
ENDBRANCH  61  62
ENDBRANCH  42  56
BRANCH  43  66
ATOM     66  C   UNL A   1      37.153  32.771  29.538  1.00  0.00    -0.014 A 
ATOM     67  C   UNL A   1      36.288  32.929  30.637  1.00  0.00     0.010 A 
ATOM     68  C   UNL A   1      36.767  33.280  28.286  1.00  0.00     0.010 A 
ATOM     69  C   UNL A   1      35.058  33.576  30.484  1.00  0.00     0.020 A 
ATOM     70  C   UNL A   1      35.546  33.945  28.134  1.00  0.00     0.020 A 
ATOM     71  C   UNL A   1      34.695  34.081  29.233  1.00  0.00     0.054 A 
BRANCH  71  72
ATOM     72  S   UNL A   1      33.124  34.977  29.073  1.00  0.00     0.124 S 
ATOM     73  O   UNL A   1      32.429  34.191  28.059  1.00  0.00    -0.237 OA
ATOM     74  O   UNL A   1      32.573  34.898  30.423  1.00  0.00    -0.237 OA
ATOM     75  O   UNL A   1      33.538  36.314  28.656  1.00  0.00    -0.744 OA
ENDBRANCH  71  72
ENDBRANCH  43  66
BRANCH  55  76
ATOM     76  C   UNL A   1      43.332  34.903  31.951  1.00  0.00    -0.014 A 
ATOM     77  C   UNL A   1      43.910  35.856  31.096  1.00  0.00     0.010 A 
ATOM     78  C   UNL A   1      43.144  35.211  33.309  1.00  0.00     0.010 A 
ATOM     79  C   UNL A   1      44.317  37.095  31.599  1.00  0.00     0.020 A 
ATOM     80  C   UNL A   1      43.531  36.455  33.810  1.00  0.00     0.020 A 
ATOM     81  C   UNL A   1      44.125  37.384  32.954  1.00  0.00     0.054 A 
BRANCH  81  82
ATOM     82  S   UNL A   1      44.610  39.017  33.577  1.00  0.00     0.124 S 
ATOM     83  O   UNL A   1      43.453  39.389  34.387  1.00  0.00    -0.237 OA
ATOM     84  O   UNL A   1      45.833  38.730  34.321  1.00  0.00    -0.237 OA
ATOM     85  O   UNL A   1      44.801  39.805  32.361  1.00  0.00    -0.744 OA
ENDBRANCH  81  82
ENDBRANCH  55  76
ENDBRANCH  29  30
ENDBRANCH  21  24
ENDBRANCH  19  20
ENDBRANCH  18  19
ENDBRANCH   1  18
TORSDOF 18
ENDMDL
MODEL 3
REMARK VINA RESULT:      -9.0      4.590      5.911
REMARK SMILES CCN(CC)C(=O)[C@H](C)S[C@H](C)C(=O)NCCCNC(=O)c1ccc(-c2c3nc(c(-c4ccc(S(=O)(=O)[O-])cc4)c4ccc([nH]4)c(-c4ccc(S(=O)(=O)[O-])cc4)c4nc(c(-c5ccc(S(=O)(=O)[O-])cc5)c5ccc2[nH]5)C=C4)C=C3)cc1
REMARK SMILES IDX 16 1 15 2 13 3 14 4 11 6 12 7 10 8 8 9 9 10 6 11 3 12 7 13
REMARK SMILES IDX 2 14 1 15 4 16 5 17 17 18 18 19 19 20 20 21 21 23 22 24
REMARK SMILES IDX 23 25 81 26 24 27 80 28 25 29 26 30 27 31 74 32 28 33 79 34
REMARK SMILES IDX 73 35 75 36 29 37 78 38 72 39 71 40 30 42 60 43 41 44 59 45
REMARK SMILES IDX 42 46 45 47 58 48 76 49 43 50 44 51 57 53 77 54 46 55 31 56
REMARK SMILES IDX 32 57 40 58 33 59 39 60 34 61 35 62 36 63 37 64 38 65 61 66
REMARK SMILES IDX 62 67 70 68 63 69 69 70 64 71 65 72 66 73 67 74 68 75 47 76
REMARK SMILES IDX 48 77 56 78 49 79 55 80 50 81 51 82 52 83 53 84 54 85
REMARK H PARENT 15 5 19 22 75 41 45 52
REMARK Flexibility Score: inf
ROOT
ATOM      1  C   UNL A   1      34.670  29.406  27.215  1.00  0.00     0.117 C 
ENDROOT
BRANCH   1   2
ATOM      2  N   UNL A   1      33.456  28.902  27.797  1.00  0.00    -0.355 N 
ATOM      3  C   UNL A   1      32.405  28.320  27.138  1.00  0.00     0.232 C 
ATOM      4  O   UNL A   1      31.639  27.621  27.811  1.00  0.00    -0.274 OA
ATOM      5  H   UNL A   1      33.370  28.983  28.774  1.00  0.00     0.163 HD
BRANCH   3   6
ATOM      6  C   UNL A   1      32.110  28.607  25.660  1.00  0.00     0.133 C 
ATOM      7  C   UNL A   1      31.551  29.991  25.335  1.00  0.00     0.030 C 
BRANCH   6   8
ATOM      8  S   UNL A   1      33.204  27.819  24.392  1.00  0.00    -0.136 SA
BRANCH   8   9
ATOM      9  C   UNL A   1      32.206  26.658  23.354  1.00  0.00     0.133 C 
ATOM     10  C   UNL A   1      31.171  27.329  22.455  1.00  0.00     0.030 C 
BRANCH   9  11
ATOM     11  C   UNL A   1      33.065  25.536  22.725  1.00  0.00     0.235 C 
ATOM     12  N   UNL A   1      33.121  24.285  23.347  1.00  0.00    -0.342 N 
ATOM     13  O   UNL A   1      33.716  25.728  21.696  1.00  0.00    -0.274 OA
BRANCH  12  14
ATOM     14  C   UNL A   1      33.985  23.261  22.740  1.00  0.00     0.116 C 
ATOM     15  C   UNL A   1      35.338  23.160  23.422  1.00  0.00     0.027 C 
ENDBRANCH  12  14
BRANCH  12  16
ATOM     16  C   UNL A   1      32.527  23.945  24.641  1.00  0.00     0.116 C 
ATOM     17  C   UNL A   1      31.190  23.240  24.466  1.00  0.00     0.027 C 
ENDBRANCH  12  16
ENDBRANCH   9  11
ENDBRANCH   8   9
ENDBRANCH   6   8
ENDBRANCH   3   6
ENDBRANCH   1   2
BRANCH   1  18
ATOM     18  C   UNL A   1      34.935  30.884  27.420  1.00  0.00     0.042 C 
BRANCH  18  19
ATOM     19  C   UNL A   1      33.805  31.578  28.166  1.00  0.00     0.118 C 
BRANCH  19  20
ATOM     20  N   UNL A   1      33.585  32.972  27.778  1.00  0.00    -0.352 N 
ATOM     21  C   UNL A   1      34.274  34.112  28.135  1.00  0.00     0.251 C 
ATOM     22  H   UNL A   1      32.828  33.118  27.166  1.00  0.00     0.163 HD
ATOM     23  O   UNL A   1      33.946  35.191  27.667  1.00  0.00    -0.269 OA
BRANCH  21  24
ATOM     24  C   UNL A   1      35.326  34.034  29.170  1.00  0.00     0.039 A 
ATOM     25  C   UNL A   1      34.974  33.489  30.408  1.00  0.00     0.014 A 
ATOM     26  C   UNL A   1      36.655  34.345  28.889  1.00  0.00     0.014 A 
ATOM     27  C   UNL A   1      35.976  33.099  31.291  1.00  0.00     0.010 A 
ATOM     28  C   UNL A   1      37.654  33.848  29.712  1.00  0.00     0.010 A 
ATOM     29  C   UNL A   1      37.321  33.186  30.900  1.00  0.00    -0.014 A 
BRANCH  29  30
ATOM     30  C   UNL A   1      38.383  32.509  31.678  1.00  0.00     0.031 A 
ATOM     31  C   UNL A   1      38.726  32.979  33.058  1.00  0.00     0.074 A 
ATOM     32  C   UNL A   1      39.091  31.525  31.086  1.00  0.00     0.049 A 
ATOM     33  N   UNL A   1      39.651  32.538  33.870  1.00  0.00    -0.248 NA
ATOM     34  C   UNL A   1      37.955  34.118  33.584  1.00  0.00     0.031 C 
ATOM     35  C   UNL A   1      38.893  31.042  29.713  1.00  0.00     0.029 A 
ATOM     36  N   UNL A   1      40.113  30.746  31.561  1.00  0.00    -0.354 N 
ATOM     37  C   UNL A   1      39.586  33.356  34.991  1.00  0.00     0.074 A 
ATOM     38  C   UNL A   1      38.574  34.356  34.730  1.00  0.00     0.031 C 
ATOM     39  C   UNL A   1      39.719  30.010  29.484  1.00  0.00     0.029 A 
ATOM     40  C   UNL A   1      40.532  29.784  30.671  1.00  0.00     0.049 A 
ATOM     41  H   UNL A   1      40.510  30.863  32.453  1.00  0.00     0.167 HD
ATOM     42  C   UNL A   1      40.289  33.266  36.144  1.00  0.00     0.031 A 
ATOM     43  C   UNL A   1      41.459  28.817  30.806  1.00  0.00     0.031 A 
ATOM     44  C   UNL A   1      41.284  32.260  36.393  1.00  0.00     0.049 A 
ATOM     45  C   UNL A   1      42.198  28.710  32.108  1.00  0.00     0.074 A 
ATOM     46  C   UNL A   1      42.036  32.050  37.535  1.00  0.00     0.029 A 
ATOM     47  N   UNL A   1      41.659  31.286  35.479  1.00  0.00    -0.354 N 
ATOM     48  N   UNL A   1      42.085  29.459  33.179  1.00  0.00    -0.248 NA
ATOM     49  C   UNL A   1      43.178  27.624  32.225  1.00  0.00     0.031 C 
ATOM     50  C   UNL A   1      42.881  30.958  37.302  1.00  0.00     0.029 A 
ATOM     51  C   UNL A   1      42.632  30.470  36.029  1.00  0.00     0.049 A 
ATOM     52  H   UNL A   1      41.288  31.189  34.573  1.00  0.00     0.167 HD
ATOM     53  C   UNL A   1      42.968  28.924  34.108  1.00  0.00     0.074 A 
ATOM     54  C   UNL A   1      43.597  27.781  33.474  1.00  0.00     0.031 C 
ATOM     55  C   UNL A   1      43.235  29.339  35.370  1.00  0.00     0.031 A 
BRANCH  42  56
ATOM     56  C   UNL A   1      39.987  34.293  37.200  1.00  0.00    -0.014 A 
ATOM     57  C   UNL A   1      40.696  35.508  37.245  1.00  0.00     0.010 A 
ATOM     58  C   UNL A   1      39.023  34.024  38.188  1.00  0.00     0.010 A 
ATOM     59  C   UNL A   1      40.501  36.403  38.299  1.00  0.00     0.020 A 
ATOM     60  C   UNL A   1      38.806  34.931  39.231  1.00  0.00     0.020 A 
ATOM     61  C   UNL A   1      39.569  36.100  39.295  1.00  0.00     0.054 A 
BRANCH  61  62
ATOM     62  S   UNL A   1      39.363  37.254  40.679  1.00  0.00     0.124 S 
ATOM     63  O   UNL A   1      38.911  36.364  41.746  1.00  0.00    -0.237 OA
ATOM     64  O   UNL A   1      40.705  37.804  40.848  1.00  0.00    -0.237 OA
ATOM     65  O   UNL A   1      38.363  38.201  40.190  1.00  0.00    -0.744 OA
ENDBRANCH  61  62
ENDBRANCH  42  56
BRANCH  43  66
ATOM     66  C   UNL A   1      41.682  27.843  29.705  1.00  0.00    -0.014 A 
ATOM     67  C   UNL A   1      40.673  26.923  29.366  1.00  0.00     0.010 A 
ATOM     68  C   UNL A   1      42.875  27.854  28.961  1.00  0.00     0.010 A 
ATOM     69  C   UNL A   1      40.857  26.026  28.310  1.00  0.00     0.020 A 
ATOM     70  C   UNL A   1      43.054  26.971  27.892  1.00  0.00     0.020 A 
ATOM     71  C   UNL A   1      42.047  26.056  27.578  1.00  0.00     0.054 A 
BRANCH  71  72
ATOM     72  S   UNL A   1      42.237  24.928  26.168  1.00  0.00     0.124 S 
ATOM     73  O   UNL A   1      41.553  25.654  25.103  1.00  0.00    -0.237 OA
ATOM     74  O   UNL A   1      43.688  24.827  26.035  1.00  0.00    -0.237 OA
ATOM     75  O   UNL A   1      41.576  23.706  26.621  1.00  0.00    -0.744 OA
ENDBRANCH  71  72
ENDBRANCH  43  66
BRANCH  55  76
ATOM     76  C   UNL A   1      44.230  28.531  36.153  1.00  0.00    -0.014 A 
ATOM     77  C   UNL A   1      45.588  28.891  36.182  1.00  0.00     0.010 A 
ATOM     78  C   UNL A   1      43.787  27.433  36.910  1.00  0.00     0.010 A 
ATOM     79  C   UNL A   1      46.495  28.148  36.941  1.00  0.00     0.020 A 
ATOM     80  C   UNL A   1      44.688  26.700  37.685  1.00  0.00     0.020 A 
ATOM     81  C   UNL A   1      46.038  27.056  37.686  1.00  0.00     0.054 A 
BRANCH  81  82
ATOM     82  S   UNL A   1      47.222  26.137  38.706  1.00  0.00     0.124 S 
ATOM     83  O   UNL A   1      47.190  24.813  38.091  1.00  0.00    -0.237 OA
ATOM     84  O   UNL A   1      48.461  26.887  38.521  1.00  0.00    -0.237 OA
ATOM     85  O   UNL A   1      46.650  26.215  40.049  1.00  0.00    -0.744 OA
ENDBRANCH  81  82
ENDBRANCH  55  76
ENDBRANCH  29  30
ENDBRANCH  21  24
ENDBRANCH  19  20
ENDBRANCH  18  19
ENDBRANCH   1  18
TORSDOF 18
ENDMDL
