MODEL 1
REMARK VINA RESULT:     -10.9      0.000      0.000
REMARK SMILES Cc1ccc(S(=O)(=O)n2cc(C(=O)C(=O)NCC(=O)NCC(=O)NCCCNC(=O)c3ccc(-c4c5nc(c(-c6ccc(S(=O)(=O)[O-])cc6)c6ccc([nH]6)c(-c6ccc(S(=O)(=O)[O-])cc6)c6nc(c(-c7ccc(S(=O)(=O)[O-])cc7)c7ccc4[nH]7)C=C6)C=C5)cc3)c3ccccc32)cc1
REMARK SMILES IDX 22 1 23 2 24 3 21 5 20 6 18 7 19 8 17 10 16 11 14 12 15 13
REMARK SMILES IDX 12 15 13 16 11 17 9 18 10 19 96 20 91 21 95 22 92 23 94 24
REMARK SMILES IDX 93 25 6 26 7 27 8 28 5 29 1 30 2 31 3 32 98 33 4 34 97 35
REMARK SMILES IDX 25 36 26 37 27 38 28 39 29 40 30 42 31 43 32 44 90 45 33 46
REMARK SMILES IDX 89 47 34 48 35 49 36 50 83 51 37 52 88 53 82 54 84 55 38 56
REMARK SMILES IDX 87 57 81 58 80 59 39 61 69 62 50 63 68 64 51 65 54 66 67 67
REMARK SMILES IDX 85 68 52 69 53 70 66 72 86 73 55 74 40 75 41 76 49 77 42 78
REMARK SMILES IDX 48 79 43 80 44 81 45 82 46 83 47 84 70 85 71 86 79 87 72 88
REMARK SMILES IDX 78 89 73 90 74 91 75 92 76 93 77 94 56 95 57 96 65 97 58 98
REMARK SMILES IDX 64 99 59 100 60 101 61 102 62 103 63 104
REMARK H PARENT 24 4 20 9 16 14 28 41 84 60 54 71
REMARK Flexibility Score: inf
ROOT
ATOM      1  C   UNL A   1      45.181  20.587  24.384  1.00  0.00     0.239 C 
ATOM      2  O   UNL A   1      44.553  20.181  23.405  1.00  0.00    -0.273 OA
ATOM      3  N   UNL A   1      45.689  21.858  24.363  1.00  0.00    -0.355 N 
ATOM      4  H   UNL A   1      45.696  22.308  23.487  1.00  0.00     0.163 HD
ENDROOT
BRANCH   1   5
ATOM      5  C   UNL A   1      45.286  19.729  25.660  1.00  0.00     0.216 C 
BRANCH   5   6
ATOM      6  N   UNL A   1      44.349  18.620  25.700  1.00  0.00    -0.346 N 
ATOM      7  C   UNL A   1      43.015  18.555  25.951  1.00  0.00     0.239 C 
ATOM      8  O   UNL A   1      42.481  17.449  25.815  1.00  0.00    -0.273 OA
ATOM      9  H   UNL A   1      44.759  17.746  25.509  1.00  0.00     0.164 HD
BRANCH   7  10
ATOM     10  C   UNL A   1      42.151  19.787  26.266  1.00  0.00     0.216 C 
BRANCH  10  11
ATOM     11  N   UNL A   1      42.608  20.693  27.318  1.00  0.00    -0.340 N 
ATOM     12  C   UNL A   1      42.799  22.060  27.342  1.00  0.00     0.292 C 
ATOM     13  O   UNL A   1      43.221  22.592  28.361  1.00  0.00    -0.265 OA
ATOM     14  H   UNL A   1      42.820  20.243  28.169  1.00  0.00     0.164 HD
BRANCH  12  15
ATOM     15  C   UNL A   1      42.506  22.920  26.102  1.00  0.00     0.252 C 
ATOM     16  O   UNL A   1      42.439  22.347  25.017  1.00  0.00    -0.283 OA
BRANCH  15  17
ATOM     17  C   UNL A   1      42.301  24.374  26.167  1.00  0.00     0.054 A 
ATOM     18  N   UNL A   1      42.463  26.591  25.930  1.00  0.00    -0.240 N 
ATOM     19  C   UNL A   1      43.019  25.390  25.556  1.00  0.00     0.117 A 
ATOM     20  C   UNL A   1      41.391  26.402  26.779  1.00  0.00     0.065 A 
ATOM     21  C   UNL A   1      41.267  25.018  26.935  1.00  0.00     0.012 A 
ATOM     22  C   UNL A   1      40.539  27.298  27.452  1.00  0.00     0.028 A 
ATOM     23  C   UNL A   1      40.246  24.523  27.778  1.00  0.00     0.011 A 
ATOM     24  C   UNL A   1      39.559  26.774  28.301  1.00  0.00     0.002 A 
ATOM     25  C   UNL A   1      39.409  25.403  28.459  1.00  0.00     0.001 A 
BRANCH  18  26
ATOM     26  S   UNL A   1      43.097  28.117  25.508  1.00  0.00     0.268 S 
ATOM     27  O   UNL A   1      41.994  28.837  24.908  1.00  0.00    -0.201 OA
ATOM     28  O   UNL A   1      44.333  27.856  24.788  1.00  0.00    -0.201 OA
BRANCH  26  29
ATOM     29  C   UNL A   1      43.527  28.967  27.009  1.00  0.00     0.088 A 
ATOM     30  C   UNL A   1      44.962  31.000  30.521  1.00  0.00     0.044 C 
ATOM     31  C   UNL A   1      44.445  30.286  29.306  1.00  0.00    -0.051 A 
ATOM     32  C   UNL A   1      44.975  29.041  28.947  1.00  0.00     0.005 A 
ATOM     33  C   UNL A   1      43.429  30.847  28.522  1.00  0.00     0.005 A 
ATOM     34  C   UNL A   1      44.523  28.385  27.801  1.00  0.00     0.022 A 
ATOM     35  C   UNL A   1      42.960  30.186  27.382  1.00  0.00     0.022 A 
ENDBRANCH  26  29
ENDBRANCH  18  26
ENDBRANCH  15  17
ENDBRANCH  12  15
ENDBRANCH  10  11
ENDBRANCH   7  10
ENDBRANCH   5   6
ENDBRANCH   1   5
BRANCH   3  36
ATOM     36  C   UNL A   1      46.217  22.619  25.479  1.00  0.00     0.117 C 
BRANCH  36  37
ATOM     37  C   UNL A   1      46.148  24.123  25.272  1.00  0.00     0.042 C 
BRANCH  37  38
ATOM     38  C   UNL A   1      46.043  24.857  26.585  1.00  0.00     0.118 C 
BRANCH  38  39
ATOM     39  N   UNL A   1      47.283  25.458  27.059  1.00  0.00    -0.352 N 
ATOM     40  C   UNL A   1      47.368  26.176  28.252  1.00  0.00     0.251 C 
ATOM     41  H   UNL A   1      48.095  25.352  26.514  1.00  0.00     0.163 HD
ATOM     42  O   UNL A   1      47.951  27.245  28.367  1.00  0.00    -0.269 OA
BRANCH  40  43
ATOM     43  C   UNL A   1      46.817  25.482  29.437  1.00  0.00     0.039 A 
ATOM     44  C   UNL A   1      45.481  25.066  29.412  1.00  0.00     0.014 A 
ATOM     45  C   UNL A   1      47.509  25.609  30.634  1.00  0.00     0.014 A 
ATOM     46  C   UNL A   1      44.778  24.995  30.605  1.00  0.00     0.010 A 
ATOM     47  C   UNL A   1      46.775  25.764  31.771  1.00  0.00     0.010 A 
ATOM     48  C   UNL A   1      45.411  25.462  31.747  1.00  0.00    -0.014 A 
BRANCH  48  49
ATOM     49  C   UNL A   1      44.831  25.548  33.063  1.00  0.00     0.031 A 
ATOM     50  C   UNL A   1      44.439  26.905  33.486  1.00  0.00     0.074 A 
ATOM     51  C   UNL A   1      44.405  24.389  33.609  1.00  0.00     0.049 A 
ATOM     52  N   UNL A   1      44.069  27.210  34.670  1.00  0.00    -0.248 NA
ATOM     53  C   UNL A   1      44.448  28.066  32.582  1.00  0.00     0.031 C 
ATOM     54  C   UNL A   1      43.412  24.160  34.650  1.00  0.00     0.029 A 
ATOM     55  N   UNL A   1      44.986  23.136  33.428  1.00  0.00    -0.354 N 
ATOM     56  C   UNL A   1      43.470  28.451  34.599  1.00  0.00     0.074 A 
ATOM     57  C   UNL A   1      43.816  28.990  33.314  1.00  0.00     0.031 C 
ATOM     58  C   UNL A   1      43.640  22.958  35.213  1.00  0.00     0.029 A 
ATOM     59  C   UNL A   1      44.879  22.442  34.643  1.00  0.00     0.049 A 
ATOM     60  H   UNL A   1      45.397  22.799  32.599  1.00  0.00     0.167 HD
ATOM     61  C   UNL A   1      42.601  28.789  35.585  1.00  0.00     0.031 A 
ATOM     62  C   UNL A   1      46.024  22.217  35.362  1.00  0.00     0.031 A 
ATOM     63  C   UNL A   1      42.578  27.739  36.596  1.00  0.00     0.049 A 
ATOM     64  C   UNL A   1      46.062  23.062  36.624  1.00  0.00     0.074 A 
ATOM     65  C   UNL A   1      41.744  26.650  36.793  1.00  0.00     0.029 A 
ATOM     66  N   UNL A   1      43.750  27.475  37.287  1.00  0.00    -0.354 N 
ATOM     67  N   UNL A   1      45.418  24.191  36.777  1.00  0.00    -0.248 NA
ATOM     68  C   UNL A   1      46.749  22.649  37.844  1.00  0.00     0.031 C 
ATOM     69  C   UNL A   1      42.472  25.684  37.542  1.00  0.00     0.029 A 
ATOM     70  C   UNL A   1      43.733  26.195  37.802  1.00  0.00     0.049 A 
ATOM     71  H   UNL A   1      44.493  28.112  37.395  1.00  0.00     0.167 HD
ATOM     72  C   UNL A   1      45.525  24.615  38.078  1.00  0.00     0.074 A 
ATOM     73  C   UNL A   1      46.386  23.623  38.699  1.00  0.00     0.031 C 
ATOM     74  C   UNL A   1      44.876  25.716  38.565  1.00  0.00     0.031 A 
BRANCH  61  75
ATOM     75  C   UNL A   1      41.595  29.902  35.523  1.00  0.00    -0.014 A 
ATOM     76  C   UNL A   1      40.494  29.742  34.657  1.00  0.00     0.010 A 
ATOM     77  C   UNL A   1      41.651  31.101  36.259  1.00  0.00     0.010 A 
ATOM     78  C   UNL A   1      39.507  30.718  34.515  1.00  0.00     0.020 A 
ATOM     79  C   UNL A   1      40.670  32.100  36.116  1.00  0.00     0.020 A 
ATOM     80  C   UNL A   1      39.598  31.896  35.247  1.00  0.00     0.054 A 
BRANCH  80  81
ATOM     81  S   UNL A   1      38.273  33.116  35.064  1.00  0.00     0.124 S 
ATOM     82  O   UNL A   1      38.300  33.803  36.354  1.00  0.00    -0.237 OA
ATOM     83  O   UNL A   1      38.730  33.905  33.924  1.00  0.00    -0.237 OA
ATOM     84  O   UNL A   1      37.083  32.305  34.821  1.00  0.00    -0.744 OA
ENDBRANCH  80  81
ENDBRANCH  61  75
BRANCH  62  85
ATOM     85  C   UNL A   1      47.177  21.855  34.467  1.00  0.00    -0.014 A 
ATOM     86  C   UNL A   1      48.288  22.736  34.492  1.00  0.00     0.010 A 
ATOM     87  C   UNL A   1      47.401  20.521  34.078  1.00  0.00     0.010 A 
ATOM     88  C   UNL A   1      49.597  22.249  34.380  1.00  0.00     0.020 A 
ATOM     89  C   UNL A   1      48.717  20.037  33.935  1.00  0.00     0.020 A 
ATOM     90  C   UNL A   1      49.801  20.885  34.182  1.00  0.00     0.054 A 
BRANCH  90  91
ATOM     91  S   UNL A   1      51.479  20.219  34.447  1.00  0.00     0.124 S 
ATOM     92  O   UNL A   1      52.098  21.247  35.277  1.00  0.00    -0.237 OA
ATOM     93  O   UNL A   1      51.214  18.939  35.115  1.00  0.00    -0.237 OA
ATOM     94  O   UNL A   1      52.016  20.106  33.095  1.00  0.00    -0.744 OA
ENDBRANCH  90  91
ENDBRANCH  62  85
BRANCH  74  95
ATOM     95  C   UNL A   1      45.196  26.446  39.853  1.00  0.00    -0.014 A 
ATOM     96  C   UNL A   1      46.343  27.224  40.052  1.00  0.00     0.010 A 
ATOM     97  C   UNL A   1      44.220  26.481  40.886  1.00  0.00     0.010 A 
ATOM     98  C   UNL A   1      46.539  27.938  41.240  1.00  0.00     0.020 A 
ATOM     99  C   UNL A   1      44.368  27.251  42.038  1.00  0.00     0.020 A 
ATOM    100  C   UNL A   1      45.550  27.948  42.224  1.00  0.00     0.054 A 
BRANCH 100 101
ATOM    101  S   UNL A   1      45.814  28.907  43.729  1.00  0.00     0.124 S 
ATOM    102  O   UNL A   1      45.678  30.275  43.238  1.00  0.00    -0.237 OA
ATOM    103  O   UNL A   1      44.736  28.442  44.599  1.00  0.00    -0.237 OA
ATOM    104  O   UNL A   1      47.158  28.525  44.155  1.00  0.00    -0.744 OA
ENDBRANCH 100 101
ENDBRANCH  74  95
ENDBRANCH  48  49
ENDBRANCH  40  43
ENDBRANCH  38  39
ENDBRANCH  37  38
ENDBRANCH  36  37
ENDBRANCH   3  36
TORSDOF 20
ENDMDL
MODEL 2
REMARK VINA RESULT:     -10.7      6.618     10.121
REMARK SMILES Cc1ccc(S(=O)(=O)n2cc(C(=O)C(=O)NCC(=O)NCC(=O)NCCCNC(=O)c3ccc(-c4c5nc(c(-c6ccc(S(=O)(=O)[O-])cc6)c6ccc([nH]6)c(-c6ccc(S(=O)(=O)[O-])cc6)c6nc(c(-c7ccc(S(=O)(=O)[O-])cc7)c7ccc4[nH]7)C=C6)C=C5)cc3)c3ccccc32)cc1
REMARK SMILES IDX 22 1 23 2 24 3 21 5 20 6 18 7 19 8 17 10 16 11 14 12 15 13
REMARK SMILES IDX 12 15 13 16 11 17 9 18 10 19 96 20 91 21 95 22 92 23 94 24
REMARK SMILES IDX 93 25 6 26 7 27 8 28 5 29 1 30 2 31 3 32 98 33 4 34 97 35
REMARK SMILES IDX 25 36 26 37 27 38 28 39 29 40 30 42 31 43 32 44 90 45 33 46
REMARK SMILES IDX 89 47 34 48 35 49 36 50 83 51 37 52 88 53 82 54 84 55 38 56
REMARK SMILES IDX 87 57 81 58 80 59 39 61 69 62 50 63 68 64 51 65 54 66 67 67
REMARK SMILES IDX 85 68 52 69 53 70 66 72 86 73 55 74 40 75 41 76 49 77 42 78
REMARK SMILES IDX 48 79 43 80 44 81 45 82 46 83 47 84 70 85 71 86 79 87 72 88
REMARK SMILES IDX 78 89 73 90 74 91 75 92 76 93 77 94 56 95 57 96 65 97 58 98
REMARK SMILES IDX 64 99 59 100 60 101 61 102 62 103 63 104
REMARK H PARENT 24 4 20 9 16 14 28 41 84 60 54 71
REMARK Flexibility Score: inf
ROOT
ATOM      1  C   UNL A   1      39.203  23.808  26.836  1.00  0.00     0.239 C 
ATOM      2  O   UNL A   1      38.549  24.825  27.072  1.00  0.00    -0.273 OA
ATOM      3  N   UNL A   1      40.505  23.747  27.254  1.00  0.00    -0.355 N 
ATOM      4  H   UNL A   1      40.908  24.597  27.544  1.00  0.00     0.163 HD
ENDROOT
BRANCH   1   5
ATOM      5  C   UNL A   1      38.534  22.575  26.197  1.00  0.00     0.216 C 
BRANCH   5   6
ATOM      6  N   UNL A   1      37.886  22.853  24.927  1.00  0.00    -0.346 N 
ATOM      7  C   UNL A   1      36.992  22.154  24.182  1.00  0.00     0.239 C 
ATOM      8  O   UNL A   1      36.554  22.717  23.172  1.00  0.00    -0.273 OA
ATOM      9  H   UNL A   1      38.146  23.714  24.529  1.00  0.00     0.164 HD
BRANCH   7  10
ATOM     10  C   UNL A   1      36.426  20.785  24.598  1.00  0.00     0.216 C 
BRANCH  10  11
ATOM     11  N   UNL A   1      35.513  20.741  25.737  1.00  0.00    -0.340 N 
ATOM     12  C   UNL A   1      34.147  20.918  25.835  1.00  0.00     0.292 C 
ATOM     13  O   UNL A   1      33.607  20.852  26.932  1.00  0.00    -0.265 OA
ATOM     14  H   UNL A   1      35.955  20.548  26.596  1.00  0.00     0.164 HD
BRANCH  12  15
ATOM     15  C   UNL A   1      33.299  21.216  24.588  1.00  0.00     0.252 C 
ATOM     16  O   UNL A   1      33.060  20.281  23.828  1.00  0.00    -0.283 OA
BRANCH  15  17
ATOM     17  C   UNL A   1      32.767  22.552  24.282  1.00  0.00     0.054 A 
ATOM     18  N   UNL A   1      32.381  24.576  23.415  1.00  0.00    -0.240 N 
ATOM     19  C   UNL A   1      33.157  23.447  23.298  1.00  0.00     0.117 A 
ATOM     20  C   UNL A   1      31.481  24.458  24.455  1.00  0.00     0.065 A 
ATOM     21  C   UNL A   1      31.702  23.193  25.009  1.00  0.00     0.012 A 
ATOM     22  C   UNL A   1      30.523  25.338  24.991  1.00  0.00     0.028 A 
ATOM     23  C   UNL A   1      30.924  22.797  26.119  1.00  0.00     0.011 A 
ATOM     24  C   UNL A   1      29.791  24.925  26.109  1.00  0.00     0.002 A 
ATOM     25  C   UNL A   1      29.983  23.668  26.665  1.00  0.00     0.001 A 
BRANCH  18  26
ATOM     26  S   UNL A   1      32.591  25.989  22.483  1.00  0.00     0.268 S 
ATOM     27  O   UNL A   1      31.420  26.064  21.634  1.00  0.00    -0.201 OA
ATOM     28  O   UNL A   1      33.937  25.918  21.938  1.00  0.00    -0.201 OA
BRANCH  26  29
ATOM     29  C   UNL A   1      32.536  27.385  23.582  1.00  0.00     0.088 A 
ATOM     30  C   UNL A   1      32.020  30.647  26.342  1.00  0.00     0.044 C 
ATOM     31  C   UNL A   1      32.214  29.519  25.370  1.00  0.00    -0.051 A 
ATOM     32  C   UNL A   1      31.282  29.307  24.348  1.00  0.00     0.005 A 
ATOM     33  C   UNL A   1      33.325  28.672  25.467  1.00  0.00     0.005 A 
ATOM     34  C   UNL A   1      31.437  28.242  23.460  1.00  0.00     0.022 A 
ATOM     35  C   UNL A   1      33.496  27.614  24.568  1.00  0.00     0.022 A 
ENDBRANCH  26  29
ENDBRANCH  18  26
ENDBRANCH  15  17
ENDBRANCH  12  15
ENDBRANCH  10  11
ENDBRANCH   7  10
ENDBRANCH   5   6
ENDBRANCH   1   5
BRANCH   3  36
ATOM     36  C   UNL A   1      41.360  22.577  27.321  1.00  0.00     0.117 C 
BRANCH  36  37
ATOM     37  C   UNL A   1      42.070  22.272  26.011  1.00  0.00     0.042 C 
BRANCH  37  38
ATOM     38  C   UNL A   1      43.137  21.222  26.193  1.00  0.00     0.118 C 
BRANCH  38  39
ATOM     39  N   UNL A   1      43.946  20.950  25.014  1.00  0.00    -0.352 N 
ATOM     40  C   UNL A   1      44.549  21.958  24.261  1.00  0.00     0.251 C 
ATOM     41  H   UNL A   1      44.073  20.014  24.735  1.00  0.00     0.163 HD
ATOM     42  O   UNL A   1      44.535  22.001  23.039  1.00  0.00    -0.269 OA
BRANCH  40  43
ATOM     43  C   UNL A   1      45.351  22.924  25.044  1.00  0.00     0.039 A 
ATOM     44  C   UNL A   1      45.599  22.655  26.394  1.00  0.00     0.014 A 
ATOM     45  C   UNL A   1      45.495  24.206  24.528  1.00  0.00     0.014 A 
ATOM     46  C   UNL A   1      45.772  23.716  27.270  1.00  0.00     0.010 A 
ATOM     47  C   UNL A   1      45.434  25.246  25.404  1.00  0.00     0.010 A 
ATOM     48  C   UNL A   1      45.567  24.994  26.772  1.00  0.00    -0.014 A 
BRANCH  48  49
ATOM     49  C   UNL A   1      45.621  26.218  27.529  1.00  0.00     0.031 A 
ATOM     50  C   UNL A   1      44.322  26.889  27.724  1.00  0.00     0.074 A 
ATOM     51  C   UNL A   1      46.745  26.434  28.245  1.00  0.00     0.049 A 
ATOM     52  N   UNL A   1      44.186  28.060  28.216  1.00  0.00    -0.248 NA
ATOM     53  C   UNL A   1      43.035  26.280  27.355  1.00  0.00     0.031 C 
ATOM     54  C   UNL A   1      46.955  27.272  29.417  1.00  0.00     0.029 A 
ATOM     55  N   UNL A   1      48.032  26.041  27.886  1.00  0.00    -0.354 N 
ATOM     56  C   UNL A   1      42.856  28.204  28.554  1.00  0.00     0.074 A 
ATOM     57  C   UNL A   1      42.160  27.124  27.912  1.00  0.00     0.031 C 
ATOM     58  C   UNL A   1      48.265  27.570  29.510  1.00  0.00     0.029 A 
ATOM     59  C   UNL A   1      48.913  27.046  28.314  1.00  0.00     0.049 A 
ATOM     60  H   UNL A   1      48.279  25.211  27.418  1.00  0.00     0.167 HD
ATOM     61  C   UNL A   1      42.540  29.133  29.492  1.00  0.00     0.031 A 
ATOM     62  C   UNL A   1      49.518  27.824  27.362  1.00  0.00     0.031 A 
ATOM     63  C   UNL A   1      43.740  29.869  29.872  1.00  0.00     0.049 A 
ATOM     64  C   UNL A   1      48.969  29.240  27.370  1.00  0.00     0.074 A 
ATOM     65  C   UNL A   1      44.639  29.715  30.914  1.00  0.00     0.029 A 
ATOM     66  N   UNL A   1      44.383  30.614  28.896  1.00  0.00    -0.354 N 
ATOM     67  N   UNL A   1      47.782  29.570  27.809  1.00  0.00    -0.248 NA
ATOM     68  C   UNL A   1      49.755  30.406  26.976  1.00  0.00     0.031 C 
ATOM     69  C   UNL A   1      45.869  30.305  30.509  1.00  0.00     0.029 A 
ATOM     70  C   UNL A   1      45.705  30.819  29.234  1.00  0.00     0.049 A 
ATOM     71  H   UNL A   1      43.956  30.950  28.074  1.00  0.00     0.167 HD
ATOM     72  C   UNL A   1      47.658  30.935  27.835  1.00  0.00     0.074 A 
ATOM     73  C   UNL A   1      48.915  31.412  27.284  1.00  0.00     0.031 C 
ATOM     74  C   UNL A   1      46.562  31.581  28.337  1.00  0.00     0.031 A 
BRANCH  61  75
ATOM     75  C   UNL A   1      41.246  29.209  30.250  1.00  0.00    -0.014 A 
ATOM     76  C   UNL A   1      40.644  30.475  30.395  1.00  0.00     0.010 A 
ATOM     77  C   UNL A   1      40.572  28.119  30.832  1.00  0.00     0.010 A 
ATOM     78  C   UNL A   1      39.448  30.660  31.089  1.00  0.00     0.020 A 
ATOM     79  C   UNL A   1      39.371  28.291  31.547  1.00  0.00     0.020 A 
ATOM     80  C   UNL A   1      38.813  29.564  31.662  1.00  0.00     0.054 A 
BRANCH  80  81
ATOM     81  S   UNL A   1      37.242  29.842  32.517  1.00  0.00     0.124 S 
ATOM     82  O   UNL A   1      36.288  29.893  31.410  1.00  0.00    -0.237 OA
ATOM     83  O   UNL A   1      37.141  28.667  33.377  1.00  0.00    -0.237 OA
ATOM     84  O   UNL A   1      37.444  31.109  33.216  1.00  0.00    -0.744 OA
ENDBRANCH  80  81
ENDBRANCH  61  75
BRANCH  62  85
ATOM     85  C   UNL A   1      49.937  27.010  26.167  1.00  0.00    -0.014 A 
ATOM     86  C   UNL A   1      49.604  27.547  24.898  1.00  0.00     0.010 A 
ATOM     87  C   UNL A   1      51.024  26.119  26.243  1.00  0.00     0.010 A 
ATOM     88  C   UNL A   1      50.467  27.401  23.804  1.00  0.00     0.020 A 
ATOM     89  C   UNL A   1      51.876  25.947  25.133  1.00  0.00     0.020 A 
ATOM     90  C   UNL A   1      51.640  26.666  23.957  1.00  0.00     0.054 A 
BRANCH  90  91
ATOM     91  S   UNL A   1      52.929  26.826  22.675  1.00  0.00     0.124 S 
ATOM     92  O   UNL A   1      54.110  26.297  23.349  1.00  0.00    -0.237 OA
ATOM     93  O   UNL A   1      52.400  26.000  21.583  1.00  0.00    -0.237 OA
ATOM     94  O   UNL A   1      52.960  28.259  22.402  1.00  0.00    -0.744 OA
ENDBRANCH  90  91
ENDBRANCH  62  85
BRANCH  74  95
ATOM     95  C   UNL A   1      46.188  33.030  28.097  1.00  0.00    -0.014 A 
ATOM     96  C   UNL A   1      45.683  33.522  26.888  1.00  0.00     0.010 A 
ATOM     97  C   UNL A   1      46.203  33.935  29.192  1.00  0.00     0.010 A 
ATOM     98  C   UNL A   1      45.282  34.857  26.759  1.00  0.00     0.020 A 
ATOM     99  C   UNL A   1      45.733  35.244  29.097  1.00  0.00     0.020 A 
ATOM    100  C   UNL A   1      45.308  35.708  27.864  1.00  0.00     0.054 A 
BRANCH 100 101
ATOM    101  S   UNL A   1      44.751  37.414  27.675  1.00  0.00     0.124 S 
ATOM    102  O   UNL A   1      45.828  37.991  26.876  1.00  0.00    -0.237 OA
ATOM    103  O   UNL A   1      43.471  37.260  26.987  1.00  0.00    -0.237 OA
ATOM    104  O   UNL A   1      44.658  37.904  29.048  1.00  0.00    -0.744 OA
ENDBRANCH 100 101
ENDBRANCH  74  95
ENDBRANCH  48  49
ENDBRANCH  40  43
ENDBRANCH  38  39
ENDBRANCH  37  38
ENDBRANCH  36  37
ENDBRANCH   3  36
TORSDOF 20
ENDMDL
MODEL 3
REMARK VINA RESULT:     -10.3      6.665     10.496
REMARK SMILES Cc1ccc(S(=O)(=O)n2cc(C(=O)C(=O)NCC(=O)NCC(=O)NCCCNC(=O)c3ccc(-c4c5nc(c(-c6ccc(S(=O)(=O)[O-])cc6)c6ccc([nH]6)c(-c6ccc(S(=O)(=O)[O-])cc6)c6nc(c(-c7ccc(S(=O)(=O)[O-])cc7)c7ccc4[nH]7)C=C6)C=C5)cc3)c3ccccc32)cc1
REMARK SMILES IDX 22 1 23 2 24 3 21 5 20 6 18 7 19 8 17 10 16 11 14 12 15 13
REMARK SMILES IDX 12 15 13 16 11 17 9 18 10 19 96 20 91 21 95 22 92 23 94 24
REMARK SMILES IDX 93 25 6 26 7 27 8 28 5 29 1 30 2 31 3 32 98 33 4 34 97 35
REMARK SMILES IDX 25 36 26 37 27 38 28 39 29 40 30 42 31 43 32 44 90 45 33 46
REMARK SMILES IDX 89 47 34 48 35 49 36 50 83 51 37 52 88 53 82 54 84 55 38 56
REMARK SMILES IDX 87 57 81 58 80 59 39 61 69 62 50 63 68 64 51 65 54 66 67 67
REMARK SMILES IDX 85 68 52 69 53 70 66 72 86 73 55 74 40 75 41 76 49 77 42 78
REMARK SMILES IDX 48 79 43 80 44 81 45 82 46 83 47 84 70 85 71 86 79 87 72 88
REMARK SMILES IDX 78 89 73 90 74 91 75 92 76 93 77 94 56 95 57 96 65 97 58 98
REMARK SMILES IDX 64 99 59 100 60 101 61 102 62 103 63 104
REMARK H PARENT 24 4 20 9 16 14 28 41 84 60 54 71
REMARK Flexibility Score: inf
ROOT
ATOM      1  C   UNL A   1      39.369  22.378  26.568  1.00  0.00     0.239 C 
ATOM      2  O   UNL A   1      39.113  23.544  26.877  1.00  0.00    -0.273 OA
ATOM      3  N   UNL A   1      40.432  21.755  27.163  1.00  0.00    -0.355 N 
ATOM      4  H   UNL A   1      41.056  22.336  27.656  1.00  0.00     0.163 HD
ENDROOT
BRANCH   1   5
ATOM      5  C   UNL A   1      38.435  21.592  25.627  1.00  0.00     0.216 C 
BRANCH   5   6
ATOM      6  N   UNL A   1      37.684  22.433  24.711  1.00  0.00    -0.346 N 
ATOM      7  C   UNL A   1      36.436  22.330  24.185  1.00  0.00     0.239 C 
ATOM      8  O   UNL A   1      36.048  23.279  23.493  1.00  0.00    -0.273 OA
ATOM      9  H   UNL A   1      38.176  23.231  24.411  1.00  0.00     0.164 HD
BRANCH   7  10
ATOM     10  C   UNL A   1      35.471  21.178  24.510  1.00  0.00     0.216 C 
BRANCH  10  11
ATOM     11  N   UNL A   1      35.016  21.035  25.891  1.00  0.00    -0.340 N 
ATOM     12  C   UNL A   1      33.819  21.344  26.507  1.00  0.00     0.292 C 
ATOM     13  O   UNL A   1      33.691  21.146  27.709  1.00  0.00    -0.265 OA
ATOM     14  H   UNL A   1      35.689  20.647  26.496  1.00  0.00     0.164 HD
BRANCH  12  15
ATOM     15  C   UNL A   1      32.653  21.949  25.708  1.00  0.00     0.252 C 
ATOM     16  O   UNL A   1      31.727  21.201  25.403  1.00  0.00    -0.283 OA
BRANCH  15  17
ATOM     17  C   UNL A   1      32.604  23.363  25.310  1.00  0.00     0.054 A 
ATOM     18  N   UNL A   1      32.423  25.591  25.269  1.00  0.00    -0.240 N 
ATOM     19  C   UNL A   1      32.411  24.489  26.093  1.00  0.00     0.117 A 
ATOM     20  C   UNL A   1      32.618  25.227  23.952  1.00  0.00     0.065 A 
ATOM     21  C   UNL A   1      32.741  23.834  23.955  1.00  0.00     0.012 A 
ATOM     22  C   UNL A   1      32.666  25.967  22.756  1.00  0.00     0.028 A 
ATOM     23  C   UNL A   1      32.936  23.171  22.723  1.00  0.00     0.011 A 
ATOM     24  C   UNL A   1      32.829  25.276  21.552  1.00  0.00     0.002 A 
ATOM     25  C   UNL A   1      32.969  23.895  21.533  1.00  0.00     0.001 A 
BRANCH  18  26
ATOM     26  S   UNL A   1      32.105  27.184  25.789  1.00  0.00     0.268 S 
ATOM     27  O   UNL A   1      33.318  27.925  25.514  1.00  0.00    -0.201 OA
ATOM     28  O   UNL A   1      31.556  27.070  27.130  1.00  0.00    -0.201 OA
BRANCH  26  29
ATOM     29  C   UNL A   1      30.829  27.856  24.750  1.00  0.00     0.088 A 
ATOM     30  C   UNL A   1      28.042  29.612  21.980  1.00  0.00     0.044 C 
ATOM     31  C   UNL A   1      29.001  29.001  22.960  1.00  0.00    -0.051 A 
ATOM     32  C   UNL A   1      30.049  29.766  23.483  1.00  0.00     0.005 A 
ATOM     33  C   UNL A   1      28.858  27.668  23.367  1.00  0.00     0.005 A 
ATOM     34  C   UNL A   1      30.965  29.196  24.370  1.00  0.00     0.022 A 
ATOM     35  C   UNL A   1      29.761  27.097  24.269  1.00  0.00     0.022 A 
ENDBRANCH  26  29
ENDBRANCH  18  26
ENDBRANCH  15  17
ENDBRANCH  12  15
ENDBRANCH  10  11
ENDBRANCH   7  10
ENDBRANCH   5   6
ENDBRANCH   1   5
BRANCH   3  36
ATOM     36  C   UNL A   1      40.748  20.339  27.152  1.00  0.00     0.117 C 
BRANCH  36  37
ATOM     37  C   UNL A   1      42.242  20.054  27.147  1.00  0.00     0.042 C 
BRANCH  37  38
ATOM     38  C   UNL A   1      43.046  21.322  27.284  1.00  0.00     0.118 C 
BRANCH  38  39
ATOM     39  N   UNL A   1      43.795  21.712  26.098  1.00  0.00    -0.352 N 
ATOM     40  C   UNL A   1      43.352  22.694  25.211  1.00  0.00     0.251 C 
ATOM     41  H   UNL A   1      44.651  21.263  25.913  1.00  0.00     0.163 HD
ATOM     42  O   UNL A   1      43.377  22.579  23.994  1.00  0.00    -0.269 OA
BRANCH  40  43
ATOM     43  C   UNL A   1      42.968  23.975  25.844  1.00  0.00     0.039 A 
ATOM     44  C   UNL A   1      42.952  25.135  25.060  1.00  0.00     0.014 A 
ATOM     45  C   UNL A   1      43.010  24.045  27.230  1.00  0.00     0.014 A 
ATOM     46  C   UNL A   1      43.207  26.357  25.663  1.00  0.00     0.010 A 
ATOM     47  C   UNL A   1      43.483  25.194  27.787  1.00  0.00     0.010 A 
ATOM     48  C   UNL A   1      43.585  26.342  26.998  1.00  0.00    -0.014 A 
BRANCH  48  49
ATOM     49  C   UNL A   1      43.965  27.488  27.784  1.00  0.00     0.031 A 
ATOM     50  C   UNL A   1      42.864  28.415  28.109  1.00  0.00     0.074 A 
ATOM     51  C   UNL A   1      45.160  27.421  28.407  1.00  0.00     0.049 A 
ATOM     52  N   UNL A   1      43.026  29.563  28.645  1.00  0.00    -0.248 NA
ATOM     53  C   UNL A   1      41.450  28.117  27.832  1.00  0.00     0.031 C 
ATOM     54  C   UNL A   1      45.638  28.137  29.582  1.00  0.00     0.029 A 
ATOM     55  N   UNL A   1      46.298  26.777  27.928  1.00  0.00    -0.354 N 
ATOM     56  C   UNL A   1      41.791  29.974  29.100  1.00  0.00     0.074 A 
ATOM     57  C   UNL A   1      40.828  29.103  28.487  1.00  0.00     0.031 C 
ATOM     58  C   UNL A   1      46.986  28.139  29.572  1.00  0.00     0.029 A 
ATOM     59  C   UNL A   1      47.409  27.545  28.310  1.00  0.00     0.049 A 
ATOM     60  H   UNL A   1      46.320  25.936  27.416  1.00  0.00     0.167 HD
ATOM     61  C   UNL A   1      41.759  30.905  30.088  1.00  0.00     0.031 A 
ATOM     62  C   UNL A   1      48.095  28.218  27.333  1.00  0.00     0.031 A 
ATOM     63  C   UNL A   1      43.117  31.344  30.386  1.00  0.00     0.049 A 
ATOM     64  C   UNL A   1      47.873  29.717  27.430  1.00  0.00     0.074 A 
ATOM     65  C   UNL A   1      44.038  30.950  31.343  1.00  0.00     0.029 A 
ATOM     66  N   UNL A   1      43.832  31.978  29.382  1.00  0.00    -0.354 N 
ATOM     67  N   UNL A   1      46.824  30.275  27.978  1.00  0.00    -0.248 NA
ATOM     68  C   UNL A   1      48.863  30.703  27.006  1.00  0.00     0.031 C 
ATOM     69  C   UNL A   1      45.332  31.277  30.852  1.00  0.00     0.029 A 
ATOM     70  C   UNL A   1      45.189  31.875  29.611  1.00  0.00     0.049 A 
ATOM     71  H   UNL A   1      43.427  32.437  28.609  1.00  0.00     0.167 HD
ATOM     72  C   UNL A   1      47.006  31.632  28.055  1.00  0.00     0.074 A 
ATOM     73  C   UNL A   1      48.292  31.851  27.414  1.00  0.00     0.031 C 
ATOM     74  C   UNL A   1      46.120  32.475  28.668  1.00  0.00     0.031 A 
BRANCH  61  75
ATOM     75  C   UNL A   1      40.576  31.222  30.955  1.00  0.00    -0.014 A 
ATOM     76  C   UNL A   1      39.907  32.442  30.730  1.00  0.00     0.010 A 
ATOM     77  C   UNL A   1      40.068  30.404  31.982  1.00  0.00     0.010 A 
ATOM     78  C   UNL A   1      38.802  32.840  31.485  1.00  0.00     0.020 A 
ATOM     79  C   UNL A   1      38.964  30.798  32.760  1.00  0.00     0.020 A 
ATOM     80  C   UNL A   1      38.333  32.014  32.498  1.00  0.00     0.054 A 
BRANCH  80  81
ATOM     81  S   UNL A   1      36.872  32.549  33.424  1.00  0.00     0.124 S 
ATOM     82  O   UNL A   1      37.186  32.114  34.784  1.00  0.00    -0.237 OA
ATOM     83  O   UNL A   1      36.878  33.994  33.211  1.00  0.00    -0.237 OA
ATOM     84  O   UNL A   1      35.772  31.832  32.785  1.00  0.00    -0.744 OA
ENDBRANCH  80  81
ENDBRANCH  61  75
BRANCH  62  85
ATOM     85  C   UNL A   1      48.232  27.390  26.083  1.00  0.00    -0.014 A 
ATOM     86  C   UNL A   1      47.251  27.605  25.082  1.00  0.00     0.010 A 
ATOM     87  C   UNL A   1      49.482  26.881  25.685  1.00  0.00     0.010 A 
ATOM     88  C   UNL A   1      47.586  27.554  23.722  1.00  0.00     0.020 A 
ATOM     89  C   UNL A   1      49.809  26.800  24.316  1.00  0.00     0.020 A 
ATOM     90  C   UNL A   1      48.889  27.229  23.354  1.00  0.00     0.054 A 
BRANCH  90  91
ATOM     91  S   UNL A   1      49.407  27.564  21.637  1.00  0.00     0.124 S 
ATOM     92  O   UNL A   1      50.800  27.129  21.638  1.00  0.00    -0.237 OA
ATOM     93  O   UNL A   1      48.485  26.732  20.856  1.00  0.00    -0.237 OA
ATOM     94  O   UNL A   1      49.207  29.002  21.496  1.00  0.00    -0.744 OA
ENDBRANCH  90  91
ENDBRANCH  62  85
BRANCH  74  95
ATOM     95  C   UNL A   1      46.057  33.980  28.504  1.00  0.00    -0.014 A 
ATOM     96  C   UNL A   1      46.509  34.895  29.462  1.00  0.00     0.010 A 
ATOM     97  C   UNL A   1      45.654  34.521  27.253  1.00  0.00     0.010 A 
ATOM     98  C   UNL A   1      46.495  36.273  29.214  1.00  0.00     0.020 A 
ATOM     99  C   UNL A   1      45.709  35.883  26.966  1.00  0.00     0.020 A 
ATOM    100  C   UNL A   1      46.097  36.757  27.967  1.00  0.00     0.054 A 
BRANCH 100 101
ATOM    101  S   UNL A   1      46.123  38.536  27.664  1.00  0.00     0.124 S 
ATOM    102  O   UNL A   1      45.714  38.604  26.264  1.00  0.00    -0.237 OA
ATOM    103  O   UNL A   1      45.148  39.040  28.628  1.00  0.00    -0.237 OA
ATOM    104  O   UNL A   1      47.508  38.916  27.932  1.00  0.00    -0.744 OA
ENDBRANCH 100 101
ENDBRANCH  74  95
ENDBRANCH  48  49
ENDBRANCH  40  43
ENDBRANCH  38  39
ENDBRANCH  37  38
ENDBRANCH  36  37
ENDBRANCH   3  36
TORSDOF 20
ENDMDL
