MODEL 1
REMARK VINA RESULT:     -10.7      0.000      0.000
REMARK SMILES COc1ccc(CCN2C(=O)C[C@@H](C(=O)NCCCNC(=O)c3ccc(-c4c5nc(c(-c6ccc(S(=O)(=O)[O-])cc6)c6ccc([nH]6)c(-c6ccc(S(=O)(=O)[O-])cc6)c6nc(c(-c7ccc(S(=O)(=O)[O-])cc7)c7ccc4[nH]7)C=C6)C=C5)cc3)S/C2=[NH+]\c2ccc(F)cc2)cc1OC
REMARK SMILES IDX 17 1 16 2 14 3 15 4 13 6 9 7 10 8 84 9 11 10 12 11 83 12
REMARK SMILES IDX 85 13 8 15 7 16 6 17 3 18 4 19 94 20 5 21 93 22 2 23 1 24
REMARK SMILES IDX 95 25 96 26 86 27 87 28 92 29 88 30 91 31 89 32 90 33 18 34
REMARK SMILES IDX 19 35 20 36 21 37 22 39 23 40 24 41 82 42 25 43 81 44 26 45
REMARK SMILES IDX 27 46 28 47 75 48 29 49 80 50 74 51 76 52 30 53 79 54 73 55
REMARK SMILES IDX 72 56 31 58 61 59 42 60 60 61 43 62 46 63 59 64 77 65 44 66
REMARK SMILES IDX 45 67 58 69 78 70 47 71 32 72 33 73 41 74 34 75 40 76 35 77
REMARK SMILES IDX 36 78 37 79 38 80 39 81 62 82 63 83 71 84 64 85 70 86 65 87
REMARK SMILES IDX 66 88 67 89 68 90 69 91 48 92 49 93 57 94 50 95 56 96 51 97
REMARK SMILES IDX 52 98 53 99 54 100 55 101
REMARK H PARENT 16 5 85 14 20 38 76 57 46 68
REMARK Flexibility Score: inf
ROOT
ATOM      1  C   UNL A   1      45.544  39.436  29.572  1.00  0.00     0.117 C 
ENDROOT
BRANCH   1   2
ATOM      2  N   UNL A   1      45.593  38.694  28.330  1.00  0.00    -0.355 N 
ATOM      3  C   UNL A   1      45.210  39.075  27.068  1.00  0.00     0.234 C 
ATOM      4  O   UNL A   1      45.619  38.387  26.128  1.00  0.00    -0.274 OA
ATOM      5  H   UNL A   1      45.957  37.782  28.400  1.00  0.00     0.163 HD
BRANCH   3   6
ATOM      6  C   UNL A   1      44.301  40.295  26.789  1.00  0.00     0.160 C 
ATOM      7  N   UNL A   1      42.683  41.924  24.874  1.00  0.00    -0.191 N 
ATOM      8  C   UNL A   1      42.066  41.015  25.727  1.00  0.00     0.311 C 
ATOM      9  C   UNL A   1      43.940  42.469  25.104  1.00  0.00     0.319 C 
ATOM     10  O   UNL A   1      40.847  41.017  25.922  1.00  0.00    -0.247 OA
ATOM     11  C   UNL A   1      42.894  39.933  26.388  1.00  0.00     0.153 C 
ATOM     12  S   UNL A   1      45.171  41.368  25.653  1.00  0.00    -0.024 SA
ATOM     13  N   UNL A   1      44.176  43.713  24.816  1.00  0.00    -0.235 N 
ATOM     14  H   UNL A   1      43.474  44.269  24.407  1.00  0.00     0.313 HD
BRANCH   7  15
ATOM     15  C   UNL A   1      41.842  42.532  23.817  1.00  0.00     0.251 C 
BRANCH  15  16
ATOM     16  C   UNL A   1      41.941  41.822  22.425  1.00  0.00     0.082 C 
BRANCH  16  17
ATOM     17  C   UNL A   1      42.580  42.618  21.296  1.00  0.00    -0.040 A 
ATOM     18  C   UNL A   1      43.873  44.066  19.227  1.00  0.00     0.160 A 
ATOM     19  C   UNL A   1      44.559  43.710  20.377  1.00  0.00     0.051 A 
ATOM     20  C   UNL A   1      42.512  43.758  19.122  1.00  0.00     0.160 A 
ATOM     21  C   UNL A   1      43.894  43.055  21.411  1.00  0.00     0.008 A 
ATOM     22  C   UNL A   1      41.883  43.009  20.142  1.00  0.00     0.054 A 
BRANCH  18  23
ATOM     23  O   UNL A   1      44.553  44.639  18.186  1.00  0.00    -0.493 OA
ATOM     24  C   UNL A   1      44.846  46.018  18.414  1.00  0.00     0.278 C 
ENDBRANCH  18  23
BRANCH  20  25
ATOM     25  O   UNL A   1      41.695  44.117  18.078  1.00  0.00    -0.493 OA
ATOM     26  C   UNL A   1      41.367  45.505  18.005  1.00  0.00     0.278 C 
ENDBRANCH  20  25
ENDBRANCH  16  17
ENDBRANCH  15  16
ENDBRANCH   7  15
BRANCH  13  27
ATOM     27  C   UNL A   1      45.442  44.261  25.091  1.00  0.00     0.125 A 
ATOM     28  C   UNL A   1      45.704  44.807  26.355  1.00  0.00     0.055 A 
ATOM     29  C   UNL A   1      46.467  44.215  24.137  1.00  0.00     0.055 A 
ATOM     30  C   UNL A   1      46.992  45.230  26.687  1.00  0.00     0.043 A 
ATOM     31  C   UNL A   1      47.758  44.629  24.471  1.00  0.00     0.043 A 
ATOM     32  C   UNL A   1      48.010  45.121  25.746  1.00  0.00     0.123 A 
ATOM     33  F   UNL A   1      49.255  45.489  26.079  1.00  0.00    -0.207 F 
ENDBRANCH  13  27
ENDBRANCH   3   6
ENDBRANCH   1   2
BRANCH   1  34
ATOM     34  C   UNL A   1      45.087  38.673  30.808  1.00  0.00     0.042 C 
BRANCH  34  35
ATOM     35  C   UNL A   1      45.877  37.409  31.122  1.00  0.00     0.118 C 
BRANCH  35  36
ATOM     36  N   UNL A   1      47.296  37.483  30.778  1.00  0.00    -0.352 N 
ATOM     37  C   UNL A   1      48.118  36.567  30.163  1.00  0.00     0.251 C 
ATOM     38  H   UNL A   1      47.736  38.325  31.030  1.00  0.00     0.163 HD
ATOM     39  O   UNL A   1      49.306  36.839  29.995  1.00  0.00    -0.269 OA
BRANCH  37  40
ATOM     40  C   UNL A   1      47.601  35.256  29.735  1.00  0.00     0.039 A 
ATOM     41  C   UNL A   1      47.627  34.173  30.625  1.00  0.00     0.014 A 
ATOM     42  C   UNL A   1      47.117  35.089  28.440  1.00  0.00     0.014 A 
ATOM     43  C   UNL A   1      47.107  32.935  30.231  1.00  0.00     0.010 A 
ATOM     44  C   UNL A   1      46.525  33.890  28.080  1.00  0.00     0.010 A 
ATOM     45  C   UNL A   1      46.533  32.795  28.961  1.00  0.00    -0.014 A 
BRANCH  45  46
ATOM     46  C   UNL A   1      46.017  31.509  28.435  1.00  0.00     0.031 A 
ATOM     47  C   UNL A   1      44.569  31.180  28.682  1.00  0.00     0.074 A 
ATOM     48  C   UNL A   1      46.850  30.600  27.895  1.00  0.00     0.049 A 
ATOM     49  N   UNL A   1      43.961  30.026  28.630  1.00  0.00    -0.248 NA
ATOM     50  C   UNL A   1      43.708  32.301  29.101  1.00  0.00     0.031 C 
ATOM     51  C   UNL A   1      48.267  30.810  27.596  1.00  0.00     0.029 A 
ATOM     52  N   UNL A   1      46.624  29.293  27.541  1.00  0.00    -0.354 N 
ATOM     53  C   UNL A   1      42.659  30.273  29.053  1.00  0.00     0.074 A 
ATOM     54  C   UNL A   1      42.580  31.674  29.399  1.00  0.00     0.031 C 
ATOM     55  C   UNL A   1      48.785  29.669  27.110  1.00  0.00     0.029 A 
ATOM     56  C   UNL A   1      47.756  28.633  27.123  1.00  0.00     0.049 A 
ATOM     57  H   UNL A   1      45.736  28.869  27.581  1.00  0.00     0.167 HD
ATOM     58  C   UNL A   1      41.623  29.408  29.137  1.00  0.00     0.031 A 
ATOM     59  C   UNL A   1      47.946  27.333  26.824  1.00  0.00     0.031 A 
ATOM     60  C   UNL A   1      41.716  28.024  28.763  1.00  0.00     0.049 A 
ATOM     61  C   UNL A   1      46.783  26.380  26.947  1.00  0.00     0.074 A 
ATOM     62  C   UNL A   1      40.722  27.063  28.770  1.00  0.00     0.029 A 
ATOM     63  N   UNL A   1      42.870  27.409  28.301  1.00  0.00    -0.354 N 
ATOM     64  N   UNL A   1      45.555  26.625  27.342  1.00  0.00    -0.248 NA
ATOM     65  C   UNL A   1      47.028  24.979  26.580  1.00  0.00     0.031 C 
ATOM     66  C   UNL A   1      41.286  25.854  28.352  1.00  0.00     0.029 A 
ATOM     67  C   UNL A   1      42.615  26.079  28.023  1.00  0.00     0.049 A 
ATOM     68  H   UNL A   1      43.741  27.853  28.188  1.00  0.00     0.167 HD
ATOM     69  C   UNL A   1      44.871  25.420  27.221  1.00  0.00     0.074 A 
ATOM     70  C   UNL A   1      45.821  24.448  26.721  1.00  0.00     0.031 C 
ATOM     71  C   UNL A   1      43.571  25.143  27.491  1.00  0.00     0.031 A 
BRANCH  58  72
ATOM     72  C   UNL A   1      40.309  29.933  29.651  1.00  0.00    -0.014 A 
ATOM     73  C   UNL A   1      39.258  30.248  28.771  1.00  0.00     0.010 A 
ATOM     74  C   UNL A   1      40.105  30.074  31.036  1.00  0.00     0.010 A 
ATOM     75  C   UNL A   1      38.042  30.728  29.263  1.00  0.00     0.020 A 
ATOM     76  C   UNL A   1      38.878  30.521  31.534  1.00  0.00     0.020 A 
ATOM     77  C   UNL A   1      37.859  30.859  30.642  1.00  0.00     0.054 A 
BRANCH  77  78
ATOM     78  S   UNL A   1      36.255  31.445  31.250  1.00  0.00     0.124 S 
ATOM     79  O   UNL A   1      35.841  30.343  32.116  1.00  0.00    -0.237 OA
ATOM     80  O   UNL A   1      36.606  32.684  31.937  1.00  0.00    -0.237 OA
ATOM     81  O   UNL A   1      35.461  31.611  30.034  1.00  0.00    -0.744 OA
ENDBRANCH  77  78
ENDBRANCH  58  72
BRANCH  59  82
ATOM     82  C   UNL A   1      49.283  26.849  26.378  1.00  0.00    -0.014 A 
ATOM     83  C   UNL A   1      49.721  27.090  25.064  1.00  0.00     0.010 A 
ATOM     84  C   UNL A   1      50.121  26.138  27.256  1.00  0.00     0.010 A 
ATOM     85  C   UNL A   1      50.956  26.604  24.626  1.00  0.00     0.020 A 
ATOM     86  C   UNL A   1      51.372  25.679  26.832  1.00  0.00     0.020 A 
ATOM     87  C   UNL A   1      51.775  25.902  25.513  1.00  0.00     0.054 A 
BRANCH  87  88
ATOM     88  S   UNL A   1      53.387  25.306  24.929  1.00  0.00     0.124 S 
ATOM     89  O   UNL A   1      53.325  25.612  23.504  1.00  0.00    -0.237 OA
ATOM     90  O   UNL A   1      54.322  26.112  25.712  1.00  0.00    -0.237 OA
ATOM     91  O   UNL A   1      53.368  23.884  25.267  1.00  0.00    -0.744 OA
ENDBRANCH  87  88
ENDBRANCH  59  82
BRANCH  71  92
ATOM     92  C   UNL A   1      43.067  23.762  27.172  1.00  0.00    -0.014 A 
ATOM     93  C   UNL A   1      42.696  23.394  25.868  1.00  0.00     0.010 A 
ATOM     94  C   UNL A   1      43.068  22.787  28.188  1.00  0.00     0.010 A 
ATOM     95  C   UNL A   1      42.323  22.077  25.589  1.00  0.00     0.020 A 
ATOM     96  C   UNL A   1      42.723  21.465  27.907  1.00  0.00     0.020 A 
ATOM     97  C   UNL A   1      42.346  21.119  26.609  1.00  0.00     0.054 A 
BRANCH  97  98
ATOM     98  S   UNL A   1      41.938  19.400  26.200  1.00  0.00     0.124 S 
ATOM     99  O   UNL A   1      42.312  18.699  27.425  1.00  0.00    -0.237 OA
ATOM    100  O   UNL A   1      40.505  19.468  25.927  1.00  0.00    -0.237 OA
ATOM    101  O   UNL A   1      42.775  19.111  25.038  1.00  0.00    -0.744 OA
ENDBRANCH  97  98
ENDBRANCH  71  92
ENDBRANCH  45  46
ENDBRANCH  37  40
ENDBRANCH  35  36
ENDBRANCH  34  35
ENDBRANCH   1  34
TORSDOF 19
ENDMDL
MODEL 2
REMARK VINA RESULT:      -9.9      9.782     16.417
REMARK SMILES COc1ccc(CCN2C(=O)C[C@@H](C(=O)NCCCNC(=O)c3ccc(-c4c5nc(c(-c6ccc(S(=O)(=O)[O-])cc6)c6ccc([nH]6)c(-c6ccc(S(=O)(=O)[O-])cc6)c6nc(c(-c7ccc(S(=O)(=O)[O-])cc7)c7ccc4[nH]7)C=C6)C=C5)cc3)S/C2=[NH+]\c2ccc(F)cc2)cc1OC
REMARK SMILES IDX 17 1 16 2 14 3 15 4 13 6 9 7 10 8 84 9 11 10 12 11 83 12
REMARK SMILES IDX 85 13 8 15 7 16 6 17 3 18 4 19 94 20 5 21 93 22 2 23 1 24
REMARK SMILES IDX 95 25 96 26 86 27 87 28 92 29 88 30 91 31 89 32 90 33 18 34
REMARK SMILES IDX 19 35 20 36 21 37 22 39 23 40 24 41 82 42 25 43 81 44 26 45
REMARK SMILES IDX 27 46 28 47 75 48 29 49 80 50 74 51 76 52 30 53 79 54 73 55
REMARK SMILES IDX 72 56 31 58 61 59 42 60 60 61 43 62 46 63 59 64 77 65 44 66
REMARK SMILES IDX 45 67 58 69 78 70 47 71 32 72 33 73 41 74 34 75 40 76 35 77
REMARK SMILES IDX 36 78 37 79 38 80 39 81 62 82 63 83 71 84 64 85 70 86 65 87
REMARK SMILES IDX 66 88 67 89 68 90 69 91 48 92 49 93 57 94 50 95 56 96 51 97
REMARK SMILES IDX 52 98 53 99 54 100 55 101
REMARK H PARENT 16 5 85 14 20 38 76 57 46 68
REMARK Flexibility Score: inf
ROOT
ATOM      1  C   UNL A   1      34.329  28.472  26.332  1.00  0.00     0.117 C 
ENDROOT
BRANCH   1   2
ATOM      2  N   UNL A   1      33.185  27.662  26.694  1.00  0.00    -0.355 N 
ATOM      3  C   UNL A   1      32.774  26.454  26.188  1.00  0.00     0.234 C 
ATOM      4  O   UNL A   1      31.948  25.822  26.853  1.00  0.00    -0.274 OA
ATOM      5  H   UNL A   1      32.620  28.032  27.410  1.00  0.00     0.163 HD
BRANCH   3   6
ATOM      6  C   UNL A   1      33.286  25.876  24.848  1.00  0.00     0.160 C 
ATOM      7  N   UNL A   1      33.218  23.728  22.769  1.00  0.00    -0.191 N 
ATOM      8  C   UNL A   1      32.528  24.920  22.579  1.00  0.00     0.311 C 
ATOM      9  C   UNL A   1      34.289  23.588  23.644  1.00  0.00     0.319 C 
ATOM     10  O   UNL A   1      32.083  25.255  21.477  1.00  0.00    -0.247 OA
ATOM     11  C   UNL A   1      32.238  25.812  23.767  1.00  0.00     0.153 C 
ATOM     12  S   UNL A   1      34.114  24.332  25.207  1.00  0.00    -0.024 SA
ATOM     13  N   UNL A   1      35.306  22.847  23.319  1.00  0.00    -0.235 N 
ATOM     14  H   UNL A   1      35.310  22.360  22.463  1.00  0.00     0.313 HD
BRANCH   7  15
ATOM     15  C   UNL A   1      32.964  22.640  21.797  1.00  0.00     0.251 C 
BRANCH  15  16
ATOM     16  C   UNL A   1      31.846  21.634  22.233  1.00  0.00     0.082 C 
BRANCH  16  17
ATOM     17  C   UNL A   1      32.286  20.451  23.084  1.00  0.00    -0.040 A 
ATOM     18  C   UNL A   1      33.130  18.190  24.574  1.00  0.00     0.160 A 
ATOM     19  C   UNL A   1      32.741  18.060  23.251  1.00  0.00     0.051 A 
ATOM     20  C   UNL A   1      33.044  19.442  25.191  1.00  0.00     0.160 A 
ATOM     21  C   UNL A   1      32.269  19.167  22.552  1.00  0.00     0.008 A 
ATOM     22  C   UNL A   1      32.652  20.569  24.433  1.00  0.00     0.054 A 
BRANCH  18  23
ATOM     23  O   UNL A   1      33.666  17.113  25.229  1.00  0.00    -0.493 OA
ATOM     24  C   UNL A   1      32.679  16.154  25.608  1.00  0.00     0.278 C 
ENDBRANCH  18  23
BRANCH  20  25
ATOM     25  O   UNL A   1      33.322  19.699  26.511  1.00  0.00    -0.493 OA
ATOM     26  C   UNL A   1      33.742  21.033  26.801  1.00  0.00     0.278 C 
ENDBRANCH  20  25
ENDBRANCH  16  17
ENDBRANCH  15  16
ENDBRANCH   7  15
BRANCH  13  27
ATOM     27  C   UNL A   1      36.399  22.746  24.197  1.00  0.00     0.125 A 
ATOM     28  C   UNL A   1      36.802  23.865  24.938  1.00  0.00     0.055 A 
ATOM     29  C   UNL A   1      37.056  21.523  24.389  1.00  0.00     0.055 A 
ATOM     30  C   UNL A   1      37.796  23.746  25.911  1.00  0.00     0.043 A 
ATOM     31  C   UNL A   1      38.042  21.400  25.369  1.00  0.00     0.043 A 
ATOM     32  C   UNL A   1      38.394  22.510  26.128  1.00  0.00     0.123 A 
ATOM     33  F   UNL A   1      39.318  22.387  27.091  1.00  0.00    -0.207 F 
ENDBRANCH  13  27
ENDBRANCH   3   6
ENDBRANCH   1   2
BRANCH   1  34
ATOM     34  C   UNL A   1      34.328  29.915  26.817  1.00  0.00     0.042 C 
BRANCH  34  35
ATOM     35  C   UNL A   1      35.288  30.219  27.959  1.00  0.00     0.118 C 
BRANCH  35  36
ATOM     36  N   UNL A   1      34.778  31.177  28.939  1.00  0.00    -0.352 N 
ATOM     37  C   UNL A   1      35.356  31.689  30.077  1.00  0.00     0.251 C 
ATOM     38  H   UNL A   1      33.871  31.509  28.754  1.00  0.00     0.163 HD
ATOM     39  O   UNL A   1      34.720  32.477  30.776  1.00  0.00    -0.269 OA
BRANCH  37  40
ATOM     40  C   UNL A   1      36.709  31.277  30.488  1.00  0.00     0.039 A 
ATOM     41  C   UNL A   1      36.871  30.240  31.417  1.00  0.00     0.014 A 
ATOM     42  C   UNL A   1      37.822  31.939  29.975  1.00  0.00     0.014 A 
ATOM     43  C   UNL A   1      38.156  29.827  31.784  1.00  0.00     0.010 A 
ATOM     44  C   UNL A   1      39.093  31.473  30.271  1.00  0.00     0.010 A 
ATOM     45  C   UNL A   1      39.274  30.429  31.194  1.00  0.00    -0.014 A 
BRANCH  45  46
ATOM     46  C   UNL A   1      40.671  30.102  31.566  1.00  0.00     0.031 A 
ATOM     47  C   UNL A   1      41.349  28.979  30.829  1.00  0.00     0.074 A 
ATOM     48  C   UNL A   1      41.255  30.681  32.632  1.00  0.00     0.049 A 
ATOM     49  N   UNL A   1      42.405  28.288  31.161  1.00  0.00    -0.248 NA
ATOM     50  C   UNL A   1      40.712  28.545  29.572  1.00  0.00     0.031 C 
ATOM     51  C   UNL A   1      40.700  31.785  33.415  1.00  0.00     0.029 A 
ATOM     52  N   UNL A   1      42.437  30.384  33.264  1.00  0.00    -0.354 N 
ATOM     53  C   UNL A   1      42.531  27.308  30.182  1.00  0.00     0.074 A 
ATOM     54  C   UNL A   1      41.421  27.468  29.270  1.00  0.00     0.031 C 
ATOM     55  C   UNL A   1      41.538  32.068  34.429  1.00  0.00     0.029 A 
ATOM     56  C   UNL A   1      42.653  31.125  34.402  1.00  0.00     0.049 A 
ATOM     57  H   UNL A   1      43.069  29.705  32.934  1.00  0.00     0.167 HD
ATOM     58  C   UNL A   1      43.493  26.366  30.053  1.00  0.00     0.031 A 
ATOM     59  C   UNL A   1      43.621  31.027  35.335  1.00  0.00     0.031 A 
ATOM     60  C   UNL A   1      44.603  26.239  30.957  1.00  0.00     0.049 A 
ATOM     61  C   UNL A   1      44.670  29.953  35.185  1.00  0.00     0.074 A 
ATOM     62  C   UNL A   1      45.658  25.347  30.904  1.00  0.00     0.029 A 
ATOM     63  N   UNL A   1      44.808  27.041  32.069  1.00  0.00    -0.354 N 
ATOM     64  N   UNL A   1      44.783  29.036  34.252  1.00  0.00    -0.248 NA
ATOM     65  C   UNL A   1      45.723  29.903  36.208  1.00  0.00     0.031 C 
ATOM     66  C   UNL A   1      46.479  25.581  32.010  1.00  0.00     0.029 A 
ATOM     67  C   UNL A   1      45.971  26.663  32.714  1.00  0.00     0.049 A 
ATOM     68  H   UNL A   1      44.214  27.772  32.357  1.00  0.00     0.167 HD
ATOM     69  C   UNL A   1      45.948  28.335  34.549  1.00  0.00     0.074 A 
ATOM     70  C   UNL A   1      46.499  28.931  35.748  1.00  0.00     0.031 C 
ATOM     71  C   UNL A   1      46.515  27.298  33.886  1.00  0.00     0.031 A 
BRANCH  58  72
ATOM     72  C   UNL A   1      43.383  25.403  28.901  1.00  0.00    -0.014 A 
ATOM     73  C   UNL A   1      44.007  25.670  27.668  1.00  0.00     0.010 A 
ATOM     74  C   UNL A   1      42.683  24.193  29.063  1.00  0.00     0.010 A 
ATOM     75  C   UNL A   1      43.902  24.765  26.611  1.00  0.00     0.020 A 
ATOM     76  C   UNL A   1      42.606  23.269  28.018  1.00  0.00     0.020 A 
ATOM     77  C   UNL A   1      43.204  23.568  26.793  1.00  0.00     0.054 A 
BRANCH  77  78
ATOM     78  S   UNL A   1      43.122  22.395  25.413  1.00  0.00     0.124 S 
ATOM     79  O   UNL A   1      43.301  23.275  24.260  1.00  0.00    -0.237 OA
ATOM     80  O   UNL A   1      44.237  21.494  25.693  1.00  0.00    -0.237 OA
ATOM     81  O   UNL A   1      41.794  21.799  25.541  1.00  0.00    -0.744 OA
ENDBRANCH  77  78
ENDBRANCH  58  72
BRANCH  59  82
ATOM     82  C   UNL A   1      43.651  31.965  36.492  1.00  0.00    -0.014 A 
ATOM     83  C   UNL A   1      42.984  31.637  37.685  1.00  0.00     0.010 A 
ATOM     84  C   UNL A   1      44.335  33.191  36.409  1.00  0.00     0.010 A 
ATOM     85  C   UNL A   1      42.973  32.528  38.762  1.00  0.00     0.020 A 
ATOM     86  C   UNL A   1      44.355  34.072  37.495  1.00  0.00     0.020 A 
ATOM     87  C   UNL A   1      43.660  33.741  38.661  1.00  0.00     0.054 A 
BRANCH  87  88
ATOM     88  S   UNL A   1      43.656  34.868  40.082  1.00  0.00     0.124 S 
ATOM     89  O   UNL A   1      43.585  36.173  39.435  1.00  0.00    -0.237 OA
ATOM     90  O   UNL A   1      42.457  34.454  40.808  1.00  0.00    -0.237 OA
ATOM     91  O   UNL A   1      44.917  34.570  40.758  1.00  0.00    -0.744 OA
ENDBRANCH  87  88
ENDBRANCH  59  82
BRANCH  71  92
ATOM     92  C   UNL A   1      47.843  26.790  34.381  1.00  0.00    -0.014 A 
ATOM     93  C   UNL A   1      47.932  25.793  35.366  1.00  0.00     0.010 A 
ATOM     94  C   UNL A   1      49.020  27.255  33.762  1.00  0.00     0.010 A 
ATOM     95  C   UNL A   1      49.178  25.278  35.732  1.00  0.00     0.020 A 
ATOM     96  C   UNL A   1      50.262  26.722  34.105  1.00  0.00     0.020 A 
ATOM     97  C   UNL A   1      50.334  25.740  35.094  1.00  0.00     0.054 A 
BRANCH  97  98
ATOM     98  S   UNL A   1      51.929  24.994  35.530  1.00  0.00     0.124 S 
ATOM     99  O   UNL A   1      52.587  26.082  36.248  1.00  0.00    -0.237 OA
ATOM    100  O   UNL A   1      51.533  23.850  36.347  1.00  0.00    -0.237 OA
ATOM    101  O   UNL A   1      52.519  24.655  34.237  1.00  0.00    -0.744 OA
ENDBRANCH  97  98
ENDBRANCH  71  92
ENDBRANCH  45  46
ENDBRANCH  37  40
ENDBRANCH  35  36
ENDBRANCH  34  35
ENDBRANCH   1  34
TORSDOF 19
ENDMDL
MODEL 3
REMARK VINA RESULT:      -9.7      6.476     15.246
REMARK SMILES COc1ccc(CCN2C(=O)C[C@@H](C(=O)NCCCNC(=O)c3ccc(-c4c5nc(c(-c6ccc(S(=O)(=O)[O-])cc6)c6ccc([nH]6)c(-c6ccc(S(=O)(=O)[O-])cc6)c6nc(c(-c7ccc(S(=O)(=O)[O-])cc7)c7ccc4[nH]7)C=C6)C=C5)cc3)S/C2=[NH+]\c2ccc(F)cc2)cc1OC
REMARK SMILES IDX 17 1 16 2 14 3 15 4 13 6 9 7 10 8 84 9 11 10 12 11 83 12
REMARK SMILES IDX 85 13 8 15 7 16 6 17 3 18 4 19 94 20 5 21 93 22 2 23 1 24
REMARK SMILES IDX 95 25 96 26 86 27 87 28 92 29 88 30 91 31 89 32 90 33 18 34
REMARK SMILES IDX 19 35 20 36 21 37 22 39 23 40 24 41 82 42 25 43 81 44 26 45
REMARK SMILES IDX 27 46 28 47 75 48 29 49 80 50 74 51 76 52 30 53 79 54 73 55
REMARK SMILES IDX 72 56 31 58 61 59 42 60 60 61 43 62 46 63 59 64 77 65 44 66
REMARK SMILES IDX 45 67 58 69 78 70 47 71 32 72 33 73 41 74 34 75 40 76 35 77
REMARK SMILES IDX 36 78 37 79 38 80 39 81 62 82 63 83 71 84 64 85 70 86 65 87
REMARK SMILES IDX 66 88 67 89 68 90 69 91 48 92 49 93 57 94 50 95 56 96 51 97
REMARK SMILES IDX 52 98 53 99 54 100 55 101
REMARK H PARENT 16 5 85 14 20 38 76 57 46 68
REMARK Flexibility Score: inf
ROOT
ATOM      1  C   UNL A   1      33.581  28.225  26.427  1.00  0.00     0.117 C 
ENDROOT
BRANCH   1   2
ATOM      2  N   UNL A   1      32.192  28.008  26.082  1.00  0.00    -0.355 N 
ATOM      3  C   UNL A   1      31.644  27.157  25.154  1.00  0.00     0.234 C 
ATOM      4  O   UNL A   1      30.434  26.933  25.247  1.00  0.00    -0.274 OA
ATOM      5  H   UNL A   1      31.545  28.550  26.589  1.00  0.00     0.163 HD
BRANCH   3   6
ATOM      6  C   UNL A   1      32.463  26.495  24.021  1.00  0.00     0.160 C 
ATOM      7  N   UNL A   1      32.960  24.160  22.221  1.00  0.00    -0.191 N 
ATOM      8  C   UNL A   1      32.264  25.273  21.762  1.00  0.00     0.311 C 
ATOM      9  C   UNL A   1      33.823  24.184  23.310  1.00  0.00     0.319 C 
ATOM     10  O   UNL A   1      32.050  25.467  20.561  1.00  0.00    -0.247 OA
ATOM     11  C   UNL A   1      31.678  26.250  22.759  1.00  0.00     0.153 C 
ATOM     12  S   UNL A   1      33.275  25.058  24.711  1.00  0.00    -0.024 SA
ATOM     13  N   UNL A   1      34.923  23.494  23.287  1.00  0.00    -0.235 N 
ATOM     14  H   UNL A   1      35.138  22.929  22.510  1.00  0.00     0.313 HD
BRANCH   7  15
ATOM     15  C   UNL A   1      32.979  22.968  21.341  1.00  0.00     0.251 C 
BRANCH  15  16
ATOM     16  C   UNL A   1      31.930  21.870  21.719  1.00  0.00     0.082 C 
BRANCH  16  17
ATOM     17  C   UNL A   1      32.399  20.774  22.666  1.00  0.00    -0.040 A 
ATOM     18  C   UNL A   1      33.264  18.656  24.344  1.00  0.00     0.160 A 
ATOM     19  C   UNL A   1      32.528  18.396  23.199  1.00  0.00     0.051 A 
ATOM     20  C   UNL A   1      33.524  19.984  24.701  1.00  0.00     0.160 A 
ATOM     21  C   UNL A   1      32.056  19.450  22.420  1.00  0.00     0.008 A 
ATOM     22  C   UNL A   1      33.118  21.031  23.843  1.00  0.00     0.054 A 
BRANCH  18  23
ATOM     23  O   UNL A   1      33.788  17.614  25.060  1.00  0.00    -0.493 OA
ATOM     24  C   UNL A   1      32.784  16.818  25.688  1.00  0.00     0.278 C 
ENDBRANCH  18  23
BRANCH  20  25
ATOM     25  O   UNL A   1      34.171  20.387  25.843  1.00  0.00    -0.493 OA
ATOM     26  C   UNL A   1      33.386  21.158  26.753  1.00  0.00     0.278 C 
ENDBRANCH  20  25
ENDBRANCH  16  17
ENDBRANCH  15  16
ENDBRANCH   7  15
BRANCH  13  27
ATOM     27  C   UNL A   1      35.805  23.559  24.381  1.00  0.00     0.125 A 
ATOM     28  C   UNL A   1      37.124  23.106  24.238  1.00  0.00     0.055 A 
ATOM     29  C   UNL A   1      35.402  24.127  25.596  1.00  0.00     0.055 A 
ATOM     30  C   UNL A   1      38.047  23.288  25.270  1.00  0.00     0.043 A 
ATOM     31  C   UNL A   1      36.327  24.319  26.624  1.00  0.00     0.043 A 
ATOM     32  C   UNL A   1      37.643  23.908  26.446  1.00  0.00     0.123 A 
ATOM     33  F   UNL A   1      38.539  24.119  27.419  1.00  0.00    -0.207 F 
ENDBRANCH  13  27
ENDBRANCH   3   6
ENDBRANCH   1   2
BRANCH   1  34
ATOM     34  C   UNL A   1      33.956  29.617  26.918  1.00  0.00     0.042 C 
BRANCH  34  35
ATOM     35  C   UNL A   1      35.125  29.670  27.892  1.00  0.00     0.118 C 
BRANCH  35  36
ATOM     36  N   UNL A   1      35.080  30.793  28.827  1.00  0.00    -0.352 N 
ATOM     37  C   UNL A   1      36.068  31.356  29.601  1.00  0.00     0.251 C 
ATOM     38  H   UNL A   1      34.196  31.216  28.919  1.00  0.00     0.163 HD
ATOM     39  O   UNL A   1      35.792  32.295  30.346  1.00  0.00    -0.269 OA
BRANCH  37  40
ATOM     40  C   UNL A   1      37.442  30.824  29.575  1.00  0.00     0.039 A 
ATOM     41  C   UNL A   1      38.100  30.534  30.779  1.00  0.00     0.014 A 
ATOM     42  C   UNL A   1      38.093  30.641  28.358  1.00  0.00     0.014 A 
ATOM     43  C   UNL A   1      39.392  29.999  30.755  1.00  0.00     0.010 A 
ATOM     44  C   UNL A   1      39.336  30.032  28.331  1.00  0.00     0.010 A 
ATOM     45  C   UNL A   1      40.008  29.725  29.527  1.00  0.00    -0.014 A 
BRANCH  45  46
ATOM     46  C   UNL A   1      41.396  29.220  29.403  1.00  0.00     0.031 A 
ATOM     47  C   UNL A   1      42.517  30.220  29.497  1.00  0.00     0.074 A 
ATOM     48  C   UNL A   1      41.637  27.941  29.061  1.00  0.00     0.049 A 
ATOM     49  N   UNL A   1      43.758  30.112  29.107  1.00  0.00    -0.248 NA
ATOM     50  C   UNL A   1      42.171  31.539  30.058  1.00  0.00     0.031 C 
ATOM     51  C   UNL A   1      40.634  26.882  28.952  1.00  0.00     0.029 A 
ATOM     52  N   UNL A   1      42.811  27.328  28.699  1.00  0.00    -0.354 N 
ATOM     53  C   UNL A   1      44.327  31.362  29.330  1.00  0.00     0.074 A 
ATOM     54  C   UNL A   1      43.286  32.220  29.848  1.00  0.00     0.031 C 
ATOM     55  C   UNL A   1      41.235  25.750  28.543  1.00  0.00     0.029 A 
ATOM     56  C   UNL A   1      42.649  26.022  28.301  1.00  0.00     0.049 A 
ATOM     57  H   UNL A   1      43.685  27.781  28.722  1.00  0.00     0.167 HD
ATOM     58  C   UNL A   1      45.606  31.752  29.128  1.00  0.00     0.031 A 
ATOM     59  C   UNL A   1      43.534  25.157  27.766  1.00  0.00     0.031 A 
ATOM     60  C   UNL A   1      46.633  30.875  28.636  1.00  0.00     0.049 A 
ATOM     61  C   UNL A   1      44.950  25.621  27.527  1.00  0.00     0.074 A 
ATOM     62  C   UNL A   1      47.972  31.150  28.429  1.00  0.00     0.029 A 
ATOM     63  N   UNL A   1      46.435  29.547  28.291  1.00  0.00    -0.354 N 
ATOM     64  N   UNL A   1      45.479  26.802  27.747  1.00  0.00    -0.248 NA
ATOM     65  C   UNL A   1      45.888  24.636  26.972  1.00  0.00     0.031 C 
ATOM     66  C   UNL A   1      48.576  29.999  27.915  1.00  0.00     0.029 A 
ATOM     67  C   UNL A   1      47.626  28.989  27.867  1.00  0.00     0.049 A 
ATOM     68  H   UNL A   1      45.574  29.072  28.340  1.00  0.00     0.167 HD
ATOM     69  C   UNL A   1      46.822  26.685  27.407  1.00  0.00     0.074 A 
ATOM     70  C   UNL A   1      47.024  25.321  26.962  1.00  0.00     0.031 C 
ATOM     71  C   UNL A   1      47.805  27.618  27.464  1.00  0.00     0.031 A 
BRANCH  58  72
ATOM     72  C   UNL A   1      45.961  33.183  29.437  1.00  0.00    -0.014 A 
ATOM     73  C   UNL A   1      46.422  33.558  30.711  1.00  0.00     0.010 A 
ATOM     74  C   UNL A   1      45.875  34.159  28.426  1.00  0.00     0.010 A 
ATOM     75  C   UNL A   1      46.754  34.888  30.980  1.00  0.00     0.020 A 
ATOM     76  C   UNL A   1      46.240  35.483  28.683  1.00  0.00     0.020 A 
ATOM     77  C   UNL A   1      46.663  35.842  29.963  1.00  0.00     0.054 A 
BRANCH  77  78
ATOM     78  S   UNL A   1      47.142  37.551  30.334  1.00  0.00     0.124 S 
ATOM     79  O   UNL A   1      48.381  37.687  29.573  1.00  0.00    -0.237 OA
ATOM     80  O   UNL A   1      46.007  38.318  29.827  1.00  0.00    -0.237 OA
ATOM     81  O   UNL A   1      47.299  37.561  31.786  1.00  0.00    -0.744 OA
ENDBRANCH  77  78
ENDBRANCH  58  72
BRANCH  59  82
ATOM     82  C   UNL A   1      43.118  23.769  27.420  1.00  0.00    -0.014 A 
ATOM     83  C   UNL A   1      42.629  23.478  26.134  1.00  0.00     0.010 A 
ATOM     84  C   UNL A   1      43.198  22.735  28.369  1.00  0.00     0.010 A 
ATOM     85  C   UNL A   1      42.200  22.187  25.813  1.00  0.00     0.020 A 
ATOM     86  C   UNL A   1      42.800  21.434  28.042  1.00  0.00     0.020 A 
ATOM     87  C   UNL A   1      42.288  21.172  26.769  1.00  0.00     0.054 A 
BRANCH  87  88
ATOM     88  S   UNL A   1      41.750  19.499  26.319  1.00  0.00     0.124 S 
ATOM     89  O   UNL A   1      42.130  18.730  27.499  1.00  0.00    -0.237 OA
ATOM     90  O   UNL A   1      40.315  19.676  26.111  1.00  0.00    -0.237 OA
ATOM     91  O   UNL A   1      42.516  19.209  25.108  1.00  0.00    -0.744 OA
ENDBRANCH  87  88
ENDBRANCH  59  82
BRANCH  71  92
ATOM     92  C   UNL A   1      49.205  27.185  27.124  1.00  0.00    -0.014 A 
ATOM     93  C   UNL A   1      50.120  26.797  28.117  1.00  0.00     0.010 A 
ATOM     94  C   UNL A   1      49.569  27.067  25.768  1.00  0.00     0.010 A 
ATOM     95  C   UNL A   1      51.380  26.311  27.759  1.00  0.00     0.020 A 
ATOM     96  C   UNL A   1      50.815  26.555  25.407  1.00  0.00     0.020 A 
ATOM     97  C   UNL A   1      51.716  26.185  26.406  1.00  0.00     0.054 A 
BRANCH  97  98
ATOM     98  S   UNL A   1      53.326  25.472  25.970  1.00  0.00     0.124 S 
ATOM     99  O   UNL A   1      54.005  25.442  27.262  1.00  0.00    -0.237 OA
ATOM    100  O   UNL A   1      52.960  24.170  25.421  1.00  0.00    -0.237 OA
ATOM    101  O   UNL A   1      53.874  26.420  25.002  1.00  0.00    -0.744 OA
ENDBRANCH  97  98
ENDBRANCH  71  92
ENDBRANCH  45  46
ENDBRANCH  37  40
ENDBRANCH  35  36
ENDBRANCH  34  35
ENDBRANCH   1  34
TORSDOF 19
ENDMDL
