MODEL 1
REMARK VINA RESULT:     -12.9      0.000      0.000
REMARK SMILES Nc1oc2ccc(F)cc2c(=O)c1[C@@H]1[NH2+][C@H](C(=O)NCCCNC(=O)c2ccc(-c3c4nc(c(-c5ccc(S(=O)(=O)[O-])cc5)c5ccc([nH]5)c(-c5ccc(S(=O)(=O)[O-])cc5)c5nc(c(-c6ccc(S(=O)(=O)[O-])cc6)c6ccc3[nH]6)C=C5)C=C4)cc2)CS1
REMARK SMILES IDX 21 1 20 2 19 3 17 4 18 5 16 7 14 8 15 9 87 10 86 13 13 14
REMARK SMILES IDX 2 15 3 16 4 17 11 18 5 19 10 20 12 21 6 22 9 23 7 24 8 25
REMARK SMILES IDX 1 26 22 29 23 30 24 31 25 33 26 34 27 35 85 36 28 37 84 38
REMARK SMILES IDX 29 39 30 40 31 41 78 42 32 43 83 44 77 45 79 46 33 47 82 48
REMARK SMILES IDX 76 49 75 50 34 52 64 53 45 54 63 55 46 56 49 57 62 58 80 59
REMARK SMILES IDX 47 60 48 61 61 63 81 64 50 65 35 66 36 67 44 68 37 69 43 70
REMARK SMILES IDX 38 71 39 72 40 73 41 74 42 75 65 76 66 77 74 78 67 79 73 80
REMARK SMILES IDX 68 81 69 82 70 83 71 84 72 85 51 86 52 87 60 88 53 89 59 90
REMARK SMILES IDX 54 91 55 92 56 93 57 94 58 95
REMARK H PARENT 19 6 15 11 15 12 1 27 1 28 23 32 79 51 49 62
REMARK Flexibility Score: inf
ROOT
ATOM      1  C   UNL A   1      31.639  28.326  27.263  1.00  0.00     0.042 C 
ENDROOT
BRANCH   1   2
ATOM      2  C   UNL A   1      31.354  27.354  26.124  1.00  0.00     0.118 C 
BRANCH   2   3
ATOM      3  N   UNL A   1      30.897  26.051  26.564  1.00  0.00    -0.351 N 
ATOM      4  C   UNL A   1      31.548  24.849  26.567  1.00  0.00     0.279 C 
ATOM      5  O   UNL A   1      31.002  23.932  27.195  1.00  0.00    -0.268 OA
ATOM      6  H   UNL A   1      29.978  26.027  26.914  1.00  0.00     0.163 HD
BRANCH   4   7
ATOM      7  C   UNL A   1      32.942  24.607  25.939  1.00  0.00     0.283 C 
ATOM      8  C   UNL A   1      34.294  22.689  25.241  1.00  0.00     0.283 C 
ATOM      9  N   UNL A   1      33.564  23.331  26.355  1.00  0.00    -0.320 N 
ATOM     10  S   UNL A   1      34.273  23.811  23.816  1.00  0.00    -0.087 SA
ATOM     11  H   UNL A   1      34.217  23.513  27.116  1.00  0.00     0.348 HD
ATOM     12  H   UNL A   1      32.822  22.699  26.653  1.00  0.00     0.348 HD
ATOM     13  C   UNL A   1      32.855  24.742  24.429  1.00  0.00     0.151 C 
BRANCH   8  14
ATOM     14  C   UNL A   1      33.703  21.312  25.003  1.00  0.00     0.128 A 
ATOM     15  C   UNL A   1      32.403  20.929  24.981  1.00  0.00     0.205 A 
ATOM     16  O   UNL A   1      31.991  19.613  25.069  1.00  0.00    -0.440 OA
ATOM     17  C   UNL A   1      32.913  18.610  25.056  1.00  0.00     0.140 A 
ATOM     18  C   UNL A   1      34.733  20.237  24.891  1.00  0.00     0.205 A 
ATOM     19  C   UNL A   1      32.427  17.311  25.176  1.00  0.00     0.051 A 
ATOM     20  C   UNL A   1      34.269  18.846  24.880  1.00  0.00     0.068 A 
ATOM     21  O   UNL A   1      35.936  20.488  24.825  1.00  0.00    -0.288 OA
ATOM     22  C   UNL A   1      33.296  16.240  25.002  1.00  0.00     0.043 A 
ATOM     23  C   UNL A   1      35.151  17.777  24.719  1.00  0.00     0.055 A 
ATOM     24  C   UNL A   1      34.641  16.484  24.746  1.00  0.00     0.124 A 
ATOM     25  F   UNL A   1      35.453  15.446  24.527  1.00  0.00    -0.207 F 
BRANCH  15  26
ATOM     26  N   UNL A   1      31.330  21.768  24.996  1.00  0.00    -0.369 N 
ATOM     27  H   UNL A   1      30.440  21.424  25.243  1.00  0.00     0.159 HD
ATOM     28  H   UNL A   1      31.443  22.717  24.763  1.00  0.00     0.159 HD
ENDBRANCH  15  26
ENDBRANCH   8  14
ENDBRANCH   4   7
ENDBRANCH   2   3
ENDBRANCH   1   2
BRANCH   1  29
ATOM     29  C   UNL A   1      33.114  28.702  27.374  1.00  0.00     0.118 C 
BRANCH  29  30
ATOM     30  N   UNL A   1      33.365  30.136  27.538  1.00  0.00    -0.352 N 
ATOM     31  C   UNL A   1      34.484  30.876  27.859  1.00  0.00     0.251 C 
ATOM     32  H   UNL A   1      32.565  30.690  27.389  1.00  0.00     0.163 HD
ATOM     33  O   UNL A   1      34.366  32.100  27.942  1.00  0.00    -0.269 OA
BRANCH  31  34
ATOM     34  C   UNL A   1      35.789  30.248  28.191  1.00  0.00     0.039 A 
ATOM     35  C   UNL A   1      36.062  29.715  29.443  1.00  0.00     0.014 A 
ATOM     36  C   UNL A   1      36.791  30.204  27.210  1.00  0.00     0.014 A 
ATOM     37  C   UNL A   1      37.369  29.417  29.805  1.00  0.00     0.010 A 
ATOM     38  C   UNL A   1      38.091  29.801  27.535  1.00  0.00     0.010 A 
ATOM     39  C   UNL A   1      38.400  29.456  28.856  1.00  0.00    -0.014 A 
BRANCH  39  40
ATOM     40  C   UNL A   1      39.744  28.974  29.248  1.00  0.00     0.031 A 
ATOM     41  C   UNL A   1      40.274  27.639  28.812  1.00  0.00     0.074 A 
ATOM     42  C   UNL A   1      40.515  29.812  29.966  1.00  0.00     0.049 A 
ATOM     43  N   UNL A   1      41.419  27.075  29.091  1.00  0.00    -0.248 NA
ATOM     44  C   UNL A   1      39.405  26.829  27.953  1.00  0.00     0.031 C 
ATOM     45  C   UNL A   1      40.105  31.150  30.401  1.00  0.00     0.029 A 
ATOM     46  N   UNL A   1      41.801  29.691  30.416  1.00  0.00    -0.354 N 
ATOM     47  C   UNL A   1      41.394  25.828  28.471  1.00  0.00     0.074 A 
ATOM     48  C   UNL A   1      40.107  25.709  27.821  1.00  0.00     0.031 C 
ATOM     49  C   UNL A   1      41.141  31.751  30.996  1.00  0.00     0.029 A 
ATOM     50  C   UNL A   1      42.252  30.809  31.071  1.00  0.00     0.049 A 
ATOM     51  H   UNL A   1      42.347  28.883  30.284  1.00  0.00     0.167 HD
ATOM     52  C   UNL A   1      42.369  24.888  28.441  1.00  0.00     0.031 A 
ATOM     53  C   UNL A   1      43.424  31.051  31.689  1.00  0.00     0.031 A 
ATOM     54  C   UNL A   1      43.666  25.073  29.045  1.00  0.00     0.049 A 
ATOM     55  C   UNL A   1      44.476  29.986  31.671  1.00  0.00     0.074 A 
ATOM     56  C   UNL A   1      44.750  24.212  29.023  1.00  0.00     0.029 A 
ATOM     57  N   UNL A   1      44.063  26.194  29.761  1.00  0.00    -0.354 N 
ATOM     58  N   UNL A   1      44.443  28.817  31.078  1.00  0.00    -0.248 NA
ATOM     59  C   UNL A   1      45.718  30.263  32.401  1.00  0.00     0.031 C 
ATOM     60  C   UNL A   1      45.771  24.777  29.786  1.00  0.00     0.029 A 
ATOM     61  C   UNL A   1      45.360  26.029  30.217  1.00  0.00     0.049 A 
ATOM     62  H   UNL A   1      43.505  26.990  29.920  1.00  0.00     0.167 HD
ATOM     63  C   UNL A   1      45.662  28.215  31.361  1.00  0.00     0.074 A 
ATOM     64  C   UNL A   1      46.420  29.163  32.152  1.00  0.00     0.031 C 
ATOM     65  C   UNL A   1      46.102  26.984  31.006  1.00  0.00     0.031 A 
BRANCH  52  66
ATOM     66  C   UNL A   1      42.118  23.576  27.731  1.00  0.00    -0.014 A 
ATOM     67  C   UNL A   1      41.543  22.503  28.443  1.00  0.00     0.010 A 
ATOM     68  C   UNL A   1      42.607  23.340  26.434  1.00  0.00     0.010 A 
ATOM     69  C   UNL A   1      41.507  21.216  27.895  1.00  0.00     0.020 A 
ATOM     70  C   UNL A   1      42.541  22.060  25.868  1.00  0.00     0.020 A 
ATOM     71  C   UNL A   1      42.019  21.000  26.614  1.00  0.00     0.054 A 
BRANCH  71  72
ATOM     72  S   UNL A   1      42.020  19.311  25.946  1.00  0.00     0.124 S 
ATOM     73  O   UNL A   1      42.560  18.537  27.059  1.00  0.00    -0.237 OA
ATOM     74  O   UNL A   1      40.608  19.087  25.645  1.00  0.00    -0.237 OA
ATOM     75  O   UNL A   1      42.889  19.408  24.774  1.00  0.00    -0.744 OA
ENDBRANCH  71  72
ENDBRANCH  52  66
BRANCH  53  76
ATOM     76  C   UNL A   1      43.615  32.367  32.355  1.00  0.00    -0.014 A 
ATOM     77  C   UNL A   1      43.092  32.587  33.645  1.00  0.00     0.010 A 
ATOM     78  C   UNL A   1      44.178  33.445  31.652  1.00  0.00     0.010 A 
ATOM     79  C   UNL A   1      43.050  33.873  34.184  1.00  0.00     0.020 A 
ATOM     80  C   UNL A   1      44.174  34.729  32.207  1.00  0.00     0.020 A 
ATOM     81  C   UNL A   1      43.575  34.939  33.452  1.00  0.00     0.054 A 
BRANCH  81  82
ATOM     82  S   UNL A   1      43.431  36.612  34.135  1.00  0.00     0.124 S 
ATOM     83  O   UNL A   1      42.201  36.511  34.916  1.00  0.00    -0.237 OA
ATOM     84  O   UNL A   1      44.660  36.744  34.913  1.00  0.00    -0.237 OA
ATOM     85  O   UNL A   1      43.352  37.460  32.950  1.00  0.00    -0.744 OA
ENDBRANCH  81  82
ENDBRANCH  53  76
BRANCH  65  86
ATOM     86  C   UNL A   1      47.464  26.555  31.484  1.00  0.00    -0.014 A 
ATOM     87  C   UNL A   1      48.580  26.688  30.636  1.00  0.00     0.010 A 
ATOM     88  C   UNL A   1      47.602  25.865  32.701  1.00  0.00     0.010 A 
ATOM     89  C   UNL A   1      49.793  26.081  30.965  1.00  0.00     0.020 A 
ATOM     90  C   UNL A   1      48.825  25.286  33.049  1.00  0.00     0.020 A 
ATOM     91  C   UNL A   1      49.902  25.368  32.163  1.00  0.00     0.054 A 
BRANCH  91  92
ATOM     92  S   UNL A   1      51.457  24.511  32.528  1.00  0.00     0.124 S 
ATOM     93  O   UNL A   1      51.621  24.766  33.956  1.00  0.00    -0.237 OA
ATOM     94  O   UNL A   1      51.152  23.130  32.166  1.00  0.00    -0.237 OA
ATOM     95  O   UNL A   1      52.428  25.176  31.661  1.00  0.00    -0.744 OA
ENDBRANCH  91  92
ENDBRANCH  65  86
ENDBRANCH  39  40
ENDBRANCH  31  34
ENDBRANCH  29  30
ENDBRANCH   1  29
TORSDOF 15
ENDMDL
MODEL 2
REMARK VINA RESULT:     -12.2      3.712     10.194
REMARK SMILES Nc1oc2ccc(F)cc2c(=O)c1[C@@H]1[NH2+][C@H](C(=O)NCCCNC(=O)c2ccc(-c3c4nc(c(-c5ccc(S(=O)(=O)[O-])cc5)c5ccc([nH]5)c(-c5ccc(S(=O)(=O)[O-])cc5)c5nc(c(-c6ccc(S(=O)(=O)[O-])cc6)c6ccc3[nH]6)C=C5)C=C4)cc2)CS1
REMARK SMILES IDX 21 1 20 2 19 3 17 4 18 5 16 7 14 8 15 9 87 10 86 13 13 14
REMARK SMILES IDX 2 15 3 16 4 17 11 18 5 19 10 20 12 21 6 22 9 23 7 24 8 25
REMARK SMILES IDX 1 26 22 29 23 30 24 31 25 33 26 34 27 35 85 36 28 37 84 38
REMARK SMILES IDX 29 39 30 40 31 41 78 42 32 43 83 44 77 45 79 46 33 47 82 48
REMARK SMILES IDX 76 49 75 50 34 52 64 53 45 54 63 55 46 56 49 57 62 58 80 59
REMARK SMILES IDX 47 60 48 61 61 63 81 64 50 65 35 66 36 67 44 68 37 69 43 70
REMARK SMILES IDX 38 71 39 72 40 73 41 74 42 75 65 76 66 77 74 78 67 79 73 80
REMARK SMILES IDX 68 81 69 82 70 83 71 84 72 85 51 86 52 87 60 88 53 89 59 90
REMARK SMILES IDX 54 91 55 92 56 93 57 94 58 95
REMARK H PARENT 19 6 15 11 15 12 1 27 1 28 23 32 79 51 49 62
REMARK Flexibility Score: inf
ROOT
ATOM      1  C   UNL A   1      35.747  22.335  24.777  1.00  0.00     0.042 C 
ENDROOT
BRANCH   1   2
ATOM      2  C   UNL A   1      35.796  22.949  23.382  1.00  0.00     0.118 C 
BRANCH   2   3
ATOM      3  N   UNL A   1      34.491  23.195  22.802  1.00  0.00    -0.351 N 
ATOM      4  C   UNL A   1      33.584  24.181  23.072  1.00  0.00     0.279 C 
ATOM      5  O   UNL A   1      32.637  24.285  22.282  1.00  0.00    -0.268 OA
ATOM      6  H   UNL A   1      34.216  22.555  22.108  1.00  0.00     0.163 HD
BRANCH   4   7
ATOM      7  C   UNL A   1      33.729  25.215  24.215  1.00  0.00     0.283 C 
ATOM      8  C   UNL A   1      32.651  27.303  24.902  1.00  0.00     0.283 C 
ATOM      9  N   UNL A   1      33.360  26.591  23.818  1.00  0.00    -0.320 N 
ATOM     10  S   UNL A   1      32.644  26.247  26.377  1.00  0.00    -0.087 SA
ATOM     11  H   UNL A   1      34.209  27.107  23.584  1.00  0.00     0.348 HD
ATOM     12  H   UNL A   1      32.735  26.533  23.015  1.00  0.00     0.348 HD
ATOM     13  C   UNL A   1      32.959  24.741  25.436  1.00  0.00     0.151 C 
BRANCH   8  14
ATOM     14  C   UNL A   1      31.287  27.729  24.391  1.00  0.00     0.128 A 
ATOM     15  C   UNL A   1      30.316  26.980  23.812  1.00  0.00     0.205 A 
ATOM     16  O   UNL A   1      29.256  27.515  23.106  1.00  0.00    -0.440 OA
ATOM     17  C   UNL A   1      29.075  28.864  23.072  1.00  0.00     0.140 A 
ATOM     18  C   UNL A   1      31.065  29.204  24.453  1.00  0.00     0.205 A 
ATOM     19  C   UNL A   1      28.001  29.334  22.319  1.00  0.00     0.051 A 
ATOM     20  C   UNL A   1      29.876  29.744  23.787  1.00  0.00     0.068 A 
ATOM     21  O   UNL A   1      31.850  29.960  25.025  1.00  0.00    -0.288 OA
ATOM     22  C   UNL A   1      27.664  30.681  22.380  1.00  0.00     0.043 A 
ATOM     23  C   UNL A   1      29.553  31.099  23.841  1.00  0.00     0.055 A 
ATOM     24  C   UNL A   1      28.424  31.542  23.162  1.00  0.00     0.124 A 
ATOM     25  F   UNL A   1      28.055  32.824  23.254  1.00  0.00    -0.207 F 
BRANCH  15  26
ATOM     26  N   UNL A   1      30.308  25.620  23.731  1.00  0.00    -0.369 N 
ATOM     27  H   UNL A   1      31.003  25.154  23.213  1.00  0.00     0.159 HD
ATOM     28  H   UNL A   1      29.607  25.104  24.190  1.00  0.00     0.159 HD
ENDBRANCH  15  26
ENDBRANCH   8  14
ENDBRANCH   4   7
ENDBRANCH   2   3
ENDBRANCH   1   2
BRANCH   1  29
ATOM     29  C   UNL A   1      36.706  23.002  25.759  1.00  0.00     0.118 C 
BRANCH  29  30
ATOM     30  N   UNL A   1      37.993  22.319  25.913  1.00  0.00    -0.352 N 
ATOM     31  C   UNL A   1      39.216  22.697  26.424  1.00  0.00     0.251 C 
ATOM     32  H   UNL A   1      37.982  21.393  25.579  1.00  0.00     0.163 HD
ATOM     33  O   UNL A   1      40.136  21.878  26.393  1.00  0.00    -0.269 OA
BRANCH  31  34
ATOM     34  C   UNL A   1      39.483  24.070  26.923  1.00  0.00     0.039 A 
ATOM     35  C   UNL A   1      40.144  25.024  26.161  1.00  0.00     0.014 A 
ATOM     36  C   UNL A   1      39.069  24.414  28.219  1.00  0.00     0.014 A 
ATOM     37  C   UNL A   1      40.636  26.176  26.760  1.00  0.00     0.010 A 
ATOM     38  C   UNL A   1      39.469  25.625  28.797  1.00  0.00     0.010 A 
ATOM     39  C   UNL A   1      40.305  26.491  28.085  1.00  0.00    -0.014 A 
BRANCH  39  40
ATOM     40  C   UNL A   1      40.718  27.807  28.627  1.00  0.00     0.031 A 
ATOM     41  C   UNL A   1      39.745  28.932  28.823  1.00  0.00     0.074 A 
ATOM     42  C   UNL A   1      42.003  27.941  29.005  1.00  0.00     0.049 A 
ATOM     43  N   UNL A   1      39.962  30.142  29.267  1.00  0.00    -0.248 NA
ATOM     44  C   UNL A   1      38.346  28.668  28.473  1.00  0.00     0.031 C 
ATOM     45  C   UNL A   1      43.016  26.889  28.895  1.00  0.00     0.029 A 
ATOM     46  N   UNL A   1      42.665  28.985  29.591  1.00  0.00    -0.354 N 
ATOM     47  C   UNL A   1      38.733  30.796  29.216  1.00  0.00     0.074 A 
ATOM     48  C   UNL A   1      37.780  29.853  28.674  1.00  0.00     0.031 C 
ATOM     49  C   UNL A   1      44.152  27.317  29.458  1.00  0.00     0.029 A 
ATOM     50  C   UNL A   1      43.977  28.703  29.878  1.00  0.00     0.049 A 
ATOM     51  H   UNL A   1      42.242  29.853  29.787  1.00  0.00     0.167 HD
ATOM     52  C   UNL A   1      38.440  32.059  29.607  1.00  0.00     0.031 A 
ATOM     53  C   UNL A   1      44.947  29.475  30.400  1.00  0.00     0.031 A 
ATOM     54  C   UNL A   1      39.406  32.946  30.207  1.00  0.00     0.049 A 
ATOM     55  C   UNL A   1      44.609  30.879  30.796  1.00  0.00     0.074 A 
ATOM     56  C   UNL A   1      39.204  34.226  30.696  1.00  0.00     0.029 A 
ATOM     57  N   UNL A   1      40.745  32.647  30.418  1.00  0.00    -0.354 N 
ATOM     58  N   UNL A   1      43.446  31.482  30.748  1.00  0.00    -0.248 NA
ATOM     59  C   UNL A   1      45.704  31.710  31.310  1.00  0.00     0.031 C 
ATOM     60  C   UNL A   1      40.431  34.726  31.131  1.00  0.00     0.029 A 
ATOM     61  C   UNL A   1      41.387  33.731  30.993  1.00  0.00     0.049 A 
ATOM     62  H   UNL A   1      41.175  31.790  30.193  1.00  0.00     0.167 HD
ATOM     63  C   UNL A   1      43.666  32.766  31.229  1.00  0.00     0.074 A 
ATOM     64  C   UNL A   1      45.067  32.841  31.590  1.00  0.00     0.031 C 
ATOM     65  C   UNL A   1      42.786  33.790  31.346  1.00  0.00     0.031 A 
BRANCH  52  66
ATOM     66  C   UNL A   1      37.034  32.587  29.431  1.00  0.00    -0.014 A 
ATOM     67  C   UNL A   1      36.668  33.191  28.210  1.00  0.00     0.010 A 
ATOM     68  C   UNL A   1      36.135  32.652  30.510  1.00  0.00     0.010 A 
ATOM     69  C   UNL A   1      35.463  33.891  28.087  1.00  0.00     0.020 A 
ATOM     70  C   UNL A   1      34.911  33.322  30.382  1.00  0.00     0.020 A 
ATOM     71  C   UNL A   1      34.597  33.963  29.180  1.00  0.00     0.054 A 
BRANCH  71  72
ATOM     72  S   UNL A   1      33.066  34.928  29.022  1.00  0.00     0.124 S 
ATOM     73  O   UNL A   1      33.561  36.220  28.559  1.00  0.00    -0.237 OA
ATOM     74  O   UNL A   1      32.303  34.156  28.044  1.00  0.00    -0.237 OA
ATOM     75  O   UNL A   1      32.515  34.919  30.375  1.00  0.00    -0.744 OA
ENDBRANCH  71  72
ENDBRANCH  52  66
BRANCH  53  76
ATOM     76  C   UNL A   1      46.306  28.893  30.563  1.00  0.00    -0.014 A 
ATOM     77  C   UNL A   1      47.263  29.040  29.538  1.00  0.00     0.010 A 
ATOM     78  C   UNL A   1      46.598  28.066  31.660  1.00  0.00     0.010 A 
ATOM     79  C   UNL A   1      48.449  28.306  29.565  1.00  0.00     0.020 A 
ATOM     80  C   UNL A   1      47.805  27.360  31.709  1.00  0.00     0.020 A 
ATOM     81  C   UNL A   1      48.703  27.456  30.643  1.00  0.00     0.054 A 
BRANCH  81  82
ATOM     82  S   UNL A   1      50.210  26.448  30.613  1.00  0.00     0.124 S 
ATOM     83  O   UNL A   1      49.747  25.239  29.937  1.00  0.00    -0.237 OA
ATOM     84  O   UNL A   1      51.134  27.281  29.849  1.00  0.00    -0.237 OA
ATOM     85  O   UNL A   1      50.541  26.287  32.026  1.00  0.00    -0.744 OA
ENDBRANCH  81  82
ENDBRANCH  53  76
BRANCH  65  86
ATOM     86  C   UNL A   1      43.299  35.107  31.865  1.00  0.00    -0.014 A 
ATOM     87  C   UNL A   1      43.057  35.478  33.201  1.00  0.00     0.010 A 
ATOM     88  C   UNL A   1      43.864  36.043  30.983  1.00  0.00     0.010 A 
ATOM     89  C   UNL A   1      43.311  36.782  33.629  1.00  0.00     0.020 A 
ATOM     90  C   UNL A   1      44.151  37.340  31.417  1.00  0.00     0.020 A 
ATOM     91  C   UNL A   1      43.840  37.710  32.728  1.00  0.00     0.054 A 
BRANCH  91  92
ATOM     92  S   UNL A   1      44.075  39.422  33.277  1.00  0.00     0.124 S 
ATOM     93  O   UNL A   1      44.589  40.064  32.071  1.00  0.00    -0.237 OA
ATOM     94  O   UNL A   1      42.726  39.817  33.675  1.00  0.00    -0.237 OA
ATOM     95  O   UNL A   1      45.032  39.302  34.376  1.00  0.00    -0.744 OA
ENDBRANCH  91  92
ENDBRANCH  65  86
ENDBRANCH  39  40
ENDBRANCH  31  34
ENDBRANCH  29  30
ENDBRANCH   1  29
TORSDOF 15
ENDMDL
MODEL 3
REMARK VINA RESULT:     -11.9      2.188      2.817
REMARK SMILES Nc1oc2ccc(F)cc2c(=O)c1[C@@H]1[NH2+][C@H](C(=O)NCCCNC(=O)c2ccc(-c3c4nc(c(-c5ccc(S(=O)(=O)[O-])cc5)c5ccc([nH]5)c(-c5ccc(S(=O)(=O)[O-])cc5)c5nc(c(-c6ccc(S(=O)(=O)[O-])cc6)c6ccc3[nH]6)C=C5)C=C4)cc2)CS1
REMARK SMILES IDX 21 1 20 2 19 3 17 4 18 5 16 7 14 8 15 9 87 10 86 13 13 14
REMARK SMILES IDX 2 15 3 16 4 17 11 18 5 19 10 20 12 21 6 22 9 23 7 24 8 25
REMARK SMILES IDX 1 26 22 29 23 30 24 31 25 33 26 34 27 35 85 36 28 37 84 38
REMARK SMILES IDX 29 39 30 40 31 41 78 42 32 43 83 44 77 45 79 46 33 47 82 48
REMARK SMILES IDX 76 49 75 50 34 52 64 53 45 54 63 55 46 56 49 57 62 58 80 59
REMARK SMILES IDX 47 60 48 61 61 63 81 64 50 65 35 66 36 67 44 68 37 69 43 70
REMARK SMILES IDX 38 71 39 72 40 73 41 74 42 75 65 76 66 77 74 78 67 79 73 80
REMARK SMILES IDX 68 81 69 82 70 83 71 84 72 85 51 86 52 87 60 88 53 89 59 90
REMARK SMILES IDX 54 91 55 92 56 93 57 94 58 95
REMARK H PARENT 19 6 15 11 15 12 1 27 1 28 23 32 79 51 49 62
REMARK Flexibility Score: inf
ROOT
ATOM      1  C   UNL A   1      32.703  28.346  27.084  1.00  0.00     0.042 C 
ENDROOT
BRANCH   1   2
ATOM      2  C   UNL A   1      31.583  27.802  26.205  1.00  0.00     0.118 C 
BRANCH   2   3
ATOM      3  N   UNL A   1      31.098  26.499  26.611  1.00  0.00    -0.351 N 
ATOM      4  C   UNL A   1      31.704  25.276  26.537  1.00  0.00     0.279 C 
ATOM      5  O   UNL A   1      31.151  24.353  27.151  1.00  0.00    -0.268 OA
ATOM      6  H   UNL A   1      30.193  26.492  26.999  1.00  0.00     0.163 HD
BRANCH   4   7
ATOM      7  C   UNL A   1      33.061  25.012  25.842  1.00  0.00     0.283 C 
ATOM      8  C   UNL A   1      34.346  23.073  25.078  1.00  0.00     0.283 C 
ATOM      9  N   UNL A   1      33.682  23.726  26.226  1.00  0.00    -0.320 N 
ATOM     10  S   UNL A   1      34.272  24.195  23.655  1.00  0.00    -0.087 SA
ATOM     11  H   UNL A   1      34.376  23.898  26.955  1.00  0.00     0.348 HD
ATOM     12  H   UNL A   1      32.946  23.105  26.561  1.00  0.00     0.348 HD
ATOM     13  C   UNL A   1      32.901  25.148  24.337  1.00  0.00     0.151 C 
BRANCH   8  14
ATOM     14  C   UNL A   1      33.723  21.706  24.871  1.00  0.00     0.128 A 
ATOM     15  C   UNL A   1      32.415  21.351  24.871  1.00  0.00     0.205 A 
ATOM     16  O   UNL A   1      31.975  20.045  24.987  1.00  0.00    -0.440 OA
ATOM     17  C   UNL A   1      32.875  19.023  24.980  1.00  0.00     0.140 A 
ATOM     18  C   UNL A   1      34.728  20.606  24.765  1.00  0.00     0.205 A 
ATOM     19  C   UNL A   1      32.362  17.736  25.127  1.00  0.00     0.051 A 
ATOM     20  C   UNL A   1      34.234  19.226  24.784  1.00  0.00     0.068 A 
ATOM     21  O   UNL A   1      35.935  20.830  24.681  1.00  0.00    -0.288 OA
ATOM     22  C   UNL A   1      33.206  16.645  24.961  1.00  0.00     0.043 A 
ATOM     23  C   UNL A   1      35.090  18.136  24.630  1.00  0.00     0.055 A 
ATOM     24  C   UNL A   1      34.552  16.855  24.685  1.00  0.00     0.124 A 
ATOM     25  F   UNL A   1      35.339  15.795  24.474  1.00  0.00    -0.207 F 
BRANCH  15  26
ATOM     26  N   UNL A   1      31.360  22.214  24.885  1.00  0.00    -0.369 N 
ATOM     27  H   UNL A   1      30.874  22.409  24.051  1.00  0.00     0.159 HD
ATOM     28  H   UNL A   1      31.083  22.640  25.727  1.00  0.00     0.159 HD
ENDBRANCH  15  26
ENDBRANCH   8  14
ENDBRANCH   4   7
ENDBRANCH   2   3
ENDBRANCH   1   2
BRANCH   1  29
ATOM     29  C   UNL A   1      33.529  29.431  26.399  1.00  0.00     0.118 C 
BRANCH  29  30
ATOM     30  N   UNL A   1      33.439  30.752  27.029  1.00  0.00    -0.352 N 
ATOM     31  C   UNL A   1      34.279  31.473  27.852  1.00  0.00     0.251 C 
ATOM     32  H   UNL A   1      32.601  31.224  26.820  1.00  0.00     0.163 HD
ATOM     33  O   UNL A   1      33.899  32.579  28.241  1.00  0.00    -0.269 OA
BRANCH  31  34
ATOM     34  C   UNL A   1      35.568  30.930  28.350  1.00  0.00     0.039 A 
ATOM     35  C   UNL A   1      35.656  29.718  29.022  1.00  0.00     0.014 A 
ATOM     36  C   UNL A   1      36.741  31.675  28.151  1.00  0.00     0.014 A 
ATOM     37  C   UNL A   1      36.807  29.394  29.728  1.00  0.00     0.010 A 
ATOM     38  C   UNL A   1      37.938  31.298  28.770  1.00  0.00     0.010 A 
ATOM     39  C   UNL A   1      37.963  30.180  29.611  1.00  0.00    -0.014 A 
BRANCH  39  40
ATOM     40  C   UNL A   1      39.212  29.705  30.251  1.00  0.00     0.031 A 
ATOM     41  C   UNL A   1      40.065  28.631  29.643  1.00  0.00     0.074 A 
ATOM     42  C   UNL A   1      39.598  30.324  31.382  1.00  0.00     0.049 A 
ATOM     43  N   UNL A   1      41.170  28.100  30.094  1.00  0.00    -0.248 NA
ATOM     44  C   UNL A   1      39.619  28.077  28.360  1.00  0.00     0.031 C 
ATOM     45  C   UNL A   1      38.857  31.411  32.029  1.00  0.00     0.029 A 
ATOM     46  N   UNL A   1      40.712  30.167  32.160  1.00  0.00    -0.354 N 
ATOM     47  C   UNL A   1      41.533  27.124  29.170  1.00  0.00     0.074 A 
ATOM     48  C   UNL A   1      40.515  27.120  28.143  1.00  0.00     0.031 C 
ATOM     49  C   UNL A   1      39.570  31.867  33.065  1.00  0.00     0.029 A 
ATOM     50  C   UNL A   1      40.765  31.044  33.214  1.00  0.00     0.049 A 
ATOM     51  H   UNL A   1      41.406  29.491  31.981  1.00  0.00     0.167 HD
ATOM     52  C   UNL A   1      42.628  26.326  29.181  1.00  0.00     0.031 A 
ATOM     53  C   UNL A   1      41.662  31.166  34.211  1.00  0.00     0.031 A 
ATOM     54  C   UNL A   1      43.657  26.408  30.189  1.00  0.00     0.049 A 
ATOM     55  C   UNL A   1      42.848  30.252  34.222  1.00  0.00     0.074 A 
ATOM     56  C   UNL A   1      44.839  25.690  30.264  1.00  0.00     0.029 A 
ATOM     57  N   UNL A   1      43.641  27.264  31.282  1.00  0.00    -0.354 N 
ATOM     58  N   UNL A   1      43.183  29.340  33.341  1.00  0.00    -0.248 NA
ATOM     59  C   UNL A   1      43.775  30.375  35.352  1.00  0.00     0.031 C 
ATOM     60  C   UNL A   1      45.497  26.057  31.438  1.00  0.00     0.029 A 
ATOM     61  C   UNL A   1      44.771  27.065  32.056  1.00  0.00     0.049 A 
ATOM     62  H   UNL A   1      42.931  27.918  31.477  1.00  0.00     0.167 HD
ATOM     63  C   UNL A   1      44.363  28.778  33.809  1.00  0.00     0.074 A 
ATOM     64  C   UNL A   1      44.698  29.475  35.034  1.00  0.00     0.031 C 
ATOM     65  C   UNL A   1      45.091  27.768  33.276  1.00  0.00     0.031 A 
BRANCH  52  66
ATOM     66  C   UNL A   1      42.814  25.300  28.086  1.00  0.00    -0.014 A 
ATOM     67  C   UNL A   1      42.290  24.002  28.257  1.00  0.00     0.010 A 
ATOM     68  C   UNL A   1      43.647  25.550  26.981  1.00  0.00     0.010 A 
ATOM     69  C   UNL A   1      42.634  22.967  27.380  1.00  0.00     0.020 A 
ATOM     70  C   UNL A   1      43.967  24.525  26.081  1.00  0.00     0.020 A 
ATOM     71  C   UNL A   1      43.483  23.233  26.304  1.00  0.00     0.054 A 
BRANCH  71  72
ATOM     72  S   UNL A   1      43.968  21.865  25.213  1.00  0.00     0.124 S 
ATOM     73  O   UNL A   1      43.001  20.830  25.564  1.00  0.00    -0.237 OA
ATOM     74  O   UNL A   1      43.815  22.448  23.883  1.00  0.00    -0.237 OA
ATOM     75  O   UNL A   1      45.349  21.588  25.606  1.00  0.00    -0.744 OA
ENDBRANCH  71  72
ENDBRANCH  52  66
BRANCH  53  76
ATOM     76  C   UNL A   1      41.431  32.205  35.249  1.00  0.00    -0.014 A 
ATOM     77  C   UNL A   1      40.548  31.950  36.318  1.00  0.00     0.010 A 
ATOM     78  C   UNL A   1      41.964  33.495  35.094  1.00  0.00     0.010 A 
ATOM     79  C   UNL A   1      40.136  32.983  37.159  1.00  0.00     0.020 A 
ATOM     80  C   UNL A   1      41.584  34.524  35.962  1.00  0.00     0.020 A 
ATOM     81  C   UNL A   1      40.643  34.269  36.963  1.00  0.00     0.054 A 
BRANCH  81  82
ATOM     82  S   UNL A   1      40.028  35.611  38.015  1.00  0.00     0.124 S 
ATOM     83  O   UNL A   1      39.843  36.688  37.046  1.00  0.00    -0.237 OA
ATOM     84  O   UNL A   1      38.800  35.045  38.567  1.00  0.00    -0.237 OA
ATOM     85  O   UNL A   1      41.106  35.814  38.977  1.00  0.00    -0.744 OA
ENDBRANCH  81  82
ENDBRANCH  53  76
BRANCH  65  86
ATOM     86  C   UNL A   1      46.324  27.318  34.014  1.00  0.00    -0.014 A 
ATOM     87  C   UNL A   1      46.220  26.349  35.030  1.00  0.00     0.010 A 
ATOM     88  C   UNL A   1      47.548  27.981  33.818  1.00  0.00     0.010 A 
ATOM     89  C   UNL A   1      47.298  26.097  35.879  1.00  0.00     0.020 A 
ATOM     90  C   UNL A   1      48.640  27.706  34.645  1.00  0.00     0.020 A 
ATOM     91  C   UNL A   1      48.497  26.792  35.692  1.00  0.00     0.054 A 
BRANCH  91  92
ATOM     92  S   UNL A   1      49.855  26.518  36.861  1.00  0.00     0.124 S 
ATOM     93  O   UNL A   1      50.732  25.624  36.111  1.00  0.00    -0.237 OA
ATOM     94  O   UNL A   1      50.367  27.869  37.076  1.00  0.00    -0.237 OA
ATOM     95  O   UNL A   1      49.196  25.918  38.019  1.00  0.00    -0.744 OA
ENDBRANCH  91  92
ENDBRANCH  65  86
ENDBRANCH  39  40
ENDBRANCH  31  34
ENDBRANCH  29  30
ENDBRANCH   1  29
TORSDOF 15
ENDMDL
