MODEL 1
REMARK VINA RESULT:     -11.0      0.000      0.000
REMARK SMILES O=C(NCCCNC(=O)C(Cl)(c1ccccc1)c1ccccc1)c1ccc(-c2c3nc(c(-c4ccc(S(=O)(=O)[O-])cc4)c4ccc([nH]4)c(-c4ccc(S(=O)(=O)[O-])cc4)c4nc(c(-c5ccc(S(=O)(=O)[O-])cc5)c5ccc2[nH]5)C=C4)C=C3)cc1
REMARK SMILES IDX 4 1 3 2 1 3 2 4 24 6 25 7 83 8 26 9 82 10 27 11 28 12 29 13
REMARK SMILES IDX 76 14 30 15 81 16 75 17 77 18 31 19 80 20 74 21 73 22 32 24
REMARK SMILES IDX 62 25 43 26 61 27 44 28 47 29 60 30 78 31 45 32 46 33 59 35
REMARK SMILES IDX 79 36 48 37 33 38 34 39 42 40 35 41 41 42 36 43 37 44 38 45
REMARK SMILES IDX 39 46 40 47 63 48 64 49 72 50 65 51 71 52 66 53 67 54 68 55
REMARK SMILES IDX 69 56 70 57 49 58 50 59 58 60 51 61 57 62 52 63 53 64 54 65
REMARK SMILES IDX 55 66 56 67 5 68 6 69 7 70 8 71 9 73 10 74 11 75 12 76 13 77
REMARK SMILES IDX 17 78 14 79 16 80 15 81 18 82 19 83 23 84 20 85 22 86 21 87
REMARK H PARENT 3 5 77 23 47 34 7 72
REMARK Flexibility Score: inf
ROOT
ATOM      1  C   UNL A   1      33.884  28.148  26.880  1.00  0.00     0.118 C 
ENDROOT
BRANCH   1   2
ATOM      2  N   UNL A   1      33.667  29.541  27.251  1.00  0.00    -0.352 N 
ATOM      3  O   UNL A   1      33.999  31.473  28.357  1.00  0.00    -0.269 OA
ATOM      4  C   UNL A   1      34.463  30.403  27.968  1.00  0.00     0.251 C 
ATOM      5  H   UNL A   1      32.816  29.927  26.938  1.00  0.00     0.163 HD
BRANCH   4   6
ATOM      6  C   UNL A   1      35.861  30.040  28.285  1.00  0.00     0.039 A 
ATOM      7  C   UNL A   1      36.865  30.201  27.332  1.00  0.00     0.014 A 
ATOM      8  C   UNL A   1      36.186  29.558  29.558  1.00  0.00     0.014 A 
ATOM      9  C   UNL A   1      38.139  29.714  27.579  1.00  0.00     0.010 A 
ATOM     10  C   UNL A   1      37.504  29.187  29.850  1.00  0.00     0.010 A 
ATOM     11  C   UNL A   1      38.487  29.236  28.852  1.00  0.00    -0.014 A 
BRANCH  11  12
ATOM     12  C   UNL A   1      39.911  28.899  29.110  1.00  0.00     0.031 A 
ATOM     13  C   UNL A   1      40.496  27.573  28.707  1.00  0.00     0.074 A 
ATOM     14  C   UNL A   1      40.696  29.854  29.650  1.00  0.00     0.049 A 
ATOM     15  N   UNL A   1      41.738  27.169  28.794  1.00  0.00    -0.248 NA
ATOM     16  C   UNL A   1      39.580  26.569  28.143  1.00  0.00     0.031 C 
ATOM     17  C   UNL A   1      40.231  31.173  30.096  1.00  0.00     0.029 A 
ATOM     18  N   UNL A   1      42.047  29.890  29.877  1.00  0.00    -0.354 N 
ATOM     19  C   UNL A   1      41.753  25.865  28.314  1.00  0.00     0.074 A 
ATOM     20  C   UNL A   1      40.389  25.535  27.956  1.00  0.00     0.031 C 
ATOM     21  C   UNL A   1      41.286  31.915  30.461  1.00  0.00     0.029 A 
ATOM     22  C   UNL A   1      42.489  31.102  30.355  1.00  0.00     0.049 A 
ATOM     23  H   UNL A   1      42.643  29.124  29.714  1.00  0.00     0.167 HD
ATOM     24  C   UNL A   1      42.808  25.025  28.180  1.00  0.00     0.031 A 
ATOM     25  C   UNL A   1      43.725  31.516  30.690  1.00  0.00     0.031 A 
ATOM     26  C   UNL A   1      44.163  25.365  28.537  1.00  0.00     0.049 A 
ATOM     27  C   UNL A   1      44.870  30.559  30.537  1.00  0.00     0.074 A 
ATOM     28  C   UNL A   1      45.302  24.584  28.433  1.00  0.00     0.029 A 
ATOM     29  N   UNL A   1      44.564  26.585  29.060  1.00  0.00    -0.354 N 
ATOM     30  N   UNL A   1      44.858  29.333  30.072  1.00  0.00    -0.248 NA
ATOM     31  C   UNL A   1      46.191  31.039  30.958  1.00  0.00     0.031 C 
ATOM     32  C   UNL A   1      46.384  25.317  28.933  1.00  0.00     0.029 A 
ATOM     33  C   UNL A   1      45.929  26.573  29.300  1.00  0.00     0.049 A 
ATOM     34  H   UNL A   1      43.966  27.348  29.236  1.00  0.00     0.167 HD
ATOM     35  C   UNL A   1      46.173  28.892  30.147  1.00  0.00     0.074 A 
ATOM     36  C   UNL A   1      46.956  29.997  30.662  1.00  0.00     0.031 C 
ATOM     37  C   UNL A   1      46.685  27.678  29.830  1.00  0.00     0.031 A 
BRANCH  24  38
ATOM     38  C   UNL A   1      42.546  23.645  27.638  1.00  0.00    -0.014 A 
ATOM     39  C   UNL A   1      42.684  23.365  26.266  1.00  0.00     0.010 A 
ATOM     40  C   UNL A   1      42.236  22.593  28.521  1.00  0.00     0.010 A 
ATOM     41  C   UNL A   1      42.498  22.065  25.786  1.00  0.00     0.020 A 
ATOM     42  C   UNL A   1      42.072  21.287  28.047  1.00  0.00     0.020 A 
ATOM     43  C   UNL A   1      42.194  21.034  26.680  1.00  0.00     0.054 A 
BRANCH  43  44
ATOM     44  S   UNL A   1      42.007  19.348  26.034  1.00  0.00     0.124 S 
ATOM     45  O   UNL A   1      42.395  18.539  27.187  1.00  0.00    -0.237 OA
ATOM     46  O   UNL A   1      40.590  19.296  25.679  1.00  0.00    -0.237 OA
ATOM     47  O   UNL A   1      42.931  19.305  24.903  1.00  0.00    -0.744 OA
ENDBRANCH  43  44
ENDBRANCH  24  38
BRANCH  25  48
ATOM     48  C   UNL A   1      43.927  32.883  31.238  1.00  0.00    -0.014 A 
ATOM     49  C   UNL A   1      43.854  33.129  32.619  1.00  0.00     0.010 A 
ATOM     50  C   UNL A   1      44.205  33.953  30.366  1.00  0.00     0.010 A 
ATOM     51  C   UNL A   1      44.029  34.423  33.117  1.00  0.00     0.020 A 
ATOM     52  C   UNL A   1      44.415  35.241  30.862  1.00  0.00     0.020 A 
ATOM     53  C   UNL A   1      44.307  35.472  32.234  1.00  0.00     0.054 A 
BRANCH  53  54
ATOM     54  S   UNL A   1      44.565  37.140  32.897  1.00  0.00     0.124 S 
ATOM     55  O   UNL A   1      43.793  37.095  34.135  1.00  0.00    -0.237 OA
ATOM     56  O   UNL A   1      46.016  37.198  33.057  1.00  0.00    -0.237 OA
ATOM     57  O   UNL A   1      44.027  38.007  31.851  1.00  0.00    -0.744 OA
ENDBRANCH  53  54
ENDBRANCH  25  48
BRANCH  37  58
ATOM     58  C   UNL A   1      48.165  27.499  30.028  1.00  0.00    -0.014 A 
ATOM     59  C   UNL A   1      49.080  27.894  29.036  1.00  0.00     0.010 A 
ATOM     60  C   UNL A   1      48.645  26.931  31.221  1.00  0.00     0.010 A 
ATOM     61  C   UNL A   1      50.448  27.678  29.213  1.00  0.00     0.020 A 
ATOM     62  C   UNL A   1      50.015  26.739  31.413  1.00  0.00     0.020 A 
ATOM     63  C   UNL A   1      50.905  27.095  30.398  1.00  0.00     0.054 A 
BRANCH  63  64
ATOM     64  S   UNL A   1      52.687  26.832  30.610  1.00  0.00     0.124 S 
ATOM     65  O   UNL A   1      53.152  28.169  30.966  1.00  0.00    -0.237 OA
ATOM     66  O   UNL A   1      52.741  25.841  31.682  1.00  0.00    -0.237 OA
ATOM     67  O   UNL A   1      53.122  26.348  29.301  1.00  0.00    -0.744 OA
ENDBRANCH  63  64
ENDBRANCH  37  58
ENDBRANCH  11  12
ENDBRANCH   4   6
ENDBRANCH   1   2
BRANCH   1  68
ATOM     68  C   UNL A   1      33.613  27.893  25.407  1.00  0.00     0.042 C 
BRANCH  68  69
ATOM     69  C   UNL A   1      34.036  26.505  24.951  1.00  0.00     0.117 C 
BRANCH  69  70
ATOM     70  N   UNL A   1      33.537  25.460  25.831  1.00  0.00    -0.354 N 
ATOM     71  C   UNL A   1      33.557  24.093  25.734  1.00  0.00     0.250 C 
ATOM     72  H   UNL A   1      33.104  25.797  26.647  1.00  0.00     0.163 HD
ATOM     73  O   UNL A   1      32.945  23.519  26.644  1.00  0.00    -0.272 OA
BRANCH  71  74
ATOM     74  C   UNL A   1      34.308  23.317  24.562  1.00  0.00     0.173 C 
ATOM     75  Cl  UNL A   1      34.102  24.483  23.151  1.00  0.00    -0.098 Cl
BRANCH  74  76
ATOM     76  C   UNL A   1      35.802  23.097  24.932  1.00  0.00    -0.013 A 
ATOM     77  C   UNL A   1      36.450  21.908  24.528  1.00  0.00     0.006 A 
ATOM     78  C   UNL A   1      36.543  23.972  25.753  1.00  0.00     0.006 A 
ATOM     79  C   UNL A   1      37.738  21.584  24.966  1.00  0.00     0.000 A 
ATOM     80  C   UNL A   1      37.814  23.625  26.229  1.00  0.00     0.000 A 
ATOM     81  C   UNL A   1      38.409  22.431  25.839  1.00  0.00     0.000 A 
ENDBRANCH  74  76
BRANCH  74  82
ATOM     82  C   UNL A   1      33.598  21.972  24.197  1.00  0.00    -0.013 A 
ATOM     83  C   UNL A   1      33.753  20.793  24.955  1.00  0.00     0.006 A 
ATOM     84  C   UNL A   1      32.745  21.886  23.074  1.00  0.00     0.006 A 
ATOM     85  C   UNL A   1      33.144  19.590  24.573  1.00  0.00     0.000 A 
ATOM     86  C   UNL A   1      32.118  20.692  22.707  1.00  0.00     0.000 A 
ATOM     87  C   UNL A   1      32.328  19.539  23.450  1.00  0.00     0.000 A 
ENDBRANCH  74  82
ENDBRANCH  71  74
ENDBRANCH  69  70
ENDBRANCH  68  69
ENDBRANCH   1  68
TORSDOF 15
ENDMDL
MODEL 2
REMARK VINA RESULT:     -10.7      1.130      8.476
REMARK SMILES O=C(NCCCNC(=O)C(Cl)(c1ccccc1)c1ccccc1)c1ccc(-c2c3nc(c(-c4ccc(S(=O)(=O)[O-])cc4)c4ccc([nH]4)c(-c4ccc(S(=O)(=O)[O-])cc4)c4nc(c(-c5ccc(S(=O)(=O)[O-])cc5)c5ccc2[nH]5)C=C4)C=C3)cc1
REMARK SMILES IDX 4 1 3 2 1 3 2 4 24 6 25 7 83 8 26 9 82 10 27 11 28 12 29 13
REMARK SMILES IDX 76 14 30 15 81 16 75 17 77 18 31 19 80 20 74 21 73 22 32 24
REMARK SMILES IDX 62 25 43 26 61 27 44 28 47 29 60 30 78 31 45 32 46 33 59 35
REMARK SMILES IDX 79 36 48 37 33 38 34 39 42 40 35 41 41 42 36 43 37 44 38 45
REMARK SMILES IDX 39 46 40 47 63 48 64 49 72 50 65 51 71 52 66 53 67 54 68 55
REMARK SMILES IDX 69 56 70 57 49 58 50 59 58 60 51 61 57 62 52 63 53 64 54 65
REMARK SMILES IDX 55 66 56 67 5 68 6 69 7 70 8 71 9 73 10 74 11 75 12 76 13 77
REMARK SMILES IDX 17 78 14 79 16 80 15 81 18 82 19 83 23 84 20 85 22 86 21 87
REMARK H PARENT 3 5 77 23 47 34 7 72
REMARK Flexibility Score: inf
ROOT
ATOM      1  C   UNL A   1      33.822  27.876  26.229  1.00  0.00     0.118 C 
ENDROOT
BRANCH   1   2
ATOM      2  N   UNL A   1      33.452  29.227  26.635  1.00  0.00    -0.352 N 
ATOM      3  O   UNL A   1      33.524  31.130  27.834  1.00  0.00    -0.269 OA
ATOM      4  C   UNL A   1      34.111  30.123  27.442  1.00  0.00     0.251 C 
ATOM      5  H   UNL A   1      32.595  29.548  26.272  1.00  0.00     0.163 HD
BRANCH   4   6
ATOM      6  C   UNL A   1      35.510  29.872  27.852  1.00  0.00     0.039 A 
ATOM      7  C   UNL A   1      36.557  30.103  26.962  1.00  0.00     0.014 A 
ATOM      8  C   UNL A   1      35.787  29.426  29.148  1.00  0.00     0.014 A 
ATOM      9  C   UNL A   1      37.847  29.718  27.296  1.00  0.00     0.010 A 
ATOM     10  C   UNL A   1      37.108  29.160  29.529  1.00  0.00     0.010 A 
ATOM     11  C   UNL A   1      38.148  29.278  28.595  1.00  0.00    -0.014 A 
BRANCH  11  12
ATOM     12  C   UNL A   1      39.573  29.054  28.947  1.00  0.00     0.031 A 
ATOM     13  C   UNL A   1      40.366  30.068  29.724  1.00  0.00     0.074 A 
ATOM     14  C   UNL A   1      40.124  27.867  28.616  1.00  0.00     0.049 A 
ATOM     15  N   UNL A   1      41.592  29.975  30.173  1.00  0.00    -0.248 NA
ATOM     16  C   UNL A   1      39.711  31.349  30.034  1.00  0.00     0.031 C 
ATOM     17  C   UNL A   1      39.452  26.813  27.846  1.00  0.00     0.029 A 
ATOM     18  N   UNL A   1      41.346  27.324  28.916  1.00  0.00    -0.354 N 
ATOM     19  C   UNL A   1      41.863  31.185  30.802  1.00  0.00     0.074 A 
ATOM     20  C   UNL A   1      40.680  32.007  30.658  1.00  0.00     0.031 C 
ATOM     21  C   UNL A   1      40.234  25.726  27.808  1.00  0.00     0.029 A 
ATOM     22  C   UNL A   1      41.492  26.029  28.476  1.00  0.00     0.049 A 
ATOM     23  H   UNL A   1      42.050  27.813  29.400  1.00  0.00     0.167 HD
ATOM     24  C   UNL A   1      42.993  31.569  31.443  1.00  0.00     0.031 A 
ATOM     25  C   UNL A   1      42.529  25.178  28.581  1.00  0.00     0.031 A 
ATOM     26  C   UNL A   1      44.166  30.742  31.584  1.00  0.00     0.049 A 
ATOM     27  C   UNL A   1      43.768  25.638  29.290  1.00  0.00     0.074 A 
ATOM     28  C   UNL A   1      45.359  31.040  32.221  1.00  0.00     0.029 A 
ATOM     29  N   UNL A   1      44.292  29.454  31.085  1.00  0.00    -0.354 N 
ATOM     30  N   UNL A   1      43.996  26.784  29.884  1.00  0.00    -0.248 NA
ATOM     31  C   UNL A   1      44.889  24.692  29.338  1.00  0.00     0.031 C 
ATOM     32  C   UNL A   1      46.221  29.949  32.071  1.00  0.00     0.029 A 
ATOM     33  C   UNL A   1      45.548  28.950  31.385  1.00  0.00     0.049 A 
ATOM     34  H   UNL A   1      43.593  28.969  30.590  1.00  0.00     0.167 HD
ATOM     35  C   UNL A   1      45.291  26.698  30.377  1.00  0.00     0.074 A 
ATOM     36  C   UNL A   1      45.778  25.374  30.047  1.00  0.00     0.031 C 
ATOM     37  C   UNL A   1      46.018  27.636  31.032  1.00  0.00     0.031 A 
BRANCH  24  38
ATOM     38  C   UNL A   1      43.032  32.954  32.035  1.00  0.00    -0.014 A 
ATOM     39  C   UNL A   1      42.724  33.174  33.390  1.00  0.00     0.010 A 
ATOM     40  C   UNL A   1      43.461  34.040  31.247  1.00  0.00     0.010 A 
ATOM     41  C   UNL A   1      42.825  34.456  33.940  1.00  0.00     0.020 A 
ATOM     42  C   UNL A   1      43.584  35.319  31.800  1.00  0.00     0.020 A 
ATOM     43  C   UNL A   1      43.255  35.520  33.141  1.00  0.00     0.054 A 
BRANCH  43  44
ATOM     44  S   UNL A   1      43.422  37.162  33.896  1.00  0.00     0.124 S 
ATOM     45  O   UNL A   1      44.560  36.967  34.791  1.00  0.00    -0.237 OA
ATOM     46  O   UNL A   1      43.672  38.021  32.741  1.00  0.00    -0.237 OA
ATOM     47  O   UNL A   1      42.137  37.373  34.558  1.00  0.00    -0.744 OA
ENDBRANCH  43  44
ENDBRANCH  24  38
BRANCH  25  48
ATOM     48  C   UNL A   1      42.446  23.828  27.963  1.00  0.00    -0.014 A 
ATOM     49  C   UNL A   1      42.903  23.600  26.655  1.00  0.00     0.010 A 
ATOM     50  C   UNL A   1      41.910  22.753  28.697  1.00  0.00     0.010 A 
ATOM     51  C   UNL A   1      42.803  22.329  26.082  1.00  0.00     0.020 A 
ATOM     52  C   UNL A   1      41.839  21.475  28.143  1.00  0.00     0.020 A 
ATOM     53  C   UNL A   1      42.269  21.274  26.830  1.00  0.00     0.054 A 
BRANCH  53  54
ATOM     54  S   UNL A   1      42.176  19.622  26.087  1.00  0.00     0.124 S 
ATOM     55  O   UNL A   1      43.108  19.741  24.970  1.00  0.00    -0.237 OA
ATOM     56  O   UNL A   1      42.605  18.755  27.181  1.00  0.00    -0.237 OA
ATOM     57  O   UNL A   1      40.767  19.495  25.719  1.00  0.00    -0.744 OA
ENDBRANCH  53  54
ENDBRANCH  25  48
BRANCH  37  58
ATOM     58  C   UNL A   1      47.413  27.245  31.438  1.00  0.00    -0.014 A 
ATOM     59  C   UNL A   1      47.663  26.661  32.693  1.00  0.00     0.010 A 
ATOM     60  C   UNL A   1      48.483  27.461  30.553  1.00  0.00     0.010 A 
ATOM     61  C   UNL A   1      48.968  26.347  33.076  1.00  0.00     0.020 A 
ATOM     62  C   UNL A   1      49.786  27.121  30.921  1.00  0.00     0.020 A 
ATOM     63  C   UNL A   1      50.022  26.586  32.190  1.00  0.00     0.054 A 
BRANCH  63  64
ATOM     64  S   UNL A   1      51.709  26.162  32.704  1.00  0.00     0.124 S 
ATOM     65  O   UNL A   1      51.978  24.967  31.910  1.00  0.00    -0.237 OA
ATOM     66  O   UNL A   1      52.469  27.351  32.328  1.00  0.00    -0.237 OA
ATOM     67  O   UNL A   1      51.585  25.940  34.144  1.00  0.00    -0.744 OA
ENDBRANCH  63  64
ENDBRANCH  37  58
ENDBRANCH  11  12
ENDBRANCH   4   6
ENDBRANCH   1   2
BRANCH   1  68
ATOM     68  C   UNL A   1      32.698  26.878  26.445  1.00  0.00     0.042 C 
BRANCH  68  69
ATOM     69  C   UNL A   1      32.703  25.741  25.436  1.00  0.00     0.117 C 
BRANCH  69  70
ATOM     70  N   UNL A   1      32.159  24.511  25.988  1.00  0.00    -0.354 N 
ATOM     71  C   UNL A   1      32.274  23.201  25.599  1.00  0.00     0.250 C 
ATOM     72  H   UNL A   1      31.605  24.643  26.791  1.00  0.00     0.163 HD
ATOM     73  O   UNL A   1      31.586  22.419  26.268  1.00  0.00    -0.272 OA
BRANCH  71  74
ATOM     74  C   UNL A   1      33.215  22.731  24.402  1.00  0.00     0.173 C 
ATOM     75  Cl  UNL A   1      32.492  23.648  22.978  1.00  0.00    -0.098 Cl
BRANCH  74  76
ATOM     76  C   UNL A   1      34.688  23.141  24.681  1.00  0.00    -0.013 A 
ATOM     77  C   UNL A   1      35.618  23.155  23.617  1.00  0.00     0.006 A 
ATOM     78  C   UNL A   1      35.199  23.403  25.969  1.00  0.00     0.006 A 
ATOM     79  C   UNL A   1      36.984  23.359  23.835  1.00  0.00     0.000 A 
ATOM     80  C   UNL A   1      36.572  23.560  26.192  1.00  0.00     0.000 A 
ATOM     81  C   UNL A   1      37.464  23.534  25.126  1.00  0.00     0.000 A 
ENDBRANCH  74  76
BRANCH  74  82
ATOM     82  C   UNL A   1      33.084  21.199  24.118  1.00  0.00    -0.013 A 
ATOM     83  C   UNL A   1      32.253  20.674  23.107  1.00  0.00     0.006 A 
ATOM     84  C   UNL A   1      33.820  20.258  24.873  1.00  0.00     0.006 A 
ATOM     85  C   UNL A   1      32.119  19.293  22.910  1.00  0.00     0.000 A 
ATOM     86  C   UNL A   1      33.704  18.881  24.662  1.00  0.00     0.000 A 
ATOM     87  C   UNL A   1      32.843  18.397  23.687  1.00  0.00     0.000 A 
ENDBRANCH  74  82
ENDBRANCH  71  74
ENDBRANCH  69  70
ENDBRANCH  68  69
ENDBRANCH   1  68
TORSDOF 15
ENDMDL
MODEL 3
REMARK VINA RESULT:     -10.7      1.073      8.663
REMARK SMILES O=C(NCCCNC(=O)C(Cl)(c1ccccc1)c1ccccc1)c1ccc(-c2c3nc(c(-c4ccc(S(=O)(=O)[O-])cc4)c4ccc([nH]4)c(-c4ccc(S(=O)(=O)[O-])cc4)c4nc(c(-c5ccc(S(=O)(=O)[O-])cc5)c5ccc2[nH]5)C=C4)C=C3)cc1
REMARK SMILES IDX 4 1 3 2 1 3 2 4 24 6 25 7 83 8 26 9 82 10 27 11 28 12 29 13
REMARK SMILES IDX 76 14 30 15 81 16 75 17 77 18 31 19 80 20 74 21 73 22 32 24
REMARK SMILES IDX 62 25 43 26 61 27 44 28 47 29 60 30 78 31 45 32 46 33 59 35
REMARK SMILES IDX 79 36 48 37 33 38 34 39 42 40 35 41 41 42 36 43 37 44 38 45
REMARK SMILES IDX 39 46 40 47 63 48 64 49 72 50 65 51 71 52 66 53 67 54 68 55
REMARK SMILES IDX 69 56 70 57 49 58 50 59 58 60 51 61 57 62 52 63 53 64 54 65
REMARK SMILES IDX 55 66 56 67 5 68 6 69 7 70 8 71 9 73 10 74 11 75 12 76 13 77
REMARK SMILES IDX 17 78 14 79 16 80 15 81 18 82 19 83 23 84 20 85 22 86 21 87
REMARK H PARENT 3 5 77 23 47 34 7 72
REMARK Flexibility Score: inf
ROOT
ATOM      1  C   UNL A   1      34.054  27.981  26.480  1.00  0.00     0.118 C 
ENDROOT
BRANCH   1   2
ATOM      2  N   UNL A   1      33.759  29.346  26.901  1.00  0.00    -0.352 N 
ATOM      3  O   UNL A   1      33.954  31.238  28.103  1.00  0.00    -0.269 OA
ATOM      4  C   UNL A   1      34.482  30.207  27.691  1.00  0.00     0.251 C 
ATOM      5  H   UNL A   1      32.907  29.708  26.565  1.00  0.00     0.163 HD
BRANCH   4   6
ATOM      6  C   UNL A   1      35.880  29.890  28.058  1.00  0.00     0.039 A 
ATOM      7  C   UNL A   1      36.916  30.123  27.155  1.00  0.00     0.014 A 
ATOM      8  C   UNL A   1      36.169  29.379  29.328  1.00  0.00     0.014 A 
ATOM      9  C   UNL A   1      38.198  29.679  27.442  1.00  0.00     0.010 A 
ATOM     10  C   UNL A   1      37.487  29.051  29.666  1.00  0.00     0.010 A 
ATOM     11  C   UNL A   1      38.510  29.173  28.714  1.00  0.00    -0.014 A 
BRANCH  11  12
ATOM     12  C   UNL A   1      39.934  28.885  29.024  1.00  0.00     0.031 A 
ATOM     13  C   UNL A   1      40.790  29.854  29.791  1.00  0.00     0.074 A 
ATOM     14  C   UNL A   1      40.425  27.681  28.664  1.00  0.00     0.049 A 
ATOM     15  N   UNL A   1      42.023  29.704  30.205  1.00  0.00    -0.248 NA
ATOM     16  C   UNL A   1      40.199  31.158  30.134  1.00  0.00     0.031 C 
ATOM     17  C   UNL A   1      39.688  26.666  27.899  1.00  0.00     0.029 A 
ATOM     18  N   UNL A   1      41.630  27.083  28.923  1.00  0.00    -0.354 N 
ATOM     19  C   UNL A   1      42.362  30.893  30.841  1.00  0.00     0.074 A 
ATOM     20  C   UNL A   1      41.212  31.766  30.739  1.00  0.00     0.031 C 
ATOM     21  C   UNL A   1      40.422  25.547  27.827  1.00  0.00     0.029 A 
ATOM     22  C   UNL A   1      41.710  25.788  28.463  1.00  0.00     0.049 A 
ATOM     23  H   UNL A   1      42.367  27.535  29.393  1.00  0.00     0.167 HD
ATOM     24  C   UNL A   1      43.525  31.221  31.454  1.00  0.00     0.031 A 
ATOM     25  C   UNL A   1      42.711  24.893  28.529  1.00  0.00     0.031 A 
ATOM     26  C   UNL A   1      44.664  30.343  31.552  1.00  0.00     0.049 A 
ATOM     27  C   UNL A   1      43.988  25.291  29.209  1.00  0.00     0.074 A 
ATOM     28  C   UNL A   1      45.886  30.582  32.159  1.00  0.00     0.029 A 
ATOM     29  N   UNL A   1      44.722  29.058  31.035  1.00  0.00    -0.354 N 
ATOM     30  N   UNL A   1      44.280  26.418  29.810  1.00  0.00    -0.248 NA
ATOM     31  C   UNL A   1      45.068  24.298  29.215  1.00  0.00     0.031 C 
ATOM     32  C   UNL A   1      46.697  29.458  31.972  1.00  0.00     0.029 A 
ATOM     33  C   UNL A   1      45.963  28.498  31.294  1.00  0.00     0.049 A 
ATOM     34  H   UNL A   1      43.990  28.609  30.554  1.00  0.00     0.167 HD
ATOM     35  C   UNL A   1      45.584  26.272  30.266  1.00  0.00     0.074 A 
ATOM     36  C   UNL A   1      46.005  24.933  29.906  1.00  0.00     0.031 C 
ATOM     37  C   UNL A   1      46.367  27.169  30.912  1.00  0.00     0.031 A 
BRANCH  24  38
ATOM     38  C   UNL A   1      43.638  32.595  32.061  1.00  0.00    -0.014 A 
ATOM     39  C   UNL A   1      43.332  32.818  33.416  1.00  0.00     0.010 A 
ATOM     40  C   UNL A   1      44.135  33.662  31.289  1.00  0.00     0.010 A 
ATOM     41  C   UNL A   1      43.502  34.086  33.981  1.00  0.00     0.020 A 
ATOM     42  C   UNL A   1      44.327  34.926  31.856  1.00  0.00     0.020 A 
ATOM     43  C   UNL A   1      43.999  35.132  33.197  1.00  0.00     0.054 A 
BRANCH  43  44
ATOM     44  S   UNL A   1      44.255  36.754  33.971  1.00  0.00     0.124 S 
ATOM     45  O   UNL A   1      43.146  37.528  33.420  1.00  0.00    -0.237 OA
ATOM     46  O   UNL A   1      44.160  36.448  35.396  1.00  0.00    -0.237 OA
ATOM     47  O   UNL A   1      45.583  37.153  33.510  1.00  0.00    -0.744 OA
ENDBRANCH  43  44
ENDBRANCH  24  38
BRANCH  25  48
ATOM     48  C   UNL A   1      42.555  23.556  27.898  1.00  0.00    -0.014 A 
ATOM     49  C   UNL A   1      43.052  23.300  26.609  1.00  0.00     0.010 A 
ATOM     50  C   UNL A   1      41.907  22.522  28.599  1.00  0.00     0.010 A 
ATOM     51  C   UNL A   1      42.881  22.043  26.023  1.00  0.00     0.020 A 
ATOM     52  C   UNL A   1      41.764  21.255  28.032  1.00  0.00     0.020 A 
ATOM     53  C   UNL A   1      42.236  21.028  26.738  1.00  0.00     0.054 A 
BRANCH  53  54
ATOM     54  S   UNL A   1      42.052  19.392  25.978  1.00  0.00     0.124 S 
ATOM     55  O   UNL A   1      42.547  18.512  27.032  1.00  0.00    -0.237 OA
ATOM     56  O   UNL A   1      40.616  19.321  25.716  1.00  0.00    -0.237 OA
ATOM     57  O   UNL A   1      42.891  19.476  24.784  1.00  0.00    -0.744 OA
ENDBRANCH  53  54
ENDBRANCH  25  48
BRANCH  37  58
ATOM     58  C   UNL A   1      47.755  26.715  31.274  1.00  0.00    -0.014 A 
ATOM     59  C   UNL A   1      48.840  26.953  30.412  1.00  0.00     0.010 A 
ATOM     60  C   UNL A   1      47.974  26.045  32.490  1.00  0.00     0.010 A 
ATOM     61  C   UNL A   1      50.114  26.483  30.738  1.00  0.00     0.020 A 
ATOM     62  C   UNL A   1      49.252  25.599  32.833  1.00  0.00     0.020 A 
ATOM     63  C   UNL A   1      50.310  25.803  31.944  1.00  0.00     0.054 A 
BRANCH  63  64
ATOM     64  S   UNL A   1      51.975  25.210  32.351  1.00  0.00     0.124 S 
ATOM     65  O   UNL A   1      52.242  25.897  33.611  1.00  0.00    -0.237 OA
ATOM     66  O   UNL A   1      51.786  23.764  32.450  1.00  0.00    -0.237 OA
ATOM     67  O   UNL A   1      52.785  25.649  31.216  1.00  0.00    -0.744 OA
ENDBRANCH  63  64
ENDBRANCH  37  58
ENDBRANCH  11  12
ENDBRANCH   4   6
ENDBRANCH   1   2
BRANCH   1  68
ATOM     68  C   UNL A   1      33.291  27.583  25.229  1.00  0.00     0.042 C 
BRANCH  68  69
ATOM     69  C   UNL A   1      33.006  26.091  25.149  1.00  0.00     0.117 C 
BRANCH  69  70
ATOM     70  N   UNL A   1      33.642  25.469  23.999  1.00  0.00    -0.354 N 
ATOM     71  C   UNL A   1      34.321  24.287  23.855  1.00  0.00     0.250 C 
ATOM     72  H   UNL A   1      33.571  25.994  23.170  1.00  0.00     0.163 HD
ATOM     73  O   UNL A   1      34.811  24.127  22.729  1.00  0.00    -0.272 OA
BRANCH  71  74
ATOM     74  C   UNL A   1      34.460  23.216  25.027  1.00  0.00     0.173 C 
ATOM     75  Cl  UNL A   1      33.807  24.157  26.470  1.00  0.00    -0.098 Cl
BRANCH  74  76
ATOM     76  C   UNL A   1      33.606  21.956  24.709  1.00  0.00    -0.013 A 
ATOM     77  C   UNL A   1      33.583  20.883  25.628  1.00  0.00     0.006 A 
ATOM     78  C   UNL A   1      32.923  21.760  23.491  1.00  0.00     0.006 A 
ATOM     79  C   UNL A   1      32.966  19.666  25.325  1.00  0.00     0.000 A 
ATOM     80  C   UNL A   1      32.346  20.525  23.170  1.00  0.00     0.000 A 
ATOM     81  C   UNL A   1      32.371  19.478  24.084  1.00  0.00     0.000 A 
ENDBRANCH  74  76
BRANCH  74  82
ATOM     82  C   UNL A   1      35.952  22.847  25.314  1.00  0.00    -0.013 A 
ATOM     83  C   UNL A   1      36.823  23.685  26.040  1.00  0.00     0.006 A 
ATOM     84  C   UNL A   1      36.496  21.627  24.856  1.00  0.00     0.006 A 
ATOM     85  C   UNL A   1      38.169  23.349  26.237  1.00  0.00     0.000 A 
ATOM     86  C   UNL A   1      37.833  21.280  25.073  1.00  0.00     0.000 A 
ATOM     87  C   UNL A   1      38.675  22.149  25.753  1.00  0.00     0.000 A 
ENDBRANCH  74  82
ENDBRANCH  71  74
ENDBRANCH  69  70
ENDBRANCH  68  69
ENDBRANCH   1  68
TORSDOF 15
ENDMDL
