MODEL 1
REMARK VINA RESULT:     -10.0      0.000      0.000
REMARK SMILES CCCCCCNC(=O)Oc1cccc(-c2ccc([C@@H](C)C(=O)NCCCNC(=O)c3ccc(-c4c5nc(c(-c6ccc(S(=O)(=O)[O-])cc6)c6ccc([nH]6)c(-c6ccc(S(=O)(=O)[O-])cc6)c6nc(c(-c7ccc(S(=O)(=O)[O-])cc7)c7ccc4[nH]7)C=C6)C=C5)cc3)cc2N)c1
REMARK SMILES IDX 20 1 21 2 19 3 16 4 17 5 92 6 18 7 91 8 15 9 11 10 12 11
REMARK SMILES IDX 94 12 13 13 14 14 10 15 8 16 7 17 9 19 6 20 5 21 4 22 3 23
REMARK SMILES IDX 2 24 1 25 93 26 22 29 23 30 24 31 25 33 26 34 27 35 28 36
REMARK SMILES IDX 29 37 30 39 31 40 32 41 90 42 33 43 89 44 34 45 35 46 36 47
REMARK SMILES IDX 83 48 37 49 88 50 82 51 84 52 38 53 87 54 81 55 80 56 39 58
REMARK SMILES IDX 69 59 50 60 68 61 51 62 54 63 67 64 85 65 52 66 53 67 66 69
REMARK SMILES IDX 86 70 55 71 40 72 41 73 49 74 42 75 48 76 43 77 44 78 45 79
REMARK SMILES IDX 46 80 47 81 70 82 71 83 79 84 72 85 78 86 73 87 74 88 75 89
REMARK SMILES IDX 76 90 77 91 56 92 57 93 65 94 58 95 64 96 59 97 60 98 61 99
REMARK SMILES IDX 62 100 63 101
REMARK H PARENT 7 18 93 27 93 28 24 32 28 38 84 57 54 68
REMARK Flexibility Score: inf
ROOT
ATOM      1  C   UNL A   1      32.168  21.662  25.764  1.00  0.00     0.105 C 
ATOM      2  C   UNL A   1      32.058  20.523  24.750  1.00  0.00     0.023 C 
ENDROOT
BRANCH   1   3
ATOM      3  C   UNL A   1      31.558  22.980  25.319  1.00  0.00    -0.034 A 
ATOM      4  C   UNL A   1      30.308  25.379  24.390  1.00  0.00     0.005 A 
ATOM      5  C   UNL A   1      30.389  25.057  25.758  1.00  0.00     0.011 A 
ATOM      6  C   UNL A   1      30.953  24.507  23.481  1.00  0.00     0.040 A 
ATOM      7  C   UNL A   1      31.050  23.916  26.214  1.00  0.00     0.005 A 
ATOM      8  C   UNL A   1      31.493  23.293  23.951  1.00  0.00     0.030 A 
BRANCH   4   9
ATOM      9  C   UNL A   1      29.584  26.615  23.992  1.00  0.00    -0.013 A 
ATOM     10  C   UNL A   1      29.550  28.953  23.318  1.00  0.00     0.133 A 
ATOM     11  C   UNL A   1      28.161  28.951  23.249  1.00  0.00     0.047 A 
ATOM     12  C   UNL A   1      30.262  27.801  23.661  1.00  0.00     0.056 A 
ATOM     13  C   UNL A   1      27.471  27.779  23.531  1.00  0.00     0.004 A 
ATOM     14  C   UNL A   1      28.174  26.633  23.914  1.00  0.00     0.009 A 
BRANCH  10  15
ATOM     15  O   UNL A   1      30.180  30.203  23.195  1.00  0.00    -0.410 OA
BRANCH  15  16
ATOM     16  C   UNL A   1      29.935  31.200  24.125  1.00  0.00     0.412 C 
ATOM     17  N   UNL A   1      30.723  31.085  25.238  1.00  0.00    -0.321 N 
ATOM     18  H   UNL A   1      30.564  31.733  25.962  1.00  0.00     0.167 HD
ATOM     19  O   UNL A   1      29.126  32.110  24.013  1.00  0.00    -0.224 OA
BRANCH  17  20
ATOM     20  C   UNL A   1      31.768  30.104  25.460  1.00  0.00     0.119 C 
BRANCH  20  21
ATOM     21  C   UNL A   1      31.498  29.264  26.709  1.00  0.00     0.021 C 
BRANCH  21  22
ATOM     22  C   UNL A   1      32.625  28.293  27.085  1.00  0.00     0.002 C 
BRANCH  22  23
ATOM     23  C   UNL A   1      33.741  28.150  26.043  1.00  0.00    -0.000 C 
BRANCH  23  24
ATOM     24  C   UNL A   1      33.956  26.733  25.506  1.00  0.00    -0.003 C 
ATOM     25  C   UNL A   1      33.726  26.618  24.007  1.00  0.00     0.004 C 
ENDBRANCH  23  24
ENDBRANCH  22  23
ENDBRANCH  21  22
ENDBRANCH  20  21
ENDBRANCH  17  20
ENDBRANCH  15  16
ENDBRANCH  10  15
ENDBRANCH   4   9
BRANCH   6  26
ATOM     26  N   UNL A   1      30.999  24.750  22.108  1.00  0.00    -0.398 N 
ATOM     27  H   UNL A   1      31.583  25.457  21.752  1.00  0.00     0.156 HD
ATOM     28  H   UNL A   1      30.447  24.213  21.494  1.00  0.00     0.156 HD
ENDBRANCH   6  26
ENDBRANCH   1   3
BRANCH   1  29
ATOM     29  C   UNL A   1      33.548  21.790  26.427  1.00  0.00     0.227 C 
ATOM     30  O   UNL A   1      33.735  21.305  27.551  1.00  0.00    -0.274 OA
ATOM     31  N   UNL A   1      34.626  22.385  25.849  1.00  0.00    -0.356 N 
ATOM     32  H   UNL A   1      35.449  22.329  26.386  1.00  0.00     0.163 HD
BRANCH  31  33
ATOM     33  C   UNL A   1      34.793  23.087  24.591  1.00  0.00     0.117 C 
BRANCH  33  34
ATOM     34  C   UNL A   1      36.258  23.385  24.284  1.00  0.00     0.042 C 
BRANCH  34  35
ATOM     35  C   UNL A   1      37.069  23.800  25.502  1.00  0.00     0.118 C 
BRANCH  35  36
ATOM     36  N   UNL A   1      37.964  22.741  25.952  1.00  0.00    -0.352 N 
ATOM     37  C   UNL A   1      39.177  22.816  26.593  1.00  0.00     0.251 C 
ATOM     38  H   UNL A   1      37.651  21.827  25.765  1.00  0.00     0.163 HD
ATOM     39  O   UNL A   1      39.872  21.806  26.675  1.00  0.00    -0.269 OA
BRANCH  37  40
ATOM     40  C   UNL A   1      39.655  24.091  27.174  1.00  0.00     0.039 A 
ATOM     41  C   UNL A   1      40.485  24.918  26.407  1.00  0.00     0.014 A 
ATOM     42  C   UNL A   1      39.328  24.460  28.481  1.00  0.00     0.014 A 
ATOM     43  C   UNL A   1      40.932  26.135  26.929  1.00  0.00     0.010 A 
ATOM     44  C   UNL A   1      39.703  25.709  28.967  1.00  0.00     0.010 A 
ATOM     45  C   UNL A   1      40.518  26.557  28.202  1.00  0.00    -0.014 A 
BRANCH  45  46
ATOM     46  C   UNL A   1      40.932  27.866  28.768  1.00  0.00     0.031 A 
ATOM     47  C   UNL A   1      42.311  28.027  29.352  1.00  0.00     0.074 A 
ATOM     48  C   UNL A   1      40.046  28.879  28.835  1.00  0.00     0.049 A 
ATOM     49  N   UNL A   1      42.820  29.044  29.999  1.00  0.00    -0.248 NA
ATOM     50  C   UNL A   1      43.230  26.885  29.212  1.00  0.00     0.031 C 
ATOM     51  C   UNL A   1      38.670  28.838  28.334  1.00  0.00     0.029 A 
ATOM     52  N   UNL A   1      40.165  30.139  29.369  1.00  0.00    -0.354 N 
ATOM     53  C   UNL A   1      44.103  28.653  30.367  1.00  0.00     0.074 A 
ATOM     54  C   UNL A   1      44.279  27.294  29.909  1.00  0.00     0.031 C 
ATOM     55  C   UNL A   1      38.080  30.021  28.569  1.00  0.00     0.029 A 
ATOM     56  C   UNL A   1      39.014  30.887  29.281  1.00  0.00     0.049 A 
ATOM     57  H   UNL A   1      40.996  30.474  29.777  1.00  0.00     0.167 HD
ATOM     58  C   UNL A   1      45.054  29.368  31.014  1.00  0.00     0.031 A 
ATOM     59  C   UNL A   1      38.734  32.123  29.739  1.00  0.00     0.031 A 
ATOM     60  C   UNL A   1      44.878  30.726  31.455  1.00  0.00     0.049 A 
ATOM     61  C   UNL A   1      39.801  32.893  30.470  1.00  0.00     0.074 A 
ATOM     62  C   UNL A   1      45.798  31.556  32.070  1.00  0.00     0.029 A 
ATOM     63  N   UNL A   1      43.703  31.453  31.327  1.00  0.00    -0.354 N 
ATOM     64  N   UNL A   1      41.027  32.528  30.757  1.00  0.00    -0.248 NA
ATOM     65  C   UNL A   1      39.450  34.242  30.931  1.00  0.00     0.031 C 
ATOM     66  C   UNL A   1      45.163  32.768  32.362  1.00  0.00     0.029 A 
ATOM     67  C   UNL A   1      43.868  32.715  31.872  1.00  0.00     0.049 A 
ATOM     68  H   UNL A   1      42.875  31.121  30.912  1.00  0.00     0.167 HD
ATOM     69  C   UNL A   1      41.604  33.615  31.406  1.00  0.00     0.074 A 
ATOM     70  C   UNL A   1      40.596  34.653  31.460  1.00  0.00     0.031 C 
ATOM     71  C   UNL A   1      42.856  33.741  31.907  1.00  0.00     0.031 A 
BRANCH  58  72
ATOM     72  C   UNL A   1      46.371  28.690  31.291  1.00  0.00    -0.014 A 
ATOM     73  C   UNL A   1      46.571  27.939  32.464  1.00  0.00     0.010 A 
ATOM     74  C   UNL A   1      47.412  28.772  30.348  1.00  0.00     0.010 A 
ATOM     75  C   UNL A   1      47.800  27.321  32.710  1.00  0.00     0.020 A 
ATOM     76  C   UNL A   1      48.633  28.130  30.576  1.00  0.00     0.020 A 
ATOM     77  C   UNL A   1      48.825  27.424  31.765  1.00  0.00     0.054 A 
BRANCH  77  78
ATOM     78  S   UNL A   1      50.403  26.596  32.102  1.00  0.00     0.124 S 
ATOM     79  O   UNL A   1      51.306  27.283  31.183  1.00  0.00    -0.237 OA
ATOM     80  O   UNL A   1      50.616  26.878  33.520  1.00  0.00    -0.237 OA
ATOM     81  O   UNL A   1      50.136  25.196  31.783  1.00  0.00    -0.744 OA
ENDBRANCH  77  78
ENDBRANCH  58  72
BRANCH  59  82
ATOM     82  C   UNL A   1      37.384  32.711  29.510  1.00  0.00    -0.014 A 
ATOM     83  C   UNL A   1      36.415  32.688  30.528  1.00  0.00     0.010 A 
ATOM     84  C   UNL A   1      37.068  33.315  28.279  1.00  0.00     0.010 A 
ATOM     85  C   UNL A   1      35.149  33.244  30.315  1.00  0.00     0.020 A 
ATOM     86  C   UNL A   1      35.814  33.897  28.072  1.00  0.00     0.020 A 
ATOM     87  C   UNL A   1      34.858  33.847  29.088  1.00  0.00     0.054 A 
BRANCH  87  88
ATOM     88  S   UNL A   1      33.229  34.609  28.852  1.00  0.00     0.124 S 
ATOM     89  O   UNL A   1      33.580  35.911  28.292  1.00  0.00    -0.237 OA
ATOM     90  O   UNL A   1      32.576  33.681  27.934  1.00  0.00    -0.237 OA
ATOM     91  O   UNL A   1      32.665  34.640  30.200  1.00  0.00    -0.744 OA
ENDBRANCH  87  88
ENDBRANCH  59  82
BRANCH  71  92
ATOM     92  C   UNL A   1      43.234  35.063  32.521  1.00  0.00    -0.014 A 
ATOM     93  C   UNL A   1      43.713  36.124  31.734  1.00  0.00     0.010 A 
ATOM     94  C   UNL A   1      43.022  35.269  33.898  1.00  0.00     0.010 A 
ATOM     95  C   UNL A   1      43.987  37.365  32.316  1.00  0.00     0.020 A 
ATOM     96  C   UNL A   1      43.270  36.516  34.477  1.00  0.00     0.020 A 
ATOM     97  C   UNL A   1      43.758  37.554  33.683  1.00  0.00     0.054 A 
BRANCH  97  98
ATOM     98  S   UNL A   1      44.051  39.195  34.398  1.00  0.00     0.124 S 
ATOM     99  O   UNL A   1      45.414  39.479  33.959  1.00  0.00    -0.237 OA
ATOM    100  O   UNL A   1      43.009  40.007  33.776  1.00  0.00    -0.237 OA
ATOM    101  O   UNL A   1      43.892  38.982  35.835  1.00  0.00    -0.744 OA
ENDBRANCH  97  98
ENDBRANCH  71  92
ENDBRANCH  45  46
ENDBRANCH  37  40
ENDBRANCH  35  36
ENDBRANCH  34  35
ENDBRANCH  33  34
ENDBRANCH  31  33
ENDBRANCH   1  29
TORSDOF 23
ENDMDL
MODEL 2
REMARK VINA RESULT:      -9.7      2.519      3.464
REMARK SMILES CCCCCCNC(=O)Oc1cccc(-c2ccc([C@@H](C)C(=O)NCCCNC(=O)c3ccc(-c4c5nc(c(-c6ccc(S(=O)(=O)[O-])cc6)c6ccc([nH]6)c(-c6ccc(S(=O)(=O)[O-])cc6)c6nc(c(-c7ccc(S(=O)(=O)[O-])cc7)c7ccc4[nH]7)C=C6)C=C5)cc3)cc2N)c1
REMARK SMILES IDX 20 1 21 2 19 3 16 4 17 5 92 6 18 7 91 8 15 9 11 10 12 11
REMARK SMILES IDX 94 12 13 13 14 14 10 15 8 16 7 17 9 19 6 20 5 21 4 22 3 23
REMARK SMILES IDX 2 24 1 25 93 26 22 29 23 30 24 31 25 33 26 34 27 35 28 36
REMARK SMILES IDX 29 37 30 39 31 40 32 41 90 42 33 43 89 44 34 45 35 46 36 47
REMARK SMILES IDX 83 48 37 49 88 50 82 51 84 52 38 53 87 54 81 55 80 56 39 58
REMARK SMILES IDX 69 59 50 60 68 61 51 62 54 63 67 64 85 65 52 66 53 67 66 69
REMARK SMILES IDX 86 70 55 71 40 72 41 73 49 74 42 75 48 76 43 77 44 78 45 79
REMARK SMILES IDX 46 80 47 81 70 82 71 83 79 84 72 85 78 86 73 87 74 88 75 89
REMARK SMILES IDX 76 90 77 91 56 92 57 93 65 94 58 95 64 96 59 97 60 98 61 99
REMARK SMILES IDX 62 100 63 101
REMARK H PARENT 7 18 93 27 93 28 24 32 28 38 84 57 54 68
REMARK Flexibility Score: inf
ROOT
ATOM      1  C   UNL A   1      32.306  20.630  24.474  1.00  0.00     0.105 C 
ATOM      2  C   UNL A   1      32.473  19.940  23.119  1.00  0.00     0.023 C 
ENDROOT
BRANCH   1   3
ATOM      3  C   UNL A   1      32.132  22.138  24.408  1.00  0.00    -0.034 A 
ATOM      4  C   UNL A   1      31.696  24.956  24.171  1.00  0.00     0.005 A 
ATOM      5  C   UNL A   1      31.517  24.269  25.387  1.00  0.00     0.011 A 
ATOM      6  C   UNL A   1      32.191  24.211  23.075  1.00  0.00     0.040 A 
ATOM      7  C   UNL A   1      31.786  22.906  25.516  1.00  0.00     0.005 A 
ATOM      8  C   UNL A   1      32.324  22.812  23.191  1.00  0.00     0.030 A 
BRANCH   4   9
ATOM      9  C   UNL A   1      31.385  26.409  24.123  1.00  0.00    -0.013 A 
ATOM     10  C   UNL A   1      31.939  28.733  24.583  1.00  0.00     0.133 A 
ATOM     11  C   UNL A   1      30.745  29.168  24.019  1.00  0.00     0.047 A 
ATOM     12  C   UNL A   1      32.274  27.377  24.619  1.00  0.00     0.056 A 
ATOM     13  C   UNL A   1      29.869  28.232  23.483  1.00  0.00     0.004 A 
ATOM     14  C   UNL A   1      30.179  26.870  23.552  1.00  0.00     0.009 A 
BRANCH  10  15
ATOM     15  O   UNL A   1      32.699  29.701  25.262  1.00  0.00    -0.410 OA
BRANCH  15  16
ATOM     16  C   UNL A   1      32.389  30.038  26.568  1.00  0.00     0.412 C 
ATOM     17  N   UNL A   1      33.407  29.759  27.439  1.00  0.00    -0.321 N 
ATOM     18  H   UNL A   1      33.233  29.927  28.393  1.00  0.00     0.167 HD
ATOM     19  O   UNL A   1      31.343  30.541  26.957  1.00  0.00    -0.224 OA
BRANCH  17  20
ATOM     20  C   UNL A   1      34.717  29.238  27.098  1.00  0.00     0.119 C 
BRANCH  20  21
ATOM     21  C   UNL A   1      35.720  29.444  28.235  1.00  0.00     0.021 C 
BRANCH  21  22
ATOM     22  C   UNL A   1      35.994  30.911  28.590  1.00  0.00     0.002 C 
BRANCH  22  23
ATOM     23  C   UNL A   1      35.265  31.943  27.722  1.00  0.00    -0.000 C 
BRANCH  23  24
ATOM     24  C   UNL A   1      35.552  33.407  28.066  1.00  0.00    -0.003 C 
ATOM     25  C   UNL A   1      34.364  34.121  28.689  1.00  0.00     0.004 C 
ENDBRANCH  23  24
ENDBRANCH  22  23
ENDBRANCH  21  22
ENDBRANCH  20  21
ENDBRANCH  17  20
ENDBRANCH  15  16
ENDBRANCH  10  15
ENDBRANCH   4   9
BRANCH   6  26
ATOM     26  N   UNL A   1      32.471  24.789  21.836  1.00  0.00    -0.398 N 
ATOM     27  H   UNL A   1      32.176  24.346  21.008  1.00  0.00     0.156 HD
ATOM     28  H   UNL A   1      32.964  25.639  21.790  1.00  0.00     0.156 HD
ENDBRANCH   6  26
ENDBRANCH   1   3
BRANCH   1  29
ATOM     29  C   UNL A   1      33.283  20.148  25.557  1.00  0.00     0.227 C 
ATOM     30  O   UNL A   1      32.926  19.276  26.359  1.00  0.00    -0.274 OA
ATOM     31  N   UNL A   1      34.562  20.594  25.692  1.00  0.00    -0.356 N 
ATOM     32  H   UNL A   1      35.070  20.137  26.401  1.00  0.00     0.163 HD
BRANCH  31  33
ATOM     33  C   UNL A   1      35.317  21.613  24.990  1.00  0.00     0.117 C 
BRANCH  33  34
ATOM     34  C   UNL A   1      35.498  22.878  25.825  1.00  0.00     0.042 C 
BRANCH  34  35
ATOM     35  C   UNL A   1      36.941  23.351  25.917  1.00  0.00     0.118 C 
BRANCH  35  36
ATOM     36  N   UNL A   1      37.869  22.247  26.127  1.00  0.00    -0.352 N 
ATOM     37  C   UNL A   1      39.214  22.257  26.405  1.00  0.00     0.251 C 
ATOM     38  H   UNL A   1      37.468  21.350  26.058  1.00  0.00     0.163 HD
ATOM     39  O   UNL A   1      39.850  21.209  26.316  1.00  0.00    -0.269 OA
BRANCH  37  40
ATOM     40  C   UNL A   1      39.902  23.508  26.797  1.00  0.00     0.039 A 
ATOM     41  C   UNL A   1      39.843  24.614  25.940  1.00  0.00     0.014 A 
ATOM     42  C   UNL A   1      40.640  23.589  27.980  1.00  0.00     0.014 A 
ATOM     43  C   UNL A   1      40.469  25.810  26.300  1.00  0.00     0.010 A 
ATOM     44  C   UNL A   1      41.190  24.804  28.377  1.00  0.00     0.010 A 
ATOM     45  C   UNL A   1      41.120  25.926  27.538  1.00  0.00    -0.014 A 
BRANCH  45  46
ATOM     46  C   UNL A   1      41.754  27.197  27.976  1.00  0.00     0.031 A 
ATOM     47  C   UNL A   1      43.239  27.388  27.815  1.00  0.00     0.074 A 
ATOM     48  C   UNL A   1      41.013  28.139  28.592  1.00  0.00     0.049 A 
ATOM     49  N   UNL A   1      43.997  28.366  28.240  1.00  0.00    -0.248 NA
ATOM     50  C   UNL A   1      43.973  26.327  27.105  1.00  0.00     0.031 C 
ATOM     51  C   UNL A   1      39.571  28.059  28.836  1.00  0.00     0.029 A 
ATOM     52  N   UNL A   1      41.374  29.344  29.142  1.00  0.00    -0.354 N 
ATOM     53  C   UNL A   1      45.294  28.024  27.876  1.00  0.00     0.074 A 
ATOM     54  C   UNL A   1      45.227  26.731  27.234  1.00  0.00     0.031 C 
ATOM     55  C   UNL A   1      39.169  29.172  29.470  1.00  0.00     0.029 A 
ATOM     56  C   UNL A   1      40.328  30.022  29.724  1.00  0.00     0.049 A 
ATOM     57  H   UNL A   1      42.295  29.691  29.122  1.00  0.00     0.167 HD
ATOM     58  C   UNL A   1      46.437  28.731  28.048  1.00  0.00     0.031 A 
ATOM     59  C   UNL A   1      40.305  31.185  30.403  1.00  0.00     0.031 A 
ATOM     60  C   UNL A   1      46.495  30.025  28.675  1.00  0.00     0.049 A 
ATOM     61  C   UNL A   1      41.589  31.946  30.595  1.00  0.00     0.074 A 
ATOM     62  C   UNL A   1      47.594  30.847  28.848  1.00  0.00     0.029 A 
ATOM     63  N   UNL A   1      45.409  30.683  29.232  1.00  0.00    -0.354 N 
ATOM     64  N   UNL A   1      42.798  31.634  30.193  1.00  0.00    -0.248 NA
ATOM     65  C   UNL A   1      41.507  33.218  31.326  1.00  0.00     0.031 C 
ATOM     66  C   UNL A   1      47.182  31.981  29.556  1.00  0.00     0.029 A 
ATOM     67  C   UNL A   1      45.815  31.892  29.769  1.00  0.00     0.049 A 
ATOM     68  H   UNL A   1      44.486  30.341  29.245  1.00  0.00     0.167 HD
ATOM     69  C   UNL A   1      43.615  32.686  30.595  1.00  0.00     0.074 A 
ATOM     70  C   UNL A   1      42.761  33.647  31.263  1.00  0.00     0.031 C 
ATOM     71  C   UNL A   1      44.949  32.843  30.422  1.00  0.00     0.031 A 
BRANCH  58  72
ATOM     72  C   UNL A   1      47.721  28.116  27.554  1.00  0.00    -0.014 A 
ATOM     73  C   UNL A   1      48.539  27.354  28.409  1.00  0.00     0.010 A 
ATOM     74  C   UNL A   1      48.097  28.268  26.207  1.00  0.00     0.010 A 
ATOM     75  C   UNL A   1      49.730  26.794  27.939  1.00  0.00     0.020 A 
ATOM     76  C   UNL A   1      49.273  27.685  25.725  1.00  0.00     0.020 A 
ATOM     77  C   UNL A   1      50.091  26.967  26.599  1.00  0.00     0.054 A 
BRANCH  77  78
ATOM     78  S   UNL A   1      51.632  26.213  26.012  1.00  0.00     0.124 S 
ATOM     79  O   UNL A   1      51.507  26.360  24.564  1.00  0.00    -0.237 OA
ATOM     80  O   UNL A   1      52.655  27.045  26.641  1.00  0.00    -0.237 OA
ATOM     81  O   UNL A   1      51.559  24.841  26.506  1.00  0.00    -0.744 OA
ENDBRANCH  77  78
ENDBRANCH  58  72
BRANCH  59  82
ATOM     82  C   UNL A   1      39.018  31.705  30.943  1.00  0.00    -0.014 A 
ATOM     83  C   UNL A   1      38.347  31.017  31.969  1.00  0.00     0.010 A 
ATOM     84  C   UNL A   1      38.467  32.901  30.447  1.00  0.00     0.010 A 
ATOM     85  C   UNL A   1      37.140  31.507  32.479  1.00  0.00     0.020 A 
ATOM     86  C   UNL A   1      37.276  33.408  30.974  1.00  0.00     0.020 A 
ATOM     87  C   UNL A   1      36.614  32.702  31.980  1.00  0.00     0.054 A 
BRANCH  87  88
ATOM     88  S   UNL A   1      35.075  33.347  32.693  1.00  0.00     0.124 S 
ATOM     89  O   UNL A   1      35.221  32.995  34.102  1.00  0.00    -0.237 OA
ATOM     90  O   UNL A   1      35.157  34.772  32.385  1.00  0.00    -0.237 OA
ATOM     91  O   UNL A   1      34.031  32.621  31.971  1.00  0.00    -0.744 OA
ENDBRANCH  87  88
ENDBRANCH  59  82
BRANCH  71  92
ATOM     92  C   UNL A   1      45.575  34.119  30.919  1.00  0.00    -0.014 A 
ATOM     93  C   UNL A   1      46.197  34.185  32.177  1.00  0.00     0.010 A 
ATOM     94  C   UNL A   1      45.614  35.243  30.072  1.00  0.00     0.010 A 
ATOM     95  C   UNL A   1      46.835  35.359  32.587  1.00  0.00     0.020 A 
ATOM     96  C   UNL A   1      46.275  36.409  30.467  1.00  0.00     0.020 A 
ATOM     97  C   UNL A   1      46.875  36.462  31.726  1.00  0.00     0.054 A 
BRANCH  97  98
ATOM     98  S   UNL A   1      47.774  37.947  32.251  1.00  0.00     0.124 S 
ATOM     99  O   UNL A   1      48.634  37.424  33.309  1.00  0.00    -0.237 OA
ATOM    100  O   UNL A   1      48.460  38.356  31.028  1.00  0.00    -0.237 OA
ATOM    101  O   UNL A   1      46.718  38.853  32.698  1.00  0.00    -0.744 OA
ENDBRANCH  97  98
ENDBRANCH  71  92
ENDBRANCH  45  46
ENDBRANCH  37  40
ENDBRANCH  35  36
ENDBRANCH  34  35
ENDBRANCH  33  34
ENDBRANCH  31  33
ENDBRANCH   1  29
TORSDOF 23
ENDMDL
MODEL 3
REMARK VINA RESULT:      -9.6      3.556      8.753
REMARK SMILES CCCCCCNC(=O)Oc1cccc(-c2ccc([C@@H](C)C(=O)NCCCNC(=O)c3ccc(-c4c5nc(c(-c6ccc(S(=O)(=O)[O-])cc6)c6ccc([nH]6)c(-c6ccc(S(=O)(=O)[O-])cc6)c6nc(c(-c7ccc(S(=O)(=O)[O-])cc7)c7ccc4[nH]7)C=C6)C=C5)cc3)cc2N)c1
REMARK SMILES IDX 20 1 21 2 19 3 16 4 17 5 92 6 18 7 91 8 15 9 11 10 12 11
REMARK SMILES IDX 94 12 13 13 14 14 10 15 8 16 7 17 9 19 6 20 5 21 4 22 3 23
REMARK SMILES IDX 2 24 1 25 93 26 22 29 23 30 24 31 25 33 26 34 27 35 28 36
REMARK SMILES IDX 29 37 30 39 31 40 32 41 90 42 33 43 89 44 34 45 35 46 36 47
REMARK SMILES IDX 83 48 37 49 88 50 82 51 84 52 38 53 87 54 81 55 80 56 39 58
REMARK SMILES IDX 69 59 50 60 68 61 51 62 54 63 67 64 85 65 52 66 53 67 66 69
REMARK SMILES IDX 86 70 55 71 40 72 41 73 49 74 42 75 48 76 43 77 44 78 45 79
REMARK SMILES IDX 46 80 47 81 70 82 71 83 79 84 72 85 78 86 73 87 74 88 75 89
REMARK SMILES IDX 76 90 77 91 56 92 57 93 65 94 58 95 64 96 59 97 60 98 61 99
REMARK SMILES IDX 62 100 63 101
REMARK H PARENT 7 18 93 27 93 28 24 32 28 38 84 57 54 68
REMARK Flexibility Score: inf
ROOT
ATOM      1  C   UNL A   1      34.443  20.374  25.524  1.00  0.00     0.105 C 
ATOM      2  C   UNL A   1      33.610  19.100  25.370  1.00  0.00     0.023 C 
ENDROOT
BRANCH   1   3
ATOM      3  C   UNL A   1      33.736  21.656  25.119  1.00  0.00    -0.034 A 
ATOM      4  C   UNL A   1      32.288  23.982  24.295  1.00  0.00     0.005 A 
ATOM      5  C   UNL A   1      32.638  23.754  25.639  1.00  0.00     0.011 A 
ATOM      6  C   UNL A   1      32.758  23.052  23.338  1.00  0.00     0.040 A 
ATOM      7  C   UNL A   1      33.395  22.650  26.032  1.00  0.00     0.005 A 
ATOM      8  C   UNL A   1      33.400  21.874  23.773  1.00  0.00     0.030 A 
BRANCH   4   9
ATOM      9  C   UNL A   1      31.479  25.185  23.966  1.00  0.00    -0.013 A 
ATOM     10  C   UNL A   1      31.269  27.458  23.124  1.00  0.00     0.133 A 
ATOM     11  C   UNL A   1      29.899  27.460  23.363  1.00  0.00     0.047 A 
ATOM     12  C   UNL A   1      32.053  26.334  23.396  1.00  0.00     0.056 A 
ATOM     13  C   UNL A   1      29.302  26.320  23.885  1.00  0.00     0.004 A 
ATOM     14  C   UNL A   1      30.087  25.205  24.198  1.00  0.00     0.009 A 
BRANCH  10  15
ATOM     15  O   UNL A   1      31.843  28.690  22.763  1.00  0.00    -0.410 OA
BRANCH  15  16
ATOM     16  C   UNL A   1      33.167  28.956  23.067  1.00  0.00     0.412 C 
ATOM     17  N   UNL A   1      33.318  29.518  24.306  1.00  0.00    -0.321 N 
ATOM     18  H   UNL A   1      34.230  29.780  24.565  1.00  0.00     0.167 HD
ATOM     19  O   UNL A   1      34.134  28.728  22.353  1.00  0.00    -0.224 OA
BRANCH  17  20
ATOM     20  C   UNL A   1      32.269  29.768  25.275  1.00  0.00     0.119 C 
BRANCH  20  21
ATOM     21  C   UNL A   1      32.667  29.290  26.673  1.00  0.00     0.021 C 
BRANCH  21  22
ATOM     22  C   UNL A   1      34.155  28.956  26.838  1.00  0.00     0.002 C 
BRANCH  22  23
ATOM     23  C   UNL A   1      34.883  29.735  27.939  1.00  0.00    -0.000 C 
BRANCH  23  24
ATOM     24  C   UNL A   1      34.535  31.223  28.028  1.00  0.00    -0.003 C 
ATOM     25  C   UNL A   1      35.706  32.134  27.697  1.00  0.00     0.004 C 
ENDBRANCH  23  24
ENDBRANCH  22  23
ENDBRANCH  21  22
ENDBRANCH  20  21
ENDBRANCH  17  20
ENDBRANCH  15  16
ENDBRANCH  10  15
ENDBRANCH   4   9
BRANCH   6  26
ATOM     26  N   UNL A   1      32.532  23.200  21.969  1.00  0.00    -0.398 N 
ATOM     27  H   UNL A   1      32.498  24.099  21.569  1.00  0.00     0.156 HD
ATOM     28  H   UNL A   1      32.407  22.405  21.402  1.00  0.00     0.156 HD
ENDBRANCH   6  26
ENDBRANCH   1   3
BRANCH   1  29
ATOM     29  C   UNL A   1      35.886  20.254  25.012  1.00  0.00     0.227 C 
ATOM     30  O   UNL A   1      36.278  19.184  24.529  1.00  0.00    -0.274 OA
ATOM     31  N   UNL A   1      36.790  21.271  25.017  1.00  0.00    -0.356 N 
ATOM     32  H   UNL A   1      37.651  21.042  24.599  1.00  0.00     0.163 HD
BRANCH  31  33
ATOM     33  C   UNL A   1      36.725  22.629  25.523  1.00  0.00     0.117 C 
BRANCH  33  34
ATOM     34  C   UNL A   1      37.883  22.952  26.464  1.00  0.00     0.042 C 
BRANCH  34  35
ATOM     35  C   UNL A   1      38.292  24.417  26.455  1.00  0.00     0.118 C 
BRANCH  35  36
ATOM     36  N   UNL A   1      39.596  24.619  25.835  1.00  0.00    -0.352 N 
ATOM     37  C   UNL A   1      40.588  25.523  26.128  1.00  0.00     0.251 C 
ATOM     38  H   UNL A   1      39.797  24.012  25.087  1.00  0.00     0.163 HD
ATOM     39  O   UNL A   1      41.513  25.672  25.333  1.00  0.00    -0.269 OA
BRANCH  37  40
ATOM     40  C   UNL A   1      40.552  26.317  27.377  1.00  0.00     0.039 A 
ATOM     41  C   UNL A   1      41.340  27.470  27.472  1.00  0.00     0.014 A 
ATOM     42  C   UNL A   1      39.780  25.914  28.469  1.00  0.00     0.014 A 
ATOM     43  C   UNL A   1      41.306  28.245  28.635  1.00  0.00     0.010 A 
ATOM     44  C   UNL A   1      39.682  26.732  29.592  1.00  0.00     0.010 A 
ATOM     45  C   UNL A   1      40.450  27.901  29.693  1.00  0.00    -0.014 A 
BRANCH  45  46
ATOM     46  C   UNL A   1      40.350  28.728  30.922  1.00  0.00     0.031 A 
ATOM     47  C   UNL A   1      39.347  29.850  30.991  1.00  0.00     0.074 A 
ATOM     48  C   UNL A   1      41.213  28.528  31.938  1.00  0.00     0.049 A 
ATOM     49  N   UNL A   1      39.187  30.758  31.920  1.00  0.00    -0.248 NA
ATOM     50  C   UNL A   1      38.421  29.985  29.855  1.00  0.00     0.031 C 
ATOM     51  C   UNL A   1      42.250  27.494  31.979  1.00  0.00     0.029 A 
ATOM     52  N   UNL A   1      41.366  29.196  33.128  1.00  0.00    -0.354 N 
ATOM     53  C   UNL A   1      38.165  31.584  31.466  1.00  0.00     0.074 A 
ATOM     54  C   UNL A   1      37.772  31.097  30.163  1.00  0.00     0.031 C 
ATOM     55  C   UNL A   1      42.919  27.588  33.139  1.00  0.00     0.029 A 
ATOM     56  C   UNL A   1      42.396  28.716  33.903  1.00  0.00     0.049 A 
ATOM     57  H   UNL A   1      40.793  29.949  33.400  1.00  0.00     0.167 HD
ATOM     58  C   UNL A   1      37.594  32.645  32.086  1.00  0.00     0.031 A 
ATOM     59  C   UNL A   1      42.879  29.146  35.085  1.00  0.00     0.031 A 
ATOM     60  C   UNL A   1      37.979  33.116  33.390  1.00  0.00     0.049 A 
ATOM     61  C   UNL A   1      42.239  30.336  35.748  1.00  0.00     0.074 A 
ATOM     62  C   UNL A   1      37.426  34.147  34.128  1.00  0.00     0.029 A 
ATOM     63  N   UNL A   1      39.013  32.588  34.148  1.00  0.00    -0.354 N 
ATOM     64  N   UNL A   1      41.235  31.070  35.330  1.00  0.00    -0.248 NA
ATOM     65  C   UNL A   1      42.792  30.752  37.044  1.00  0.00     0.031 C 
ATOM     66  C   UNL A   1      38.160  34.276  35.312  1.00  0.00     0.029 A 
ATOM     67  C   UNL A   1      39.130  33.286  35.338  1.00  0.00     0.049 A 
ATOM     68  H   UNL A   1      39.581  31.830  33.880  1.00  0.00     0.167 HD
ATOM     69  C   UNL A   1      41.016  32.015  36.327  1.00  0.00     0.074 A 
ATOM     70  C   UNL A   1      41.985  31.754  37.371  1.00  0.00     0.031 C 
ATOM     71  C   UNL A   1      40.093  33.006  36.373  1.00  0.00     0.031 A 
BRANCH  58  72
ATOM     72  C   UNL A   1      36.494  33.373  31.357  1.00  0.00    -0.014 A 
ATOM     73  C   UNL A   1      36.778  34.220  30.270  1.00  0.00     0.010 A 
ATOM     74  C   UNL A   1      35.154  33.178  31.738  1.00  0.00     0.010 A 
ATOM     75  C   UNL A   1      35.748  34.893  29.607  1.00  0.00     0.020 A 
ATOM     76  C   UNL A   1      34.118  33.826  31.058  1.00  0.00     0.020 A 
ATOM     77  C   UNL A   1      34.424  34.694  30.008  1.00  0.00     0.054 A 
BRANCH  77  78
ATOM     78  S   UNL A   1      33.107  35.566  29.118  1.00  0.00     0.124 S 
ATOM     79  O   UNL A   1      32.271  36.049  30.214  1.00  0.00    -0.237 OA
ATOM     80  O   UNL A   1      33.842  36.596  28.388  1.00  0.00    -0.237 OA
ATOM     81  O   UNL A   1      32.503  34.528  28.286  1.00  0.00    -0.744 OA
ENDBRANCH  77  78
ENDBRANCH  58  72
BRANCH  59  82
ATOM     82  C   UNL A   1      44.025  28.438  35.720  1.00  0.00    -0.014 A 
ATOM     83  C   UNL A   1      45.346  28.839  35.453  1.00  0.00     0.010 A 
ATOM     84  C   UNL A   1      43.801  27.372  36.611  1.00  0.00     0.010 A 
ATOM     85  C   UNL A   1      46.423  28.177  36.053  1.00  0.00     0.020 A 
ATOM     86  C   UNL A   1      44.873  26.727  37.234  1.00  0.00     0.020 A 
ATOM     87  C   UNL A   1      46.179  27.127  36.942  1.00  0.00     0.054 A 
BRANCH  87  88
ATOM     88  S   UNL A   1      47.587  26.317  37.750  1.00  0.00     0.124 S 
ATOM     89  O   UNL A   1      48.659  26.537  36.784  1.00  0.00    -0.237 OA
ATOM     90  O   UNL A   1      47.702  27.058  39.003  1.00  0.00    -0.237 OA
ATOM     91  O   UNL A   1      47.149  24.930  37.893  1.00  0.00    -0.744 OA
ENDBRANCH  87  88
ENDBRANCH  59  82
BRANCH  71  92
ATOM     92  C   UNL A   1      40.046  33.862  37.610  1.00  0.00    -0.014 A 
ATOM     93  C   UNL A   1      39.275  33.493  38.725  1.00  0.00     0.010 A 
ATOM     94  C   UNL A   1      40.859  35.010  37.685  1.00  0.00     0.010 A 
ATOM     95  C   UNL A   1      39.306  34.265  39.890  1.00  0.00     0.020 A 
ATOM     96  C   UNL A   1      40.913  35.768  38.857  1.00  0.00     0.020 A 
ATOM     97  C   UNL A   1      40.129  35.395  39.950  1.00  0.00     0.054 A 
BRANCH  97  98
ATOM     98  S   UNL A   1      40.207  36.337  41.498  1.00  0.00     0.124 S 
ATOM     99  O   UNL A   1      40.791  37.600  41.057  1.00  0.00    -0.237 OA
ATOM    100  O   UNL A   1      38.806  36.401  41.906  1.00  0.00    -0.237 OA
ATOM    101  O   UNL A   1      41.063  35.522  42.358  1.00  0.00    -0.744 OA
ENDBRANCH  97  98
ENDBRANCH  71  92
ENDBRANCH  45  46
ENDBRANCH  37  40
ENDBRANCH  35  36
ENDBRANCH  34  35
ENDBRANCH  33  34
ENDBRANCH  31  33
ENDBRANCH   1  29
TORSDOF 23
ENDMDL
