MODEL 1
REMARK VINA RESULT:     -12.2      0.000      0.000
REMARK SMILES CC(C)(C)c1cc2c(cc1Cl)C=C(C(=O)NCCCNC(=O)c1ccc(-c3c4nc(c(-c5ccc(S(=O)(=O)[O-])cc5)c5ccc([nH]5)c(-c5ccc(S(=O)(=O)[O-])cc5)c5nc(c(-c6ccc(S(=O)(=O)[O-])cc6)c6ccc3[nH]6)C=C5)C=C4)cc1)[C@@H](C(F)(F)F)O2
REMARK SMILES IDX 19 1 18 2 17 3 16 4 14 5 15 6 13 8 5 9 6 10 10 11 7 12 9 13
REMARK SMILES IDX 11 14 8 15 88 16 12 17 83 18 2 19 1 20 3 21 4 22 84 23 85 24
REMARK SMILES IDX 86 25 87 26 20 27 21 28 22 30 23 31 24 32 82 33 25 34 81 35
REMARK SMILES IDX 26 36 27 37 28 38 75 39 29 40 80 41 74 42 76 43 30 44 79 45
REMARK SMILES IDX 73 46 72 47 31 49 61 50 42 51 60 52 43 53 46 54 59 55 77 56
REMARK SMILES IDX 44 57 45 58 58 60 78 61 47 62 32 63 33 64 41 65 34 66 40 67
REMARK SMILES IDX 35 68 36 69 37 70 38 71 39 72 62 73 63 74 71 75 64 76 70 77
REMARK SMILES IDX 65 78 66 79 67 80 68 81 69 82 48 83 49 84 57 85 50 86 56 87
REMARK SMILES IDX 51 88 52 89 53 90 54 91 55 92
REMARK H PARENT 16 7 20 29 76 48 46 59
REMARK Flexibility Score: inf
ROOT
ATOM      1  C   UNL A   1      34.960  29.427  27.667  1.00  0.00     0.118 C 
ENDROOT
BRANCH   1   2
ATOM      2  C   UNL A   1      34.025  29.944  26.579  1.00  0.00     0.042 C 
BRANCH   2   3
ATOM      3  C   UNL A   1      32.610  30.169  27.089  1.00  0.00     0.118 C 
BRANCH   3   4
ATOM      4  N   UNL A   1      31.662  30.365  26.002  1.00  0.00    -0.352 N 
ATOM      5  C   UNL A   1      31.177  29.646  24.963  1.00  0.00     0.251 C 
ATOM      6  O   UNL A   1      30.343  30.230  24.264  1.00  0.00    -0.270 OA
ATOM      7  H   UNL A   1      31.264  31.265  26.031  1.00  0.00     0.163 HD
BRANCH   5   8
ATOM      8  C   UNL A   1      31.571  28.248  24.626  1.00  0.00     0.067 C 
ATOM      9  C   UNL A   1      32.507  23.242  24.775  1.00  0.00    -0.020 A 
ATOM     10  C   UNL A   1      32.329  24.227  23.767  1.00  0.00     0.053 A 
ATOM     11  C   UNL A   1      32.352  23.694  26.104  1.00  0.00     0.045 A 
ATOM     12  C   UNL A   1      32.035  25.557  24.057  1.00  0.00     0.128 A 
ATOM     13  C   UNL A   1      32.031  25.039  26.386  1.00  0.00     0.032 A 
ATOM     14  Cl  UNL A   1      32.515  22.713  27.519  1.00  0.00    -0.084 Cl
ATOM     15  C   UNL A   1      31.870  25.973  25.367  1.00  0.00     0.019 A 
ATOM     16  O   UNL A   1      31.880  26.396  22.991  1.00  0.00    -0.475 OA
ATOM     17  C   UNL A   1      31.491  27.355  25.632  1.00  0.00     0.025 C 
ATOM     18  C   UNL A   1      32.065  27.810  23.275  1.00  0.00     0.314 C 
BRANCH   9  19
ATOM     19  C   UNL A   1      32.815  21.808  24.276  1.00  0.00    -0.012 C 
ATOM     20  C   UNL A   1      32.070  20.636  24.942  1.00  0.00     0.016 C 
ATOM     21  C   UNL A   1      34.325  21.507  24.469  1.00  0.00     0.016 C 
ATOM     22  C   UNL A   1      32.476  21.729  22.765  1.00  0.00     0.016 C 
ENDBRANCH   9  19
BRANCH  18  23
ATOM     23  C   UNL A   1      33.542  28.188  23.041  1.00  0.00     0.429 C 
ATOM     24  F   UNL A   1      34.019  27.579  21.928  1.00  0.00    -0.167 F 
ATOM     25  F   UNL A   1      33.715  29.518  22.855  1.00  0.00    -0.167 F 
ATOM     26  F   UNL A   1      34.344  27.834  24.071  1.00  0.00    -0.167 F 
ENDBRANCH  18  23
ENDBRANCH   5   8
ENDBRANCH   3   4
ENDBRANCH   2   3
ENDBRANCH   1   2
BRANCH   1  27
ATOM     27  N   UNL A   1      35.113  30.384  28.760  1.00  0.00    -0.352 N 
ATOM     28  C   UNL A   1      36.184  30.628  29.587  1.00  0.00     0.251 C 
ATOM     29  H   UNL A   1      34.323  30.945  28.933  1.00  0.00     0.163 HD
ATOM     30  O   UNL A   1      36.028  31.309  30.598  1.00  0.00    -0.269 OA
BRANCH  28  31
ATOM     31  C   UNL A   1      37.510  30.057  29.271  1.00  0.00     0.039 A 
ATOM     32  C   UNL A   1      38.317  29.555  30.291  1.00  0.00     0.014 A 
ATOM     33  C   UNL A   1      37.952  30.021  27.946  1.00  0.00     0.014 A 
ATOM     34  C   UNL A   1      39.631  29.204  30.017  1.00  0.00     0.010 A 
ATOM     35  C   UNL A   1      39.242  29.562  27.657  1.00  0.00     0.010 A 
ATOM     36  C   UNL A   1      40.111  29.197  28.698  1.00  0.00    -0.014 A 
BRANCH  36  37
ATOM     37  C   UNL A   1      41.519  28.796  28.445  1.00  0.00     0.031 A 
ATOM     38  C   UNL A   1      41.859  27.385  28.045  1.00  0.00     0.074 A 
ATOM     39  C   UNL A   1      42.484  29.738  28.496  1.00  0.00     0.049 A 
ATOM     40  N   UNL A   1      43.031  26.876  27.763  1.00  0.00    -0.248 NA
ATOM     41  C   UNL A   1      40.751  26.418  27.950  1.00  0.00     0.031 C 
ATOM     42  C   UNL A   1      42.268  31.144  28.851  1.00  0.00     0.029 A 
ATOM     43  N   UNL A   1      43.825  29.674  28.211  1.00  0.00    -0.354 N 
ATOM     44  C   UNL A   1      42.806  25.534  27.476  1.00  0.00     0.074 A 
ATOM     45  C   UNL A   1      41.390  25.297  27.641  1.00  0.00     0.031 C 
ATOM     46  C   UNL A   1      43.414  31.820  28.693  1.00  0.00     0.029 A 
ATOM     47  C   UNL A   1      44.467  30.887  28.305  1.00  0.00     0.049 A 
ATOM     48  H   UNL A   1      44.284  28.838  27.964  1.00  0.00     0.167 HD
ATOM     49  C   UNL A   1      43.701  24.594  27.097  1.00  0.00     0.031 A 
ATOM     50  C   UNL A   1      45.759  31.219  28.117  1.00  0.00     0.031 A 
ATOM     51  C   UNL A   1      45.105  24.847  26.908  1.00  0.00     0.049 A 
ATOM     52  C   UNL A   1      46.734  30.150  27.723  1.00  0.00     0.074 A 
ATOM     53  C   UNL A   1      46.090  23.953  26.524  1.00  0.00     0.029 A 
ATOM     54  N   UNL A   1      45.723  26.078  27.068  1.00  0.00    -0.354 N 
ATOM     55  N   UNL A   1      46.501  28.883  27.478  1.00  0.00    -0.248 NA
ATOM     56  C   UNL A   1      48.142  30.544  27.584  1.00  0.00     0.031 C 
ATOM     57  C   UNL A   1      47.310  24.631  26.501  1.00  0.00     0.029 A 
ATOM     58  C   UNL A   1      47.077  25.962  26.807  1.00  0.00     0.049 A 
ATOM     59  H   UNL A   1      45.266  26.910  27.328  1.00  0.00     0.167 HD
ATOM     60  C   UNL A   1      47.734  28.327  27.159  1.00  0.00     0.074 A 
ATOM     61  C   UNL A   1      48.704  29.401  27.211  1.00  0.00     0.031 C 
ATOM     62  C   UNL A   1      48.032  27.039  26.863  1.00  0.00     0.031 A 
BRANCH  49  63
ATOM     63  C   UNL A   1      43.215  23.191  26.844  1.00  0.00    -0.014 A 
ATOM     64  C   UNL A   1      42.955  22.337  27.932  1.00  0.00     0.010 A 
ATOM     65  C   UNL A   1      43.171  22.670  25.539  1.00  0.00     0.010 A 
ATOM     66  C   UNL A   1      42.706  20.978  27.725  1.00  0.00     0.020 A 
ATOM     67  C   UNL A   1      42.898  21.315  25.326  1.00  0.00     0.020 A 
ATOM     68  C   UNL A   1      42.697  20.473  26.422  1.00  0.00     0.054 A 
BRANCH  68  69
ATOM     69  S   UNL A   1      42.434  18.694  26.174  1.00  0.00     0.124 S 
ATOM     70  O   UNL A   1      43.414  18.379  25.140  1.00  0.00    -0.237 OA
ATOM     71  O   UNL A   1      42.712  18.143  27.499  1.00  0.00    -0.237 OA
ATOM     72  O   UNL A   1      41.035  18.612  25.759  1.00  0.00    -0.744 OA
ENDBRANCH  68  69
ENDBRANCH  49  63
BRANCH  50  73
ATOM     73  C   UNL A   1      46.182  32.632  28.320  1.00  0.00    -0.014 A 
ATOM     74  C   UNL A   1      46.169  33.535  27.240  1.00  0.00     0.010 A 
ATOM     75  C   UNL A   1      46.677  33.063  29.563  1.00  0.00     0.010 A 
ATOM     76  C   UNL A   1      46.693  34.820  27.380  1.00  0.00     0.020 A 
ATOM     77  C   UNL A   1      47.174  34.363  29.716  1.00  0.00     0.020 A 
ATOM     78  C   UNL A   1      47.206  35.221  28.615  1.00  0.00     0.054 A 
BRANCH  78  79
ATOM     79  S   UNL A   1      47.915  36.885  28.769  1.00  0.00     0.124 S 
ATOM     80  O   UNL A   1      48.538  37.065  27.461  1.00  0.00    -0.237 OA
ATOM     81  O   UNL A   1      46.740  37.714  29.026  1.00  0.00    -0.237 OA
ATOM     82  O   UNL A   1      48.840  36.756  29.891  1.00  0.00    -0.744 OA
ENDBRANCH  78  79
ENDBRANCH  50  73
BRANCH  62  83
ATOM     83  C   UNL A   1      49.466  26.694  26.574  1.00  0.00    -0.014 A 
ATOM     84  C   UNL A   1      49.951  26.771  25.255  1.00  0.00     0.010 A 
ATOM     85  C   UNL A   1      50.289  26.158  27.580  1.00  0.00     0.010 A 
ATOM     86  C   UNL A   1      51.221  26.284  24.940  1.00  0.00     0.020 A 
ATOM     87  C   UNL A   1      51.570  25.693  27.272  1.00  0.00     0.020 A 
ATOM     88  C   UNL A   1      52.017  25.735  25.949  1.00  0.00     0.054 A 
BRANCH  88  89
ATOM     89  S   UNL A   1      53.647  25.071  25.515  1.00  0.00     0.124 S 
ATOM     90  O   UNL A   1      54.449  25.439  26.678  1.00  0.00    -0.237 OA
ATOM     91  O   UNL A   1      53.383  23.642  25.360  1.00  0.00    -0.237 OA
ATOM     92  O   UNL A   1      53.983  25.771  24.278  1.00  0.00    -0.744 OA
ENDBRANCH  88  89
ENDBRANCH  62  83
ENDBRANCH  36  37
ENDBRANCH  28  31
ENDBRANCH   1  27
TORSDOF 15
ENDMDL
MODEL 2
REMARK VINA RESULT:     -12.1      4.378     10.116
REMARK SMILES CC(C)(C)c1cc2c(cc1Cl)C=C(C(=O)NCCCNC(=O)c1ccc(-c3c4nc(c(-c5ccc(S(=O)(=O)[O-])cc5)c5ccc([nH]5)c(-c5ccc(S(=O)(=O)[O-])cc5)c5nc(c(-c6ccc(S(=O)(=O)[O-])cc6)c6ccc3[nH]6)C=C5)C=C4)cc1)[C@@H](C(F)(F)F)O2
REMARK SMILES IDX 19 1 18 2 17 3 16 4 14 5 15 6 13 8 5 9 6 10 10 11 7 12 9 13
REMARK SMILES IDX 11 14 8 15 88 16 12 17 83 18 2 19 1 20 3 21 4 22 84 23 85 24
REMARK SMILES IDX 86 25 87 26 20 27 21 28 22 30 23 31 24 32 82 33 25 34 81 35
REMARK SMILES IDX 26 36 27 37 28 38 75 39 29 40 80 41 74 42 76 43 30 44 79 45
REMARK SMILES IDX 73 46 72 47 31 49 61 50 42 51 60 52 43 53 46 54 59 55 77 56
REMARK SMILES IDX 44 57 45 58 58 60 78 61 47 62 32 63 33 64 41 65 34 66 40 67
REMARK SMILES IDX 35 68 36 69 37 70 38 71 39 72 62 73 63 74 71 75 64 76 70 77
REMARK SMILES IDX 65 78 66 79 67 80 68 81 69 82 48 83 49 84 57 85 50 86 56 87
REMARK SMILES IDX 51 88 52 89 53 90 54 91 55 92
REMARK H PARENT 16 7 20 29 76 48 46 59
REMARK Flexibility Score: inf
ROOT
ATOM      1  C   UNL A   1      37.050  23.461  24.988  1.00  0.00     0.118 C 
ENDROOT
BRANCH   1   2
ATOM      2  C   UNL A   1      35.941  23.711  26.003  1.00  0.00     0.042 C 
BRANCH   2   3
ATOM      3  C   UNL A   1      35.330  22.419  26.525  1.00  0.00     0.118 C 
BRANCH   3   4
ATOM      4  N   UNL A   1      34.686  21.653  25.469  1.00  0.00    -0.352 N 
ATOM      5  C   UNL A   1      33.680  21.833  24.582  1.00  0.00     0.251 C 
ATOM      6  O   UNL A   1      33.466  20.876  23.829  1.00  0.00    -0.270 OA
ATOM      7  H   UNL A   1      35.093  20.762  25.373  1.00  0.00     0.163 HD
BRANCH   5   8
ATOM      8  C   UNL A   1      32.850  23.065  24.460  1.00  0.00     0.067 C 
ATOM      9  C   UNL A   1      31.093  27.701  23.286  1.00  0.00    -0.020 A 
ATOM     10  C   UNL A   1      30.540  26.478  23.748  1.00  0.00     0.053 A 
ATOM     11  C   UNL A   1      32.480  27.683  23.019  1.00  0.00     0.045 A 
ATOM     12  C   UNL A   1      31.307  25.331  23.943  1.00  0.00     0.128 A 
ATOM     13  C   UNL A   1      33.243  26.509  23.199  1.00  0.00     0.032 A 
ATOM     14  Cl  UNL A   1      33.406  29.028  22.452  1.00  0.00    -0.084 Cl
ATOM     15  C   UNL A   1      32.662  25.332  23.658  1.00  0.00     0.019 A 
ATOM     16  O   UNL A   1      30.646  24.219  24.382  1.00  0.00    -0.475 OA
ATOM     17  C   UNL A   1      33.420  24.095  23.804  1.00  0.00     0.025 C 
ATOM     18  C   UNL A   1      31.471  23.218  25.038  1.00  0.00     0.314 C 
BRANCH   9  19
ATOM     19  C   UNL A   1      30.094  28.873  23.110  1.00  0.00    -0.012 C 
ATOM     20  C   UNL A   1      30.112  29.642  21.776  1.00  0.00     0.016 C 
ATOM     21  C   UNL A   1      30.350  29.938  24.209  1.00  0.00     0.016 C 
ATOM     22  C   UNL A   1      28.655  28.321  23.270  1.00  0.00     0.016 C 
ENDBRANCH   9  19
BRANCH  18  23
ATOM     23  C   UNL A   1      31.499  23.495  26.555  1.00  0.00     0.429 C 
ATOM     24  F   UNL A   1      32.284  24.567  26.829  1.00  0.00    -0.167 F 
ATOM     25  F   UNL A   1      30.273  23.778  27.055  1.00  0.00    -0.167 F 
ATOM     26  F   UNL A   1      31.977  22.451  27.270  1.00  0.00    -0.167 F 
ENDBRANCH  18  23
ENDBRANCH   5   8
ENDBRANCH   3   4
ENDBRANCH   2   3
ENDBRANCH   1   2
BRANCH   1  27
ATOM     27  N   UNL A   1      38.054  22.524  25.490  1.00  0.00    -0.352 N 
ATOM     28  C   UNL A   1      39.215  22.754  26.189  1.00  0.00     0.251 C 
ATOM     29  H   UNL A   1      37.870  21.577  25.297  1.00  0.00     0.163 HD
ATOM     30  O   UNL A   1      40.040  21.852  26.310  1.00  0.00    -0.269 OA
BRANCH  28  31
ATOM     31  C   UNL A   1      39.477  24.085  26.775  1.00  0.00     0.039 A 
ATOM     32  C   UNL A   1      40.127  25.065  26.026  1.00  0.00     0.014 A 
ATOM     33  C   UNL A   1      39.069  24.360  28.084  1.00  0.00     0.014 A 
ATOM     34  C   UNL A   1      40.544  26.236  26.641  1.00  0.00     0.010 A 
ATOM     35  C   UNL A   1      39.395  25.589  28.668  1.00  0.00     0.010 A 
ATOM     36  C   UNL A   1      40.180  26.518  27.968  1.00  0.00    -0.014 A 
BRANCH  36  37
ATOM     37  C   UNL A   1      40.631  27.793  28.583  1.00  0.00     0.031 A 
ATOM     38  C   UNL A   1      39.671  28.936  28.779  1.00  0.00     0.074 A 
ATOM     39  C   UNL A   1      41.896  27.883  29.043  1.00  0.00     0.049 A 
ATOM     40  N   UNL A   1      39.893  30.105  29.323  1.00  0.00    -0.248 NA
ATOM     41  C   UNL A   1      38.287  28.752  28.308  1.00  0.00     0.031 C 
ATOM     42  C   UNL A   1      42.909  26.829  28.928  1.00  0.00     0.029 A 
ATOM     43  N   UNL A   1      42.537  28.880  29.734  1.00  0.00    -0.354 N 
ATOM     44  C   UNL A   1      38.691  30.799  29.242  1.00  0.00     0.074 A 
ATOM     45  C   UNL A   1      37.745  29.933  28.577  1.00  0.00     0.031 C 
ATOM     46  C   UNL A   1      44.013  27.205  29.588  1.00  0.00     0.029 A 
ATOM     47  C   UNL A   1      43.822  28.556  30.103  1.00  0.00     0.049 A 
ATOM     48  H   UNL A   1      42.116  29.746  29.945  1.00  0.00     0.167 HD
ATOM     49  C   UNL A   1      38.404  32.041  29.697  1.00  0.00     0.031 A 
ATOM     50  C   UNL A   1      44.754  29.266  30.769  1.00  0.00     0.031 A 
ATOM     51  C   UNL A   1      39.345  32.884  30.385  1.00  0.00     0.049 A 
ATOM     52  C   UNL A   1      44.417  30.650  31.238  1.00  0.00     0.074 A 
ATOM     53  C   UNL A   1      39.143  34.160  30.883  1.00  0.00     0.029 A 
ATOM     54  N   UNL A   1      40.654  32.538  30.689  1.00  0.00    -0.354 N 
ATOM     55  N   UNL A   1      43.279  31.293  31.131  1.00  0.00    -0.248 NA
ATOM     56  C   UNL A   1      45.480  31.408  31.909  1.00  0.00     0.031 C 
ATOM     57  C   UNL A   1      40.343  34.606  31.442  1.00  0.00     0.029 A 
ATOM     58  C   UNL A   1      41.274  33.583  31.351  1.00  0.00     0.049 A 
ATOM     59  H   UNL A   1      41.077  31.678  30.466  1.00  0.00     0.167 HD
ATOM     60  C   UNL A   1      43.490  32.534  31.720  1.00  0.00     0.074 A 
ATOM     61  C   UNL A   1      44.854  32.541  32.208  1.00  0.00     0.031 C 
ATOM     62  C   UNL A   1      42.633  33.576  31.831  1.00  0.00     0.031 A 
BRANCH  49  63
ATOM     63  C   UNL A   1      37.017  32.586  29.488  1.00  0.00    -0.014 A 
ATOM     64  C   UNL A   1      36.686  33.196  28.263  1.00  0.00     0.010 A 
ATOM     65  C   UNL A   1      36.097  32.640  30.550  1.00  0.00     0.010 A 
ATOM     66  C   UNL A   1      35.482  33.891  28.118  1.00  0.00     0.020 A 
ATOM     67  C   UNL A   1      34.881  33.314  30.401  1.00  0.00     0.020 A 
ATOM     68  C   UNL A   1      34.595  33.959  29.196  1.00  0.00     0.054 A 
BRANCH  68  69
ATOM     69  S   UNL A   1      33.065  34.918  29.011  1.00  0.00     0.124 S 
ATOM     70  O   UNL A   1      32.497  34.854  30.354  1.00  0.00    -0.237 OA
ATOM     71  O   UNL A   1      33.558  36.229  28.593  1.00  0.00    -0.237 OA
ATOM     72  O   UNL A   1      32.327  34.186  27.983  1.00  0.00    -0.744 OA
ENDBRANCH  68  69
ENDBRANCH  49  63
BRANCH  50  73
ATOM     73  C   UNL A   1      46.094  28.661  31.006  1.00  0.00    -0.014 A 
ATOM     74  C   UNL A   1      47.109  28.794  30.039  1.00  0.00     0.010 A 
ATOM     75  C   UNL A   1      46.341  27.885  32.152  1.00  0.00     0.010 A 
ATOM     76  C   UNL A   1      48.321  28.118  30.182  1.00  0.00     0.020 A 
ATOM     77  C   UNL A   1      47.568  27.233  32.314  1.00  0.00     0.020 A 
ATOM     78  C   UNL A   1      48.538  27.329  31.313  1.00  0.00     0.054 A 
BRANCH  78  79
ATOM     79  S   UNL A   1      50.106  26.430  31.466  1.00  0.00     0.124 S 
ATOM     80  O   UNL A   1      50.993  27.236  30.633  1.00  0.00    -0.237 OA
ATOM     81  O   UNL A   1      50.371  26.483  32.902  1.00  0.00    -0.237 OA
ATOM     82  O   UNL A   1      49.789  25.104  30.944  1.00  0.00    -0.744 OA
ENDBRANCH  78  79
ENDBRANCH  50  73
BRANCH  62  83
ATOM     83  C   UNL A   1      43.125  34.829  32.500  1.00  0.00    -0.014 A 
ATOM     84  C   UNL A   1      42.922  35.009  33.881  1.00  0.00     0.010 A 
ATOM     85  C   UNL A   1      43.657  35.884  31.738  1.00  0.00     0.010 A 
ATOM     86  C   UNL A   1      43.209  36.236  34.482  1.00  0.00     0.020 A 
ATOM     87  C   UNL A   1      43.968  37.105  32.342  1.00  0.00     0.020 A 
ATOM     88  C   UNL A   1      43.717  37.281  33.705  1.00  0.00     0.054 A 
BRANCH  88  89
ATOM     89  S   UNL A   1      44.045  38.880  34.495  1.00  0.00     0.124 S 
ATOM     90  O   UNL A   1      43.084  39.755  33.828  1.00  0.00    -0.237 OA
ATOM     91  O   UNL A   1      43.775  38.607  35.904  1.00  0.00    -0.237 OA
ATOM     92  O   UNL A   1      45.448  39.137  34.177  1.00  0.00    -0.744 OA
ENDBRANCH  88  89
ENDBRANCH  62  83
ENDBRANCH  36  37
ENDBRANCH  28  31
ENDBRANCH   1  27
TORSDOF 15
ENDMDL
MODEL 3
REMARK VINA RESULT:     -12.0      2.935      8.665
REMARK SMILES CC(C)(C)c1cc2c(cc1Cl)C=C(C(=O)NCCCNC(=O)c1ccc(-c3c4nc(c(-c5ccc(S(=O)(=O)[O-])cc5)c5ccc([nH]5)c(-c5ccc(S(=O)(=O)[O-])cc5)c5nc(c(-c6ccc(S(=O)(=O)[O-])cc6)c6ccc3[nH]6)C=C5)C=C4)cc1)[C@@H](C(F)(F)F)O2
REMARK SMILES IDX 19 1 18 2 17 3 16 4 14 5 15 6 13 8 5 9 6 10 10 11 7 12 9 13
REMARK SMILES IDX 11 14 8 15 88 16 12 17 83 18 2 19 1 20 3 21 4 22 84 23 85 24
REMARK SMILES IDX 86 25 87 26 20 27 21 28 22 30 23 31 24 32 82 33 25 34 81 35
REMARK SMILES IDX 26 36 27 37 28 38 75 39 29 40 80 41 74 42 76 43 30 44 79 45
REMARK SMILES IDX 73 46 72 47 31 49 61 50 42 51 60 52 43 53 46 54 59 55 77 56
REMARK SMILES IDX 44 57 45 58 58 60 78 61 47 62 32 63 33 64 41 65 34 66 40 67
REMARK SMILES IDX 35 68 36 69 37 70 38 71 39 72 62 73 63 74 71 75 64 76 70 77
REMARK SMILES IDX 65 78 66 79 67 80 68 81 69 82 48 83 49 84 57 85 50 86 56 87
REMARK SMILES IDX 51 88 52 89 53 90 54 91 55 92
REMARK H PARENT 16 7 20 29 76 48 46 59
REMARK Flexibility Score: inf
ROOT
ATOM      1  C   UNL A   1      38.937  20.248  25.632  1.00  0.00     0.118 C 
ENDROOT
BRANCH   1   2
ATOM      2  C   UNL A   1      37.751  19.573  24.954  1.00  0.00     0.042 C 
BRANCH   2   3
ATOM      3  C   UNL A   1      36.464  20.368  25.109  1.00  0.00     0.118 C 
BRANCH   3   4
ATOM      4  N   UNL A   1      35.283  19.543  24.898  1.00  0.00    -0.352 N 
ATOM      5  C   UNL A   1      33.951  19.732  24.752  1.00  0.00     0.251 C 
ATOM      6  O   UNL A   1      33.290  18.703  24.578  1.00  0.00    -0.270 OA
ATOM      7  H   UNL A   1      35.517  18.588  24.846  1.00  0.00     0.163 HD
BRANCH   5   8
ATOM      8  C   UNL A   1      33.261  21.053  24.784  1.00  0.00     0.067 C 
ATOM      9  C   UNL A   1      31.329  25.611  23.577  1.00  0.00    -0.020 A 
ATOM     10  C   UNL A   1      31.117  24.638  24.589  1.00  0.00     0.053 A 
ATOM     11  C   UNL A   1      32.279  25.268  22.590  1.00  0.00     0.045 A 
ATOM     12  C   UNL A   1      31.804  23.427  24.626  1.00  0.00     0.128 A 
ATOM     13  C   UNL A   1      32.953  24.027  22.624  1.00  0.00     0.032 A 
ATOM     14  Cl  UNL A   1      32.733  26.262  21.250  1.00  0.00    -0.084 Cl
ATOM     15  C   UNL A   1      32.717  23.104  23.637  1.00  0.00     0.019 A 
ATOM     16  O   UNL A   1      31.494  22.578  25.650  1.00  0.00    -0.475 OA
ATOM     17  C   UNL A   1      33.364  21.798  23.666  1.00  0.00     0.025 C 
ATOM     18  C   UNL A   1      32.509  21.587  25.971  1.00  0.00     0.314 C 
BRANCH   9  19
ATOM     19  C   UNL A   1      30.470  26.896  23.680  1.00  0.00    -0.012 C 
ATOM     20  C   UNL A   1      30.348  27.785  22.428  1.00  0.00     0.016 C 
ATOM     21  C   UNL A   1      31.046  27.815  24.789  1.00  0.00     0.016 C 
ATOM     22  C   UNL A   1      29.024  26.492  24.062  1.00  0.00     0.016 C 
ENDBRANCH   9  19
BRANCH  18  23
ATOM     23  C   UNL A   1      33.450  22.153  27.054  1.00  0.00     0.429 C 
ATOM     24  F   UNL A   1      32.745  22.838  27.988  1.00  0.00    -0.167 F 
ATOM     25  F   UNL A   1      34.123  21.183  27.716  1.00  0.00    -0.167 F 
ATOM     26  F   UNL A   1      34.381  22.996  26.552  1.00  0.00    -0.167 F 
ENDBRANCH  18  23
ENDBRANCH   5   8
ENDBRANCH   3   4
ENDBRANCH   2   3
ENDBRANCH   1   2
BRANCH   1  27
ATOM     27  N   UNL A   1      40.052  19.325  25.839  1.00  0.00    -0.352 N 
ATOM     28  C   UNL A   1      41.373  19.574  26.125  1.00  0.00     0.251 C 
ATOM     29  H   UNL A   1      39.819  18.372  25.761  1.00  0.00     0.163 HD
ATOM     30  O   UNL A   1      42.197  18.668  26.025  1.00  0.00    -0.269 OA
BRANCH  28  31
ATOM     31  C   UNL A   1      41.801  20.928  26.533  1.00  0.00     0.039 A 
ATOM     32  C   UNL A   1      41.820  21.966  25.603  1.00  0.00     0.014 A 
ATOM     33  C   UNL A   1      42.185  21.166  27.856  1.00  0.00     0.014 A 
ATOM     34  C   UNL A   1      42.406  23.179  25.937  1.00  0.00     0.010 A 
ATOM     35  C   UNL A   1      42.674  22.426  28.220  1.00  0.00     0.010 A 
ATOM     36  C   UNL A   1      42.836  23.428  27.251  1.00  0.00    -0.014 A 
BRANCH  36  37
ATOM     37  C   UNL A   1      43.441  24.746  27.573  1.00  0.00     0.031 A 
ATOM     38  C   UNL A   1      44.885  25.030  27.255  1.00  0.00     0.074 A 
ATOM     39  C   UNL A   1      42.653  25.718  28.078  1.00  0.00     0.049 A 
ATOM     40  N   UNL A   1      45.561  26.134  27.446  1.00  0.00    -0.248 NA
ATOM     41  C   UNL A   1      45.676  23.945  26.649  1.00  0.00     0.031 C 
ATOM     42  C   UNL A   1      41.233  25.563  28.405  1.00  0.00     0.029 A 
ATOM     43  N   UNL A   1      42.915  27.034  28.365  1.00  0.00    -0.354 N 
ATOM     44  C   UNL A   1      46.853  25.873  27.004  1.00  0.00     0.074 A 
ATOM     45  C   UNL A   1      46.878  24.499  26.556  1.00  0.00     0.031 C 
ATOM     46  C   UNL A   1      40.734  26.750  28.777  1.00  0.00     0.029 A 
ATOM     47  C   UNL A   1      41.810  27.734  28.795  1.00  0.00     0.049 A 
ATOM     48  H   UNL A   1      43.808  27.439  28.273  1.00  0.00     0.167 HD
ATOM     49  C   UNL A   1      47.914  26.711  26.964  1.00  0.00     0.031 A 
ATOM     50  C   UNL A   1      41.674  29.019  29.176  1.00  0.00     0.031 A 
ATOM     51  C   UNL A   1      47.872  28.086  27.385  1.00  0.00     0.049 A 
ATOM     52  C   UNL A   1      42.874  29.918  29.147  1.00  0.00     0.074 A 
ATOM     53  C   UNL A   1      48.900  29.012  27.381  1.00  0.00     0.029 A 
ATOM     54  N   UNL A   1      46.746  28.739  27.866  1.00  0.00    -0.354 N 
ATOM     55  N   UNL A   1      44.091  29.641  28.745  1.00  0.00    -0.248 NA
ATOM     56  C   UNL A   1      42.692  31.294  29.625  1.00  0.00     0.031 C 
ATOM     57  C   UNL A   1      48.411  30.210  27.906  1.00  0.00     0.029 A 
ATOM     58  C   UNL A   1      47.062  30.050  28.178  1.00  0.00     0.049 A 
ATOM     59  H   UNL A   1      45.857  28.331  27.970  1.00  0.00     0.167 HD
ATOM     60  C   UNL A   1      44.822  30.809  28.924  1.00  0.00     0.074 A 
ATOM     61  C   UNL A   1      43.905  31.804  29.441  1.00  0.00     0.031 C 
ATOM     62  C   UNL A   1      46.138  31.029  28.692  1.00  0.00     0.031 A 
BRANCH  49  63
ATOM     63  C   UNL A   1      49.227  26.192  26.441  1.00  0.00    -0.014 A 
ATOM     64  C   UNL A   1      50.103  25.513  27.309  1.00  0.00     0.010 A 
ATOM     65  C   UNL A   1      49.663  26.514  25.144  1.00  0.00     0.010 A 
ATOM     66  C   UNL A   1      51.406  25.207  26.907  1.00  0.00     0.020 A 
ATOM     67  C   UNL A   1      50.958  26.188  24.730  1.00  0.00     0.020 A 
ATOM     68  C   UNL A   1      51.830  25.564  25.624  1.00  0.00     0.054 A 
BRANCH  68  69
ATOM     69  S   UNL A   1      53.545  25.216  25.140  1.00  0.00     0.124 S 
ATOM     70  O   UNL A   1      54.303  26.007  26.104  1.00  0.00    -0.237 OA
ATOM     71  O   UNL A   1      53.634  23.766  25.301  1.00  0.00    -0.237 OA
ATOM     72  O   UNL A   1      53.609  25.683  23.756  1.00  0.00    -0.744 OA
ENDBRANCH  68  69
ENDBRANCH  49  63
BRANCH  50  73
ATOM     73  C   UNL A   1      40.341  29.504  29.629  1.00  0.00    -0.014 A 
ATOM     74  C   UNL A   1      39.391  29.942  28.685  1.00  0.00     0.010 A 
ATOM     75  C   UNL A   1      40.040  29.609  30.998  1.00  0.00     0.010 A 
ATOM     76  C   UNL A   1      38.195  30.528  29.099  1.00  0.00     0.020 A 
ATOM     77  C   UNL A   1      38.826  30.166  31.415  1.00  0.00     0.020 A 
ATOM     78  C   UNL A   1      37.926  30.649  30.463  1.00  0.00     0.054 A 
BRANCH  78  79
ATOM     79  S   UNL A   1      36.380  31.446  30.982  1.00  0.00     0.124 S 
ATOM     80  O   UNL A   1      35.881  30.503  31.979  1.00  0.00    -0.237 OA
ATOM     81  O   UNL A   1      36.839  32.731  31.505  1.00  0.00    -0.237 OA
ATOM     82  O   UNL A   1      35.605  31.521  29.747  1.00  0.00    -0.744 OA
ENDBRANCH  78  79
ENDBRANCH  50  73
BRANCH  62  83
ATOM     83  C   UNL A   1      46.692  32.393  28.995  1.00  0.00    -0.014 A 
ATOM     84  C   UNL A   1      47.129  32.695  30.298  1.00  0.00     0.010 A 
ATOM     85  C   UNL A   1      46.645  33.415  28.031  1.00  0.00     0.010 A 
ATOM     86  C   UNL A   1      47.475  34.003  30.642  1.00  0.00     0.020 A 
ATOM     87  C   UNL A   1      47.015  34.720  28.365  1.00  0.00     0.020 A 
ATOM     88  C   UNL A   1      47.403  35.010  29.676  1.00  0.00     0.054 A 
BRANCH  88  89
ATOM     89  S   UNL A   1      47.817  36.711  30.150  1.00  0.00     0.124 S 
ATOM     90  O   UNL A   1      47.076  36.870  31.398  1.00  0.00    -0.237 OA
ATOM     91  O   UNL A   1      49.271  36.665  30.282  1.00  0.00    -0.237 OA
ATOM     92  O   UNL A   1      47.327  37.507  29.027  1.00  0.00    -0.744 OA
ENDBRANCH  88  89
ENDBRANCH  62  83
ENDBRANCH  36  37
ENDBRANCH  28  31
ENDBRANCH   1  27
TORSDOF 15
ENDMDL
