MODEL 1
REMARK VINA RESULT:     -13.4      0.000      0.000
REMARK SMILES Cc1ccc(C)c(N2C(=O)S[C@H](CC(=O)Nc3ccc(C(=O)NCCCNC(=O)c4ccc(-c5c6nc(c(-c7ccc(S(=O)(=O)[O-])cc7)c7ccc([nH]7)c(-c7ccc(S(=O)(=O)[O-])cc7)c7nc(c(-c8ccc(S(=O)(=O)[O-])cc8)c8ccc5[nH]8)C=C7)C=C6)cc4)c(O)c3)C2=O)c1
REMARK SMILES IDX 24 1 23 2 21 3 22 4 20 6 17 7 18 8 92 9 19 10 90 11 16 12
REMARK SMILES IDX 14 13 15 14 13 16 12 17 8 18 9 19 93 20 10 21 11 22 94 23
REMARK SMILES IDX 7 24 1 25 2 26 3 27 95 28 4 29 5 30 6 31 91 32 25 34 26 35
REMARK SMILES IDX 27 36 28 37 29 39 30 40 31 41 89 42 32 43 88 44 33 45 34 46
REMARK SMILES IDX 35 47 82 48 36 49 87 50 81 51 83 52 37 53 86 54 80 55 79 56
REMARK SMILES IDX 38 58 68 59 49 60 67 61 50 62 53 63 66 64 84 65 51 66 52 67
REMARK SMILES IDX 65 69 85 70 54 71 39 72 40 73 48 74 41 75 47 76 42 77 43 78
REMARK SMILES IDX 44 79 45 80 46 81 69 82 70 83 78 84 71 85 77 86 72 87 73 88
REMARK SMILES IDX 74 89 75 90 76 91 55 92 56 93 64 94 57 95 63 96 58 97 59 98
REMARK SMILES IDX 60 99 61 100 62 101
REMARK H PARENT 23 5 16 15 91 33 27 38 83 57 53 68
REMARK Flexibility Score: inf
ROOT
ATOM      1  C   UNL A   1      36.947  22.300  25.638  1.00  0.00     0.118 C 
ENDROOT
BRANCH   1   2
ATOM      2  N   UNL A   1      35.951  21.918  26.618  1.00  0.00    -0.352 N 
ATOM      3  C   UNL A   1      34.588  21.799  26.488  1.00  0.00     0.255 C 
ATOM      4  O   UNL A   1      33.958  21.319  27.427  1.00  0.00    -0.269 OA
ATOM      5  H   UNL A   1      36.305  21.714  27.513  1.00  0.00     0.163 HD
BRANCH   3   6
ATOM      6  C   UNL A   1      33.848  22.327  25.308  1.00  0.00     0.081 A 
ATOM      7  C   UNL A   1      33.062  23.491  22.873  1.00  0.00     0.044 A 
ATOM      8  C   UNL A   1      33.458  24.273  23.950  1.00  0.00     0.027 A 
ATOM      9  C   UNL A   1      32.805  22.148  23.107  1.00  0.00     0.073 A 
ATOM     10  C   UNL A   1      33.911  23.706  25.134  1.00  0.00     0.020 A 
ATOM     11  C   UNL A   1      33.137  21.592  24.350  1.00  0.00     0.130 A 
BRANCH   7  12
ATOM     12  N   UNL A   1      32.853  24.060  21.606  1.00  0.00    -0.326 N 
ATOM     13  C   UNL A   1      32.580  25.377  21.302  1.00  0.00     0.226 C 
ATOM     14  O   UNL A   1      32.097  25.663  20.206  1.00  0.00    -0.275 OA
ATOM     15  H   UNL A   1      32.910  23.444  20.841  1.00  0.00     0.169 HD
BRANCH  13  16
ATOM     16  C   UNL A   1      33.087  26.468  22.237  1.00  0.00     0.125 C 
BRANCH  16  17
ATOM     17  C   UNL A   1      32.106  27.600  22.532  1.00  0.00     0.156 C 
ATOM     18  N   UNL A   1      32.550  28.378  24.751  1.00  0.00    -0.240 N 
ATOM     19  C   UNL A   1      31.556  27.488  25.027  1.00  0.00     0.293 C 
ATOM     20  C   UNL A   1      32.827  28.609  23.413  1.00  0.00     0.248 C 
ATOM     21  O   UNL A   1      31.268  26.942  26.092  1.00  0.00    -0.261 OA
ATOM     22  S   UNL A   1      30.681  27.114  23.547  1.00  0.00    -0.050 SA
ATOM     23  O   UNL A   1      33.572  29.462  22.944  1.00  0.00    -0.273 OA
BRANCH  18  24
ATOM     24  C   UNL A   1      33.103  29.191  25.763  1.00  0.00     0.056 A 
ATOM     25  C   UNL A   1      36.178  29.302  28.045  1.00  0.00     0.044 C 
ATOM     26  C   UNL A   1      34.908  29.662  27.331  1.00  0.00    -0.049 A 
ATOM     27  C   UNL A   1      34.244  30.834  27.703  1.00  0.00     0.004 A 
ATOM     28  C   UNL A   1      34.341  28.849  26.339  1.00  0.00     0.030 A 
ATOM     29  C   UNL A   1      33.008  31.162  27.153  1.00  0.00     0.006 A 
ATOM     30  C   UNL A   1      32.417  30.347  26.181  1.00  0.00    -0.027 A 
ATOM     31  C   UNL A   1      31.079  30.774  25.647  1.00  0.00     0.046 C 
ENDBRANCH  18  24
ENDBRANCH  16  17
ENDBRANCH  13  16
ENDBRANCH   7  12
BRANCH  11  32
ATOM     32  O   UNL A   1      32.666  20.328  24.575  1.00  0.00    -0.507 OA
ATOM     33  H   UNL A   1      32.657  19.700  23.880  1.00  0.00     0.293 HD
ENDBRANCH  11  32
ENDBRANCH   3   6
ENDBRANCH   1   2
BRANCH   1  34
ATOM     34  C   UNL A   1      37.761  23.532  25.963  1.00  0.00     0.042 C 
BRANCH  34  35
ATOM     35  C   UNL A   1      39.102  23.266  26.614  1.00  0.00     0.118 C 
BRANCH  35  36
ATOM     36  N   UNL A   1      39.848  22.113  26.104  1.00  0.00    -0.352 N 
ATOM     37  C   UNL A   1      41.227  21.938  26.156  1.00  0.00     0.251 C 
ATOM     38  H   UNL A   1      39.324  21.395  25.685  1.00  0.00     0.163 HD
ATOM     39  O   UNL A   1      41.762  20.907  25.770  1.00  0.00    -0.269 OA
BRANCH  37  40
ATOM     40  C   UNL A   1      42.013  23.027  26.773  1.00  0.00     0.039 A 
ATOM     41  C   UNL A   1      42.110  23.068  28.166  1.00  0.00     0.014 A 
ATOM     42  C   UNL A   1      42.259  24.155  26.003  1.00  0.00     0.014 A 
ATOM     43  C   UNL A   1      42.179  24.308  28.799  1.00  0.00     0.010 A 
ATOM     44  C   UNL A   1      42.234  25.382  26.636  1.00  0.00     0.010 A 
ATOM     45  C   UNL A   1      42.105  25.474  28.032  1.00  0.00    -0.014 A 
BRANCH  45  46
ATOM     46  C   UNL A   1      41.950  26.792  28.658  1.00  0.00     0.031 A 
ATOM     47  C   UNL A   1      43.027  27.769  28.362  1.00  0.00     0.074 A 
ATOM     48  C   UNL A   1      40.843  27.305  29.234  1.00  0.00     0.049 A 
ATOM     49  N   UNL A   1      44.162  27.907  28.965  1.00  0.00    -0.248 NA
ATOM     50  C   UNL A   1      42.907  28.526  27.104  1.00  0.00     0.031 C 
ATOM     51  C   UNL A   1      39.472  26.796  29.257  1.00  0.00     0.029 A 
ATOM     52  N   UNL A   1      40.737  28.510  29.869  1.00  0.00    -0.354 N 
ATOM     53  C   UNL A   1      44.824  28.900  28.255  1.00  0.00     0.074 A 
ATOM     54  C   UNL A   1      44.162  28.956  26.976  1.00  0.00     0.031 C 
ATOM     55  C   UNL A   1      38.645  27.764  29.735  1.00  0.00     0.029 A 
ATOM     56  C   UNL A   1      39.441  28.902  30.173  1.00  0.00     0.049 A 
ATOM     57  H   UNL A   1      41.522  29.059  30.096  1.00  0.00     0.167 HD
ATOM     58  C   UNL A   1      45.640  29.823  28.841  1.00  0.00     0.031 A 
ATOM     59  C   UNL A   1      39.080  30.090  30.722  1.00  0.00     0.031 A 
ATOM     60  C   UNL A   1      45.785  29.572  30.258  1.00  0.00     0.049 A 
ATOM     61  C   UNL A   1      40.297  30.709  31.305  1.00  0.00     0.074 A 
ATOM     62  C   UNL A   1      46.272  28.552  31.049  1.00  0.00     0.029 A 
ATOM     63  N   UNL A   1      45.019  30.364  31.084  1.00  0.00    -0.354 N 
ATOM     64  N   UNL A   1      40.904  30.258  32.364  1.00  0.00    -0.248 NA
ATOM     65  C   UNL A   1      41.051  31.681  30.527  1.00  0.00     0.031 C 
ATOM     66  C   UNL A   1      45.459  28.558  32.225  1.00  0.00     0.029 A 
ATOM     67  C   UNL A   1      44.526  29.588  32.100  1.00  0.00     0.049 A 
ATOM     68  H   UNL A   1      44.853  31.327  30.966  1.00  0.00     0.167 HD
ATOM     69  C   UNL A   1      42.240  30.569  32.174  1.00  0.00     0.074 A 
ATOM     70  C   UNL A   1      42.247  31.565  31.110  1.00  0.00     0.031 C 
ATOM     71  C   UNL A   1      43.220  29.777  32.700  1.00  0.00     0.031 A 
BRANCH  58  72
ATOM     72  C   UNL A   1      45.953  31.193  28.259  1.00  0.00    -0.014 A 
ATOM     73  C   UNL A   1      44.889  32.093  28.039  1.00  0.00     0.010 A 
ATOM     74  C   UNL A   1      47.199  31.560  27.711  1.00  0.00     0.010 A 
ATOM     75  C   UNL A   1      45.040  33.224  27.224  1.00  0.00     0.020 A 
ATOM     76  C   UNL A   1      47.375  32.706  26.937  1.00  0.00     0.020 A 
ATOM     77  C   UNL A   1      46.281  33.506  26.656  1.00  0.00     0.054 A 
BRANCH  77  78
ATOM     78  S   UNL A   1      46.448  34.864  25.477  1.00  0.00     0.124 S 
ATOM     79  O   UNL A   1      47.839  34.722  25.059  1.00  0.00    -0.237 OA
ATOM     80  O   UNL A   1      45.443  34.528  24.474  1.00  0.00    -0.237 OA
ATOM     81  O   UNL A   1      46.151  36.050  26.278  1.00  0.00    -0.744 OA
ENDBRANCH  77  78
ENDBRANCH  58  72
BRANCH  59  82
ATOM     82  C   UNL A   1      37.806  30.844  30.693  1.00  0.00    -0.014 A 
ATOM     83  C   UNL A   1      36.775  30.521  31.600  1.00  0.00     0.010 A 
ATOM     84  C   UNL A   1      37.715  32.062  30.001  1.00  0.00     0.010 A 
ATOM     85  C   UNL A   1      35.743  31.427  31.886  1.00  0.00     0.020 A 
ATOM     86  C   UNL A   1      36.679  32.966  30.273  1.00  0.00     0.020 A 
ATOM     87  C   UNL A   1      35.724  32.664  31.245  1.00  0.00     0.054 A 
BRANCH  87  88
ATOM     88  S   UNL A   1      34.564  33.963  31.765  1.00  0.00     0.124 S 
ATOM     89  O   UNL A   1      35.450  34.994  32.296  1.00  0.00    -0.237 OA
ATOM     90  O   UNL A   1      33.860  34.321  30.537  1.00  0.00    -0.237 OA
ATOM     91  O   UNL A   1      33.748  33.270  32.760  1.00  0.00    -0.744 OA
ENDBRANCH  87  88
ENDBRANCH  59  82
BRANCH  71  92
ATOM     92  C   UNL A   1      42.830  28.832  33.812  1.00  0.00    -0.014 A 
ATOM     93  C   UNL A   1      42.279  27.555  33.586  1.00  0.00     0.010 A 
ATOM     94  C   UNL A   1      43.129  29.210  35.132  1.00  0.00     0.010 A 
ATOM     95  C   UNL A   1      42.011  26.690  34.655  1.00  0.00     0.020 A 
ATOM     96  C   UNL A   1      42.882  28.344  36.201  1.00  0.00     0.020 A 
ATOM     97  C   UNL A   1      42.317  27.090  35.957  1.00  0.00     0.054 A 
BRANCH  97  98
ATOM     98  S   UNL A   1      42.035  25.936  37.328  1.00  0.00     0.124 S 
ATOM     99  O   UNL A   1      42.436  24.656  36.753  1.00  0.00    -0.237 OA
ATOM    100  O   UNL A   1      42.910  26.458  38.377  1.00  0.00    -0.237 OA
ATOM    101  O   UNL A   1      40.606  26.070  37.606  1.00  0.00    -0.744 OA
ENDBRANCH  97  98
ENDBRANCH  71  92
ENDBRANCH  45  46
ENDBRANCH  37  40
ENDBRANCH  35  36
ENDBRANCH  34  35
ENDBRANCH   1  34
TORSDOF 18
ENDMDL
MODEL 2
REMARK VINA RESULT:     -12.7      2.484      9.377
REMARK SMILES Cc1ccc(C)c(N2C(=O)S[C@H](CC(=O)Nc3ccc(C(=O)NCCCNC(=O)c4ccc(-c5c6nc(c(-c7ccc(S(=O)(=O)[O-])cc7)c7ccc([nH]7)c(-c7ccc(S(=O)(=O)[O-])cc7)c7nc(c(-c8ccc(S(=O)(=O)[O-])cc8)c8ccc5[nH]8)C=C7)C=C6)cc4)c(O)c3)C2=O)c1
REMARK SMILES IDX 24 1 23 2 21 3 22 4 20 6 17 7 18 8 92 9 19 10 90 11 16 12
REMARK SMILES IDX 14 13 15 14 13 16 12 17 8 18 9 19 93 20 10 21 11 22 94 23
REMARK SMILES IDX 7 24 1 25 2 26 3 27 95 28 4 29 5 30 6 31 91 32 25 34 26 35
REMARK SMILES IDX 27 36 28 37 29 39 30 40 31 41 89 42 32 43 88 44 33 45 34 46
REMARK SMILES IDX 35 47 82 48 36 49 87 50 81 51 83 52 37 53 86 54 80 55 79 56
REMARK SMILES IDX 38 58 68 59 49 60 67 61 50 62 53 63 66 64 84 65 51 66 52 67
REMARK SMILES IDX 65 69 85 70 54 71 39 72 40 73 48 74 41 75 47 76 42 77 43 78
REMARK SMILES IDX 44 79 45 80 46 81 69 82 70 83 78 84 71 85 77 86 72 87 73 88
REMARK SMILES IDX 74 89 75 90 76 91 55 92 56 93 64 94 57 95 63 96 58 97 59 98
REMARK SMILES IDX 60 99 61 100 62 101
REMARK H PARENT 23 5 16 15 91 33 27 38 83 57 53 68
REMARK Flexibility Score: inf
ROOT
ATOM      1  C   UNL A   1      35.387  29.913  27.675  1.00  0.00     0.118 C 
ENDROOT
BRANCH   1   2
ATOM      2  N   UNL A   1      34.275  30.749  27.275  1.00  0.00    -0.352 N 
ATOM      3  C   UNL A   1      33.041  30.397  26.780  1.00  0.00     0.255 C 
ATOM      4  O   UNL A   1      32.199  31.281  26.645  1.00  0.00    -0.269 OA
ATOM      5  H   UNL A   1      34.425  31.717  27.372  1.00  0.00     0.163 HD
BRANCH   3   6
ATOM      6  C   UNL A   1      32.733  29.018  26.307  1.00  0.00     0.081 A 
ATOM      7  C   UNL A   1      31.532  26.660  25.360  1.00  0.00     0.044 A 
ATOM      8  C   UNL A   1      31.346  27.088  26.668  1.00  0.00     0.027 A 
ATOM      9  C   UNL A   1      32.532  27.269  24.615  1.00  0.00     0.073 A 
ATOM     10  C   UNL A   1      31.880  28.285  27.126  1.00  0.00     0.020 A 
ATOM     11  C   UNL A   1      33.174  28.405  25.127  1.00  0.00     0.130 A 
BRANCH   7  12
ATOM     12  N   UNL A   1      30.786  25.593  24.836  1.00  0.00    -0.326 N 
ATOM     13  C   UNL A   1      31.175  24.278  24.686  1.00  0.00     0.226 C 
ATOM     14  O   UNL A   1      30.554  23.541  23.919  1.00  0.00    -0.275 OA
ATOM     15  H   UNL A   1      29.872  25.808  24.542  1.00  0.00     0.169 HD
BRANCH  13  16
ATOM     16  C   UNL A   1      32.222  23.708  25.634  1.00  0.00     0.125 C 
BRANCH  16  17
ATOM     17  C   UNL A   1      32.805  22.352  25.245  1.00  0.00     0.156 C 
ATOM     18  N   UNL A   1      35.176  22.614  25.052  1.00  0.00    -0.240 N 
ATOM     19  C   UNL A   1      34.829  22.804  23.748  1.00  0.00     0.293 C 
ATOM     20  C   UNL A   1      34.164  22.230  25.917  1.00  0.00     0.248 C 
ATOM     21  O   UNL A   1      35.458  23.349  22.842  1.00  0.00    -0.261 OA
ATOM     22  S   UNL A   1      33.204  22.183  23.481  1.00  0.00    -0.050 SA
ATOM     23  O   UNL A   1      34.279  21.874  27.085  1.00  0.00    -0.273 OA
BRANCH  18  24
ATOM     24  C   UNL A   1      36.530  22.583  25.449  1.00  0.00     0.056 A 
ATOM     25  C   UNL A   1      39.203  24.945  26.846  1.00  0.00     0.044 C 
ATOM     26  C   UNL A   1      38.475  23.718  26.377  1.00  0.00    -0.049 A 
ATOM     27  C   UNL A   1      39.177  22.512  26.315  1.00  0.00     0.004 A 
ATOM     28  C   UNL A   1      37.137  23.745  25.961  1.00  0.00     0.030 A 
ATOM     29  C   UNL A   1      38.586  21.367  25.788  1.00  0.00     0.006 A 
ATOM     30  C   UNL A   1      37.260  21.384  25.343  1.00  0.00    -0.027 A 
ATOM     31  C   UNL A   1      36.705  20.105  24.782  1.00  0.00     0.046 C 
ENDBRANCH  18  24
ENDBRANCH  16  17
ENDBRANCH  13  16
ENDBRANCH   7  12
BRANCH  11  32
ATOM     32  O   UNL A   1      34.279  28.820  24.436  1.00  0.00    -0.507 OA
ATOM     33  H   UNL A   1      34.647  29.665  24.603  1.00  0.00     0.293 HD
ENDBRANCH  11  32
ENDBRANCH   3   6
ENDBRANCH   1   2
BRANCH   1  34
ATOM     34  C   UNL A   1      36.642  30.637  28.107  1.00  0.00     0.042 C 
BRANCH  34  35
ATOM     35  C   UNL A   1      36.445  32.083  28.512  1.00  0.00     0.118 C 
BRANCH  35  36
ATOM     36  N   UNL A   1      35.306  32.355  29.394  1.00  0.00    -0.352 N 
ATOM     37  C   UNL A   1      35.287  32.215  30.778  1.00  0.00     0.251 C 
ATOM     38  H   UNL A   1      34.477  32.666  28.966  1.00  0.00     0.163 HD
ATOM     39  O   UNL A   1      34.312  32.535  31.446  1.00  0.00    -0.269 OA
BRANCH  37  40
ATOM     40  C   UNL A   1      36.531  31.733  31.415  1.00  0.00     0.039 A 
ATOM     41  C   UNL A   1      37.688  32.501  31.274  1.00  0.00     0.014 A 
ATOM     42  C   UNL A   1      36.598  30.389  31.753  1.00  0.00     0.014 A 
ATOM     43  C   UNL A   1      38.920  31.853  31.198  1.00  0.00     0.010 A 
ATOM     44  C   UNL A   1      37.807  29.744  31.585  1.00  0.00     0.010 A 
ATOM     45  C   UNL A   1      38.962  30.457  31.219  1.00  0.00    -0.014 A 
BRANCH  45  46
ATOM     46  C   UNL A   1      40.198  29.723  30.920  1.00  0.00     0.031 A 
ATOM     47  C   UNL A   1      41.052  29.410  32.093  1.00  0.00     0.074 A 
ATOM     48  C   UNL A   1      40.517  29.078  29.780  1.00  0.00     0.049 A 
ATOM     49  N   UNL A   1      41.943  30.162  32.650  1.00  0.00    -0.248 NA
ATOM     50  C   UNL A   1      40.706  28.200  32.860  1.00  0.00     0.031 C 
ATOM     51  C   UNL A   1      39.696  28.776  28.608  1.00  0.00     0.029 A 
ATOM     52  N   UNL A   1      41.700  28.457  29.497  1.00  0.00    -0.354 N 
ATOM     53  C   UNL A   1      42.391  29.432  33.744  1.00  0.00     0.074 A 
ATOM     54  C   UNL A   1      41.364  28.451  33.991  1.00  0.00     0.031 C 
ATOM     55  C   UNL A   1      40.359  27.893  27.814  1.00  0.00     0.029 A 
ATOM     56  C   UNL A   1      41.694  27.674  28.352  1.00  0.00     0.049 A 
ATOM     57  H   UNL A   1      42.499  28.557  30.065  1.00  0.00     0.167 HD
ATOM     58  C   UNL A   1      43.685  29.449  34.177  1.00  0.00     0.031 A 
ATOM     59  C   UNL A   1      42.719  26.897  27.916  1.00  0.00     0.031 A 
ATOM     60  C   UNL A   1      44.483  30.381  33.411  1.00  0.00     0.049 A 
ATOM     61  C   UNL A   1      43.950  27.332  28.622  1.00  0.00     0.074 A 
ATOM     62  C   UNL A   1      44.483  31.740  33.173  1.00  0.00     0.029 A 
ATOM     63  N   UNL A   1      45.274  29.822  32.433  1.00  0.00    -0.354 N 
ATOM     64  N   UNL A   1      44.549  28.467  28.405  1.00  0.00    -0.248 NA
ATOM     65  C   UNL A   1      44.373  26.631  29.827  1.00  0.00     0.031 C 
ATOM     66  C   UNL A   1      44.953  31.894  31.833  1.00  0.00     0.029 A 
ATOM     67  C   UNL A   1      45.230  30.625  31.323  1.00  0.00     0.049 A 
ATOM     68  H   UNL A   1      45.787  28.985  32.515  1.00  0.00     0.167 HD
ATOM     69  C   UNL A   1      45.116  28.814  29.620  1.00  0.00     0.074 A 
ATOM     70  C   UNL A   1      45.102  27.588  30.407  1.00  0.00     0.031 C 
ATOM     71  C   UNL A   1      45.276  30.126  29.963  1.00  0.00     0.031 A 
BRANCH  58  72
ATOM     72  C   UNL A   1      44.343  28.334  34.975  1.00  0.00    -0.014 A 
ATOM     73  C   UNL A   1      44.882  27.233  34.278  1.00  0.00     0.010 A 
ATOM     74  C   UNL A   1      44.265  28.204  36.376  1.00  0.00     0.010 A 
ATOM     75  C   UNL A   1      45.208  26.036  34.934  1.00  0.00     0.020 A 
ATOM     76  C   UNL A   1      44.629  27.037  37.047  1.00  0.00     0.020 A 
ATOM     77  C   UNL A   1      45.052  25.942  36.315  1.00  0.00     0.054 A 
BRANCH  77  78
ATOM     78  S   UNL A   1      45.312  24.360  37.147  1.00  0.00     0.124 S 
ATOM     79  O   UNL A   1      46.768  24.258  37.138  1.00  0.00    -0.237 OA
ATOM     80  O   UNL A   1      44.697  24.590  38.451  1.00  0.00    -0.237 OA
ATOM     81  O   UNL A   1      44.611  23.404  36.292  1.00  0.00    -0.744 OA
ENDBRANCH  77  78
ENDBRANCH  58  72
BRANCH  59  82
ATOM     82  C   UNL A   1      42.750  25.704  27.040  1.00  0.00    -0.014 A 
ATOM     83  C   UNL A   1      43.276  25.803  25.734  1.00  0.00     0.010 A 
ATOM     84  C   UNL A   1      42.556  24.421  27.576  1.00  0.00     0.010 A 
ATOM     85  C   UNL A   1      43.692  24.665  25.027  1.00  0.00     0.020 A 
ATOM     86  C   UNL A   1      42.959  23.280  26.868  1.00  0.00     0.020 A 
ATOM     87  C   UNL A   1      43.565  23.409  25.617  1.00  0.00     0.054 A 
BRANCH  87  88
ATOM     88  S   UNL A   1      44.319  21.942  24.854  1.00  0.00     0.124 S 
ATOM     89  O   UNL A   1      43.386  20.877  25.210  1.00  0.00    -0.237 OA
ATOM     90  O   UNL A   1      44.372  22.271  23.433  1.00  0.00    -0.237 OA
ATOM     91  O   UNL A   1      45.619  21.880  25.520  1.00  0.00    -0.744 OA
ENDBRANCH  87  88
ENDBRANCH  59  82
BRANCH  71  92
ATOM     92  C   UNL A   1      45.217  31.148  28.852  1.00  0.00    -0.014 A 
ATOM     93  C   UNL A   1      46.310  31.447  28.015  1.00  0.00     0.010 A 
ATOM     94  C   UNL A   1      43.977  31.753  28.581  1.00  0.00     0.010 A 
ATOM     95  C   UNL A   1      46.172  32.348  26.950  1.00  0.00     0.020 A 
ATOM     96  C   UNL A   1      43.829  32.637  27.508  1.00  0.00     0.020 A 
ATOM     97  C   UNL A   1      44.929  32.935  26.702  1.00  0.00     0.054 A 
BRANCH  97  98
ATOM     98  S   UNL A   1      44.743  34.042  25.277  1.00  0.00     0.124 S 
ATOM     99  O   UNL A   1      43.758  35.008  25.752  1.00  0.00    -0.237 OA
ATOM    100  O   UNL A   1      46.097  34.562  25.091  1.00  0.00    -0.237 OA
ATOM    101  O   UNL A   1      44.279  33.158  24.209  1.00  0.00    -0.744 OA
ENDBRANCH  97  98
ENDBRANCH  71  92
ENDBRANCH  45  46
ENDBRANCH  37  40
ENDBRANCH  35  36
ENDBRANCH  34  35
ENDBRANCH   1  34
TORSDOF 18
ENDMDL
MODEL 3
REMARK VINA RESULT:     -12.0      4.886      9.820
REMARK SMILES Cc1ccc(C)c(N2C(=O)S[C@H](CC(=O)Nc3ccc(C(=O)NCCCNC(=O)c4ccc(-c5c6nc(c(-c7ccc(S(=O)(=O)[O-])cc7)c7ccc([nH]7)c(-c7ccc(S(=O)(=O)[O-])cc7)c7nc(c(-c8ccc(S(=O)(=O)[O-])cc8)c8ccc5[nH]8)C=C7)C=C6)cc4)c(O)c3)C2=O)c1
REMARK SMILES IDX 24 1 23 2 21 3 22 4 20 6 17 7 18 8 92 9 19 10 90 11 16 12
REMARK SMILES IDX 14 13 15 14 13 16 12 17 8 18 9 19 93 20 10 21 11 22 94 23
REMARK SMILES IDX 7 24 1 25 2 26 3 27 95 28 4 29 5 30 6 31 91 32 25 34 26 35
REMARK SMILES IDX 27 36 28 37 29 39 30 40 31 41 89 42 32 43 88 44 33 45 34 46
REMARK SMILES IDX 35 47 82 48 36 49 87 50 81 51 83 52 37 53 86 54 80 55 79 56
REMARK SMILES IDX 38 58 68 59 49 60 67 61 50 62 53 63 66 64 84 65 51 66 52 67
REMARK SMILES IDX 65 69 85 70 54 71 39 72 40 73 48 74 41 75 47 76 42 77 43 78
REMARK SMILES IDX 44 79 45 80 46 81 69 82 70 83 78 84 71 85 77 86 72 87 73 88
REMARK SMILES IDX 74 89 75 90 76 91 55 92 56 93 64 94 57 95 63 96 58 97 59 98
REMARK SMILES IDX 60 99 61 100 62 101
REMARK H PARENT 23 5 16 15 91 33 27 38 83 57 53 68
REMARK Flexibility Score: inf
ROOT
ATOM      1  C   UNL A   1      45.117  26.713  25.725  1.00  0.00     0.118 C 
ENDROOT
BRANCH   1   2
ATOM      2  N   UNL A   1      45.488  27.603  24.645  1.00  0.00    -0.352 N 
ATOM      3  C   UNL A   1      46.735  27.975  24.199  1.00  0.00     0.255 C 
ATOM      4  O   UNL A   1      46.805  28.638  23.167  1.00  0.00    -0.269 OA
ATOM      5  H   UNL A   1      44.734  28.004  24.157  1.00  0.00     0.163 HD
BRANCH   3   6
ATOM      6  C   UNL A   1      47.977  27.700  24.973  1.00  0.00     0.081 A 
ATOM      7  C   UNL A   1      50.620  27.343  25.861  1.00  0.00     0.044 A 
ATOM      8  C   UNL A   1      50.013  26.420  25.020  1.00  0.00     0.027 A 
ATOM      9  C   UNL A   1      49.815  28.297  26.467  1.00  0.00     0.073 A 
ATOM     10  C   UNL A   1      48.731  26.620  24.523  1.00  0.00     0.020 A 
ATOM     11  C   UNL A   1      48.477  28.420  26.065  1.00  0.00     0.130 A 
BRANCH   7  12
ATOM     12  N   UNL A   1      51.992  27.264  26.150  1.00  0.00    -0.326 N 
ATOM     13  C   UNL A   1      52.589  26.872  27.330  1.00  0.00     0.226 C 
ATOM     14  O   UNL A   1      53.766  27.167  27.545  1.00  0.00    -0.275 OA
ATOM     15  H   UNL A   1      52.602  27.516  25.420  1.00  0.00     0.169 HD
BRANCH  13  16
ATOM     16  C   UNL A   1      51.853  25.896  28.239  1.00  0.00     0.125 C 
BRANCH  16  17
ATOM     17  C   UNL A   1      51.793  26.278  29.716  1.00  0.00     0.156 C 
ATOM     18  N   UNL A   1      49.485  26.499  30.309  1.00  0.00    -0.240 N 
ATOM     19  C   UNL A   1      49.760  27.801  30.017  1.00  0.00     0.293 C 
ATOM     20  C   UNL A   1      50.556  25.619  30.306  1.00  0.00     0.248 C 
ATOM     21  O   UNL A   1      48.992  28.719  29.735  1.00  0.00    -0.261 OA
ATOM     22  S   UNL A   1      51.503  28.044  30.024  1.00  0.00    -0.050 SA
ATOM     23  O   UNL A   1      50.558  24.449  30.673  1.00  0.00    -0.273 OA
BRANCH  18  24
ATOM     24  C   UNL A   1      48.225  26.116  30.815  1.00  0.00     0.056 A 
ATOM     25  C   UNL A   1      46.424  25.784  34.180  1.00  0.00     0.044 C 
ATOM     26  C   UNL A   1      46.720  25.822  32.709  1.00  0.00    -0.049 A 
ATOM     27  C   UNL A   1      45.713  25.444  31.817  1.00  0.00     0.004 A 
ATOM     28  C   UNL A   1      47.976  26.181  32.199  1.00  0.00     0.030 A 
ATOM     29  C   UNL A   1      45.964  25.356  30.450  1.00  0.00     0.006 A 
ATOM     30  C   UNL A   1      47.220  25.684  29.929  1.00  0.00    -0.027 A 
ATOM     31  C   UNL A   1      47.404  25.554  28.443  1.00  0.00     0.046 C 
ENDBRANCH  18  24
ENDBRANCH  16  17
ENDBRANCH  13  16
ENDBRANCH   7  12
BRANCH  11  32
ATOM     32  O   UNL A   1      47.700  29.231  26.846  1.00  0.00    -0.507 OA
ATOM     33  H   UNL A   1      47.443  28.952  27.702  1.00  0.00     0.293 HD
ENDBRANCH  11  32
ENDBRANCH   3   6
ENDBRANCH   1   2
BRANCH   1  34
ATOM     34  C   UNL A   1      45.303  25.235  25.462  1.00  0.00     0.042 C 
BRANCH  34  35
ATOM     35  C   UNL A   1      44.567  24.314  26.413  1.00  0.00     0.118 C 
BRANCH  35  36
ATOM     36  N   UNL A   1      44.007  23.095  25.823  1.00  0.00    -0.352 N 
ATOM     37  C   UNL A   1      42.670  22.710  25.846  1.00  0.00     0.251 C 
ATOM     38  H   UNL A   1      44.636  22.492  25.367  1.00  0.00     0.163 HD
ATOM     39  O   UNL A   1      42.276  21.709  25.263  1.00  0.00    -0.269 OA
BRANCH  37  40
ATOM     40  C   UNL A   1      41.731  23.612  26.546  1.00  0.00     0.039 A 
ATOM     41  C   UNL A   1      41.262  24.738  25.867  1.00  0.00     0.014 A 
ATOM     42  C   UNL A   1      41.684  23.537  27.931  1.00  0.00     0.014 A 
ATOM     43  C   UNL A   1      41.007  25.902  26.590  1.00  0.00     0.010 A 
ATOM     44  C   UNL A   1      41.519  24.716  28.631  1.00  0.00     0.010 A 
ATOM     45  C   UNL A   1      41.266  25.926  27.963  1.00  0.00    -0.014 A 
BRANCH  45  46
ATOM     46  C   UNL A   1      41.227  27.178  28.727  1.00  0.00     0.031 A 
ATOM     47  C   UNL A   1      42.125  28.253  28.235  1.00  0.00     0.074 A 
ATOM     48  C   UNL A   1      40.306  27.562  29.634  1.00  0.00     0.049 A 
ATOM     49  N   UNL A   1      43.376  28.430  28.508  1.00  0.00    -0.248 NA
ATOM     50  C   UNL A   1      41.614  29.091  27.136  1.00  0.00     0.031 C 
ATOM     51  C   UNL A   1      39.026  26.951  29.991  1.00  0.00     0.029 A 
ATOM     52  N   UNL A   1      40.324  28.704  30.383  1.00  0.00    -0.354 N 
ATOM     53  C   UNL A   1      43.757  29.521  27.737  1.00  0.00     0.074 A 
ATOM     54  C   UNL A   1      42.757  29.623  26.704  1.00  0.00     0.031 C 
ATOM     55  C   UNL A   1      38.321  27.815  30.769  1.00  0.00     0.029 A 
ATOM     56  C   UNL A   1      39.149  28.973  31.071  1.00  0.00     0.049 A 
ATOM     57  H   UNL A   1      41.112  29.292  30.432  1.00  0.00     0.167 HD
ATOM     58  C   UNL A   1      44.658  30.456  28.156  1.00  0.00     0.031 A 
ATOM     59  C   UNL A   1      38.899  30.086  31.808  1.00  0.00     0.031 A 
ATOM     60  C   UNL A   1      45.213  30.110  29.446  1.00  0.00     0.049 A 
ATOM     61  C   UNL A   1      40.198  30.749  32.084  1.00  0.00     0.074 A 
ATOM     62  C   UNL A   1      45.956  29.074  29.971  1.00  0.00     0.029 A 
ATOM     63  N   UNL A   1      44.674  30.778  30.523  1.00  0.00    -0.354 N 
ATOM     64  N   UNL A   1      41.104  30.267  32.884  1.00  0.00    -0.248 NA
ATOM     65  C   UNL A   1      40.650  31.831  31.220  1.00  0.00     0.031 C 
ATOM     66  C   UNL A   1      45.512  28.929  31.322  1.00  0.00     0.029 A 
ATOM     67  C   UNL A   1      44.530  29.893  31.559  1.00  0.00     0.049 A 
ATOM     68  H   UNL A   1      44.432  31.733  30.546  1.00  0.00     0.167 HD
ATOM     69  C   UNL A   1      42.313  30.691  32.359  1.00  0.00     0.074 A 
ATOM     70  C   UNL A   1      41.967  31.762  31.433  1.00  0.00     0.031 C 
ATOM     71  C   UNL A   1      43.441  29.938  32.515  1.00  0.00     0.031 A 
BRANCH  58  72
ATOM     72  C   UNL A   1      44.723  31.885  27.640  1.00  0.00    -0.014 A 
ATOM     73  C   UNL A   1      45.878  32.301  26.946  1.00  0.00     0.010 A 
ATOM     74  C   UNL A   1      43.811  32.901  27.991  1.00  0.00     0.010 A 
ATOM     75  C   UNL A   1      46.154  33.658  26.726  1.00  0.00     0.020 A 
ATOM     76  C   UNL A   1      44.049  34.251  27.737  1.00  0.00     0.020 A 
ATOM     77  C   UNL A   1      45.245  34.626  27.149  1.00  0.00     0.054 A 
BRANCH  77  78
ATOM     78  S   UNL A   1      45.664  36.378  27.018  1.00  0.00     0.124 S 
ATOM     79  O   UNL A   1      44.345  36.987  26.885  1.00  0.00    -0.237 OA
ATOM     80  O   UNL A   1      46.358  36.626  28.278  1.00  0.00    -0.237 OA
ATOM     81  O   UNL A   1      46.507  36.439  25.825  1.00  0.00    -0.744 OA
ENDBRANCH  77  78
ENDBRANCH  58  72
BRANCH  59  82
ATOM     82  C   UNL A   1      37.633  30.742  32.206  1.00  0.00    -0.014 A 
ATOM     83  C   UNL A   1      37.559  31.451  33.424  1.00  0.00     0.010 A 
ATOM     84  C   UNL A   1      36.606  30.937  31.269  1.00  0.00     0.010 A 
ATOM     85  C   UNL A   1      36.552  32.399  33.657  1.00  0.00     0.020 A 
ATOM     86  C   UNL A   1      35.591  31.875  31.502  1.00  0.00     0.020 A 
ATOM     87  C   UNL A   1      35.593  32.633  32.674  1.00  0.00     0.054 A 
BRANCH  87  88
ATOM     88  S   UNL A   1      34.430  34.022  32.821  1.00  0.00     0.124 S 
ATOM     89  O   UNL A   1      34.455  34.606  31.483  1.00  0.00    -0.237 OA
ATOM     90  O   UNL A   1      33.170  33.389  33.199  1.00  0.00    -0.237 OA
ATOM     91  O   UNL A   1      35.048  34.835  33.867  1.00  0.00    -0.744 OA
ENDBRANCH  87  88
ENDBRANCH  59  82
BRANCH  71  92
ATOM     92  C   UNL A   1      43.432  28.885  33.598  1.00  0.00    -0.014 A 
ATOM     93  C   UNL A   1      43.813  29.140  34.930  1.00  0.00     0.010 A 
ATOM     94  C   UNL A   1      42.918  27.617  33.277  1.00  0.00     0.010 A 
ATOM     95  C   UNL A   1      43.707  28.143  35.909  1.00  0.00     0.020 A 
ATOM     96  C   UNL A   1      42.792  26.625  34.254  1.00  0.00     0.020 A 
ATOM     97  C   UNL A   1      43.194  26.891  35.564  1.00  0.00     0.054 A 
BRANCH  97  98
ATOM     98  S   UNL A   1      42.992  25.631  36.853  1.00  0.00     0.124 S 
ATOM     99  O   UNL A   1      44.254  24.900  36.785  1.00  0.00    -0.237 OA
ATOM    100  O   UNL A   1      42.793  26.432  38.061  1.00  0.00    -0.237 OA
ATOM    101  O   UNL A   1      41.815  24.878  36.422  1.00  0.00    -0.744 OA
ENDBRANCH  97  98
ENDBRANCH  71  92
ENDBRANCH  45  46
ENDBRANCH  37  40
ENDBRANCH  35  36
ENDBRANCH  34  35
ENDBRANCH   1  34
TORSDOF 18
ENDMDL
