MODEL 1
REMARK VINA RESULT:     -11.5      0.000      0.000
REMARK SMILES O=C(C[C@@H]1CN(C(=O)NCc2cccs2)CCO1)NCCCNC(=O)c1ccc(-c2c3nc(c(-c4ccc(S(=O)(=O)[O-])cc4)c4ccc([nH]4)c(-c4ccc(S(=O)(=O)[O-])cc4)c4nc(c(-c5ccc(S(=O)(=O)[O-])cc5)c5ccc2[nH]5)C=C4)C=C3)cc1
REMARK SMILES IDX 20 1 19 2 1 3 2 4 3 6 4 7 5 8 18 9 6 10 17 11 16 12 7 13
REMARK SMILES IDX 8 14 9 15 10 17 11 18 12 19 15 20 13 21 14 22 21 23 22 24
REMARK SMILES IDX 23 25 24 26 25 28 26 29 27 30 85 31 28 32 84 33 29 34 30 35
REMARK SMILES IDX 31 36 78 37 32 38 83 39 77 40 79 41 33 42 82 43 76 44 75 45
REMARK SMILES IDX 34 47 64 48 45 49 63 50 46 51 49 52 62 53 80 54 47 55 48 56
REMARK SMILES IDX 61 58 81 59 50 60 35 61 36 62 44 63 37 64 43 65 38 66 39 67
REMARK SMILES IDX 40 68 41 69 42 70 65 71 66 72 74 73 67 74 73 75 68 76 69 77
REMARK SMILES IDX 70 78 71 79 72 80 51 81 52 82 60 83 53 84 59 85 54 86 55 87
REMARK SMILES IDX 56 88 57 89 58 90
REMARK H PARENT 19 5 9 16 23 27 79 46 49 57
REMARK Flexibility Score: inf
ROOT
ATOM      1  C   UNL A   1      40.112  21.882  26.361  1.00  0.00     0.117 C 
ENDROOT
BRANCH   1   2
ATOM      2  N   UNL A   1      39.035  22.791  26.038  1.00  0.00    -0.356 N 
ATOM      3  O   UNL A   1      37.616  21.231  25.126  1.00  0.00    -0.275 OA
ATOM      4  C   UNL A   1      37.873  22.392  25.425  1.00  0.00     0.222 C 
ATOM      5  H   UNL A   1      39.140  23.743  26.269  1.00  0.00     0.163 HD
BRANCH   4   6
ATOM      6  C   UNL A   1      36.944  23.531  25.075  1.00  0.00     0.133 C 
BRANCH   6   7
ATOM      7  C   UNL A   1      35.477  23.129  25.206  1.00  0.00     0.147 C 
ATOM      8  C   UNL A   1      34.830  23.073  23.808  1.00  0.00     0.154 C 
ATOM      9  O   UNL A   1      34.798  24.106  26.029  1.00  0.00    -0.374 OA
ATOM     10  N   UNL A   1      33.405  22.767  23.909  1.00  0.00    -0.320 N 
ATOM     11  C   UNL A   1      33.403  23.767  26.166  1.00  0.00     0.182 C 
ATOM     12  C   UNL A   1      32.713  23.714  24.799  1.00  0.00     0.150 C 
BRANCH  10  13
ATOM     13  C   UNL A   1      32.698  21.706  23.433  1.00  0.00     0.317 C 
ATOM     14  O   UNL A   1      32.049  21.782  22.384  1.00  0.00    -0.249 OA
ATOM     15  N   UNL A   1      32.636  20.509  24.032  1.00  0.00    -0.333 N 
ATOM     16  H   UNL A   1      31.977  19.927  23.589  1.00  0.00     0.165 HD
BRANCH  15  17
ATOM     17  C   UNL A   1      33.262  19.832  25.145  1.00  0.00     0.164 C 
BRANCH  17  18
ATOM     18  C   UNL A   1      33.425  18.374  24.822  1.00  0.00     0.024 A 
ATOM     19  C   UNL A   1      34.280  17.806  23.894  1.00  0.00     0.017 A 
ATOM     20  S   UNL A   1      32.507  17.166  25.626  1.00  0.00    -0.147 S 
ATOM     21  C   UNL A   1      34.158  16.386  23.831  1.00  0.00     0.012 A 
ATOM     22  C   UNL A   1      33.220  15.911  24.717  1.00  0.00     0.065 A 
ENDBRANCH  17  18
ENDBRANCH  15  17
ENDBRANCH  10  13
ENDBRANCH   6   7
ENDBRANCH   4   6
ENDBRANCH   1   2
BRANCH   1  23
ATOM     23  C   UNL A   1      40.762  22.219  27.699  1.00  0.00     0.042 C 
BRANCH  23  24
ATOM     24  C   UNL A   1      41.900  23.235  27.616  1.00  0.00     0.118 C 
BRANCH  24  25
ATOM     25  N   UNL A   1      41.840  24.060  26.419  1.00  0.00    -0.352 N 
ATOM     26  C   UNL A   1      41.496  25.378  26.256  1.00  0.00     0.251 C 
ATOM     27  H   UNL A   1      42.090  23.595  25.588  1.00  0.00     0.163 HD
ATOM     28  O   UNL A   1      41.381  25.822  25.116  1.00  0.00    -0.269 OA
BRANCH  26  29
ATOM     29  C   UNL A   1      41.246  26.264  27.418  1.00  0.00     0.039 A 
ATOM     30  C   UNL A   1      42.187  27.258  27.705  1.00  0.00     0.014 A 
ATOM     31  C   UNL A   1      40.143  26.093  28.259  1.00  0.00     0.014 A 
ATOM     32  C   UNL A   1      42.002  28.101  28.806  1.00  0.00     0.010 A 
ATOM     33  C   UNL A   1      39.922  26.981  29.314  1.00  0.00     0.010 A 
ATOM     34  C   UNL A   1      40.857  27.985  29.609  1.00  0.00    -0.014 A 
BRANCH  34  35
ATOM     35  C   UNL A   1      40.646  28.893  30.767  1.00  0.00     0.031 A 
ATOM     36  C   UNL A   1      41.496  28.767  32.005  1.00  0.00     0.074 A 
ATOM     37  C   UNL A   1      39.670  29.823  30.718  1.00  0.00     0.049 A 
ATOM     38  N   UNL A   1      41.461  29.476  33.106  1.00  0.00    -0.248 NA
ATOM     39  C   UNL A   1      42.500  27.692  32.019  1.00  0.00     0.031 C 
ATOM     40  C   UNL A   1      38.746  30.023  29.599  1.00  0.00     0.029 A 
ATOM     41  N   UNL A   1      39.294  30.775  31.632  1.00  0.00    -0.354 N 
ATOM     42  C   UNL A   1      42.425  28.925  33.944  1.00  0.00     0.074 A 
ATOM     43  C   UNL A   1      42.991  27.793  33.245  1.00  0.00     0.031 C 
ATOM     44  C   UNL A   1      37.934  31.054  29.879  1.00  0.00     0.029 A 
ATOM     45  C   UNL A   1      38.257  31.571  31.205  1.00  0.00     0.049 A 
ATOM     46  H   UNL A   1      39.727  30.880  32.510  1.00  0.00     0.167 HD
ATOM     47  C   UNL A   1      42.819  29.335  35.175  1.00  0.00     0.031 A 
ATOM     48  C   UNL A   1      37.640  32.607  31.808  1.00  0.00     0.031 A 
ATOM     49  C   UNL A   1      42.266  30.469  35.867  1.00  0.00     0.049 A 
ATOM     50  C   UNL A   1      38.111  33.057  33.162  1.00  0.00     0.074 A 
ATOM     51  C   UNL A   1      42.631  30.991  37.096  1.00  0.00     0.029 A 
ATOM     52  N   UNL A   1      41.234  31.262  35.389  1.00  0.00    -0.354 N 
ATOM     53  N   UNL A   1      39.063  32.558  33.913  1.00  0.00    -0.248 NA
ATOM     54  C   UNL A   1      37.437  34.229  33.740  1.00  0.00     0.031 C 
ATOM     55  C   UNL A   1      41.793  32.074  37.380  1.00  0.00     0.029 A 
ATOM     56  C   UNL A   1      40.942  32.261  36.303  1.00  0.00     0.049 A 
ATOM     57  H   UNL A   1      40.774  31.133  34.528  1.00  0.00     0.167 HD
ATOM     58  C   UNL A   1      39.125  33.375  35.038  1.00  0.00     0.074 A 
ATOM     59  C   UNL A   1      38.124  34.407  34.860  1.00  0.00     0.031 C 
ATOM     60  C   UNL A   1      39.942  33.282  36.116  1.00  0.00     0.031 A 
BRANCH  47  61
ATOM     61  C   UNL A   1      43.905  28.541  35.853  1.00  0.00    -0.014 A 
ATOM     62  C   UNL A   1      45.263  28.874  35.682  1.00  0.00     0.010 A 
ATOM     63  C   UNL A   1      43.567  27.467  36.698  1.00  0.00     0.010 A 
ATOM     64  C   UNL A   1      46.262  28.119  36.303  1.00  0.00     0.020 A 
ATOM     65  C   UNL A   1      44.563  26.728  37.343  1.00  0.00     0.020 A 
ATOM     66  C   UNL A   1      45.905  27.047  37.125  1.00  0.00     0.054 A 
BRANCH  66  67
ATOM     67  S   UNL A   1      47.220  26.091  37.929  1.00  0.00     0.124 S 
ATOM     68  O   UNL A   1      46.536  25.576  39.113  1.00  0.00    -0.237 OA
ATOM     69  O   UNL A   1      47.558  25.093  36.917  1.00  0.00    -0.237 OA
ATOM     70  O   UNL A   1      48.260  27.083  38.192  1.00  0.00    -0.744 OA
ENDBRANCH  66  67
ENDBRANCH  47  61
BRANCH  48  71
ATOM     71  C   UNL A   1      36.530  33.315  31.112  1.00  0.00    -0.014 A 
ATOM     72  C   UNL A   1      35.276  33.454  31.730  1.00  0.00     0.010 A 
ATOM     73  C   UNL A   1      36.726  33.859  29.830  1.00  0.00     0.010 A 
ATOM     74  C   UNL A   1      34.230  34.107  31.071  1.00  0.00     0.020 A 
ATOM     75  C   UNL A   1      35.691  34.536  29.179  1.00  0.00     0.020 A 
ATOM     76  C   UNL A   1      34.445  34.644  29.799  1.00  0.00     0.054 A 
BRANCH  76  77
ATOM     77  S   UNL A   1      33.089  35.531  28.982  1.00  0.00     0.124 S 
ATOM     78  O   UNL A   1      32.289  35.976  30.119  1.00  0.00    -0.237 OA
ATOM     79  O   UNL A   1      33.792  36.582  28.252  1.00  0.00    -0.237 OA
ATOM     80  O   UNL A   1      32.470  34.508  28.142  1.00  0.00    -0.744 OA
ENDBRANCH  76  77
ENDBRANCH  48  71
BRANCH  60  81
ATOM     81  C   UNL A   1      39.816  34.352  37.168  1.00  0.00    -0.014 A 
ATOM     82  C   UNL A   1      38.988  34.185  38.292  1.00  0.00     0.010 A 
ATOM     83  C   UNL A   1      40.554  35.542  37.032  1.00  0.00     0.010 A 
ATOM     84  C   UNL A   1      38.859  35.210  39.234  1.00  0.00     0.020 A 
ATOM     85  C   UNL A   1      40.450  36.558  37.986  1.00  0.00     0.020 A 
ATOM     86  C   UNL A   1      39.584  36.394  39.069  1.00  0.00     0.054 A 
BRANCH  86  87
ATOM     87  S   UNL A   1      39.407  37.710  40.305  1.00  0.00     0.124 S 
ATOM     88  O   UNL A   1      38.165  38.354  39.885  1.00  0.00    -0.237 OA
ATOM     89  O   UNL A   1      39.337  36.967  41.561  1.00  0.00    -0.237 OA
ATOM     90  O   UNL A   1      40.616  38.513  40.130  1.00  0.00    -0.744 OA
ENDBRANCH  86  87
ENDBRANCH  60  81
ENDBRANCH  34  35
ENDBRANCH  26  29
ENDBRANCH  24  25
ENDBRANCH  23  24
ENDBRANCH   1  23
TORSDOF 17
ENDMDL
MODEL 2
REMARK VINA RESULT:     -11.3      4.679     10.451
REMARK SMILES O=C(C[C@@H]1CN(C(=O)NCc2cccs2)CCO1)NCCCNC(=O)c1ccc(-c2c3nc(c(-c4ccc(S(=O)(=O)[O-])cc4)c4ccc([nH]4)c(-c4ccc(S(=O)(=O)[O-])cc4)c4nc(c(-c5ccc(S(=O)(=O)[O-])cc5)c5ccc2[nH]5)C=C4)C=C3)cc1
REMARK SMILES IDX 20 1 19 2 1 3 2 4 3 6 4 7 5 8 18 9 6 10 17 11 16 12 7 13
REMARK SMILES IDX 8 14 9 15 10 17 11 18 12 19 15 20 13 21 14 22 21 23 22 24
REMARK SMILES IDX 23 25 24 26 25 28 26 29 27 30 85 31 28 32 84 33 29 34 30 35
REMARK SMILES IDX 31 36 78 37 32 38 83 39 77 40 79 41 33 42 82 43 76 44 75 45
REMARK SMILES IDX 34 47 64 48 45 49 63 50 46 51 49 52 62 53 80 54 47 55 48 56
REMARK SMILES IDX 61 58 81 59 50 60 35 61 36 62 44 63 37 64 43 65 38 66 39 67
REMARK SMILES IDX 40 68 41 69 42 70 65 71 66 72 74 73 67 74 73 75 68 76 69 77
REMARK SMILES IDX 70 78 71 79 72 80 51 81 52 82 60 83 53 84 59 85 54 86 55 87
REMARK SMILES IDX 56 88 57 89 58 90
REMARK H PARENT 19 5 9 16 23 27 79 46 49 57
REMARK Flexibility Score: inf
ROOT
ATOM      1  C   UNL A   1      31.429  27.442  26.600  1.00  0.00     0.117 C 
ENDROOT
BRANCH   1   2
ATOM      2  N   UNL A   1      31.333  26.002  26.678  1.00  0.00    -0.356 N 
ATOM      3  O   UNL A   1      29.934  25.716  24.878  1.00  0.00    -0.275 OA
ATOM      4  C   UNL A   1      30.572  25.251  25.816  1.00  0.00     0.222 C 
ATOM      5  H   UNL A   1      31.836  25.536  27.385  1.00  0.00     0.163 HD
BRANCH   4   6
ATOM      6  C   UNL A   1      30.525  23.781  26.164  1.00  0.00     0.133 C 
BRANCH   6   7
ATOM      7  C   UNL A   1      31.922  23.178  26.276  1.00  0.00     0.147 C 
ATOM      8  C   UNL A   1      31.903  21.728  25.750  1.00  0.00     0.154 C 
ATOM      9  O   UNL A   1      32.329  23.197  27.664  1.00  0.00    -0.374 OA
ATOM     10  N   UNL A   1      33.211  21.100  25.918  1.00  0.00    -0.320 N 
ATOM     11  C   UNL A   1      33.642  22.622  27.813  1.00  0.00     0.182 C 
ATOM     12  C   UNL A   1      33.668  21.173  27.315  1.00  0.00     0.150 C 
BRANCH  10  13
ATOM     13  C   UNL A   1      34.076  20.609  24.989  1.00  0.00     0.317 C 
ATOM     14  O   UNL A   1      33.948  19.470  24.527  1.00  0.00    -0.249 OA
ATOM     15  N   UNL A   1      35.119  21.288  24.495  1.00  0.00    -0.333 N 
ATOM     16  H   UNL A   1      35.682  20.709  23.930  1.00  0.00     0.165 HD
BRANCH  15  17
ATOM     17  C   UNL A   1      35.654  22.630  24.557  1.00  0.00     0.164 C 
BRANCH  17  18
ATOM     18  C   UNL A   1      34.686  23.589  23.927  1.00  0.00     0.024 A 
ATOM     19  C   UNL A   1      34.396  24.881  24.327  1.00  0.00     0.017 A 
ATOM     20  S   UNL A   1      33.768  23.160  22.540  1.00  0.00    -0.147 S 
ATOM     21  C   UNL A   1      33.406  25.502  23.511  1.00  0.00     0.012 A 
ATOM     22  C   UNL A   1      32.973  24.669  22.505  1.00  0.00     0.065 A 
ENDBRANCH  17  18
ENDBRANCH  15  17
ENDBRANCH  10  13
ENDBRANCH   6   7
ENDBRANCH   4   6
ENDBRANCH   1   2
BRANCH   1  23
ATOM     23  C   UNL A   1      32.755  27.894  25.997  1.00  0.00     0.042 C 
BRANCH  23  24
ATOM     24  C   UNL A   1      33.801  28.334  27.018  1.00  0.00     0.118 C 
BRANCH  24  25
ATOM     25  N   UNL A   1      33.641  29.718  27.438  1.00  0.00    -0.352 N 
ATOM     26  C   UNL A   1      34.495  30.553  28.114  1.00  0.00     0.251 C 
ATOM     27  H   UNL A   1      32.778  30.124  27.195  1.00  0.00     0.163 HD
ATOM     28  O   UNL A   1      34.079  31.648  28.486  1.00  0.00    -0.269 OA
BRANCH  26  29
ATOM     29  C   UNL A   1      35.891  30.157  28.416  1.00  0.00     0.039 A 
ATOM     30  C   UNL A   1      36.837  30.233  27.389  1.00  0.00     0.014 A 
ATOM     31  C   UNL A   1      36.268  29.656  29.665  1.00  0.00     0.014 A 
ATOM     32  C   UNL A   1      38.160  29.847  27.624  1.00  0.00     0.010 A 
ATOM     33  C   UNL A   1      37.604  29.339  29.920  1.00  0.00     0.010 A 
ATOM     34  C   UNL A   1      38.562  29.416  28.898  1.00  0.00    -0.014 A 
BRANCH  34  35
ATOM     35  C   UNL A   1      39.973  29.026  29.157  1.00  0.00     0.031 A 
ATOM     36  C   UNL A   1      40.929  29.994  29.804  1.00  0.00     0.074 A 
ATOM     37  C   UNL A   1      40.407  27.803  28.789  1.00  0.00     0.049 A 
ATOM     38  N   UNL A   1      42.190  29.826  30.115  1.00  0.00    -0.248 NA
ATOM     39  C   UNL A   1      40.409  31.334  30.123  1.00  0.00     0.031 C 
ATOM     40  C   UNL A   1      39.599  26.785  28.114  1.00  0.00     0.029 A 
ATOM     41  N   UNL A   1      41.636  27.208  28.934  1.00  0.00    -0.354 N 
ATOM     42  C   UNL A   1      42.615  31.037  30.651  1.00  0.00     0.074 A 
ATOM     43  C   UNL A   1      41.492  31.946  30.576  1.00  0.00     0.031 C 
ATOM     44  C   UNL A   1      40.343  25.682  27.934  1.00  0.00     0.029 A 
ATOM     45  C   UNL A   1      41.686  25.921  28.452  1.00  0.00     0.049 A 
ATOM     46  H   UNL A   1      42.408  27.660  29.344  1.00  0.00     0.167 HD
ATOM     47  C   UNL A   1      43.822  31.360  31.178  1.00  0.00     0.031 A 
ATOM     48  C   UNL A   1      42.696  25.029  28.436  1.00  0.00     0.031 A 
ATOM     49  C   UNL A   1      44.936  30.453  31.266  1.00  0.00     0.049 A 
ATOM     50  C   UNL A   1      44.018  25.402  29.047  1.00  0.00     0.074 A 
ATOM     51  C   UNL A   1      46.184  30.672  31.824  1.00  0.00     0.029 A 
ATOM     52  N   UNL A   1      44.937  29.152  30.787  1.00  0.00    -0.354 N 
ATOM     53  N   UNL A   1      44.381  26.534  29.601  1.00  0.00    -0.248 NA
ATOM     54  C   UNL A   1      45.059  24.365  29.052  1.00  0.00     0.031 C 
ATOM     55  C   UNL A   1      46.953  29.517  31.648  1.00  0.00     0.029 A 
ATOM     56  C   UNL A   1      46.166  28.560  31.028  1.00  0.00     0.049 A 
ATOM     57  H   UNL A   1      44.177  28.713  30.341  1.00  0.00     0.167 HD
ATOM     58  C   UNL A   1      45.682  26.335  30.050  1.00  0.00     0.074 A 
ATOM     59  C   UNL A   1      46.036  24.970  29.715  1.00  0.00     0.031 C 
ATOM     60  C   UNL A   1      46.507  27.202  30.688  1.00  0.00     0.031 A 
BRANCH  47  61
ATOM     61  C   UNL A   1      43.996  32.763  31.699  1.00  0.00    -0.014 A 
ATOM     62  C   UNL A   1      44.403  33.809  30.848  1.00  0.00     0.010 A 
ATOM     63  C   UNL A   1      43.720  33.050  33.049  1.00  0.00     0.010 A 
ATOM     64  C   UNL A   1      44.577  35.102  31.348  1.00  0.00     0.020 A 
ATOM     65  C   UNL A   1      43.866  34.348  33.546  1.00  0.00     0.020 A 
ATOM     66  C   UNL A   1      44.313  35.362  32.696  1.00  0.00     0.054 A 
BRANCH  66  67
ATOM     67  S   UNL A   1      44.536  37.052  33.316  1.00  0.00     0.124 S 
ATOM     68  O   UNL A   1      43.196  37.612  33.148  1.00  0.00    -0.237 OA
ATOM     69  O   UNL A   1      44.956  36.836  34.698  1.00  0.00    -0.237 OA
ATOM     70  O   UNL A   1      45.560  37.612  32.437  1.00  0.00    -0.744 OA
ENDBRANCH  66  67
ENDBRANCH  47  61
BRANCH  48  71
ATOM     71  C   UNL A   1      42.481  23.677  27.852  1.00  0.00    -0.014 A 
ATOM     72  C   UNL A   1      42.669  23.457  26.476  1.00  0.00     0.010 A 
ATOM     73  C   UNL A   1      42.093  22.601  28.670  1.00  0.00     0.010 A 
ATOM     74  C   UNL A   1      42.454  22.190  25.925  1.00  0.00     0.020 A 
ATOM     75  C   UNL A   1      41.903  21.327  28.128  1.00  0.00     0.020 A 
ATOM     76  C   UNL A   1      42.073  21.133  26.756  1.00  0.00     0.054 A 
BRANCH  76  77
ATOM     77  S   UNL A   1      41.846  19.486  26.029  1.00  0.00     0.124 S 
ATOM     78  O   UNL A   1      40.421  19.484  25.718  1.00  0.00    -0.237 OA
ATOM     79  O   UNL A   1      42.746  19.521  24.878  1.00  0.00    -0.237 OA
ATOM     80  O   UNL A   1      42.256  18.581  27.100  1.00  0.00    -0.744 OA
ENDBRANCH  76  77
ENDBRANCH  48  71
BRANCH  60  81
ATOM     81  C   UNL A   1      47.858  26.684  31.105  1.00  0.00    -0.014 A 
ATOM     82  C   UNL A   1      48.977  26.781  30.258  1.00  0.00     0.010 A 
ATOM     83  C   UNL A   1      48.011  26.102  32.377  1.00  0.00     0.010 A 
ATOM     84  C   UNL A   1      50.211  26.257  30.655  1.00  0.00     0.020 A 
ATOM     85  C   UNL A   1      49.249  25.603  32.789  1.00  0.00     0.020 A 
ATOM     86  C   UNL A   1      50.336  25.663  31.914  1.00  0.00     0.054 A 
BRANCH  86  87
ATOM     87  S   UNL A   1      51.947  24.994  32.411  1.00  0.00     0.124 S 
ATOM     88  O   UNL A   1      51.719  23.555  32.321  1.00  0.00    -0.237 OA
ATOM     89  O   UNL A   1      52.853  25.551  31.409  1.00  0.00    -0.237 OA
ATOM     90  O   UNL A   1      52.133  25.512  33.766  1.00  0.00    -0.744 OA
ENDBRANCH  86  87
ENDBRANCH  60  81
ENDBRANCH  34  35
ENDBRANCH  26  29
ENDBRANCH  24  25
ENDBRANCH  23  24
ENDBRANCH   1  23
TORSDOF 17
ENDMDL
MODEL 3
REMARK VINA RESULT:     -11.1      4.230     10.074
REMARK SMILES O=C(C[C@@H]1CN(C(=O)NCc2cccs2)CCO1)NCCCNC(=O)c1ccc(-c2c3nc(c(-c4ccc(S(=O)(=O)[O-])cc4)c4ccc([nH]4)c(-c4ccc(S(=O)(=O)[O-])cc4)c4nc(c(-c5ccc(S(=O)(=O)[O-])cc5)c5ccc2[nH]5)C=C4)C=C3)cc1
REMARK SMILES IDX 20 1 19 2 1 3 2 4 3 6 4 7 5 8 18 9 6 10 17 11 16 12 7 13
REMARK SMILES IDX 8 14 9 15 10 17 11 18 12 19 15 20 13 21 14 22 21 23 22 24
REMARK SMILES IDX 23 25 24 26 25 28 26 29 27 30 85 31 28 32 84 33 29 34 30 35
REMARK SMILES IDX 31 36 78 37 32 38 83 39 77 40 79 41 33 42 82 43 76 44 75 45
REMARK SMILES IDX 34 47 64 48 45 49 63 50 46 51 49 52 62 53 80 54 47 55 48 56
REMARK SMILES IDX 61 58 81 59 50 60 35 61 36 62 44 63 37 64 43 65 38 66 39 67
REMARK SMILES IDX 40 68 41 69 42 70 65 71 66 72 74 73 67 74 73 75 68 76 69 77
REMARK SMILES IDX 70 78 71 79 72 80 51 81 52 82 60 83 53 84 59 85 54 86 55 87
REMARK SMILES IDX 56 88 57 89 58 90
REMARK H PARENT 19 5 9 16 23 27 79 46 49 57
REMARK Flexibility Score: inf
ROOT
ATOM      1  C   UNL A   1      31.617  27.475  25.492  1.00  0.00     0.117 C 
ENDROOT
BRANCH   1   2
ATOM      2  N   UNL A   1      31.286  26.196  24.904  1.00  0.00    -0.356 N 
ATOM      3  O   UNL A   1      30.790  25.106  26.864  1.00  0.00    -0.275 OA
ATOM      4  C   UNL A   1      30.915  25.101  25.645  1.00  0.00     0.222 C 
ATOM      5  H   UNL A   1      31.331  26.106  23.924  1.00  0.00     0.163 HD
BRANCH   4   6
ATOM      6  C   UNL A   1      30.738  23.842  24.829  1.00  0.00     0.133 C 
BRANCH   6   7
ATOM      7  C   UNL A   1      32.078  23.246  24.404  1.00  0.00     0.147 C 
ATOM      8  C   UNL A   1      33.019  23.168  25.623  1.00  0.00     0.154 C 
ATOM      9  O   UNL A   1      32.660  24.089  23.381  1.00  0.00    -0.374 OA
ATOM     10  N   UNL A   1      34.336  22.674  25.230  1.00  0.00    -0.320 N 
ATOM     11  C   UNL A   1      33.936  23.564  22.962  1.00  0.00     0.182 C 
ATOM     12  C   UNL A   1      34.911  23.482  24.141  1.00  0.00     0.150 C 
BRANCH  10  13
ATOM     13  C   UNL A   1      35.003  21.552  25.612  1.00  0.00     0.317 C 
ATOM     14  O   UNL A   1      36.176  21.600  26.002  1.00  0.00    -0.249 OA
ATOM     15  N   UNL A   1      34.477  20.320  25.607  1.00  0.00    -0.333 N 
ATOM     16  H   UNL A   1      35.164  19.642  25.803  1.00  0.00     0.165 HD
BRANCH  15  17
ATOM     17  C   UNL A   1      33.187  19.705  25.394  1.00  0.00     0.164 C 
BRANCH  17  18
ATOM     18  C   UNL A   1      33.372  18.291  24.924  1.00  0.00     0.024 A 
ATOM     19  C   UNL A   1      34.097  17.853  23.829  1.00  0.00     0.017 A 
ATOM     20  S   UNL A   1      32.658  16.967  25.751  1.00  0.00    -0.147 S 
ATOM     21  C   UNL A   1      34.040  16.438  23.661  1.00  0.00     0.012 A 
ATOM     22  C   UNL A   1      33.281  15.835  24.636  1.00  0.00     0.065 A 
ENDBRANCH  17  18
ENDBRANCH  15  17
ENDBRANCH  10  13
ENDBRANCH   6   7
ENDBRANCH   4   6
ENDBRANCH   1   2
BRANCH   1  23
ATOM     23  C   UNL A   1      33.124  27.699  25.563  1.00  0.00     0.042 C 
BRANCH  23  24
ATOM     24  C   UNL A   1      33.643  28.097  26.942  1.00  0.00     0.118 C 
BRANCH  24  25
ATOM     25  N   UNL A   1      33.452  29.509  27.238  1.00  0.00    -0.352 N 
ATOM     26  C   UNL A   1      34.275  30.414  27.860  1.00  0.00     0.251 C 
ATOM     27  H   UNL A   1      32.588  29.877  26.941  1.00  0.00     0.163 HD
ATOM     28  O   UNL A   1      33.833  31.529  28.127  1.00  0.00    -0.269 OA
BRANCH  26  29
ATOM     29  C   UNL A   1      35.670  30.069  28.227  1.00  0.00     0.039 A 
ATOM     30  C   UNL A   1      36.658  30.176  27.243  1.00  0.00     0.014 A 
ATOM     31  C   UNL A   1      36.007  29.586  29.494  1.00  0.00     0.014 A 
ATOM     32  C   UNL A   1      37.982  29.839  27.540  1.00  0.00     0.010 A 
ATOM     33  C   UNL A   1      37.340  29.319  29.811  1.00  0.00     0.010 A 
ATOM     34  C   UNL A   1      38.341  29.426  28.833  1.00  0.00    -0.014 A 
BRANCH  34  35
ATOM     35  C   UNL A   1      39.752  29.088  29.158  1.00  0.00     0.031 A 
ATOM     36  C   UNL A   1      40.638  30.088  29.856  1.00  0.00     0.074 A 
ATOM     37  C   UNL A   1      40.250  27.886  28.805  1.00  0.00     0.049 A 
ATOM     38  N   UNL A   1      41.888  29.966  30.226  1.00  0.00    -0.248 NA
ATOM     39  C   UNL A   1      40.052  31.404  30.156  1.00  0.00     0.031 C 
ATOM     40  C   UNL A   1      39.514  26.842  28.086  1.00  0.00     0.029 A 
ATOM     41  N   UNL A   1      41.492  27.337  29.005  1.00  0.00    -0.354 N 
ATOM     42  C   UNL A   1      42.240  31.188  30.789  1.00  0.00     0.074 A 
ATOM     43  C   UNL A   1      41.088  32.054  30.664  1.00  0.00     0.031 C 
ATOM     44  C   UNL A   1      40.308  25.769  27.936  1.00  0.00     0.029 A 
ATOM     45  C   UNL A   1      41.614  26.056  28.520  1.00  0.00     0.049 A 
ATOM     46  H   UNL A   1      42.225  27.815  29.455  1.00  0.00     0.167 HD
ATOM     47  C   UNL A   1      43.407  31.553  31.374  1.00  0.00     0.031 A 
ATOM     48  C   UNL A   1      42.657  25.203  28.548  1.00  0.00     0.031 A 
ATOM     49  C   UNL A   1      44.549  30.688  31.511  1.00  0.00     0.049 A 
ATOM     50  C   UNL A   1      43.933  25.622  29.224  1.00  0.00     0.074 A 
ATOM     51  C   UNL A   1      45.760  30.950  32.130  1.00  0.00     0.029 A 
ATOM     52  N   UNL A   1      44.624  29.391  31.027  1.00  0.00    -0.354 N 
ATOM     53  N   UNL A   1      44.226  26.763  29.801  1.00  0.00    -0.248 NA
ATOM     54  C   UNL A   1      45.012  24.625  29.274  1.00  0.00     0.031 C 
ATOM     55  C   UNL A   1      46.580  29.827  31.985  1.00  0.00     0.029 A 
ATOM     56  C   UNL A   1      45.861  28.845  31.323  1.00  0.00     0.049 A 
ATOM     57  H   UNL A   1      43.903  28.927  30.542  1.00  0.00     0.167 HD
ATOM     58  C   UNL A   1      45.510  26.610  30.311  1.00  0.00     0.074 A 
ATOM     59  C   UNL A   1      45.932  25.262  29.986  1.00  0.00     0.031 C 
ATOM     60  C   UNL A   1      46.270  27.503  30.993  1.00  0.00     0.031 A 
BRANCH  47  61
ATOM     61  C   UNL A   1      43.502  32.957  31.911  1.00  0.00    -0.014 A 
ATOM     62  C   UNL A   1      44.047  33.997  31.133  1.00  0.00     0.010 A 
ATOM     63  C   UNL A   1      43.012  33.252  33.197  1.00  0.00     0.010 A 
ATOM     64  C   UNL A   1      44.145  35.292  31.649  1.00  0.00     0.020 A 
ATOM     65  C   UNL A   1      43.083  34.553  33.705  1.00  0.00     0.020 A 
ATOM     66  C   UNL A   1      43.667  35.560  32.934  1.00  0.00     0.054 A 
BRANCH  66  67
ATOM     67  S   UNL A   1      43.796  37.252  33.575  1.00  0.00     0.124 S 
ATOM     68  O   UNL A   1      45.103  37.226  34.229  1.00  0.00    -0.237 OA
ATOM     69  O   UNL A   1      43.717  38.063  32.363  1.00  0.00    -0.237 OA
ATOM     70  O   UNL A   1      42.652  37.370  34.475  1.00  0.00    -0.744 OA
ENDBRANCH  66  67
ENDBRANCH  47  61
BRANCH  48  71
ATOM     71  C   UNL A   1      42.522  23.848  27.947  1.00  0.00    -0.014 A 
ATOM     72  C   UNL A   1      42.102  22.759  28.731  1.00  0.00     0.010 A 
ATOM     73  C   UNL A   1      42.807  23.641  26.586  1.00  0.00     0.010 A 
ATOM     74  C   UNL A   1      41.988  21.484  28.169  1.00  0.00     0.020 A 
ATOM     75  C   UNL A   1      42.669  22.373  26.014  1.00  0.00     0.020 A 
ATOM     76  C   UNL A   1      42.272  21.300  26.814  1.00  0.00     0.054 A 
BRANCH  76  77
ATOM     77  S   UNL A   1      42.071  19.646  26.094  1.00  0.00     0.124 S 
ATOM     78  O   UNL A   1      40.648  19.628  25.768  1.00  0.00    -0.237 OA
ATOM     79  O   UNL A   1      42.982  19.684  24.953  1.00  0.00    -0.237 OA
ATOM     80  O   UNL A   1      42.478  18.752  27.175  1.00  0.00    -0.744 OA
ENDBRANCH  76  77
ENDBRANCH  48  71
BRANCH  60  81
ATOM     81  C   UNL A   1      47.618  27.034  31.472  1.00  0.00    -0.014 A 
ATOM     82  C   UNL A   1      47.778  26.406  32.720  1.00  0.00     0.010 A 
ATOM     83  C   UNL A   1      48.744  27.214  30.647  1.00  0.00     0.010 A 
ATOM     84  C   UNL A   1      49.047  26.014  33.157  1.00  0.00     0.020 A 
ATOM     85  C   UNL A   1      50.010  26.798  31.067  1.00  0.00     0.020 A 
ATOM     86  C   UNL A   1      50.156  26.222  32.331  1.00  0.00     0.054 A 
BRANCH  86  87
ATOM     87  S   UNL A   1      51.793  25.702  32.915  1.00  0.00     0.124 S 
ATOM     88  O   UNL A   1      51.479  25.122  34.218  1.00  0.00    -0.237 OA
ATOM     89  O   UNL A   1      52.216  24.752  31.889  1.00  0.00    -0.237 OA
ATOM     90  O   UNL A   1      52.557  26.948  32.954  1.00  0.00    -0.744 OA
ENDBRANCH  86  87
ENDBRANCH  60  81
ENDBRANCH  34  35
ENDBRANCH  26  29
ENDBRANCH  24  25
ENDBRANCH  23  24
ENDBRANCH   1  23
TORSDOF 17
ENDMDL
