MODEL 1
REMARK VINA RESULT:     -12.9      0.000      0.000
REMARK SMILES Cc1cc(C(=O)N[C@@H]2C(=O)N3C(C(=O)NCCCNC(=O)c4ccc(-c5c6nc(c(-c7ccc(S(=O)(=O)[O-])cc7)c7ccc([nH]7)c(-c7ccc(S(=O)(=O)[O-])cc7)c7nc(c(-c8ccc(S(=O)(=O)[O-])cc8)c8ccc5[nH]8)C=C7)C=C6)cc4)=C(CSc4nnc(C)s4)CS[C@H]23)n(C)n1
REMARK SMILES IDX 17 1 16 2 15 3 13 4 14 5 12 7 8 8 9 9 93 10 10 11 11 12
REMARK SMILES IDX 92 13 91 14 82 15 7 16 5 17 6 18 4 20 1 21 2 22 3 23 96 24
REMARK SMILES IDX 94 25 95 26 83 27 84 28 85 29 86 30 90 31 87 32 88 33 89 34
REMARK SMILES IDX 18 35 19 36 20 37 21 39 22 40 23 41 81 42 24 43 80 44 25 45
REMARK SMILES IDX 26 46 27 47 74 48 28 49 79 50 73 51 75 52 29 53 78 54 72 55
REMARK SMILES IDX 71 56 30 58 60 59 41 60 59 61 42 62 45 63 58 64 76 65 43 66
REMARK SMILES IDX 44 67 57 69 77 70 46 71 31 72 32 73 40 74 33 75 39 76 34 77
REMARK SMILES IDX 35 78 36 79 37 80 38 81 61 82 62 83 70 84 63 85 69 86 64 87
REMARK SMILES IDX 65 88 66 89 67 90 68 91 47 92 48 93 56 94 49 95 55 96 50 97
REMARK SMILES IDX 51 98 52 99 53 100 54 101
REMARK H PARENT 15 6 7 19 19 38 75 57 45 68
REMARK Flexibility Score: inf
ROOT
ATOM      1  C   UNL A   1      33.760  29.213  27.223  1.00  0.00     0.042 C 
ENDROOT
BRANCH   1   2
ATOM      2  C   UNL A   1      32.995  29.852  26.066  1.00  0.00     0.118 C 
BRANCH   2   3
ATOM      3  N   UNL A   1      33.624  29.561  24.791  1.00  0.00    -0.351 N 
ATOM      4  C   UNL A   1      33.478  28.655  23.792  1.00  0.00     0.268 C 
ATOM      5  O   UNL A   1      34.111  28.968  22.776  1.00  0.00    -0.268 OA
ATOM      6  H   UNL A   1      34.354  30.193  24.599  1.00  0.00     0.163 HD
BRANCH   4   7
ATOM      7  C   UNL A   1      32.503  27.462  23.739  1.00  0.00     0.111 C 
ATOM      8  C   UNL A   1      33.657  24.394  24.826  1.00  0.00     0.206 C 
ATOM      9  C   UNL A   1      33.868  25.899  25.168  1.00  0.00     0.253 C 
ATOM     10  C   UNL A   1      32.525  24.953  23.923  1.00  0.00     0.181 C 
ATOM     11  O   UNL A   1      34.386  26.488  26.097  1.00  0.00    -0.272 OA
ATOM     12  N   UNL A   1      33.124  26.262  24.075  1.00  0.00    -0.290 N 
ATOM     13  S   UNL A   1      30.851  24.977  24.630  1.00  0.00    -0.129 SA
ATOM     14  C   UNL A   1      30.354  26.154  23.376  1.00  0.00     0.106 C 
ATOM     15  C   UNL A   1      31.142  27.440  23.567  1.00  0.00    -0.020 C 
BRANCH   8  16
ATOM     16  N   UNL A   1      33.319  23.443  25.923  1.00  0.00    -0.336 N 
ATOM     17  C   UNL A   1      34.030  22.350  26.392  1.00  0.00     0.270 C 
ATOM     18  O   UNL A   1      33.555  21.725  27.339  1.00  0.00    -0.268 OA
ATOM     19  H   UNL A   1      32.464  23.617  26.382  1.00  0.00     0.164 HD
BRANCH  17  20
ATOM     20  C   UNL A   1      35.244  21.952  25.709  1.00  0.00     0.126 A 
ATOM     21  C   UNL A   1      37.696  19.454  24.722  1.00  0.00     0.069 C 
ATOM     22  C   UNL A   1      36.914  20.685  24.986  1.00  0.00     0.060 A 
ATOM     23  C   UNL A   1      35.518  20.876  24.877  1.00  0.00     0.059 A 
ATOM     24  N   UNL A   1      37.504  21.767  25.495  1.00  0.00    -0.178 NA
ATOM     25  N   UNL A   1      36.470  22.571  25.840  1.00  0.00    -0.263 N 
ATOM     26  C   UNL A   1      36.792  23.890  26.332  1.00  0.00     0.174 C 
ENDBRANCH  17  20
ENDBRANCH   8  16
BRANCH  15  27
ATOM     27  C   UNL A   1      30.187  28.566  23.889  1.00  0.00     0.111 C 
BRANCH  27  28
ATOM     28  S   UNL A   1      28.628  28.189  23.087  1.00  0.00    -0.089 SA
BRANCH  28  29
ATOM     29  C   UNL A   1      27.892  29.705  22.754  1.00  0.00     0.174 A 
ATOM     30  N   UNL A   1      26.999  30.252  23.546  1.00  0.00    -0.132 NA
ATOM     31  S   UNL A   1      28.702  30.812  21.730  1.00  0.00    -0.091 S 
ATOM     32  N   UNL A   1      27.225  31.615  23.646  1.00  0.00    -0.143 NA
ATOM     33  C   UNL A   1      28.242  31.988  22.891  1.00  0.00     0.115 A 
ATOM     34  C   UNL A   1      29.070  33.199  23.078  1.00  0.00     0.081 C 
ENDBRANCH  28  29
ENDBRANCH  27  28
ENDBRANCH  15  27
ENDBRANCH   4   7
ENDBRANCH   2   3
ENDBRANCH   1   2
BRANCH   1  35
ATOM     35  C   UNL A   1      35.135  29.773  27.521  1.00  0.00     0.118 C 
BRANCH  35  36
ATOM     36  N   UNL A   1      35.209  30.356  28.845  1.00  0.00    -0.352 N 
ATOM     37  C   UNL A   1      36.247  30.380  29.746  1.00  0.00     0.251 C 
ATOM     38  H   UNL A   1      34.387  30.804  29.147  1.00  0.00     0.163 HD
ATOM     39  O   UNL A   1      36.007  30.720  30.903  1.00  0.00    -0.269 OA
BRANCH  37  40
ATOM     40  C   UNL A   1      37.628  29.989  29.359  1.00  0.00     0.039 A 
ATOM     41  C   UNL A   1      38.535  29.651  30.369  1.00  0.00     0.014 A 
ATOM     42  C   UNL A   1      38.061  29.999  28.032  1.00  0.00     0.014 A 
ATOM     43  C   UNL A   1      39.847  29.290  30.045  1.00  0.00     0.010 A 
ATOM     44  C   UNL A   1      39.329  29.526  27.700  1.00  0.00     0.010 A 
ATOM     45  C   UNL A   1      40.249  29.194  28.703  1.00  0.00    -0.014 A 
BRANCH  45  46
ATOM     46  C   UNL A   1      41.634  28.795  28.334  1.00  0.00     0.031 A 
ATOM     47  C   UNL A   1      42.740  29.822  28.329  1.00  0.00     0.074 A 
ATOM     48  C   UNL A   1      41.893  27.523  27.974  1.00  0.00     0.049 A 
ATOM     49  N   UNL A   1      43.999  29.676  28.001  1.00  0.00    -0.248 NA
ATOM     50  C   UNL A   1      42.382  31.197  28.719  1.00  0.00     0.031 C 
ATOM     51  C   UNL A   1      40.905  26.443  27.910  1.00  0.00     0.029 A 
ATOM     52  N   UNL A   1      43.068  26.918  27.600  1.00  0.00    -0.354 N 
ATOM     53  C   UNL A   1      44.574  30.935  28.135  1.00  0.00     0.074 A 
ATOM     54  C   UNL A   1      43.516  31.847  28.506  1.00  0.00     0.031 C 
ATOM     55  C   UNL A   1      41.523  25.301  27.569  1.00  0.00     0.029 A 
ATOM     56  C   UNL A   1      42.937  25.573  27.339  1.00  0.00     0.049 A 
ATOM     57  H   UNL A   1      43.923  27.401  27.527  1.00  0.00     0.167 HD
ATOM     58  C   UNL A   1      45.871  31.298  27.993  1.00  0.00     0.031 A 
ATOM     59  C   UNL A   1      43.853  24.661  26.957  1.00  0.00     0.031 A 
ATOM     60  C   UNL A   1      46.924  30.386  27.634  1.00  0.00     0.049 A 
ATOM     61  C   UNL A   1      45.282  25.093  26.775  1.00  0.00     0.074 A 
ATOM     62  C   UNL A   1      48.276  30.646  27.496  1.00  0.00     0.029 A 
ATOM     63  N   UNL A   1      46.746  29.038  27.360  1.00  0.00    -0.354 N 
ATOM     64  N   UNL A   1      45.811  26.283  26.942  1.00  0.00    -0.248 NA
ATOM     65  C   UNL A   1      46.239  24.058  26.363  1.00  0.00     0.031 C 
ATOM     66  C   UNL A   1      48.907  29.468  27.082  1.00  0.00     0.029 A 
ATOM     67  C   UNL A   1      47.960  28.458  27.034  1.00  0.00     0.049 A 
ATOM     68  H   UNL A   1      45.883  28.564  27.394  1.00  0.00     0.167 HD
ATOM     69  C   UNL A   1      47.170  26.131  26.685  1.00  0.00     0.074 A 
ATOM     70  C   UNL A   1      47.381  24.734  26.367  1.00  0.00     0.031 C 
ATOM     71  C   UNL A   1      48.153  27.065  26.714  1.00  0.00     0.031 A 
BRANCH  58  72
ATOM     72  C   UNL A   1      46.225  32.745  28.233  1.00  0.00    -0.014 A 
ATOM     73  C   UNL A   1      46.204  33.680  27.183  1.00  0.00     0.010 A 
ATOM     74  C   UNL A   1      46.530  33.187  29.534  1.00  0.00     0.010 A 
ATOM     75  C   UNL A   1      46.517  35.021  27.419  1.00  0.00     0.020 A 
ATOM     76  C   UNL A   1      46.812  34.535  29.781  1.00  0.00     0.020 A 
ATOM     77  C   UNL A   1      46.815  35.440  28.718  1.00  0.00     0.054 A 
BRANCH  77  78
ATOM     78  S   UNL A   1      47.177  37.195  28.999  1.00  0.00     0.124 S 
ATOM     79  O   UNL A   1      46.948  37.325  30.436  1.00  0.00    -0.237 OA
ATOM     80  O   UNL A   1      48.570  37.305  28.574  1.00  0.00    -0.237 OA
ATOM     81  O   UNL A   1      46.212  37.889  28.151  1.00  0.00    -0.744 OA
ENDBRANCH  77  78
ENDBRANCH  58  72
BRANCH  59  82
ATOM     82  C   UNL A   1      43.445  23.244  26.751  1.00  0.00    -0.014 A 
ATOM     83  C   UNL A   1      43.525  22.656  25.476  1.00  0.00     0.010 A 
ATOM     84  C   UNL A   1      43.005  22.462  27.836  1.00  0.00     0.010 A 
ATOM     85  C   UNL A   1      43.165  21.319  25.287  1.00  0.00     0.020 A 
ATOM     86  C   UNL A   1      42.673  21.116  27.657  1.00  0.00     0.020 A 
ATOM     87  C   UNL A   1      42.749  20.555  26.380  1.00  0.00     0.054 A 
BRANCH  87  88
ATOM     88  S   UNL A   1      42.353  18.803  26.120  1.00  0.00     0.124 S 
ATOM     89  O   UNL A   1      43.301  18.429  25.076  1.00  0.00    -0.237 OA
ATOM     90  O   UNL A   1      42.602  18.228  27.439  1.00  0.00    -0.237 OA
ATOM     91  O   UNL A   1      40.949  18.828  25.714  1.00  0.00    -0.744 OA
ENDBRANCH  87  88
ENDBRANCH  59  82
BRANCH  71  92
ATOM     92  C   UNL A   1      49.558  26.604  26.428  1.00  0.00    -0.014 A 
ATOM     93  C   UNL A   1      50.345  25.993  27.420  1.00  0.00     0.010 A 
ATOM     94  C   UNL A   1      50.074  26.731  25.124  1.00  0.00     0.010 A 
ATOM     95  C   UNL A   1      51.636  25.548  27.122  1.00  0.00     0.020 A 
ATOM     96  C   UNL A   1      51.351  26.257  24.814  1.00  0.00     0.020 A 
ATOM     97  C   UNL A   1      52.129  25.682  25.819  1.00  0.00     0.054 A 
BRANCH  97  98
ATOM     98  S   UNL A   1      53.791  25.055  25.450  1.00  0.00     0.124 S 
ATOM     99  O   UNL A   1      53.562  23.615  25.376  1.00  0.00    -0.237 OA
ATOM    100  O   UNL A   1      54.103  25.708  24.181  1.00  0.00    -0.237 OA
ATOM    101  O   UNL A   1      54.590  25.501  26.588  1.00  0.00    -0.744 OA
ENDBRANCH  97  98
ENDBRANCH  71  92
ENDBRANCH  45  46
ENDBRANCH  37  40
ENDBRANCH  35  36
ENDBRANCH   1  35
TORSDOF 18
ENDMDL
MODEL 2
REMARK VINA RESULT:     -12.4      1.538      7.906
REMARK SMILES Cc1cc(C(=O)N[C@@H]2C(=O)N3C(C(=O)NCCCNC(=O)c4ccc(-c5c6nc(c(-c7ccc(S(=O)(=O)[O-])cc7)c7ccc([nH]7)c(-c7ccc(S(=O)(=O)[O-])cc7)c7nc(c(-c8ccc(S(=O)(=O)[O-])cc8)c8ccc5[nH]8)C=C7)C=C6)cc4)=C(CSc4nnc(C)s4)CS[C@H]23)n(C)n1
REMARK SMILES IDX 17 1 16 2 15 3 13 4 14 5 12 7 8 8 9 9 93 10 10 11 11 12
REMARK SMILES IDX 92 13 91 14 82 15 7 16 5 17 6 18 4 20 1 21 2 22 3 23 96 24
REMARK SMILES IDX 94 25 95 26 83 27 84 28 85 29 86 30 90 31 87 32 88 33 89 34
REMARK SMILES IDX 18 35 19 36 20 37 21 39 22 40 23 41 81 42 24 43 80 44 25 45
REMARK SMILES IDX 26 46 27 47 74 48 28 49 79 50 73 51 75 52 29 53 78 54 72 55
REMARK SMILES IDX 71 56 30 58 60 59 41 60 59 61 42 62 45 63 58 64 76 65 43 66
REMARK SMILES IDX 44 67 57 69 77 70 46 71 31 72 32 73 40 74 33 75 39 76 34 77
REMARK SMILES IDX 35 78 36 79 37 80 38 81 61 82 62 83 70 84 63 85 69 86 64 87
REMARK SMILES IDX 65 88 66 89 67 90 68 91 47 92 48 93 56 94 49 95 55 96 50 97
REMARK SMILES IDX 51 98 52 99 53 100 54 101
REMARK H PARENT 15 6 7 19 19 38 75 57 45 68
REMARK Flexibility Score: inf
ROOT
ATOM      1  C   UNL A   1      35.070  30.072  27.436  1.00  0.00     0.042 C 
ENDROOT
BRANCH   1   2
ATOM      2  C   UNL A   1      34.310  29.167  26.469  1.00  0.00     0.118 C 
BRANCH   2   3
ATOM      3  N   UNL A   1      33.177  29.855  25.879  1.00  0.00    -0.351 N 
ATOM      4  C   UNL A   1      32.122  29.541  25.086  1.00  0.00     0.268 C 
ATOM      5  O   UNL A   1      31.275  30.443  25.049  1.00  0.00    -0.268 OA
ATOM      6  H   UNL A   1      33.173  30.810  26.120  1.00  0.00     0.163 HD
BRANCH   4   7
ATOM      7  C   UNL A   1      31.806  28.178  24.438  1.00  0.00     0.111 C 
ATOM      8  C   UNL A   1      31.700  25.407  26.495  1.00  0.00     0.206 C 
ATOM      9  C   UNL A   1      31.366  26.926  26.580  1.00  0.00     0.253 C 
ATOM     10  C   UNL A   1      31.887  25.725  24.988  1.00  0.00     0.181 C 
ATOM     11  O   UNL A   1      30.754  27.613  27.375  1.00  0.00    -0.272 OA
ATOM     12  N   UNL A   1      31.924  27.127  25.343  1.00  0.00    -0.290 N 
ATOM     13  S   UNL A   1      30.459  25.421  23.905  1.00  0.00    -0.129 SA
ATOM     14  C   UNL A   1      31.203  26.468  22.657  1.00  0.00     0.106 C 
ATOM     15  C   UNL A   1      31.300  27.886  23.197  1.00  0.00    -0.020 C 
BRANCH   8  16
ATOM     16  N   UNL A   1      30.669  24.415  26.914  1.00  0.00    -0.336 N 
ATOM     17  C   UNL A   1      30.680  23.034  26.804  1.00  0.00     0.270 C 
ATOM     18  O   UNL A   1      29.714  22.420  27.254  1.00  0.00    -0.268 OA
ATOM     19  H   UNL A   1      29.862  24.798  27.330  1.00  0.00     0.164 HD
BRANCH  17  20
ATOM     20  C   UNL A   1      31.775  22.389  26.109  1.00  0.00     0.126 A 
ATOM     21  C   UNL A   1      33.116  19.777  23.963  1.00  0.00     0.069 C 
ATOM     22  C   UNL A   1      32.891  20.923  24.877  1.00  0.00     0.060 A 
ATOM     23  C   UNL A   1      31.883  21.910  24.812  1.00  0.00     0.059 A 
ATOM     24  N   UNL A   1      33.619  21.058  25.986  1.00  0.00    -0.178 NA
ATOM     25  N   UNL A   1      32.978  22.028  26.680  1.00  0.00    -0.263 N 
ATOM     26  C   UNL A   1      33.594  22.484  27.904  1.00  0.00     0.174 C 
ENDBRANCH  17  20
ENDBRANCH   8  16
BRANCH  15  27
ATOM     27  C   UNL A   1      30.454  28.802  22.343  1.00  0.00     0.111 C 
BRANCH  27  28
ATOM     28  S   UNL A   1      28.743  28.539  22.811  1.00  0.00    -0.089 SA
BRANCH  28  29
ATOM     29  C   UNL A   1      27.964  30.058  22.619  1.00  0.00     0.174 A 
ATOM     30  N   UNL A   1      27.086  30.521  23.479  1.00  0.00    -0.132 NA
ATOM     31  S   UNL A   1      28.716  31.259  21.659  1.00  0.00    -0.091 S 
ATOM     32  N   UNL A   1      27.286  31.878  23.677  1.00  0.00    -0.143 NA
ATOM     33  C   UNL A   1      28.269  32.332  22.921  1.00  0.00     0.115 A 
ATOM     34  C   UNL A   1      29.077  33.545  23.175  1.00  0.00     0.081 C 
ENDBRANCH  28  29
ENDBRANCH  27  28
ENDBRANCH  15  27
ENDBRANCH   4   7
ENDBRANCH   2   3
ENDBRANCH   1   2
BRANCH   1  35
ATOM     35  C   UNL A   1      35.555  29.437  28.723  1.00  0.00     0.118 C 
BRANCH  35  36
ATOM     36  N   UNL A   1      35.699  30.407  29.787  1.00  0.00    -0.352 N 
ATOM     37  C   UNL A   1      36.817  30.800  30.485  1.00  0.00     0.251 C 
ATOM     38  H   UNL A   1      34.865  30.856  30.055  1.00  0.00     0.163 HD
ATOM     39  O   UNL A   1      36.664  31.462  31.509  1.00  0.00    -0.269 OA
BRANCH  37  40
ATOM     40  C   UNL A   1      38.186  30.426  30.042  1.00  0.00     0.039 A 
ATOM     41  C   UNL A   1      39.100  29.975  31.000  1.00  0.00     0.014 A 
ATOM     42  C   UNL A   1      38.603  30.559  28.715  1.00  0.00     0.014 A 
ATOM     43  C   UNL A   1      40.401  29.626  30.623  1.00  0.00     0.010 A 
ATOM     44  C   UNL A   1      39.858  30.101  28.320  1.00  0.00     0.010 A 
ATOM     45  C   UNL A   1      40.784  29.656  29.273  1.00  0.00    -0.014 A 
BRANCH  45  46
ATOM     46  C   UNL A   1      42.157  29.273  28.847  1.00  0.00     0.031 A 
ATOM     47  C   UNL A   1      42.444  27.861  28.398  1.00  0.00     0.074 A 
ATOM     48  C   UNL A   1      43.151  30.181  28.892  1.00  0.00     0.049 A 
ATOM     49  N   UNL A   1      43.580  27.328  28.028  1.00  0.00    -0.248 NA
ATOM     50  C   UNL A   1      41.312  26.917  28.389  1.00  0.00     0.031 C 
ATOM     51  C   UNL A   1      43.011  31.570  29.334  1.00  0.00     0.029 A 
ATOM     52  N   UNL A   1      44.479  30.075  28.555  1.00  0.00    -0.354 N 
ATOM     53  C   UNL A   1      43.301  25.993  27.753  1.00  0.00     0.074 A 
ATOM     54  C   UNL A   1      41.907  25.778  28.065  1.00  0.00     0.031 C 
ATOM     55  C   UNL A   1      44.189  32.198  29.195  1.00  0.00     0.029 A 
ATOM     56  C   UNL A   1      45.181  31.248  28.705  1.00  0.00     0.049 A 
ATOM     57  H   UNL A   1      44.888  29.238  28.236  1.00  0.00     0.167 HD
ATOM     58  C   UNL A   1      44.122  25.037  27.257  1.00  0.00     0.031 A 
ATOM     59  C   UNL A   1      46.479  31.529  28.474  1.00  0.00     0.031 A 
ATOM     60  C   UNL A   1      45.507  25.256  26.937  1.00  0.00     0.049 A 
ATOM     61  C   UNL A   1      47.380  30.443  27.953  1.00  0.00     0.074 A 
ATOM     62  C   UNL A   1      46.417  24.363  26.398  1.00  0.00     0.029 A 
ATOM     63  N   UNL A   1      46.183  26.453  27.121  1.00  0.00    -0.354 N 
ATOM     64  N   UNL A   1      47.086  29.197  27.666  1.00  0.00    -0.248 NA
ATOM     65  C   UNL A   1      48.783  30.805  27.714  1.00  0.00     0.031 C 
ATOM     66  C   UNL A   1      47.657  25.002  26.312  1.00  0.00     0.029 A 
ATOM     67  C   UNL A   1      47.503  26.316  26.727  1.00  0.00     0.049 A 
ATOM     68  H   UNL A   1      45.783  27.278  27.479  1.00  0.00     0.167 HD
ATOM     69  C   UNL A   1      48.263  28.633  27.183  1.00  0.00     0.074 A 
ATOM     70  C   UNL A   1      49.265  29.679  27.204  1.00  0.00     0.031 C 
ATOM     71  C   UNL A   1      48.491  27.366  26.758  1.00  0.00     0.031 A 
BRANCH  58  72
ATOM     72  C   UNL A   1      43.539  23.665  27.022  1.00  0.00    -0.014 A 
ATOM     73  C   UNL A   1      43.231  23.221  25.723  1.00  0.00     0.010 A 
ATOM     74  C   UNL A   1      43.345  22.789  28.106  1.00  0.00     0.010 A 
ATOM     75  C   UNL A   1      42.706  21.943  25.516  1.00  0.00     0.020 A 
ATOM     76  C   UNL A   1      42.851  21.497  27.900  1.00  0.00     0.020 A 
ATOM     77  C   UNL A   1      42.523  21.088  26.606  1.00  0.00     0.054 A 
BRANCH  77  78
ATOM     78  S   UNL A   1      41.879  19.420  26.298  1.00  0.00     0.124 S 
ATOM     79  O   UNL A   1      42.374  18.685  27.459  1.00  0.00    -0.237 OA
ATOM     80  O   UNL A   1      40.435  19.639  26.263  1.00  0.00    -0.237 OA
ATOM     81  O   UNL A   1      42.481  19.045  25.021  1.00  0.00    -0.744 OA
ENDBRANCH  77  78
ENDBRANCH  58  72
BRANCH  59  82
ATOM     82  C   UNL A   1      46.992  32.907  28.710  1.00  0.00    -0.014 A 
ATOM     83  C   UNL A   1      47.539  33.262  29.956  1.00  0.00     0.010 A 
ATOM     84  C   UNL A   1      46.967  33.865  27.679  1.00  0.00     0.010 A 
ATOM     85  C   UNL A   1      48.043  34.548  30.170  1.00  0.00     0.020 A 
ATOM     86  C   UNL A   1      47.497  35.143  27.879  1.00  0.00     0.020 A 
ATOM     87  C   UNL A   1      48.025  35.478  29.127  1.00  0.00     0.054 A 
BRANCH  87  88
ATOM     88  S   UNL A   1      48.747  37.119  29.410  1.00  0.00     0.124 S 
ATOM     89  O   UNL A   1      48.092  37.530  30.647  1.00  0.00    -0.237 OA
ATOM     90  O   UNL A   1      50.173  36.818  29.517  1.00  0.00    -0.237 OA
ATOM     91  O   UNL A   1      48.365  37.871  28.217  1.00  0.00    -0.744 OA
ENDBRANCH  87  88
ENDBRANCH  59  82
BRANCH  71  92
ATOM     92  C   UNL A   1      49.870  27.041  26.245  1.00  0.00    -0.014 A 
ATOM     93  C   UNL A   1      50.858  26.509  27.090  1.00  0.00     0.010 A 
ATOM     94  C   UNL A   1      50.156  27.217  24.878  1.00  0.00     0.010 A 
ATOM     95  C   UNL A   1      52.121  26.189  26.584  1.00  0.00     0.020 A 
ATOM     96  C   UNL A   1      51.406  26.868  24.361  1.00  0.00     0.020 A 
ATOM     97  C   UNL A   1      52.386  26.369  25.221  1.00  0.00     0.054 A 
BRANCH  97  98
ATOM     98  S   UNL A   1      54.019  25.904  24.583  1.00  0.00     0.124 S 
ATOM     99  O   UNL A   1      54.093  24.490  24.942  1.00  0.00    -0.237 OA
ATOM    100  O   UNL A   1      53.894  26.185  23.155  1.00  0.00    -0.237 OA
ATOM    101  O   UNL A   1      54.936  26.779  25.308  1.00  0.00    -0.744 OA
ENDBRANCH  97  98
ENDBRANCH  71  92
ENDBRANCH  45  46
ENDBRANCH  37  40
ENDBRANCH  35  36
ENDBRANCH   1  35
TORSDOF 18
ENDMDL
MODEL 3
REMARK VINA RESULT:     -11.9      5.658      9.774
REMARK SMILES Cc1cc(C(=O)N[C@@H]2C(=O)N3C(C(=O)NCCCNC(=O)c4ccc(-c5c6nc(c(-c7ccc(S(=O)(=O)[O-])cc7)c7ccc([nH]7)c(-c7ccc(S(=O)(=O)[O-])cc7)c7nc(c(-c8ccc(S(=O)(=O)[O-])cc8)c8ccc5[nH]8)C=C7)C=C6)cc4)=C(CSc4nnc(C)s4)CS[C@H]23)n(C)n1
REMARK SMILES IDX 17 1 16 2 15 3 13 4 14 5 12 7 8 8 9 9 93 10 10 11 11 12
REMARK SMILES IDX 92 13 91 14 82 15 7 16 5 17 6 18 4 20 1 21 2 22 3 23 96 24
REMARK SMILES IDX 94 25 95 26 83 27 84 28 85 29 86 30 90 31 87 32 88 33 89 34
REMARK SMILES IDX 18 35 19 36 20 37 21 39 22 40 23 41 81 42 24 43 80 44 25 45
REMARK SMILES IDX 26 46 27 47 74 48 28 49 79 50 73 51 75 52 29 53 78 54 72 55
REMARK SMILES IDX 71 56 30 58 60 59 41 60 59 61 42 62 45 63 58 64 76 65 43 66
REMARK SMILES IDX 44 67 57 69 77 70 46 71 31 72 32 73 40 74 33 75 39 76 34 77
REMARK SMILES IDX 35 78 36 79 37 80 38 81 61 82 62 83 70 84 63 85 69 86 64 87
REMARK SMILES IDX 65 88 66 89 67 90 68 91 47 92 48 93 56 94 49 95 55 96 50 97
REMARK SMILES IDX 51 98 52 99 53 100 54 101
REMARK H PARENT 15 6 7 19 19 38 75 57 45 68
REMARK Flexibility Score: inf
ROOT
ATOM      1  C   UNL A   1      32.060  30.864  26.797  1.00  0.00     0.042 C 
ENDROOT
BRANCH   1   2
ATOM      2  C   UNL A   1      32.214  29.364  26.559  1.00  0.00     0.118 C 
BRANCH   2   3
ATOM      3  N   UNL A   1      33.341  29.078  25.689  1.00  0.00    -0.351 N 
ATOM      4  C   UNL A   1      33.575  28.352  24.568  1.00  0.00     0.268 C 
ATOM      5  O   UNL A   1      34.669  28.620  24.054  1.00  0.00    -0.268 OA
ATOM      6  H   UNL A   1      34.156  29.536  25.998  1.00  0.00     0.163 HD
BRANCH   4   7
ATOM      7  C   UNL A   1      32.587  27.440  23.814  1.00  0.00     0.111 C 
ATOM      8  C   UNL A   1      32.941  24.026  24.196  1.00  0.00     0.206 C 
ATOM      9  C   UNL A   1      33.146  25.315  25.047  1.00  0.00     0.253 C 
ATOM     10  C   UNL A   1      32.301  25.019  23.191  1.00  0.00     0.181 C 
ATOM     11  O   UNL A   1      33.322  25.524  26.232  1.00  0.00    -0.272 OA
ATOM     12  N   UNL A   1      32.915  26.093  23.942  1.00  0.00    -0.290 N 
ATOM     13  S   UNL A   1      30.493  25.202  23.261  1.00  0.00    -0.129 SA
ATOM     14  C   UNL A   1      30.629  26.740  22.354  1.00  0.00     0.106 C 
ATOM     15  C   UNL A   1      31.401  27.742  23.195  1.00  0.00    -0.020 C 
BRANCH   8  16
ATOM     16  N   UNL A   1      32.121  22.914  24.753  1.00  0.00    -0.336 N 
ATOM     17  C   UNL A   1      32.522  21.793  25.464  1.00  0.00     0.270 C 
ATOM     18  O   UNL A   1      31.646  21.020  25.848  1.00  0.00    -0.268 OA
ATOM     19  H   UNL A   1      31.151  22.985  24.593  1.00  0.00     0.164 HD
BRANCH  17  20
ATOM     20  C   UNL A   1      33.937  21.547  25.654  1.00  0.00     0.126 A 
ATOM     21  C   UNL A   1      37.411  22.619  25.609  1.00  0.00     0.069 C 
ATOM     22  C   UNL A   1      36.128  21.882  25.688  1.00  0.00     0.060 A 
ATOM     23  C   UNL A   1      34.918  22.290  26.293  1.00  0.00     0.059 A 
ATOM     24  N   UNL A   1      35.971  20.725  25.044  1.00  0.00    -0.178 NA
ATOM     25  N   UNL A   1      34.640  20.487  25.120  1.00  0.00    -0.263 N 
ATOM     26  C   UNL A   1      34.160  19.230  24.597  1.00  0.00     0.174 C 
ENDBRANCH  17  20
ENDBRANCH   8  16
BRANCH  15  27
ATOM     27  C   UNL A   1      30.506  28.918  23.515  1.00  0.00     0.111 C 
BRANCH  27  28
ATOM     28  S   UNL A   1      28.840  28.468  23.026  1.00  0.00    -0.089 SA
BRANCH  28  29
ATOM     29  C   UNL A   1      28.032  29.948  22.696  1.00  0.00     0.174 A 
ATOM     30  N   UNL A   1      27.086  30.429  23.469  1.00  0.00    -0.132 NA
ATOM     31  S   UNL A   1      28.811  31.117  21.719  1.00  0.00    -0.091 S 
ATOM     32  N   UNL A   1      27.233  31.801  23.601  1.00  0.00    -0.143 NA
ATOM     33  C   UNL A   1      28.250  32.244  22.885  1.00  0.00     0.115 A 
ATOM     34  C   UNL A   1      29.004  33.495  23.120  1.00  0.00     0.081 C 
ENDBRANCH  28  29
ENDBRANCH  27  28
ENDBRANCH  15  27
ENDBRANCH   4   7
ENDBRANCH   2   3
ENDBRANCH   1   2
BRANCH   1  35
ATOM     35  C   UNL A   1      33.254  31.585  27.386  1.00  0.00     0.118 C 
BRANCH  35  36
ATOM     36  N   UNL A   1      32.946  32.958  27.727  1.00  0.00    -0.352 N 
ATOM     37  C   UNL A   1      33.491  33.777  28.688  1.00  0.00     0.251 C 
ATOM     38  H   UNL A   1      32.234  33.370  27.187  1.00  0.00     0.163 HD
ATOM     39  O   UNL A   1      32.910  34.825  28.959  1.00  0.00    -0.269 OA
BRANCH  37  40
ATOM     40  C   UNL A   1      34.740  33.414  29.409  1.00  0.00     0.039 A 
ATOM     41  C   UNL A   1      34.678  32.425  30.397  1.00  0.00     0.014 A 
ATOM     42  C   UNL A   1      35.954  34.061  29.169  1.00  0.00     0.014 A 
ATOM     43  C   UNL A   1      35.830  32.066  31.104  1.00  0.00     0.010 A 
ATOM     44  C   UNL A   1      37.122  33.621  29.788  1.00  0.00     0.010 A 
ATOM     45  C   UNL A   1      37.071  32.639  30.785  1.00  0.00    -0.014 A 
BRANCH  45  46
ATOM     46  C   UNL A   1      38.312  32.259  31.513  1.00  0.00     0.031 A 
ATOM     47  C   UNL A   1      39.251  31.234  30.925  1.00  0.00     0.074 A 
ATOM     48  C   UNL A   1      38.580  32.808  32.714  1.00  0.00     0.049 A 
ATOM     49  N   UNL A   1      40.358  30.747  31.425  1.00  0.00    -0.248 NA
ATOM     50  C   UNL A   1      38.887  30.665  29.616  1.00  0.00     0.031 C 
ATOM     51  C   UNL A   1      37.739  33.788  33.405  1.00  0.00     0.029 A 
ATOM     52  N   UNL A   1      39.642  32.627  33.567  1.00  0.00    -0.354 N 
ATOM     53  C   UNL A   1      40.812  29.812  30.501  1.00  0.00     0.074 A 
ATOM     54  C   UNL A   1      39.828  29.748  29.444  1.00  0.00     0.031 C 
ATOM     55  C   UNL A   1      38.339  34.157  34.548  1.00  0.00     0.029 A 
ATOM     56  C   UNL A   1      39.579  33.405  34.699  1.00  0.00     0.049 A 
ATOM     57  H   UNL A   1      40.378  31.999  33.383  1.00  0.00     0.167 HD
ATOM     58  C   UNL A   1      41.959  29.091  30.512  1.00  0.00     0.031 A 
ATOM     59  C   UNL A   1      40.425  33.502  35.744  1.00  0.00     0.031 A 
ATOM     60  C   UNL A   1      42.941  29.165  31.560  1.00  0.00     0.049 A 
ATOM     61  C   UNL A   1      41.677  32.669  35.751  1.00  0.00     0.074 A 
ATOM     62  C   UNL A   1      44.152  28.501  31.650  1.00  0.00     0.029 A 
ATOM     63  N   UNL A   1      42.830  29.951  32.697  1.00  0.00    -0.354 N 
ATOM     64  N   UNL A   1      42.105  31.818  34.848  1.00  0.00    -0.248 NA
ATOM     65  C   UNL A   1      42.566  32.819  36.910  1.00  0.00     0.031 C 
ATOM     66  C   UNL A   1      44.746  28.841  32.869  1.00  0.00     0.029 A 
ATOM     67  C   UNL A   1      43.940  29.773  33.504  1.00  0.00     0.049 A 
ATOM     68  H   UNL A   1      42.073  30.547  32.899  1.00  0.00     0.167 HD
ATOM     69  C   UNL A   1      43.329  31.353  35.318  1.00  0.00     0.074 A 
ATOM     70  C   UNL A   1      43.577  32.029  36.575  1.00  0.00     0.031 C 
ATOM     71  C   UNL A   1      44.171  30.450  34.756  1.00  0.00     0.031 A 
BRANCH  58  72
ATOM     72  C   UNL A   1      42.215  28.165  29.349  1.00  0.00    -0.014 A 
ATOM     73  C   UNL A   1      41.584  26.910  29.269  1.00  0.00     0.010 A 
ATOM     74  C   UNL A   1      43.056  28.573  28.297  1.00  0.00     0.010 A 
ATOM     75  C   UNL A   1      41.817  26.066  28.180  1.00  0.00     0.020 A 
ATOM     76  C   UNL A   1      43.265  27.746  27.189  1.00  0.00     0.020 A 
ATOM     77  C   UNL A   1      42.653  26.492  27.145  1.00  0.00     0.054 A 
BRANCH  77  78
ATOM     78  S   UNL A   1      42.901  25.390  25.725  1.00  0.00     0.124 S 
ATOM     79  O   UNL A   1      42.339  24.134  26.215  1.00  0.00    -0.237 OA
ATOM     80  O   UNL A   1      42.136  26.052  24.672  1.00  0.00    -0.237 OA
ATOM     81  O   UNL A   1      44.350  25.389  25.535  1.00  0.00    -0.744 OA
ENDBRANCH  77  78
ENDBRANCH  58  72
BRANCH  59  82
ATOM     82  C   UNL A   1      40.124  34.448  36.855  1.00  0.00    -0.014 A 
ATOM     83  C   UNL A   1      40.611  35.766  36.822  1.00  0.00     0.010 A 
ATOM     84  C   UNL A   1      39.320  34.045  37.938  1.00  0.00     0.010 A 
ATOM     85  C   UNL A   1      40.309  36.661  37.853  1.00  0.00     0.020 A 
ATOM     86  C   UNL A   1      38.990  34.945  38.955  1.00  0.00     0.020 A 
ATOM     87  C   UNL A   1      39.493  36.246  38.908  1.00  0.00     0.054 A 
BRANCH  87  88
ATOM     88  S   UNL A   1      39.059  37.447  40.198  1.00  0.00     0.124 S 
ATOM     89  O   UNL A   1      38.159  38.347  39.486  1.00  0.00    -0.237 OA
ATOM     90  O   UNL A   1      38.439  36.602  41.215  1.00  0.00    -0.237 OA
ATOM     91  O   UNL A   1      40.349  38.021  40.578  1.00  0.00    -0.744 OA
ENDBRANCH  87  88
ENDBRANCH  59  82
BRANCH  71  92
ATOM     92  C   UNL A   1      45.462  30.162  35.477  1.00  0.00    -0.014 A 
ATOM     93  C   UNL A   1      45.557  29.128  36.424  1.00  0.00     0.010 A 
ATOM     94  C   UNL A   1      46.614  30.903  35.151  1.00  0.00     0.010 A 
ATOM     95  C   UNL A   1      46.774  28.862  37.058  1.00  0.00     0.020 A 
ATOM     96  C   UNL A   1      47.840  30.618  35.758  1.00  0.00     0.020 A 
ATOM     97  C   UNL A   1      47.908  29.608  36.719  1.00  0.00     0.054 A 
BRANCH  97  98
ATOM     98  S   UNL A   1      49.483  29.211  37.525  1.00  0.00     0.124 S 
ATOM     99  O   UNL A   1      50.344  30.296  37.062  1.00  0.00    -0.237 OA
ATOM    100  O   UNL A   1      49.134  29.247  38.943  1.00  0.00    -0.237 OA
ATOM    101  O   UNL A   1      49.815  27.887  37.004  1.00  0.00    -0.744 OA
ENDBRANCH  97  98
ENDBRANCH  71  92
ENDBRANCH  45  46
ENDBRANCH  37  40
ENDBRANCH  35  36
ENDBRANCH   1  35
TORSDOF 18
ENDMDL
