MODEL 1
REMARK VINA RESULT:      -9.8      0.000      0.000
REMARK SMILES CS(=O)(=O)c1ccc(C2=NN(c3ccc(C(=O)NCCCNC(=O)c4ccc(-c5c6nc(c(-c7ccc(S(=O)(=O)[O-])cc7)c7ccc([nH]7)c(-c7ccc(S(=O)(=O)[O-])cc7)c7nc(c(-c8ccc(S(=O)(=O)[O-])cc8)c8ccc5[nH]8)C=C7)C=C6)cc4)cc3)[C@H](c3ccc(F)cc3)C2)cc1
REMARK SMILES IDX 20 1 19 2 18 3 16 4 17 5 15 7 12 8 13 9 86 10 14 11 85 12
REMARK SMILES IDX 11 13 9 14 10 15 95 16 87 17 8 18 5 19 6 20 97 21 7 22 96 23
REMARK SMILES IDX 2 24 1 25 3 26 4 27 88 28 89 29 94 30 90 31 93 32 91 33
REMARK SMILES IDX 92 34 21 35 22 36 23 37 24 39 25 40 26 41 84 42 27 43 83 44
REMARK SMILES IDX 28 45 29 46 30 47 77 48 31 49 82 50 76 51 78 52 32 53 81 54
REMARK SMILES IDX 75 55 74 56 33 58 63 59 44 60 62 61 45 62 48 63 61 64 79 65
REMARK SMILES IDX 46 66 47 67 60 69 80 70 49 71 34 72 35 73 43 74 36 75 42 76
REMARK SMILES IDX 37 77 38 78 39 79 40 80 41 81 64 82 65 83 73 84 66 85 72 86
REMARK SMILES IDX 67 87 68 88 69 89 70 90 71 91 50 92 51 93 59 94 52 95 58 96
REMARK SMILES IDX 53 97 54 98 55 99 56 100 57 101
REMARK H PARENT 18 6 22 38 78 57 48 68
REMARK Flexibility Score: inf
ROOT
ATOM      1  C   UNL A   1      41.519  21.778  25.852  1.00  0.00     0.042 C 
ENDROOT
BRANCH   1   2
ATOM      2  C   UNL A   1      42.714  21.340  26.696  1.00  0.00     0.118 C 
BRANCH   2   3
ATOM      3  N   UNL A   1      43.631  20.501  25.942  1.00  0.00    -0.352 N 
ATOM      4  C   UNL A   1      44.874  20.773  25.425  1.00  0.00     0.251 C 
ATOM      5  O   UNL A   1      45.532  19.849  24.949  1.00  0.00    -0.269 OA
ATOM      6  H   UNL A   1      43.307  19.587  25.775  1.00  0.00     0.163 HD
BRANCH   4   7
ATOM      7  C   UNL A   1      45.466  22.130  25.491  1.00  0.00     0.039 A 
ATOM      8  C   UNL A   1      46.466  24.750  25.713  1.00  0.00     0.060 A 
ATOM      9  C   UNL A   1      45.981  24.079  26.839  1.00  0.00     0.029 A 
ATOM     10  C   UNL A   1      46.512  24.069  24.494  1.00  0.00     0.029 A 
ATOM     11  C   UNL A   1      45.491  22.774  26.733  1.00  0.00     0.016 A 
ATOM     12  C   UNL A   1      46.027  22.767  24.383  1.00  0.00     0.016 A 
BRANCH   8  13
ATOM     13  N   UNL A   1      46.884  26.065  25.780  1.00  0.00    -0.257 N 
ATOM     14  C   UNL A   1      46.601  28.123  26.179  1.00  0.00     0.071 C 
ATOM     15  N   UNL A   1      46.206  26.945  26.545  1.00  0.00    -0.176 NA
ATOM     16  C   UNL A   1      47.592  28.150  25.043  1.00  0.00     0.091 C 
ATOM     17  C   UNL A   1      47.925  26.650  24.941  1.00  0.00     0.144 C 
BRANCH  14  18
ATOM     18  C   UNL A   1      46.068  29.347  26.800  1.00  0.00    -0.002 A 
ATOM     19  C   UNL A   1      44.962  31.706  27.774  1.00  0.00     0.067 A 
ATOM     20  C   UNL A   1      44.120  30.657  27.401  1.00  0.00     0.021 A 
ATOM     21  C   UNL A   1      46.353  31.583  27.666  1.00  0.00     0.021 A 
ATOM     22  C   UNL A   1      44.677  29.479  26.903  1.00  0.00     0.011 A 
ATOM     23  C   UNL A   1      46.910  30.392  27.191  1.00  0.00     0.011 A 
BRANCH  19  24
ATOM     24  S   UNL A   1      44.258  33.238  28.338  1.00  0.00     0.175 S 
ATOM     25  C   UNL A   1      44.207  34.255  26.887  1.00  0.00     0.163 C 
ATOM     26  O   UNL A   1      45.195  33.849  29.257  1.00  0.00    -0.224 OA
ATOM     27  O   UNL A   1      42.891  32.949  28.735  1.00  0.00    -0.224 OA
ENDBRANCH  19  24
ENDBRANCH  14  18
BRANCH  17  28
ATOM     28  C   UNL A   1      49.301  26.188  25.420  1.00  0.00    -0.023 A 
ATOM     29  C   UNL A   1      50.491  26.400  24.703  1.00  0.00     0.009 A 
ATOM     30  C   UNL A   1      49.396  25.576  26.690  1.00  0.00     0.009 A 
ATOM     31  C   UNL A   1      51.725  25.996  25.230  1.00  0.00     0.039 A 
ATOM     32  C   UNL A   1      50.629  25.199  27.225  1.00  0.00     0.039 A 
ATOM     33  C   UNL A   1      51.782  25.405  26.485  1.00  0.00     0.123 A 
ATOM     34  F   UNL A   1      52.967  25.038  26.990  1.00  0.00    -0.207 F 
ENDBRANCH  17  28
ENDBRANCH   8  13
ENDBRANCH   4   7
ENDBRANCH   2   3
ENDBRANCH   1   2
BRANCH   1  35
ATOM     35  C   UNL A   1      40.174  21.578  26.542  1.00  0.00     0.118 C 
BRANCH  35  36
ATOM     36  N   UNL A   1      39.073  22.136  25.772  1.00  0.00    -0.352 N 
ATOM     37  C   UNL A   1      38.487  23.375  25.848  1.00  0.00     0.251 C 
ATOM     38  H   UNL A   1      38.690  21.533  25.094  1.00  0.00     0.163 HD
ATOM     39  O   UNL A   1      37.435  23.580  25.249  1.00  0.00    -0.269 OA
BRANCH  37  40
ATOM     40  C   UNL A   1      39.104  24.456  26.652  1.00  0.00     0.039 A 
ATOM     41  C   UNL A   1      39.994  25.335  26.026  1.00  0.00     0.014 A 
ATOM     42  C   UNL A   1      38.844  24.585  28.019  1.00  0.00     0.014 A 
ATOM     43  C   UNL A   1      40.580  26.372  26.759  1.00  0.00     0.010 A 
ATOM     44  C   UNL A   1      39.375  25.660  28.731  1.00  0.00     0.010 A 
ATOM     45  C   UNL A   1      40.252  26.561  28.111  1.00  0.00    -0.014 A 
BRANCH  45  46
ATOM     46  C   UNL A   1      40.819  27.690  28.892  1.00  0.00     0.031 A 
ATOM     47  C   UNL A   1      39.987  28.912  29.173  1.00  0.00     0.074 A 
ATOM     48  C   UNL A   1      42.105  27.643  29.294  1.00  0.00     0.049 A 
ATOM     49  N   UNL A   1      40.328  30.024  29.772  1.00  0.00    -0.248 NA
ATOM     50  C   UNL A   1      38.594  28.892  28.697  1.00  0.00     0.031 C 
ATOM     51  C   UNL A   1      43.028  26.530  29.055  1.00  0.00     0.029 A 
ATOM     52  N   UNL A   1      42.863  28.559  29.980  1.00  0.00    -0.354 N 
ATOM     53  C   UNL A   1      39.205  30.842  29.728  1.00  0.00     0.074 A 
ATOM     54  C   UNL A   1      38.183  30.114  29.007  1.00  0.00     0.031 C 
ATOM     55  C   UNL A   1      44.219  26.821  29.602  1.00  0.00     0.029 A 
ATOM     56  C   UNL A   1      44.158  28.153  30.196  1.00  0.00     0.049 A 
ATOM     57  H   UNL A   1      42.511  29.425  30.289  1.00  0.00     0.167 HD
ATOM     58  C   UNL A   1      39.033  32.079  30.253  1.00  0.00     0.031 A 
ATOM     59  C   UNL A   1      45.188  28.783  30.796  1.00  0.00     0.031 A 
ATOM     60  C   UNL A   1      40.047  32.794  30.981  1.00  0.00     0.049 A 
ATOM     61  C   UNL A   1      44.973  30.157  31.371  1.00  0.00     0.074 A 
ATOM     62  C   UNL A   1      39.953  34.030  31.597  1.00  0.00     0.029 A 
ATOM     63  N   UNL A   1      41.340  32.338  31.195  1.00  0.00    -0.354 N 
ATOM     64  N   UNL A   1      43.885  30.889  31.367  1.00  0.00    -0.248 NA
ATOM     65  C   UNL A   1      46.121  30.782  32.042  1.00  0.00     0.031 C 
ATOM     66  C   UNL A   1      41.202  34.340  32.146  1.00  0.00     0.029 A 
ATOM     67  C   UNL A   1      42.057  33.275  31.918  1.00  0.00     0.049 A 
ATOM     68  H   UNL A   1      41.693  31.476  30.879  1.00  0.00     0.167 HD
ATOM     69  C   UNL A   1      44.208  32.050  32.061  1.00  0.00     0.074 A 
ATOM     70  C   UNL A   1      45.590  31.918  32.477  1.00  0.00     0.031 C 
ATOM     71  C   UNL A   1      43.431  33.127  32.330  1.00  0.00     0.031 A 
BRANCH  58  72
ATOM     72  C   UNL A   1      37.696  32.741  30.050  1.00  0.00    -0.014 A 
ATOM     73  C   UNL A   1      37.435  33.513  28.904  1.00  0.00     0.010 A 
ATOM     74  C   UNL A   1      36.673  32.557  30.998  1.00  0.00     0.010 A 
ATOM     75  C   UNL A   1      36.191  34.125  28.730  1.00  0.00     0.020 A 
ATOM     76  C   UNL A   1      35.417  33.145  30.814  1.00  0.00     0.020 A 
ATOM     77  C   UNL A   1      35.191  33.941  29.689  1.00  0.00     0.054 A 
BRANCH  77  78
ATOM     78  S   UNL A   1      33.579  34.732  29.430  1.00  0.00     0.124 S 
ATOM     79  O   UNL A   1      33.105  34.904  30.801  1.00  0.00    -0.237 OA
ATOM     80  O   UNL A   1      33.934  35.965  28.731  1.00  0.00    -0.237 OA
ATOM     81  O   UNL A   1      32.838  33.759  28.633  1.00  0.00    -0.744 OA
ENDBRANCH  77  78
ENDBRANCH  58  72
BRANCH  59  82
ATOM     82  C   UNL A   1      46.511  28.110  30.898  1.00  0.00    -0.014 A 
ATOM     83  C   UNL A   1      46.869  27.419  32.069  1.00  0.00     0.010 A 
ATOM     84  C   UNL A   1      47.412  28.140  29.818  1.00  0.00     0.010 A 
ATOM     85  C   UNL A   1      48.111  26.784  32.165  1.00  0.00     0.020 A 
ATOM     86  C   UNL A   1      48.644  27.483  29.901  1.00  0.00     0.020 A 
ATOM     87  C   UNL A   1      48.989  26.819  31.079  1.00  0.00     0.054 A 
BRANCH  87  88
ATOM     88  S   UNL A   1      50.572  25.939  31.205  1.00  0.00     0.124 S 
ATOM     89  O   UNL A   1      51.428  26.729  30.327  1.00  0.00    -0.237 OA
ATOM     90  O   UNL A   1      50.872  26.030  32.632  1.00  0.00    -0.237 OA
ATOM     91  O   UNL A   1      50.254  24.595  30.729  1.00  0.00    -0.744 OA
ENDBRANCH  87  88
ENDBRANCH  59  82
BRANCH  71  92
ATOM     92  C   UNL A   1      44.038  34.234  33.150  1.00  0.00    -0.014 A 
ATOM     93  C   UNL A   1      44.655  35.339  32.539  1.00  0.00     0.010 A 
ATOM     94  C   UNL A   1      43.931  34.193  34.552  1.00  0.00     0.010 A 
ATOM     95  C   UNL A   1      45.180  36.372  33.320  1.00  0.00     0.020 A 
ATOM     96  C   UNL A   1      44.431  35.238  35.333  1.00  0.00     0.020 A 
ATOM     97  C   UNL A   1      45.064  36.315  34.713  1.00  0.00     0.054 A 
BRANCH  97  98
ATOM     98  S   UNL A   1      45.706  37.694  35.702  1.00  0.00     0.124 S 
ATOM     99  O   UNL A   1      47.132  37.386  35.763  1.00  0.00    -0.237 OA
ATOM    100  O   UNL A   1      45.348  38.860  34.898  1.00  0.00    -0.237 OA
ATOM    101  O   UNL A   1      44.987  37.575  36.969  1.00  0.00    -0.744 OA
ENDBRANCH  97  98
ENDBRANCH  71  92
ENDBRANCH  45  46
ENDBRANCH  37  40
ENDBRANCH  35  36
ENDBRANCH   1  35
TORSDOF 17
ENDMDL
MODEL 2
REMARK VINA RESULT:      -9.7      4.642     11.616
REMARK SMILES CS(=O)(=O)c1ccc(C2=NN(c3ccc(C(=O)NCCCNC(=O)c4ccc(-c5c6nc(c(-c7ccc(S(=O)(=O)[O-])cc7)c7ccc([nH]7)c(-c7ccc(S(=O)(=O)[O-])cc7)c7nc(c(-c8ccc(S(=O)(=O)[O-])cc8)c8ccc5[nH]8)C=C7)C=C6)cc4)cc3)[C@H](c3ccc(F)cc3)C2)cc1
REMARK SMILES IDX 20 1 19 2 18 3 16 4 17 5 15 7 12 8 13 9 86 10 14 11 85 12
REMARK SMILES IDX 11 13 9 14 10 15 95 16 87 17 8 18 5 19 6 20 97 21 7 22 96 23
REMARK SMILES IDX 2 24 1 25 3 26 4 27 88 28 89 29 94 30 90 31 93 32 91 33
REMARK SMILES IDX 92 34 21 35 22 36 23 37 24 39 25 40 26 41 84 42 27 43 83 44
REMARK SMILES IDX 28 45 29 46 30 47 77 48 31 49 82 50 76 51 78 52 32 53 81 54
REMARK SMILES IDX 75 55 74 56 33 58 63 59 44 60 62 61 45 62 48 63 61 64 79 65
REMARK SMILES IDX 46 66 47 67 60 69 80 70 49 71 34 72 35 73 43 74 36 75 42 76
REMARK SMILES IDX 37 77 38 78 39 79 40 80 41 81 64 82 65 83 73 84 66 85 72 86
REMARK SMILES IDX 67 87 68 88 69 89 70 90 71 91 50 92 51 93 59 94 52 95 58 96
REMARK SMILES IDX 53 97 54 98 55 99 56 100 57 101
REMARK H PARENT 18 6 22 38 78 57 48 68
REMARK Flexibility Score: inf
ROOT
ATOM      1  C   UNL A   1      34.491  33.075  29.357  1.00  0.00     0.042 C 
ENDROOT
BRANCH   1   2
ATOM      2  C   UNL A   1      34.966  34.523  29.451  1.00  0.00     0.118 C 
BRANCH   2   3
ATOM      3  N   UNL A   1      34.048  35.344  30.225  1.00  0.00    -0.352 N 
ATOM      4  C   UNL A   1      33.998  35.604  31.572  1.00  0.00     0.251 C 
ATOM      5  O   UNL A   1      33.213  36.458  31.982  1.00  0.00    -0.269 OA
ATOM      6  H   UNL A   1      33.347  35.787  29.695  1.00  0.00     0.163 HD
BRANCH   4   7
ATOM      7  C   UNL A   1      34.909  34.933  32.530  1.00  0.00     0.039 A 
ATOM      8  C   UNL A   1      36.521  33.675  34.462  1.00  0.00     0.060 A 
ATOM      9  C   UNL A   1      35.167  33.350  34.349  1.00  0.00     0.029 A 
ATOM     10  C   UNL A   1      37.073  34.579  33.551  1.00  0.00     0.029 A 
ATOM     11  C   UNL A   1      34.365  33.967  33.385  1.00  0.00     0.016 A 
ATOM     12  C   UNL A   1      36.279  35.196  32.585  1.00  0.00     0.016 A 
BRANCH   8  13
ATOM     13  N   UNL A   1      37.314  33.135  35.456  1.00  0.00    -0.257 N 
ATOM     14  C   UNL A   1      37.835  32.770  37.473  1.00  0.00     0.071 C 
ATOM     15  N   UNL A   1      36.817  32.983  36.701  1.00  0.00    -0.176 NA
ATOM     16  C   UNL A   1      39.181  32.810  36.796  1.00  0.00     0.091 C 
ATOM     17  C   UNL A   1      38.741  32.856  35.322  1.00  0.00     0.144 C 
BRANCH  14  18
ATOM     18  C   UNL A   1      37.676  32.561  38.922  1.00  0.00    -0.002 A 
ATOM     19  C   UNL A   1      37.604  32.164  41.674  1.00  0.00     0.067 A 
ATOM     20  C   UNL A   1      38.112  33.362  41.167  1.00  0.00     0.021 A 
ATOM     21  C   UNL A   1      37.130  31.164  40.815  1.00  0.00     0.021 A 
ATOM     22  C   UNL A   1      38.157  33.553  39.787  1.00  0.00     0.011 A 
ATOM     23  C   UNL A   1      37.153  31.369  39.432  1.00  0.00     0.011 A 
BRANCH  19  24
ATOM     24  S   UNL A   1      37.614  31.881  43.429  1.00  0.00     0.175 S 
ATOM     25  C   UNL A   1      37.787  30.123  43.586  1.00  0.00     0.163 C 
ATOM     26  O   UNL A   1      36.308  32.232  43.946  1.00  0.00    -0.224 OA
ATOM     27  O   UNL A   1      38.822  32.500  43.946  1.00  0.00    -0.224 OA
ENDBRANCH  19  24
ENDBRANCH  14  18
BRANCH  17  28
ATOM     28  C   UNL A   1      38.950  31.603  34.472  1.00  0.00    -0.023 A 
ATOM     29  C   UNL A   1      40.213  31.070  34.163  1.00  0.00     0.009 A 
ATOM     30  C   UNL A   1      37.809  30.897  34.031  1.00  0.00     0.009 A 
ATOM     31  C   UNL A   1      40.327  29.886  33.423  1.00  0.00     0.039 A 
ATOM     32  C   UNL A   1      37.924  29.703  33.317  1.00  0.00     0.039 A 
ATOM     33  C   UNL A   1      39.184  29.212  33.012  1.00  0.00     0.123 A 
ATOM     34  F   UNL A   1      39.301  28.071  32.321  1.00  0.00    -0.207 F 
ENDBRANCH  17  28
ENDBRANCH   8  13
ENDBRANCH   4   7
ENDBRANCH   2   3
ENDBRANCH   1   2
BRANCH   1  35
ATOM     35  C   UNL A   1      34.497  32.519  27.937  1.00  0.00     0.118 C 
BRANCH  35  36
ATOM     36  N   UNL A   1      33.803  31.243  27.845  1.00  0.00    -0.352 N 
ATOM     37  C   UNL A   1      34.309  29.967  27.827  1.00  0.00     0.251 C 
ATOM     38  H   UNL A   1      32.822  31.304  27.784  1.00  0.00     0.163 HD
ATOM     39  O   UNL A   1      33.570  29.031  27.536  1.00  0.00    -0.269 OA
BRANCH  37  40
ATOM     40  C   UNL A   1      35.735  29.714  28.142  1.00  0.00     0.039 A 
ATOM     41  C   UNL A   1      36.085  29.381  29.454  1.00  0.00     0.014 A 
ATOM     42  C   UNL A   1      36.729  29.840  27.168  1.00  0.00     0.014 A 
ATOM     43  C   UNL A   1      37.421  29.125  29.775  1.00  0.00     0.010 A 
ATOM     44  C   UNL A   1      38.050  29.517  27.473  1.00  0.00     0.010 A 
ATOM     45  C   UNL A   1      38.411  29.162  28.781  1.00  0.00    -0.014 A 
BRANCH  45  46
ATOM     46  C   UNL A   1      39.828  28.836  29.088  1.00  0.00     0.031 A 
ATOM     47  C   UNL A   1      40.730  29.874  29.699  1.00  0.00     0.074 A 
ATOM     48  C   UNL A   1      40.320  27.625  28.757  1.00  0.00     0.049 A 
ATOM     49  N   UNL A   1      42.008  29.801  29.970  1.00  0.00    -0.248 NA
ATOM     50  C   UNL A   1      40.122  31.175  30.026  1.00  0.00     0.031 C 
ATOM     51  C   UNL A   1      39.558  26.543  28.128  1.00  0.00     0.029 A 
ATOM     52  N   UNL A   1      41.583  27.104  28.894  1.00  0.00    -0.354 N 
ATOM     53  C   UNL A   1      42.362  31.045  30.478  1.00  0.00     0.074 A 
ATOM     54  C   UNL A   1      41.173  31.869  30.440  1.00  0.00     0.031 C 
ATOM     55  C   UNL A   1      40.363  25.483  27.953  1.00  0.00     0.029 A 
ATOM     56  C   UNL A   1      41.704  25.820  28.420  1.00  0.00     0.049 A 
ATOM     57  H   UNL A   1      42.330  27.603  29.296  1.00  0.00     0.167 HD
ATOM     58  C   UNL A   1      43.562  31.461  30.950  1.00  0.00     0.031 A 
ATOM     59  C   UNL A   1      42.776  25.005  28.356  1.00  0.00     0.031 A 
ATOM     60  C   UNL A   1      44.739  30.635  30.999  1.00  0.00     0.049 A 
ATOM     61  C   UNL A   1      44.098  25.489  28.885  1.00  0.00     0.074 A 
ATOM     62  C   UNL A   1      45.989  30.948  31.507  1.00  0.00     0.029 A 
ATOM     63  N   UNL A   1      44.814  29.333  30.527  1.00  0.00    -0.354 N 
ATOM     64  N   UNL A   1      44.397  26.651  29.414  1.00  0.00    -0.248 NA
ATOM     65  C   UNL A   1      45.224  24.546  28.821  1.00  0.00     0.031 C 
ATOM     66  C   UNL A   1      46.830  29.850  31.302  1.00  0.00     0.029 A 
ATOM     67  C   UNL A   1      46.092  28.836  30.715  1.00  0.00     0.049 A 
ATOM     68  H   UNL A   1      44.068  28.838  30.118  1.00  0.00     0.167 HD
ATOM     69  C   UNL A   1      45.738  26.569  29.773  1.00  0.00     0.074 A 
ATOM     70  C   UNL A   1      46.189  25.241  29.409  1.00  0.00     0.031 C 
ATOM     71  C   UNL A   1      46.524  27.509  30.353  1.00  0.00     0.031 A 
BRANCH  58  72
ATOM     72  C   UNL A   1      43.662  32.880  31.444  1.00  0.00    -0.014 A 
ATOM     73  C   UNL A   1      43.894  33.945  30.554  1.00  0.00     0.010 A 
ATOM     74  C   UNL A   1      43.482  33.160  32.811  1.00  0.00     0.010 A 
ATOM     75  C   UNL A   1      43.988  35.256  31.027  1.00  0.00     0.020 A 
ATOM     76  C   UNL A   1      43.548  34.474  33.284  1.00  0.00     0.020 A 
ATOM     77  C   UNL A   1      43.819  35.512  32.390  1.00  0.00     0.054 A 
BRANCH  77  78
ATOM     78  S   UNL A   1      43.928  37.226  32.975  1.00  0.00     0.124 S 
ATOM     79  O   UNL A   1      43.805  37.976  31.728  1.00  0.00    -0.237 OA
ATOM     80  O   UNL A   1      42.789  37.329  33.884  1.00  0.00    -0.237 OA
ATOM     81  O   UNL A   1      45.239  37.292  33.615  1.00  0.00    -0.744 OA
ENDBRANCH  77  78
ENDBRANCH  58  72
BRANCH  59  82
ATOM     82  C   UNL A   1      42.635  23.638  27.784  1.00  0.00    -0.014 A 
ATOM     83  C   UNL A   1      42.223  22.566  28.596  1.00  0.00     0.010 A 
ATOM     84  C   UNL A   1      42.893  23.404  26.421  1.00  0.00     0.010 A 
ATOM     85  C   UNL A   1      42.088  21.283  28.059  1.00  0.00     0.020 A 
ATOM     86  C   UNL A   1      42.733  22.127  25.876  1.00  0.00     0.020 A 
ATOM     87  C   UNL A   1      42.342  21.072  26.702  1.00  0.00     0.054 A 
BRANCH  87  88
ATOM     88  S   UNL A   1      42.105  19.409  26.014  1.00  0.00     0.124 S 
ATOM     89  O   UNL A   1      42.984  19.435  24.849  1.00  0.00    -0.237 OA
ATOM     90  O   UNL A   1      42.534  18.547  27.113  1.00  0.00    -0.237 OA
ATOM     91  O   UNL A   1      40.675  19.362  25.720  1.00  0.00    -0.744 OA
ENDBRANCH  87  88
ENDBRANCH  59  82
BRANCH  71  92
ATOM     92  C   UNL A   1      47.944  27.125  30.672  1.00  0.00    -0.014 A 
ATOM     93  C   UNL A   1      48.992  27.394  29.775  1.00  0.00     0.010 A 
ATOM     94  C   UNL A   1      48.238  26.542  31.919  1.00  0.00     0.010 A 
ATOM     95  C   UNL A   1      50.308  27.061  30.109  1.00  0.00     0.020 A 
ATOM     96  C   UNL A   1      49.555  26.233  32.266  1.00  0.00     0.020 A 
ATOM     97  C   UNL A   1      50.581  26.483  31.354  1.00  0.00     0.054 A 
BRANCH  97  98
ATOM     98  S   UNL A   1      52.302  26.108  31.785  1.00  0.00     0.124 S 
ATOM     99  O   UNL A   1      52.211  24.719  32.224  1.00  0.00    -0.237 OA
ATOM    100  O   UNL A   1      53.004  26.324  30.522  1.00  0.00    -0.237 OA
ATOM    101  O   UNL A   1      52.614  27.075  32.836  1.00  0.00    -0.744 OA
ENDBRANCH  97  98
ENDBRANCH  71  92
ENDBRANCH  45  46
ENDBRANCH  37  40
ENDBRANCH  35  36
ENDBRANCH   1  35
TORSDOF 17
ENDMDL
MODEL 3
REMARK VINA RESULT:      -9.6      0.642      7.749
REMARK SMILES CS(=O)(=O)c1ccc(C2=NN(c3ccc(C(=O)NCCCNC(=O)c4ccc(-c5c6nc(c(-c7ccc(S(=O)(=O)[O-])cc7)c7ccc([nH]7)c(-c7ccc(S(=O)(=O)[O-])cc7)c7nc(c(-c8ccc(S(=O)(=O)[O-])cc8)c8ccc5[nH]8)C=C7)C=C6)cc4)cc3)[C@H](c3ccc(F)cc3)C2)cc1
REMARK SMILES IDX 20 1 19 2 18 3 16 4 17 5 15 7 12 8 13 9 86 10 14 11 85 12
REMARK SMILES IDX 11 13 9 14 10 15 95 16 87 17 8 18 5 19 6 20 97 21 7 22 96 23
REMARK SMILES IDX 2 24 1 25 3 26 4 27 88 28 89 29 94 30 90 31 93 32 91 33
REMARK SMILES IDX 92 34 21 35 22 36 23 37 24 39 25 40 26 41 84 42 27 43 83 44
REMARK SMILES IDX 28 45 29 46 30 47 77 48 31 49 82 50 76 51 78 52 32 53 81 54
REMARK SMILES IDX 75 55 74 56 33 58 63 59 44 60 62 61 45 62 48 63 61 64 79 65
REMARK SMILES IDX 46 66 47 67 60 69 80 70 49 71 34 72 35 73 43 74 36 75 42 76
REMARK SMILES IDX 37 77 38 78 39 79 40 80 41 81 64 82 65 83 73 84 66 85 72 86
REMARK SMILES IDX 67 87 68 88 69 89 70 90 71 91 50 92 51 93 59 94 52 95 58 96
REMARK SMILES IDX 53 97 54 98 55 99 56 100 57 101
REMARK H PARENT 18 6 22 38 78 57 48 68
REMARK Flexibility Score: inf
ROOT
ATOM      1  C   UNL A   1      41.860  21.891  26.009  1.00  0.00     0.042 C 
ENDROOT
BRANCH   1   2
ATOM      2  C   UNL A   1      43.119  21.395  26.718  1.00  0.00     0.118 C 
BRANCH   2   3
ATOM      3  N   UNL A   1      43.962  20.606  25.835  1.00  0.00    -0.352 N 
ATOM      4  C   UNL A   1      45.159  20.907  25.235  1.00  0.00     0.251 C 
ATOM      5  O   UNL A   1      45.767  20.016  24.643  1.00  0.00    -0.269 OA
ATOM      6  H   UNL A   1      43.617  19.706  25.634  1.00  0.00     0.163 HD
BRANCH   4   7
ATOM      7  C   UNL A   1      45.767  22.256  25.341  1.00  0.00     0.039 A 
ATOM      8  C   UNL A   1      46.797  24.856  25.642  1.00  0.00     0.060 A 
ATOM      9  C   UNL A   1      46.308  24.155  26.748  1.00  0.00     0.029 A 
ATOM     10  C   UNL A   1      46.832  24.213  24.402  1.00  0.00     0.029 A 
ATOM     11  C   UNL A   1      45.803  22.860  26.602  1.00  0.00     0.016 A 
ATOM     12  C   UNL A   1      46.333  22.920  24.251  1.00  0.00     0.016 A 
BRANCH   8  13
ATOM     13  N   UNL A   1      47.230  26.163  25.748  1.00  0.00    -0.257 N 
ATOM     14  C   UNL A   1      46.965  28.215  26.190  1.00  0.00     0.071 C 
ATOM     15  N   UNL A   1      46.547  27.034  26.520  1.00  0.00    -0.176 NA
ATOM     16  C   UNL A   1      47.981  28.255  25.077  1.00  0.00     0.091 C 
ATOM     17  C   UNL A   1      48.297  26.753  24.946  1.00  0.00     0.144 C 
BRANCH  14  18
ATOM     18  C   UNL A   1      46.434  29.430  26.828  1.00  0.00    -0.002 A 
ATOM     19  C   UNL A   1      45.325  31.773  27.838  1.00  0.00     0.067 A 
ATOM     20  C   UNL A   1      44.487  30.713  27.490  1.00  0.00     0.021 A 
ATOM     21  C   UNL A   1      46.714  31.670  27.687  1.00  0.00     0.021 A 
ATOM     22  C   UNL A   1      45.045  29.544  26.974  1.00  0.00     0.011 A 
ATOM     23  C   UNL A   1      47.273  30.487  27.194  1.00  0.00     0.011 A 
BRANCH  19  24
ATOM     24  S   UNL A   1      44.617  33.295  28.424  1.00  0.00     0.175 S 
ATOM     25  C   UNL A   1      44.709  34.385  27.029  1.00  0.00     0.163 C 
ATOM     26  O   UNL A   1      45.492  33.831  29.445  1.00  0.00    -0.224 OA
ATOM     27  O   UNL A   1      43.216  33.028  28.695  1.00  0.00    -0.224 OA
ENDBRANCH  19  24
ENDBRANCH  14  18
BRANCH  17  28
ATOM     28  C   UNL A   1      49.656  26.262  25.443  1.00  0.00    -0.023 A 
ATOM     29  C   UNL A   1      49.846  25.581  26.658  1.00  0.00     0.009 A 
ATOM     30  C   UNL A   1      50.778  26.438  24.603  1.00  0.00     0.009 A 
ATOM     31  C   UNL A   1      51.114  25.113  27.024  1.00  0.00     0.039 A 
ATOM     32  C   UNL A   1      52.036  25.947  24.958  1.00  0.00     0.039 A 
ATOM     33  C   UNL A   1      52.194  25.295  26.170  1.00  0.00     0.123 A 
ATOM     34  F   UNL A   1      53.400  24.829  26.519  1.00  0.00    -0.207 F 
ENDBRANCH  17  28
ENDBRANCH   8  13
ENDBRANCH   4   7
ENDBRANCH   2   3
ENDBRANCH   1   2
BRANCH   1  35
ATOM     35  C   UNL A   1      40.577  21.652  26.798  1.00  0.00     0.118 C 
BRANCH  35  36
ATOM     36  N   UNL A   1      39.388  21.944  26.013  1.00  0.00    -0.352 N 
ATOM     37  C   UNL A   1      38.616  23.080  25.977  1.00  0.00     0.251 C 
ATOM     38  H   UNL A   1      39.090  21.219  25.417  1.00  0.00     0.163 HD
ATOM     39  O   UNL A   1      37.533  23.051  25.399  1.00  0.00    -0.269 OA
BRANCH  37  40
ATOM     40  C   UNL A   1      39.070  24.325  26.638  1.00  0.00     0.039 A 
ATOM     41  C   UNL A   1      38.648  24.584  27.946  1.00  0.00     0.014 A 
ATOM     42  C   UNL A   1      39.872  25.254  25.969  1.00  0.00     0.014 A 
ATOM     43  C   UNL A   1      39.073  25.746  28.598  1.00  0.00     0.010 A 
ATOM     44  C   UNL A   1      40.350  26.376  26.644  1.00  0.00     0.010 A 
ATOM     45  C   UNL A   1      39.952  26.637  27.963  1.00  0.00    -0.014 A 
BRANCH  45  46
ATOM     46  C   UNL A   1      40.461  27.847  28.658  1.00  0.00     0.031 A 
ATOM     47  C   UNL A   1      41.860  27.872  29.213  1.00  0.00     0.074 A 
ATOM     48  C   UNL A   1      39.641  28.901  28.847  1.00  0.00     0.049 A 
ATOM     49  N   UNL A   1      42.454  28.805  29.911  1.00  0.00    -0.248 NA
ATOM     50  C   UNL A   1      42.692  26.682  28.972  1.00  0.00     0.031 C 
ATOM     51  C   UNL A   1      38.252  28.988  28.389  1.00  0.00     0.029 A 
ATOM     52  N   UNL A   1      39.855  30.098  29.484  1.00  0.00    -0.354 N 
ATOM     53  C   UNL A   1      43.718  28.310  30.210  1.00  0.00     0.074 A 
ATOM     54  C   UNL A   1      43.791  26.977  29.653  1.00  0.00     0.031 C 
ATOM     55  C   UNL A   1      37.747  30.180  28.742  1.00  0.00     0.029 A 
ATOM     56  C   UNL A   1      38.757  30.927  29.484  1.00  0.00     0.049 A 
ATOM     57  H   UNL A   1      40.713  30.340  29.901  1.00  0.00     0.167 HD
ATOM     58  C   UNL A   1      44.732  28.915  30.874  1.00  0.00     0.031 A 
ATOM     59  C   UNL A   1      38.579  32.148  30.027  1.00  0.00     0.031 A 
ATOM     60  C   UNL A   1      44.662  30.247  31.416  1.00  0.00     0.049 A 
ATOM     61  C   UNL A   1      39.720  32.798  30.760  1.00  0.00     0.074 A 
ATOM     62  C   UNL A   1      45.654  30.967  32.059  1.00  0.00     0.029 A 
ATOM     63  N   UNL A   1      43.539  31.060  31.375  1.00  0.00    -0.354 N 
ATOM     64  N   UNL A   1      40.926  32.335  30.982  1.00  0.00    -0.248 NA
ATOM     65  C   UNL A   1      39.478  34.143  31.303  1.00  0.00     0.031 C 
ATOM     66  C   UNL A   1      45.116  32.199  32.446  1.00  0.00     0.029 A 
ATOM     67  C   UNL A   1      43.807  32.267  31.998  1.00  0.00     0.049 A 
ATOM     68  H   UNL A   1      42.678  30.813  30.965  1.00  0.00     0.167 HD
ATOM     69  C   UNL A   1      41.598  33.342  31.666  1.00  0.00     0.074 A 
ATOM     70  C   UNL A   1      40.666  34.442  31.812  1.00  0.00     0.031 C 
ATOM     71  C   UNL A   1      42.871  33.355  32.130  1.00  0.00     0.031 A 
BRANCH  58  72
ATOM     72  C   UNL A   1      46.007  28.135  31.058  1.00  0.00    -0.014 A 
ATOM     73  C   UNL A   1      47.047  28.210  30.115  1.00  0.00     0.010 A 
ATOM     74  C   UNL A   1      46.184  27.344  32.209  1.00  0.00     0.010 A 
ATOM     75  C   UNL A   1      48.223  27.477  30.296  1.00  0.00     0.020 A 
ATOM     76  C   UNL A   1      47.371  26.632  32.408  1.00  0.00     0.020 A 
ATOM     77  C   UNL A   1      48.376  26.688  31.439  1.00  0.00     0.054 A 
BRANCH  77  78
ATOM     78  S   UNL A   1      49.919  25.762  31.658  1.00  0.00     0.124 S 
ATOM     79  O   UNL A   1      49.597  24.906  32.798  1.00  0.00    -0.237 OA
ATOM     80  O   UNL A   1      50.066  25.072  30.378  1.00  0.00    -0.237 OA
ATOM     81  O   UNL A   1      50.914  26.799  31.920  1.00  0.00    -0.744 OA
ENDBRANCH  77  78
ENDBRANCH  58  72
BRANCH  59  82
ATOM     82  C   UNL A   1      37.269  32.840  29.880  1.00  0.00    -0.014 A 
ATOM     83  C   UNL A   1      36.326  32.807  30.922  1.00  0.00     0.010 A 
ATOM     84  C   UNL A   1      36.966  33.550  28.704  1.00  0.00     0.010 A 
ATOM     85  C   UNL A   1      35.097  33.459  30.785  1.00  0.00     0.020 A 
ATOM     86  C   UNL A   1      35.749  34.225  28.575  1.00  0.00     0.020 A 
ATOM     87  C   UNL A   1      34.817  34.165  29.613  1.00  0.00     0.054 A 
BRANCH  87  88
ATOM     88  S   UNL A   1      33.239  35.051  29.480  1.00  0.00     0.124 S 
ATOM     89  O   UNL A   1      32.697  34.910  30.828  1.00  0.00    -0.237 OA
ATOM     90  O   UNL A   1      33.662  36.398  29.105  1.00  0.00    -0.237 OA
ATOM     91  O   UNL A   1      32.524  34.319  28.437  1.00  0.00    -0.744 OA
ENDBRANCH  87  88
ENDBRANCH  59  82
BRANCH  71  92
ATOM     92  C   UNL A   1      43.353  34.613  32.801  1.00  0.00    -0.014 A 
ATOM     93  C   UNL A   1      44.061  35.595  32.088  1.00  0.00     0.010 A 
ATOM     94  C   UNL A   1      43.036  34.839  34.153  1.00  0.00     0.010 A 
ATOM     95  C   UNL A   1      44.467  36.772  32.724  1.00  0.00     0.020 A 
ATOM     96  C   UNL A   1      43.418  36.026  34.784  1.00  0.00     0.020 A 
ATOM     97  C   UNL A   1      44.142  36.979  34.069  1.00  0.00     0.054 A 
BRANCH  97  98
ATOM     98  S   UNL A   1      44.635  38.537  34.857  1.00  0.00     0.124 S 
ATOM     99  O   UNL A   1      43.530  39.421  34.502  1.00  0.00    -0.237 OA
ATOM    100  O   UNL A   1      44.719  38.170  36.269  1.00  0.00    -0.237 OA
ATOM    101  O   UNL A   1      45.916  38.853  34.226  1.00  0.00    -0.744 OA
ENDBRANCH  97  98
ENDBRANCH  71  92
ENDBRANCH  45  46
ENDBRANCH  37  40
ENDBRANCH  35  36
ENDBRANCH   1  35
TORSDOF 17
ENDMDL
