MODEL 1
REMARK VINA RESULT:     -11.1      0.000      0.000
REMARK SMILES C[C@@H](C(=O)NCCCNC(=O)c1ccc(-c2c3nc(c(-c4ccc(S(=O)(=O)[O-])cc4)c4ccc([nH]4)c(-c4ccc(S(=O)(=O)[O-])cc4)c4nc(c(-c5ccc(S(=O)(=O)[O-])cc5)c5ccc2[nH]5)C=C4)C=C3)cc1)c1ccc(C[C@@H]2CCC[C@@H]2O)cc1Br
REMARK SMILES IDX 6 1 5 2 3 3 4 4 2 6 1 7 72 8 73 9 84 10 74 11 83 12 85 13
REMARK SMILES IDX 75 14 76 15 77 16 78 17 81 18 79 19 80 20 82 21 7 23 8 24
REMARK SMILES IDX 9 25 10 26 11 28 12 29 13 30 71 31 14 32 70 33 15 34 16 35
REMARK SMILES IDX 17 36 64 37 18 38 69 39 63 40 65 41 19 42 68 43 62 44 61 45
REMARK SMILES IDX 20 47 50 48 31 49 49 50 32 51 35 52 48 53 66 54 33 55 34 56
REMARK SMILES IDX 47 58 67 59 36 60 21 61 22 62 30 63 23 64 29 65 24 66 25 67
REMARK SMILES IDX 26 68 27 69 28 70 51 71 52 72 60 73 53 74 59 75 54 76 55 77
REMARK SMILES IDX 56 78 57 79 58 80 37 81 38 82 46 83 39 84 45 85 40 86 41 87
REMARK SMILES IDX 42 88 43 89 44 90
REMARK H PARENT 5 5 82 22 9 27 65 46 35 57
REMARK Flexibility Score: inf
ROOT
ATOM      1  C   UNL A   1      31.797  27.977  26.840  1.00  0.00     0.117 C 
ENDROOT
BRANCH   1   2
ATOM      2  N   UNL A   1      31.038  26.751  26.994  1.00  0.00    -0.356 N 
ATOM      3  C   UNL A   1      30.842  25.709  26.137  1.00  0.00     0.227 C 
ATOM      4  O   UNL A   1      30.415  24.671  26.647  1.00  0.00    -0.274 OA
ATOM      5  H   UNL A   1      30.587  26.655  27.865  1.00  0.00     0.163 HD
BRANCH   3   6
ATOM      6  C   UNL A   1      31.242  25.816  24.655  1.00  0.00     0.106 C 
ATOM      7  C   UNL A   1      30.204  26.451  23.725  1.00  0.00     0.023 C 
BRANCH   6   8
ATOM      8  C   UNL A   1      31.692  24.486  24.040  1.00  0.00    -0.022 A 
ATOM      9  C   UNL A   1      30.701  23.700  23.414  1.00  0.00     0.006 A 
ATOM     10  C   UNL A   1      32.991  23.952  24.125  1.00  0.00     0.022 A 
ATOM     11  C   UNL A   1      30.979  22.416  22.939  1.00  0.00     0.004 A 
ATOM     12  C   UNL A   1      33.268  22.675  23.617  1.00  0.00     0.019 A 
ATOM     13  Br  UNL A   1      34.450  24.817  24.988  1.00  0.00    -0.051 Br
ATOM     14  C   UNL A   1      32.258  21.875  23.072  1.00  0.00    -0.047 A 
BRANCH  14  15
ATOM     15  C   UNL A   1      32.548  20.447  22.686  1.00  0.00     0.041 C 
BRANCH  15  16
ATOM     16  C   UNL A   1      32.428  19.371  23.793  1.00  0.00     0.022 C 
ATOM     17  C   UNL A   1      33.536  19.403  24.852  1.00  0.00     0.007 C 
ATOM     18  C   UNL A   1      32.428  17.902  23.356  1.00  0.00     0.117 C 
ATOM     19  C   UNL A   1      34.529  18.295  24.489  1.00  0.00     0.003 C 
ATOM     20  C   UNL A   1      33.894  17.482  23.367  1.00  0.00     0.032 C 
BRANCH  18  21
ATOM     21  O   UNL A   1      31.777  17.688  22.120  1.00  0.00    -0.393 OA
ATOM     22  H   UNL A   1      32.242  16.995  21.626  1.00  0.00     0.210 HD
ENDBRANCH  18  21
ENDBRANCH  15  16
ENDBRANCH  14  15
ENDBRANCH   6   8
ENDBRANCH   3   6
ENDBRANCH   1   2
BRANCH   1  23
ATOM     23  C   UNL A   1      33.299  27.739  26.721  1.00  0.00     0.042 C 
BRANCH  23  24
ATOM     24  C   UNL A   1      34.100  28.921  26.181  1.00  0.00     0.118 C 
BRANCH  24  25
ATOM     25  N   UNL A   1      33.888  30.146  26.935  1.00  0.00    -0.352 N 
ATOM     26  C   UNL A   1      34.653  30.748  27.904  1.00  0.00     0.251 C 
ATOM     27  H   UNL A   1      33.057  30.624  26.714  1.00  0.00     0.163 HD
ATOM     28  O   UNL A   1      34.183  31.706  28.515  1.00  0.00    -0.269 OA
BRANCH  26  29
ATOM     29  C   UNL A   1      36.009  30.255  28.238  1.00  0.00     0.039 A 
ATOM     30  C   UNL A   1      37.010  30.365  27.268  1.00  0.00     0.014 A 
ATOM     31  C   UNL A   1      36.299  29.643  29.461  1.00  0.00     0.014 A 
ATOM     32  C   UNL A   1      38.304  29.915  27.543  1.00  0.00     0.010 A 
ATOM     33  C   UNL A   1      37.607  29.262  29.762  1.00  0.00     0.010 A 
ATOM     34  C   UNL A   1      38.624  29.387  28.804  1.00  0.00    -0.014 A 
BRANCH  34  35
ATOM     35  C   UNL A   1      40.016  28.975  29.122  1.00  0.00     0.031 A 
ATOM     36  C   UNL A   1      40.963  29.923  29.810  1.00  0.00     0.074 A 
ATOM     37  C   UNL A   1      40.440  27.746  28.764  1.00  0.00     0.049 A 
ATOM     38  N   UNL A   1      42.203  29.723  30.178  1.00  0.00    -0.248 NA
ATOM     39  C   UNL A   1      40.461  31.275  30.103  1.00  0.00     0.031 C 
ATOM     40  C   UNL A   1      39.639  26.752  28.044  1.00  0.00     0.029 A 
ATOM     41  N   UNL A   1      41.647  27.123  28.956  1.00  0.00    -0.354 N 
ATOM     42  C   UNL A   1      42.632  30.922  30.737  1.00  0.00     0.074 A 
ATOM     43  C   UNL A   1      41.536  31.858  30.612  1.00  0.00     0.031 C 
ATOM     44  C   UNL A   1      40.365  25.632  27.889  1.00  0.00     0.029 A 
ATOM     45  C   UNL A   1      41.688  25.838  28.467  1.00  0.00     0.049 A 
ATOM     46  H   UNL A   1      42.411  27.554  29.403  1.00  0.00     0.167 HD
ATOM     47  C   UNL A   1      43.820  31.214  31.321  1.00  0.00     0.031 A 
ATOM     48  C   UNL A   1      42.677  24.923  28.485  1.00  0.00     0.031 A 
ATOM     49  C   UNL A   1      44.908  30.280  31.451  1.00  0.00     0.049 A 
ATOM     50  C   UNL A   1      43.981  25.263  29.153  1.00  0.00     0.074 A 
ATOM     51  C   UNL A   1      46.133  30.466  32.071  1.00  0.00     0.029 A 
ATOM     52  N   UNL A   1      44.906  28.986  30.955  1.00  0.00    -0.354 N 
ATOM     53  N   UNL A   1      44.340  26.382  29.736  1.00  0.00    -0.248 NA
ATOM     54  C   UNL A   1      45.003  24.209  29.182  1.00  0.00     0.031 C 
ATOM     55  C   UNL A   1      46.886  29.296  31.911  1.00  0.00     0.029 A 
ATOM     56  C   UNL A   1      46.112  28.366  31.238  1.00  0.00     0.049 A 
ATOM     57  H   UNL A   1      44.156  28.568  30.472  1.00  0.00     0.167 HD
ATOM     58  C   UNL A   1      45.626  26.160  30.217  1.00  0.00     0.074 A 
ATOM     59  C   UNL A   1      45.969  24.794  29.878  1.00  0.00     0.031 C 
ATOM     60  C   UNL A   1      46.446  27.011  30.882  1.00  0.00     0.031 A 
BRANCH  47  61
ATOM     61  C   UNL A   1      44.001  32.606  31.867  1.00  0.00    -0.014 A 
ATOM     62  C   UNL A   1      43.645  32.916  33.193  1.00  0.00     0.010 A 
ATOM     63  C   UNL A   1      44.565  33.610  31.059  1.00  0.00     0.010 A 
ATOM     64  C   UNL A   1      43.807  34.213  33.686  1.00  0.00     0.020 A 
ATOM     65  C   UNL A   1      44.754  34.903  31.558  1.00  0.00     0.020 A 
ATOM     66  C   UNL A   1      44.357  35.200  32.863  1.00  0.00     0.054 A 
BRANCH  66  67
ATOM     67  S   UNL A   1      44.571  36.872  33.534  1.00  0.00     0.124 S 
ATOM     68  O   UNL A   1      44.134  37.703  32.415  1.00  0.00    -0.237 OA
ATOM     69  O   UNL A   1      43.685  36.868  34.696  1.00  0.00    -0.237 OA
ATOM     70  O   UNL A   1      45.997  36.941  33.843  1.00  0.00    -0.744 OA
ENDBRANCH  66  67
ENDBRANCH  47  61
BRANCH  48  71
ATOM     71  C   UNL A   1      42.457  23.585  27.874  1.00  0.00    -0.014 A 
ATOM     72  C   UNL A   1      42.922  23.306  26.577  1.00  0.00     0.010 A 
ATOM     73  C   UNL A   1      41.796  22.575  28.597  1.00  0.00     0.010 A 
ATOM     74  C   UNL A   1      42.718  22.046  26.008  1.00  0.00     0.020 A 
ATOM     75  C   UNL A   1      41.614  21.305  28.041  1.00  0.00     0.020 A 
ATOM     76  C   UNL A   1      42.067  21.052  26.744  1.00  0.00     0.054 A 
BRANCH  76  77
ATOM     77  S   UNL A   1      41.868  19.404  26.012  1.00  0.00     0.124 S 
ATOM     78  O   UNL A   1      42.723  19.492  24.832  1.00  0.00    -0.237 OA
ATOM     79  O   UNL A   1      42.346  18.524  27.075  1.00  0.00    -0.237 OA
ATOM     80  O   UNL A   1      40.434  19.322  25.743  1.00  0.00    -0.744 OA
ENDBRANCH  76  77
ENDBRANCH  48  71
BRANCH  60  81
ATOM     81  C   UNL A   1      47.790  26.478  31.301  1.00  0.00    -0.014 A 
ATOM     82  C   UNL A   1      47.968  25.852  32.547  1.00  0.00     0.010 A 
ATOM     83  C   UNL A   1      48.885  26.584  30.424  1.00  0.00     0.010 A 
ATOM     84  C   UNL A   1      49.228  25.383  32.929  1.00  0.00     0.020 A 
ATOM     85  C   UNL A   1      50.141  26.093  30.792  1.00  0.00     0.020 A 
ATOM     86  C   UNL A   1      50.308  25.513  32.050  1.00  0.00     0.054 A 
BRANCH  86  87
ATOM     87  S   UNL A   1      51.931  24.882  32.559  1.00  0.00     0.124 S 
ATOM     88  O   UNL A   1      52.041  25.396  33.922  1.00  0.00    -0.237 OA
ATOM     89  O   UNL A   1      51.765  23.435  32.445  1.00  0.00    -0.237 OA
ATOM     90  O   UNL A   1      52.850  25.476  31.593  1.00  0.00    -0.744 OA
ENDBRANCH  86  87
ENDBRANCH  60  81
ENDBRANCH  34  35
ENDBRANCH  26  29
ENDBRANCH  24  25
ENDBRANCH  23  24
ENDBRANCH   1  23
TORSDOF 17
ENDMDL
MODEL 2
REMARK VINA RESULT:     -11.0      2.610      8.868
REMARK SMILES C[C@@H](C(=O)NCCCNC(=O)c1ccc(-c2c3nc(c(-c4ccc(S(=O)(=O)[O-])cc4)c4ccc([nH]4)c(-c4ccc(S(=O)(=O)[O-])cc4)c4nc(c(-c5ccc(S(=O)(=O)[O-])cc5)c5ccc2[nH]5)C=C4)C=C3)cc1)c1ccc(C[C@@H]2CCC[C@@H]2O)cc1Br
REMARK SMILES IDX 6 1 5 2 3 3 4 4 2 6 1 7 72 8 73 9 84 10 74 11 83 12 85 13
REMARK SMILES IDX 75 14 76 15 77 16 78 17 81 18 79 19 80 20 82 21 7 23 8 24
REMARK SMILES IDX 9 25 10 26 11 28 12 29 13 30 71 31 14 32 70 33 15 34 16 35
REMARK SMILES IDX 17 36 64 37 18 38 69 39 63 40 65 41 19 42 68 43 62 44 61 45
REMARK SMILES IDX 20 47 50 48 31 49 49 50 32 51 35 52 48 53 66 54 33 55 34 56
REMARK SMILES IDX 47 58 67 59 36 60 21 61 22 62 30 63 23 64 29 65 24 66 25 67
REMARK SMILES IDX 26 68 27 69 28 70 51 71 52 72 60 73 53 74 59 75 54 76 55 77
REMARK SMILES IDX 56 78 57 79 58 80 37 81 38 82 46 83 39 84 45 85 40 86 41 87
REMARK SMILES IDX 42 88 43 89 44 90
REMARK H PARENT 5 5 82 22 9 27 65 46 35 57
REMARK Flexibility Score: inf
ROOT
ATOM      1  C   UNL A   1      34.704  25.173  25.147  1.00  0.00     0.117 C 
ENDROOT
BRANCH   1   2
ATOM      2  N   UNL A   1      33.752  25.635  26.139  1.00  0.00    -0.356 N 
ATOM      3  C   UNL A   1      32.393  25.729  26.095  1.00  0.00     0.227 C 
ATOM      4  O   UNL A   1      31.831  25.859  27.185  1.00  0.00    -0.274 OA
ATOM      5  H   UNL A   1      34.157  25.931  26.987  1.00  0.00     0.163 HD
BRANCH   3   6
ATOM      6  C   UNL A   1      31.629  25.570  24.769  1.00  0.00     0.106 C 
ATOM      7  C   UNL A   1      30.136  25.908  24.811  1.00  0.00     0.023 C 
BRANCH   6   8
ATOM      8  C   UNL A   1      31.794  24.189  24.124  1.00  0.00    -0.022 A 
ATOM      9  C   UNL A   1      31.517  23.066  24.931  1.00  0.00     0.006 A 
ATOM     10  C   UNL A   1      32.279  23.954  22.824  1.00  0.00     0.022 A 
ATOM     11  C   UNL A   1      31.760  21.766  24.482  1.00  0.00     0.004 A 
ATOM     12  C   UNL A   1      32.491  22.645  22.371  1.00  0.00     0.019 A 
ATOM     13  Br  UNL A   1      32.778  25.327  21.604  1.00  0.00    -0.051 Br
ATOM     14  C   UNL A   1      32.288  21.544  23.210  1.00  0.00    -0.047 A 
BRANCH  14  15
ATOM     15  C   UNL A   1      32.680  20.162  22.754  1.00  0.00     0.041 C 
BRANCH  15  16
ATOM     16  C   UNL A   1      32.584  19.016  23.790  1.00  0.00     0.022 C 
ATOM     17  C   UNL A   1      33.762  18.923  24.767  1.00  0.00     0.007 C 
ATOM     18  C   UNL A   1      32.482  17.584  23.256  1.00  0.00     0.117 C 
ATOM     19  C   UNL A   1      34.672  17.802  24.260  1.00  0.00     0.003 C 
ATOM     20  C   UNL A   1      33.923  17.100  23.134  1.00  0.00     0.032 C 
BRANCH  18  21
ATOM     21  O   UNL A   1      31.738  17.486  22.058  1.00  0.00    -0.393 OA
ATOM     22  H   UNL A   1      31.577  16.552  21.853  1.00  0.00     0.210 HD
ENDBRANCH  18  21
ENDBRANCH  15  16
ENDBRANCH  14  15
ENDBRANCH   6   8
ENDBRANCH   3   6
ENDBRANCH   1   2
BRANCH   1  23
ATOM     23  C   UNL A   1      35.618  24.066  25.664  1.00  0.00     0.042 C 
BRANCH  23  24
ATOM     24  C   UNL A   1      36.915  23.880  24.881  1.00  0.00     0.118 C 
BRANCH  24  25
ATOM     25  N   UNL A   1      37.767  22.837  25.429  1.00  0.00    -0.352 N 
ATOM     26  C   UNL A   1      38.861  22.912  26.255  1.00  0.00     0.251 C 
ATOM     27  H   UNL A   1      37.516  21.923  25.163  1.00  0.00     0.163 HD
ATOM     28  O   UNL A   1      39.518  21.894  26.457  1.00  0.00    -0.269 OA
BRANCH  26  29
ATOM     29  C   UNL A   1      39.272  24.190  26.884  1.00  0.00     0.039 A 
ATOM     30  C   UNL A   1      38.837  24.455  28.186  1.00  0.00     0.014 A 
ATOM     31  C   UNL A   1      40.026  25.147  26.200  1.00  0.00     0.014 A 
ATOM     32  C   UNL A   1      39.204  25.647  28.817  1.00  0.00     0.010 A 
ATOM     33  C   UNL A   1      40.453  26.302  26.855  1.00  0.00     0.010 A 
ATOM     34  C   UNL A   1      40.042  26.569  28.169  1.00  0.00    -0.014 A 
BRANCH  34  35
ATOM     35  C   UNL A   1      40.491  27.803  28.866  1.00  0.00     0.031 A 
ATOM     36  C   UNL A   1      41.875  27.897  29.452  1.00  0.00     0.074 A 
ATOM     37  C   UNL A   1      39.636  28.838  28.995  1.00  0.00     0.049 A 
ATOM     38  N   UNL A   1      42.438  28.902  30.075  1.00  0.00    -0.248 NA
ATOM     39  C   UNL A   1      42.730  26.704  29.344  1.00  0.00     0.031 C 
ATOM     40  C   UNL A   1      38.250  28.854  28.520  1.00  0.00     0.029 A 
ATOM     41  N   UNL A   1      39.806  30.075  29.563  1.00  0.00    -0.354 N 
ATOM     42  C   UNL A   1      43.705  28.461  30.441  1.00  0.00     0.074 A 
ATOM     43  C   UNL A   1      43.809  27.083  30.014  1.00  0.00     0.031 C 
ATOM     44  C   UNL A   1      37.709  30.055  28.784  1.00  0.00     0.029 A 
ATOM     45  C   UNL A   1      38.695  30.880  29.473  1.00  0.00     0.049 A 
ATOM     46  H   UNL A   1      40.644  30.360  29.993  1.00  0.00     0.167 HD
ATOM     47  C   UNL A   1      44.702  29.146  31.054  1.00  0.00     0.031 A 
ATOM     48  C   UNL A   1      38.491  32.145  29.891  1.00  0.00     0.031 A 
ATOM     49  C   UNL A   1      44.601  30.520  31.472  1.00  0.00     0.049 A 
ATOM     50  C   UNL A   1      39.615  32.890  30.555  1.00  0.00     0.074 A 
ATOM     51  C   UNL A   1      45.572  31.315  32.058  1.00  0.00     0.029 A 
ATOM     52  N   UNL A   1      43.464  31.304  31.351  1.00  0.00    -0.354 N 
ATOM     53  N   UNL A   1      40.829  32.475  30.829  1.00  0.00    -0.248 NA
ATOM     54  C   UNL A   1      39.346  34.280  30.947  1.00  0.00     0.031 C 
ATOM     55  C   UNL A   1      45.007  32.568  32.329  1.00  0.00     0.029 A 
ATOM     56  C   UNL A   1      43.701  32.568  31.866  1.00  0.00     0.049 A 
ATOM     57  H   UNL A   1      42.612  31.005  30.957  1.00  0.00     0.167 HD
ATOM     58  C   UNL A   1      41.475  33.560  31.411  1.00  0.00     0.074 A 
ATOM     59  C   UNL A   1      40.525  34.654  31.426  1.00  0.00     0.031 C 
ATOM     60  C   UNL A   1      42.743  33.643  31.887  1.00  0.00     0.031 A 
BRANCH  47  61
ATOM     61  C   UNL A   1      45.992  28.413  31.308  1.00  0.00    -0.014 A 
ATOM     62  C   UNL A   1      46.195  27.694  32.501  1.00  0.00     0.010 A 
ATOM     63  C   UNL A   1      47.004  28.411  30.329  1.00  0.00     0.010 A 
ATOM     64  C   UNL A   1      47.400  27.025  32.730  1.00  0.00     0.020 A 
ATOM     65  C   UNL A   1      48.201  27.720  30.544  1.00  0.00     0.020 A 
ATOM     66  C   UNL A   1      48.398  27.047  31.751  1.00  0.00     0.054 A 
BRANCH  66  67
ATOM     67  S   UNL A   1      49.947  26.157  32.069  1.00  0.00     0.124 S 
ATOM     68  O   UNL A   1      49.478  24.782  32.218  1.00  0.00    -0.237 OA
ATOM     69  O   UNL A   1      50.726  26.427  30.863  1.00  0.00    -0.237 OA
ATOM     70  O   UNL A   1      50.458  26.777  33.289  1.00  0.00    -0.744 OA
ENDBRANCH  66  67
ENDBRANCH  47  61
BRANCH  48  71
ATOM     71  C   UNL A   1      37.171  32.794  29.665  1.00  0.00    -0.014 A 
ATOM     72  C   UNL A   1      36.153  32.700  30.631  1.00  0.00     0.010 A 
ATOM     73  C   UNL A   1      36.933  33.526  28.489  1.00  0.00     0.010 A 
ATOM     74  C   UNL A   1      34.917  33.316  30.419  1.00  0.00     0.020 A 
ATOM     75  C   UNL A   1      35.707  34.165  28.284  1.00  0.00     0.020 A 
ATOM     76  C   UNL A   1      34.702  34.047  29.247  1.00  0.00     0.054 A 
BRANCH  76  77
ATOM     77  S   UNL A   1      33.112  34.891  29.018  1.00  0.00     0.124 S 
ATOM     78  O   UNL A   1      32.447  34.025  28.049  1.00  0.00    -0.237 OA
ATOM     79  O   UNL A   1      32.551  34.882  30.366  1.00  0.00    -0.237 OA
ATOM     80  O   UNL A   1      33.496  36.210  28.520  1.00  0.00    -0.744 OA
ENDBRANCH  76  77
ENDBRANCH  48  71
BRANCH  60  81
ATOM     81  C   UNL A   1      43.178  34.970  32.449  1.00  0.00    -0.014 A 
ATOM     82  C   UNL A   1      43.729  35.965  31.621  1.00  0.00     0.010 A 
ATOM     83  C   UNL A   1      43.010  35.235  33.820  1.00  0.00     0.010 A 
ATOM     84  C   UNL A   1      44.148  37.183  32.163  1.00  0.00     0.020 A 
ATOM     85  C   UNL A   1      43.403  36.462  34.361  1.00  0.00     0.020 A 
ATOM     86  C   UNL A   1      43.987  37.420  33.532  1.00  0.00     0.054 A 
BRANCH  86  87
ATOM     87  S   UNL A   1      44.522  39.014  34.212  1.00  0.00     0.124 S 
ATOM     88  O   UNL A   1      44.198  38.863  35.628  1.00  0.00    -0.237 OA
ATOM     89  O   UNL A   1      45.948  39.040  33.892  1.00  0.00    -0.237 OA
ATOM     90  O   UNL A   1      43.710  39.989  33.487  1.00  0.00    -0.744 OA
ENDBRANCH  86  87
ENDBRANCH  60  81
ENDBRANCH  34  35
ENDBRANCH  26  29
ENDBRANCH  24  25
ENDBRANCH  23  24
ENDBRANCH   1  23
TORSDOF 17
ENDMDL
MODEL 3
REMARK VINA RESULT:     -11.0      1.471      2.114
REMARK SMILES C[C@@H](C(=O)NCCCNC(=O)c1ccc(-c2c3nc(c(-c4ccc(S(=O)(=O)[O-])cc4)c4ccc([nH]4)c(-c4ccc(S(=O)(=O)[O-])cc4)c4nc(c(-c5ccc(S(=O)(=O)[O-])cc5)c5ccc2[nH]5)C=C4)C=C3)cc1)c1ccc(C[C@@H]2CCC[C@@H]2O)cc1Br
REMARK SMILES IDX 6 1 5 2 3 3 4 4 2 6 1 7 72 8 73 9 84 10 74 11 83 12 85 13
REMARK SMILES IDX 75 14 76 15 77 16 78 17 81 18 79 19 80 20 82 21 7 23 8 24
REMARK SMILES IDX 9 25 10 26 11 28 12 29 13 30 71 31 14 32 70 33 15 34 16 35
REMARK SMILES IDX 17 36 64 37 18 38 69 39 63 40 65 41 19 42 68 43 62 44 61 45
REMARK SMILES IDX 20 47 50 48 31 49 49 50 32 51 35 52 48 53 66 54 33 55 34 56
REMARK SMILES IDX 47 58 67 59 36 60 21 61 22 62 30 63 23 64 29 65 24 66 25 67
REMARK SMILES IDX 26 68 27 69 28 70 51 71 52 72 60 73 53 74 59 75 54 76 55 77
REMARK SMILES IDX 56 78 57 79 58 80 37 81 38 82 46 83 39 84 45 85 40 86 41 87
REMARK SMILES IDX 42 88 43 89 44 90
REMARK H PARENT 5 5 82 22 9 27 65 46 35 57
REMARK Flexibility Score: inf
ROOT
ATOM      1  C   UNL A   1      31.550  27.897  26.753  1.00  0.00     0.117 C 
ENDROOT
BRANCH   1   2
ATOM      2  N   UNL A   1      30.676  26.753  26.923  1.00  0.00    -0.356 N 
ATOM      3  C   UNL A   1      30.423  25.694  26.102  1.00  0.00     0.227 C 
ATOM      4  O   UNL A   1      29.881  24.723  26.635  1.00  0.00    -0.274 OA
ATOM      5  H   UNL A   1      30.182  26.738  27.775  1.00  0.00     0.163 HD
BRANCH   3   6
ATOM      6  C   UNL A   1      30.894  25.696  24.638  1.00  0.00     0.106 C 
ATOM      7  C   UNL A   1      29.825  25.370  23.590  1.00  0.00     0.023 C 
BRANCH   6   8
ATOM      8  C   UNL A   1      32.111  24.801  24.379  1.00  0.00    -0.022 A 
ATOM      9  C   UNL A   1      32.092  23.510  24.948  1.00  0.00     0.006 A 
ATOM     10  C   UNL A   1      33.276  25.195  23.695  1.00  0.00     0.022 A 
ATOM     11  C   UNL A   1      33.204  22.667  24.883  1.00  0.00     0.004 A 
ATOM     12  C   UNL A   1      34.375  24.330  23.609  1.00  0.00     0.019 A 
ATOM     13  Br  UNL A   1      33.532  26.914  22.918  1.00  0.00    -0.051 Br
ATOM     14  C   UNL A   1      34.372  23.085  24.246  1.00  0.00    -0.047 A 
BRANCH  14  15
ATOM     15  C   UNL A   1      35.624  22.246  24.277  1.00  0.00     0.041 C 
BRANCH  15  16
ATOM     16  C   UNL A   1      36.323  22.058  25.645  1.00  0.00     0.022 C 
ATOM     17  C   UNL A   1      36.656  23.357  26.388  1.00  0.00     0.007 C 
ATOM     18  C   UNL A   1      37.662  21.314  25.661  1.00  0.00     0.117 C 
ATOM     19  C   UNL A   1      38.144  23.632  26.156  1.00  0.00     0.003 C 
ATOM     20  C   UNL A   1      38.722  22.395  25.479  1.00  0.00     0.032 C 
BRANCH  18  21
ATOM     21  O   UNL A   1      37.733  20.272  24.708  1.00  0.00    -0.393 OA
ATOM     22  H   UNL A   1      38.442  19.657  24.954  1.00  0.00     0.210 HD
ENDBRANCH  18  21
ENDBRANCH  15  16
ENDBRANCH  14  15
ENDBRANCH   6   8
ENDBRANCH   3   6
ENDBRANCH   1   2
BRANCH   1  23
ATOM     23  C   UNL A   1      33.030  27.541  26.858  1.00  0.00     0.042 C 
BRANCH  23  24
ATOM     24  C   UNL A   1      33.991  28.618  26.361  1.00  0.00     0.118 C 
BRANCH  24  25
ATOM     25  N   UNL A   1      33.797  29.901  27.015  1.00  0.00    -0.352 N 
ATOM     26  C   UNL A   1      34.586  30.582  27.909  1.00  0.00     0.251 C 
ATOM     27  H   UNL A   1      32.959  30.359  26.776  1.00  0.00     0.163 HD
ATOM     28  O   UNL A   1      34.131  31.588  28.449  1.00  0.00    -0.269 OA
BRANCH  26  29
ATOM     29  C   UNL A   1      35.952  30.119  28.247  1.00  0.00     0.039 A 
ATOM     30  C   UNL A   1      36.932  30.167  27.250  1.00  0.00     0.014 A 
ATOM     31  C   UNL A   1      36.271  29.593  29.501  1.00  0.00     0.014 A 
ATOM     32  C   UNL A   1      38.234  29.742  27.527  1.00  0.00     0.010 A 
ATOM     33  C   UNL A   1      37.587  29.238  29.800  1.00  0.00     0.010 A 
ATOM     34  C   UNL A   1      38.583  29.302  28.815  1.00  0.00    -0.014 A 
BRANCH  34  35
ATOM     35  C   UNL A   1      39.984  28.919  29.130  1.00  0.00     0.031 A 
ATOM     36  C   UNL A   1      40.911  29.884  29.821  1.00  0.00     0.074 A 
ATOM     37  C   UNL A   1      40.433  27.701  28.765  1.00  0.00     0.049 A 
ATOM     38  N   UNL A   1      42.155  29.708  30.188  1.00  0.00    -0.248 NA
ATOM     39  C   UNL A   1      40.380  31.223  30.120  1.00  0.00     0.031 C 
ATOM     40  C   UNL A   1      39.654  26.693  28.042  1.00  0.00     0.029 A 
ATOM     41  N   UNL A   1      41.654  27.102  28.954  1.00  0.00    -0.354 N 
ATOM     42  C   UNL A   1      42.559  30.914  30.752  1.00  0.00     0.074 A 
ATOM     43  C   UNL A   1      41.443  31.827  30.632  1.00  0.00     0.031 C 
ATOM     44  C   UNL A   1      40.403  25.590  27.881  1.00  0.00     0.029 A 
ATOM     45  C   UNL A   1      41.722  25.821  28.459  1.00  0.00     0.049 A 
ATOM     46  H   UNL A   1      42.409  27.547  29.403  1.00  0.00     0.167 HD
ATOM     47  C   UNL A   1      43.741  31.228  31.337  1.00  0.00     0.031 A 
ATOM     48  C   UNL A   1      42.731  24.928  28.473  1.00  0.00     0.031 A 
ATOM     49  C   UNL A   1      44.849  30.317  31.462  1.00  0.00     0.049 A 
ATOM     50  C   UNL A   1      44.027  25.292  29.142  1.00  0.00     0.074 A 
ATOM     51  C   UNL A   1      46.070  30.527  32.082  1.00  0.00     0.029 A 
ATOM     52  N   UNL A   1      44.873  29.026  30.960  1.00  0.00    -0.354 N 
ATOM     53  N   UNL A   1      44.362  26.416  29.729  1.00  0.00    -0.248 NA
ATOM     54  C   UNL A   1      45.072  24.260  29.165  1.00  0.00     0.031 C 
ATOM     55  C   UNL A   1      46.848  29.374  31.916  1.00  0.00     0.029 A 
ATOM     56  C   UNL A   1      46.093  28.431  31.239  1.00  0.00     0.049 A 
ATOM     57  H   UNL A   1      44.132  28.594  30.475  1.00  0.00     0.167 HD
ATOM     58  C   UNL A   1      45.653  26.219  30.209  1.00  0.00     0.074 A 
ATOM     59  C   UNL A   1      46.025  24.862  29.863  1.00  0.00     0.031 C 
ATOM     60  C   UNL A   1      46.456  27.084  30.877  1.00  0.00     0.031 A 
BRANCH  47  61
ATOM     61  C   UNL A   1      43.892  32.621  31.889  1.00  0.00    -0.014 A 
ATOM     62  C   UNL A   1      44.455  33.651  31.112  1.00  0.00     0.010 A 
ATOM     63  C   UNL A   1      43.435  32.917  33.186  1.00  0.00     0.010 A 
ATOM     64  C   UNL A   1      44.600  34.938  31.638  1.00  0.00     0.020 A 
ATOM     65  C   UNL A   1      43.553  34.210  33.706  1.00  0.00     0.020 A 
ATOM     66  C   UNL A   1      44.152  35.207  32.934  1.00  0.00     0.054 A 
BRANCH  66  67
ATOM     67  S   UNL A   1      44.339  36.891  33.586  1.00  0.00     0.124 S 
ATOM     68  O   UNL A   1      43.521  37.665  32.656  1.00  0.00    -0.237 OA
ATOM     69  O   UNL A   1      43.807  36.772  34.941  1.00  0.00    -0.237 OA
ATOM     70  O   UNL A   1      45.777  37.136  33.504  1.00  0.00    -0.744 OA
ENDBRANCH  66  67
ENDBRANCH  47  61
BRANCH  48  71
ATOM     71  C   UNL A   1      42.538  23.588  27.856  1.00  0.00    -0.014 A 
ATOM     72  C   UNL A   1      42.918  23.353  26.522  1.00  0.00     0.010 A 
ATOM     73  C   UNL A   1      41.991  22.532  28.608  1.00  0.00     0.010 A 
ATOM     74  C   UNL A   1      42.742  22.092  25.947  1.00  0.00     0.020 A 
ATOM     75  C   UNL A   1      41.837  21.262  28.044  1.00  0.00     0.020 A 
ATOM     76  C   UNL A   1      42.204  21.053  26.713  1.00  0.00     0.054 A 
BRANCH  76  77
ATOM     77  S   UNL A   1      42.041  19.407  25.967  1.00  0.00     0.124 S 
ATOM     78  O   UNL A   1      42.548  18.542  27.028  1.00  0.00    -0.237 OA
ATOM     79  O   UNL A   1      40.607  19.316  25.708  1.00  0.00    -0.237 OA
ATOM     80  O   UNL A   1      42.878  19.490  24.772  1.00  0.00    -0.744 OA
ENDBRANCH  76  77
ENDBRANCH  48  71
BRANCH  60  81
ATOM     81  C   UNL A   1      47.811  26.579  31.293  1.00  0.00    -0.014 A 
ATOM     82  C   UNL A   1      48.958  26.859  30.530  1.00  0.00     0.010 A 
ATOM     83  C   UNL A   1      47.941  25.832  32.478  1.00  0.00     0.010 A 
ATOM     84  C   UNL A   1      50.205  26.362  30.919  1.00  0.00     0.020 A 
ATOM     85  C   UNL A   1      49.191  25.357  32.885  1.00  0.00     0.020 A 
ATOM     86  C   UNL A   1      50.311  25.609  32.092  1.00  0.00     0.054 A 
BRANCH  86  87
ATOM     87  S   UNL A   1      51.942  24.988  32.588  1.00  0.00     0.124 S 
ATOM     88  O   UNL A   1      51.697  23.553  32.705  1.00  0.00    -0.237 OA
ATOM     89  O   UNL A   1      52.795  25.391  31.472  1.00  0.00    -0.237 OA
ATOM     90  O   UNL A   1      52.206  25.680  33.847  1.00  0.00    -0.744 OA
ENDBRANCH  86  87
ENDBRANCH  60  81
ENDBRANCH  34  35
ENDBRANCH  26  29
ENDBRANCH  24  25
ENDBRANCH  23  24
ENDBRANCH   1  23
TORSDOF 17
ENDMDL
