MODEL 1
REMARK VINA RESULT:     -10.4      0.000      0.000
REMARK SMILES CCc1sc(NC(=O)[C@H]2CC(C)=C(C)C[C@H]2C(=O)NCCCNC(=O)c2ccc(-c3c4nc(c(-c5ccc(S(=O)(=O)[O-])cc5)c5ccc([nH]5)c(-c5ccc(S(=O)(=O)[O-])cc5)c5nc(c(-c6ccc(S(=O)(=O)[O-])cc6)c6ccc3[nH]6)C=C5)C=C4)cc2)nc1-c1ccccc1
REMARK SMILES IDX 21 1 20 2 19 3 17 4 18 5 16 7 9 8 10 9 11 10 15 11 12 12
REMARK SMILES IDX 13 13 14 14 7 15 6 16 8 18 5 19 3 20 4 21 87 22 86 23 2 24
REMARK SMILES IDX 1 25 88 26 89 27 93 28 90 29 92 30 91 31 22 32 23 33 24 34
REMARK SMILES IDX 25 36 26 37 27 38 85 39 28 40 84 41 29 42 30 43 31 44 78 45
REMARK SMILES IDX 32 46 83 47 77 48 79 49 33 50 82 51 76 52 75 53 34 55 64 56
REMARK SMILES IDX 45 57 63 58 46 59 49 60 62 61 80 62 47 63 48 64 61 66 81 67
REMARK SMILES IDX 50 68 35 69 36 70 44 71 37 72 43 73 38 74 39 75 40 76 41 77
REMARK SMILES IDX 42 78 65 79 66 80 74 81 67 82 73 83 68 84 69 85 70 86 71 87
REMARK SMILES IDX 72 88 51 89 52 90 60 91 53 92 59 93 54 94 55 95 56 96 57 97
REMARK SMILES IDX 58 98
REMARK H PARENT 19 6 6 17 23 35 79 54 49 65
REMARK Flexibility Score: inf
ROOT
ATOM      1  C   UNL A   1      45.533  39.719  28.601  1.00  0.00     0.042 C 
ENDROOT
BRANCH   1   2
ATOM      2  C   UNL A   1      44.887  40.243  27.325  1.00  0.00     0.117 C 
BRANCH   2   3
ATOM      3  N   UNL A   1      45.572  39.833  26.117  1.00  0.00    -0.356 N 
ATOM      4  C   UNL A   1      46.314  40.500  25.203  1.00  0.00     0.224 C 
ATOM      5  O   UNL A   1      46.770  39.831  24.267  1.00  0.00    -0.275 OA
ATOM      6  H   UNL A   1      45.481  38.872  25.921  1.00  0.00     0.163 HD
BRANCH   4   7
ATOM      7  C   UNL A   1      46.659  41.989  25.284  1.00  0.00     0.095 C 
ATOM      8  C   UNL A   1      45.582  43.046  24.968  1.00  0.00     0.095 C 
ATOM      9  C   UNL A   1      44.968  43.742  26.193  1.00  0.00     0.045 C 
ATOM     10  C   UNL A   1      45.766  43.734  27.475  1.00  0.00    -0.074 C 
ATOM     11  C   UNL A   1      47.577  42.334  26.462  1.00  0.00     0.045 C 
ATOM     12  C   UNL A   1      45.073  44.446  28.612  1.00  0.00     0.039 C 
ATOM     13  C   UNL A   1      46.958  43.113  27.593  1.00  0.00    -0.074 C 
ATOM     14  C   UNL A   1      47.744  43.078  28.880  1.00  0.00     0.039 C 
BRANCH   8  15
ATOM     15  C   UNL A   1      44.442  42.532  24.087  1.00  0.00     0.230 C 
ATOM     16  N   UNL A   1      44.299  42.788  22.765  1.00  0.00    -0.302 N 
ATOM     17  H   UNL A   1      43.498  42.352  22.395  1.00  0.00     0.172 HD
ATOM     18  O   UNL A   1      43.517  41.879  24.590  1.00  0.00    -0.274 OA
BRANCH  16  19
ATOM     19  C   UNL A   1      44.973  43.494  21.813  1.00  0.00     0.190 A 
ATOM     20  C   UNL A   1      46.417  44.403  20.085  1.00  0.00     0.034 A 
ATOM     21  S   UNL A   1      46.381  42.970  21.032  1.00  0.00    -0.101 S 
ATOM     22  C   UNL A   1      45.339  45.195  20.448  1.00  0.00     0.087 A 
ATOM     23  N   UNL A   1      44.545  44.681  21.457  1.00  0.00    -0.220 NA
BRANCH  20  24
ATOM     24  C   UNL A   1      47.497  44.598  19.064  1.00  0.00     0.046 C 
ATOM     25  C   UNL A   1      48.880  44.762  19.678  1.00  0.00     0.010 C 
ENDBRANCH  20  24
BRANCH  22  26
ATOM     26  C   UNL A   1      45.040  46.488  19.863  1.00  0.00     0.001 A 
ATOM     27  C   UNL A   1      44.302  46.581  18.675  1.00  0.00     0.010 A 
ATOM     28  C   UNL A   1      45.507  47.654  20.479  1.00  0.00     0.010 A 
ATOM     29  C   UNL A   1      44.066  47.828  18.093  1.00  0.00     0.001 A 
ATOM     30  C   UNL A   1      45.272  48.899  19.892  1.00  0.00     0.001 A 
ATOM     31  C   UNL A   1      44.560  48.984  18.697  1.00  0.00     0.000 A 
ENDBRANCH  22  26
ENDBRANCH  16  19
ENDBRANCH   8  15
ENDBRANCH   4   7
ENDBRANCH   2   3
ENDBRANCH   1   2
BRANCH   1  32
ATOM     32  C   UNL A   1      45.973  38.265  28.517  1.00  0.00     0.118 C 
BRANCH  32  33
ATOM     33  N   UNL A   1      47.402  38.128  28.766  1.00  0.00    -0.352 N 
ATOM     34  C   UNL A   1      48.131  37.014  29.092  1.00  0.00     0.251 C 
ATOM     35  H   UNL A   1      47.921  38.961  28.689  1.00  0.00     0.163 HD
ATOM     36  O   UNL A   1      49.259  37.148  29.559  1.00  0.00    -0.269 OA
BRANCH  34  37
ATOM     37  C   UNL A   1      47.573  35.660  28.880  1.00  0.00     0.039 A 
ATOM     38  C   UNL A   1      47.490  34.784  29.966  1.00  0.00     0.014 A 
ATOM     39  C   UNL A   1      47.201  35.225  27.604  1.00  0.00     0.014 A 
ATOM     40  C   UNL A   1      47.009  33.486  29.779  1.00  0.00     0.010 A 
ATOM     41  C   UNL A   1      46.657  33.956  27.430  1.00  0.00     0.010 A 
ATOM     42  C   UNL A   1      46.575  33.066  28.510  1.00  0.00    -0.014 A 
BRANCH  42  43
ATOM     43  C   UNL A   1      46.076  31.688  28.283  1.00  0.00     0.031 A 
ATOM     44  C   UNL A   1      44.643  31.347  28.591  1.00  0.00     0.074 A 
ATOM     45  C   UNL A   1      46.921  30.731  27.854  1.00  0.00     0.049 A 
ATOM     46  N   UNL A   1      44.034  30.191  28.518  1.00  0.00    -0.248 NA
ATOM     47  C   UNL A   1      43.788  32.447  29.068  1.00  0.00     0.031 C 
ATOM     48  C   UNL A   1      48.340  30.928  27.552  1.00  0.00     0.029 A 
ATOM     49  N   UNL A   1      46.708  29.399  27.605  1.00  0.00    -0.354 N 
ATOM     50  C   UNL A   1      42.737  30.418  28.965  1.00  0.00     0.074 A 
ATOM     51  C   UNL A   1      42.659  31.812  29.344  1.00  0.00     0.031 C 
ATOM     52  C   UNL A   1      48.864  29.764  27.133  1.00  0.00     0.029 A 
ATOM     53  C   UNL A   1      47.830  28.734  27.172  1.00  0.00     0.049 A 
ATOM     54  H   UNL A   1      45.835  28.961  27.726  1.00  0.00     0.167 HD
ATOM     55  C   UNL A   1      41.700  29.549  29.040  1.00  0.00     0.031 A 
ATOM     56  C   UNL A   1      48.007  27.441  26.843  1.00  0.00     0.031 A 
ATOM     57  C   UNL A   1      41.776  28.168  28.647  1.00  0.00     0.049 A 
ATOM     58  C   UNL A   1      46.842  26.495  26.923  1.00  0.00     0.074 A 
ATOM     59  C   UNL A   1      40.768  27.220  28.627  1.00  0.00     0.029 A 
ATOM     60  N   UNL A   1      42.928  27.537  28.200  1.00  0.00    -0.354 N 
ATOM     61  N   UNL A   1      45.610  26.739  27.299  1.00  0.00    -0.248 NA
ATOM     62  C   UNL A   1      47.091  25.102  26.528  1.00  0.00     0.031 C 
ATOM     63  C   UNL A   1      41.320  26.005  28.204  1.00  0.00     0.029 A 
ATOM     64  C   UNL A   1      42.661  26.208  27.920  1.00  0.00     0.049 A 
ATOM     65  H   UNL A   1      43.805  27.970  28.099  1.00  0.00     0.167 HD
ATOM     66  C   UNL A   1      44.928  25.535  27.165  1.00  0.00     0.074 A 
ATOM     67  C   UNL A   1      45.884  24.567  26.664  1.00  0.00     0.031 C 
ATOM     68  C   UNL A   1      43.628  25.258  27.429  1.00  0.00     0.031 A 
BRANCH  55  69
ATOM     69  C   UNL A   1      40.400  30.078  29.585  1.00  0.00    -0.014 A 
ATOM     70  C   UNL A   1      40.176  30.168  30.972  1.00  0.00     0.010 A 
ATOM     71  C   UNL A   1      39.385  30.485  28.701  1.00  0.00     0.010 A 
ATOM     72  C   UNL A   1      38.941  30.598  31.463  1.00  0.00     0.020 A 
ATOM     73  C   UNL A   1      38.157  30.942  29.189  1.00  0.00     0.020 A 
ATOM     74  C   UNL A   1      37.935  30.970  30.567  1.00  0.00     0.054 A 
BRANCH  74  75
ATOM     75  S   UNL A   1      36.334  31.513  31.228  1.00  0.00     0.124 S 
ATOM     76  O   UNL A   1      35.422  31.134  30.151  1.00  0.00    -0.237 OA
ATOM     77  O   UNL A   1      36.209  30.735  32.457  1.00  0.00    -0.237 OA
ATOM     78  O   UNL A   1      36.509  32.950  31.420  1.00  0.00    -0.744 OA
ENDBRANCH  74  75
ENDBRANCH  55  69
BRANCH  56  79
ATOM     79  C   UNL A   1      49.341  26.981  26.374  1.00  0.00    -0.014 A 
ATOM     80  C   UNL A   1      50.204  26.306  27.254  1.00  0.00     0.010 A 
ATOM     81  C   UNL A   1      49.732  27.168  25.036  1.00  0.00     0.010 A 
ATOM     82  C   UNL A   1      51.437  25.823  26.803  1.00  0.00     0.020 A 
ATOM     83  C   UNL A   1      50.955  26.669  24.578  1.00  0.00     0.020 A 
ATOM     84  C   UNL A   1      51.802  26.003  25.467  1.00  0.00     0.054 A 
BRANCH  84  85
ATOM     85  S   UNL A   1      53.367  25.293  24.883  1.00  0.00     0.124 S 
ATOM     86  O   UNL A   1      54.350  26.064  25.635  1.00  0.00    -0.237 OA
ATOM     87  O   UNL A   1      53.239  23.887  25.261  1.00  0.00    -0.237 OA
ATOM     88  O   UNL A   1      53.337  25.545  23.443  1.00  0.00    -0.744 OA
ENDBRANCH  84  85
ENDBRANCH  56  79
BRANCH  68  89
ATOM     89  C   UNL A   1      43.156  23.855  27.163  1.00  0.00    -0.014 A 
ATOM     90  C   UNL A   1      42.875  23.421  25.855  1.00  0.00     0.010 A 
ATOM     91  C   UNL A   1      43.041  22.946  28.229  1.00  0.00     0.010 A 
ATOM     92  C   UNL A   1      42.462  22.107  25.622  1.00  0.00     0.020 A 
ATOM     93  C   UNL A   1      42.649  21.626  27.998  1.00  0.00     0.020 A 
ATOM     94  C   UNL A   1      42.348  21.217  26.697  1.00  0.00     0.054 A 
BRANCH  94  95
ATOM     95  S   UNL A   1      41.853  19.505  26.367  1.00  0.00     0.124 S 
ATOM     96  O   UNL A   1      42.317  18.818  27.569  1.00  0.00    -0.237 OA
ATOM     97  O   UNL A   1      40.403  19.609  26.223  1.00  0.00    -0.237 OA
ATOM     98  O   UNL A   1      42.571  19.168  25.139  1.00  0.00    -0.744 OA
ENDBRANCH  94  95
ENDBRANCH  68  89
ENDBRANCH  42  43
ENDBRANCH  34  37
ENDBRANCH  32  33
ENDBRANCH   1  32
TORSDOF 17
ENDMDL
MODEL 2
REMARK VINA RESULT:     -10.4      9.120     15.221
REMARK SMILES CCc1sc(NC(=O)[C@H]2CC(C)=C(C)C[C@H]2C(=O)NCCCNC(=O)c2ccc(-c3c4nc(c(-c5ccc(S(=O)(=O)[O-])cc5)c5ccc([nH]5)c(-c5ccc(S(=O)(=O)[O-])cc5)c5nc(c(-c6ccc(S(=O)(=O)[O-])cc6)c6ccc3[nH]6)C=C5)C=C4)cc2)nc1-c1ccccc1
REMARK SMILES IDX 21 1 20 2 19 3 17 4 18 5 16 7 9 8 10 9 11 10 15 11 12 12
REMARK SMILES IDX 13 13 14 14 7 15 6 16 8 18 5 19 3 20 4 21 87 22 86 23 2 24
REMARK SMILES IDX 1 25 88 26 89 27 93 28 90 29 92 30 91 31 22 32 23 33 24 34
REMARK SMILES IDX 25 36 26 37 27 38 85 39 28 40 84 41 29 42 30 43 31 44 78 45
REMARK SMILES IDX 32 46 83 47 77 48 79 49 33 50 82 51 76 52 75 53 34 55 64 56
REMARK SMILES IDX 45 57 63 58 46 59 49 60 62 61 80 62 47 63 48 64 61 66 81 67
REMARK SMILES IDX 50 68 35 69 36 70 44 71 37 72 43 73 38 74 39 75 40 76 41 77
REMARK SMILES IDX 42 78 65 79 66 80 74 81 67 82 73 83 68 84 69 85 70 86 71 87
REMARK SMILES IDX 72 88 51 89 52 90 60 91 53 92 59 93 54 94 55 95 56 96 57 97
REMARK SMILES IDX 58 98
REMARK H PARENT 19 6 6 17 23 35 79 54 49 65
REMARK Flexibility Score: inf
ROOT
ATOM      1  C   UNL A   1      43.184  26.114  25.063  1.00  0.00     0.042 C 
ENDROOT
BRANCH   1   2
ATOM      2  C   UNL A   1      44.092  27.138  25.730  1.00  0.00     0.117 C 
BRANCH   2   3
ATOM      3  N   UNL A   1      44.980  27.815  24.808  1.00  0.00    -0.356 N 
ATOM      4  C   UNL A   1      46.314  28.041  24.807  1.00  0.00     0.224 C 
ATOM      5  O   UNL A   1      46.767  28.666  23.838  1.00  0.00    -0.275 OA
ATOM      6  H   UNL A   1      44.520  28.186  24.020  1.00  0.00     0.163 HD
BRANCH   4   7
ATOM      7  C   UNL A   1      47.281  27.538  25.880  1.00  0.00     0.095 C 
ATOM      8  C   UNL A   1      48.296  26.428  25.540  1.00  0.00     0.095 C 
ATOM      9  C   UNL A   1      49.741  26.906  25.323  1.00  0.00     0.045 C 
ATOM     10  C   UNL A   1      50.138  28.230  25.930  1.00  0.00    -0.074 C 
ATOM     11  C   UNL A   1      47.821  28.655  26.780  1.00  0.00     0.045 C 
ATOM     12  C   UNL A   1      51.576  28.603  25.659  1.00  0.00     0.039 C 
ATOM     13  C   UNL A   1      49.274  29.016  26.607  1.00  0.00    -0.074 C 
ATOM     14  C   UNL A   1      49.659  30.353  27.188  1.00  0.00     0.039 C 
BRANCH   8  15
ATOM     15  C   UNL A   1      47.895  25.558  24.348  1.00  0.00     0.230 C 
ATOM     16  N   UNL A   1      47.025  24.522  24.395  1.00  0.00    -0.302 N 
ATOM     17  H   UNL A   1      46.908  24.106  23.510  1.00  0.00     0.172 HD
ATOM     18  O   UNL A   1      48.430  25.734  23.246  1.00  0.00    -0.274 OA
BRANCH  16  19
ATOM     19  C   UNL A   1      46.269  23.903  25.346  1.00  0.00     0.190 A 
ATOM     20  C   UNL A   1      45.073  23.099  27.300  1.00  0.00     0.034 A 
ATOM     21  S   UNL A   1      46.250  24.311  26.988  1.00  0.00    -0.101 S 
ATOM     22  C   UNL A   1      44.784  22.453  26.109  1.00  0.00     0.087 A 
ATOM     23  N   UNL A   1      45.497  22.897  25.010  1.00  0.00    -0.220 NA
BRANCH  20  24
ATOM     24  C   UNL A   1      44.539  22.915  28.689  1.00  0.00     0.046 C 
ATOM     25  C   UNL A   1      44.730  24.138  29.572  1.00  0.00     0.010 C 
ENDBRANCH  20  24
BRANCH  22  26
ATOM     26  C   UNL A   1      43.833  21.365  25.978  1.00  0.00     0.001 A 
ATOM     27  C   UNL A   1      42.513  21.513  26.425  1.00  0.00     0.010 A 
ATOM     28  C   UNL A   1      44.240  20.150  25.416  1.00  0.00     0.010 A 
ATOM     29  C   UNL A   1      41.621  20.442  26.342  1.00  0.00     0.001 A 
ATOM     30  C   UNL A   1      43.346  19.080  25.339  1.00  0.00     0.001 A 
ATOM     31  C   UNL A   1      42.042  19.225  25.808  1.00  0.00     0.000 A 
ENDBRANCH  22  26
ENDBRANCH  16  19
ENDBRANCH   8  15
ENDBRANCH   4   7
ENDBRANCH   2   3
ENDBRANCH   1   2
BRANCH   1  32
ATOM     32  C   UNL A   1      42.538  25.137  26.035  1.00  0.00     0.118 C 
BRANCH  32  33
ATOM     33  N   UNL A   1      41.133  24.923  25.716  1.00  0.00    -0.352 N 
ATOM     34  C   UNL A   1      40.016  25.173  26.471  1.00  0.00     0.251 C 
ATOM     35  H   UNL A   1      40.959  24.541  24.825  1.00  0.00     0.163 HD
ATOM     36  O   UNL A   1      38.949  24.649  26.161  1.00  0.00    -0.269 OA
BRANCH  34  37
ATOM     37  C   UNL A   1      40.087  26.071  27.646  1.00  0.00     0.039 A 
ATOM     38  C   UNL A   1      39.302  25.782  28.766  1.00  0.00     0.014 A 
ATOM     39  C   UNL A   1      40.863  27.234  27.619  1.00  0.00     0.014 A 
ATOM     40  C   UNL A   1      39.320  26.641  29.868  1.00  0.00     0.010 A 
ATOM     41  C   UNL A   1      40.934  28.051  28.743  1.00  0.00     0.010 A 
ATOM     42  C   UNL A   1      40.146  27.776  29.870  1.00  0.00    -0.014 A 
BRANCH  42  43
ATOM     43  C   UNL A   1      40.170  28.712  31.021  1.00  0.00     0.031 A 
ATOM     44  C   UNL A   1      39.211  29.870  31.068  1.00  0.00     0.074 A 
ATOM     45  C   UNL A   1      41.089  28.554  31.994  1.00  0.00     0.049 A 
ATOM     46  N   UNL A   1      39.116  30.828  31.954  1.00  0.00    -0.248 NA
ATOM     47  C   UNL A   1      38.248  29.979  29.960  1.00  0.00     0.031 C 
ATOM     48  C   UNL A   1      42.094  27.490  32.045  1.00  0.00     0.029 A 
ATOM     49  N   UNL A   1      41.328  29.295  33.123  1.00  0.00    -0.354 N 
ATOM     50  C   UNL A   1      38.106  31.667  31.496  1.00  0.00     0.074 A 
ATOM     51  C   UNL A   1      37.646  31.126  30.236  1.00  0.00     0.031 C 
ATOM     52  C   UNL A   1      42.825  27.634  33.163  1.00  0.00     0.029 A 
ATOM     53  C   UNL A   1      42.365  28.816  33.886  1.00  0.00     0.049 A 
ATOM     54  H   UNL A   1      40.807  30.095  33.363  1.00  0.00     0.167 HD
ATOM     55  C   UNL A   1      37.595  32.779  32.079  1.00  0.00     0.031 A 
ATOM     56  C   UNL A   1      42.888  29.275  35.038  1.00  0.00     0.031 A 
ATOM     57  C   UNL A   1      38.042  33.305  33.340  1.00  0.00     0.049 A 
ATOM     58  C   UNL A   1      42.302  30.504  35.674  1.00  0.00     0.074 A 
ATOM     59  C   UNL A   1      37.551  34.391  34.045  1.00  0.00     0.029 A 
ATOM     60  N   UNL A   1      39.087  32.782  34.088  1.00  0.00    -0.354 N 
ATOM     61  N   UNL A   1      41.312  31.255  35.253  1.00  0.00    -0.248 NA
ATOM     62  C   UNL A   1      42.897  30.943  36.942  1.00  0.00     0.031 C 
ATOM     63  C   UNL A   1      38.324  34.545  35.201  1.00  0.00     0.029 A 
ATOM     64  C   UNL A   1      39.268  33.531  35.238  1.00  0.00     0.049 A 
ATOM     65  H   UNL A   1      39.620  31.994  33.837  1.00  0.00     0.167 HD
ATOM     66  C   UNL A   1      41.151  32.243  36.216  1.00  0.00     0.074 A 
ATOM     67  C   UNL A   1      42.139  31.989  37.245  1.00  0.00     0.031 C 
ATOM     68  C   UNL A   1      40.262  33.267  36.247  1.00  0.00     0.031 A 
BRANCH  55  69
ATOM     69  C   UNL A   1      36.503  33.502  31.337  1.00  0.00    -0.014 A 
ATOM     70  C   UNL A   1      35.255  33.749  31.939  1.00  0.00     0.010 A 
ATOM     71  C   UNL A   1      36.723  33.936  30.016  1.00  0.00     0.010 A 
ATOM     72  C   UNL A   1      34.228  34.362  31.216  1.00  0.00     0.020 A 
ATOM     73  C   UNL A   1      35.706  34.574  29.299  1.00  0.00     0.020 A 
ATOM     74  C   UNL A   1      34.457  34.759  29.896  1.00  0.00     0.054 A 
BRANCH  74  75
ATOM     75  S   UNL A   1      33.105  35.540  28.971  1.00  0.00     0.124 S 
ATOM     76  O   UNL A   1      33.822  36.533  28.175  1.00  0.00    -0.237 OA
ATOM     77  O   UNL A   1      32.539  34.424  28.219  1.00  0.00    -0.237 OA
ATOM     78  O   UNL A   1      32.242  36.084  30.017  1.00  0.00    -0.744 OA
ENDBRANCH  74  75
ENDBRANCH  55  69
BRANCH  56  79
ATOM     79  C   UNL A   1      44.012  28.540  35.677  1.00  0.00    -0.014 A 
ATOM     80  C   UNL A   1      45.337  28.800  35.289  1.00  0.00     0.010 A 
ATOM     81  C   UNL A   1      43.766  27.617  36.709  1.00  0.00     0.010 A 
ATOM     82  C   UNL A   1      46.400  28.151  35.925  1.00  0.00     0.020 A 
ATOM     83  C   UNL A   1      44.827  26.982  37.361  1.00  0.00     0.020 A 
ATOM     84  C   UNL A   1      46.139  27.250  36.960  1.00  0.00     0.054 A 
BRANCH  84  85
ATOM     85  S   UNL A   1      47.536  26.485  37.829  1.00  0.00     0.124 S 
ATOM     86  O   UNL A   1      47.634  25.189  37.166  1.00  0.00    -0.237 OA
ATOM     87  O   UNL A   1      48.627  27.419  37.560  1.00  0.00    -0.237 OA
ATOM     88  O   UNL A   1      47.091  26.447  39.221  1.00  0.00    -0.744 OA
ENDBRANCH  84  85
ENDBRANCH  56  79
BRANCH  68  89
ATOM     89  C   UNL A   1      40.304  34.178  37.443  1.00  0.00    -0.014 A 
ATOM     90  C   UNL A   1      41.130  35.316  37.458  1.00  0.00     0.010 A 
ATOM     91  C   UNL A   1      39.468  33.919  38.543  1.00  0.00     0.010 A 
ATOM     92  C   UNL A   1      41.138  36.166  38.567  1.00  0.00     0.020 A 
ATOM     93  C   UNL A   1      39.458  34.777  39.644  1.00  0.00     0.020 A 
ATOM     94  C   UNL A   1      40.303  35.889  39.655  1.00  0.00     0.054 A 
BRANCH  94  95
ATOM     95  S   UNL A   1      40.297  37.029  41.066  1.00  0.00     0.124 S 
ATOM     96  O   UNL A   1      40.558  36.128  42.185  1.00  0.00    -0.237 OA
ATOM     97  O   UNL A   1      41.379  37.955  40.739  1.00  0.00    -0.237 OA
ATOM     98  O   UNL A   1      38.957  37.611  41.032  1.00  0.00    -0.744 OA
ENDBRANCH  94  95
ENDBRANCH  68  89
ENDBRANCH  42  43
ENDBRANCH  34  37
ENDBRANCH  32  33
ENDBRANCH   1  32
TORSDOF 17
ENDMDL
MODEL 3
REMARK VINA RESULT:     -10.4      9.404     15.205
REMARK SMILES CCc1sc(NC(=O)[C@H]2CC(C)=C(C)C[C@H]2C(=O)NCCCNC(=O)c2ccc(-c3c4nc(c(-c5ccc(S(=O)(=O)[O-])cc5)c5ccc([nH]5)c(-c5ccc(S(=O)(=O)[O-])cc5)c5nc(c(-c6ccc(S(=O)(=O)[O-])cc6)c6ccc3[nH]6)C=C5)C=C4)cc2)nc1-c1ccccc1
REMARK SMILES IDX 21 1 20 2 19 3 17 4 18 5 16 7 9 8 10 9 11 10 15 11 12 12
REMARK SMILES IDX 13 13 14 14 7 15 6 16 8 18 5 19 3 20 4 21 87 22 86 23 2 24
REMARK SMILES IDX 1 25 88 26 89 27 93 28 90 29 92 30 91 31 22 32 23 33 24 34
REMARK SMILES IDX 25 36 26 37 27 38 85 39 28 40 84 41 29 42 30 43 31 44 78 45
REMARK SMILES IDX 32 46 83 47 77 48 79 49 33 50 82 51 76 52 75 53 34 55 64 56
REMARK SMILES IDX 45 57 63 58 46 59 49 60 62 61 80 62 47 63 48 64 61 66 81 67
REMARK SMILES IDX 50 68 35 69 36 70 44 71 37 72 43 73 38 74 39 75 40 76 41 77
REMARK SMILES IDX 42 78 65 79 66 80 74 81 67 82 73 83 68 84 69 85 70 86 71 87
REMARK SMILES IDX 72 88 51 89 52 90 60 91 53 92 59 93 54 94 55 95 56 96 57 97
REMARK SMILES IDX 58 98
REMARK H PARENT 19 6 6 17 23 35 79 54 49 65
REMARK Flexibility Score: inf
ROOT
ATOM      1  C   UNL A   1      43.007  26.455  24.991  1.00  0.00     0.042 C 
ENDROOT
BRANCH   1   2
ATOM      2  C   UNL A   1      43.995  27.454  25.575  1.00  0.00     0.117 C 
BRANCH   2   3
ATOM      3  N   UNL A   1      45.052  27.830  24.659  1.00  0.00    -0.356 N 
ATOM      4  C   UNL A   1      46.401  27.750  24.721  1.00  0.00     0.224 C 
ATOM      5  O   UNL A   1      47.025  28.169  23.737  1.00  0.00    -0.275 OA
ATOM      6  H   UNL A   1      44.721  28.223  23.819  1.00  0.00     0.163 HD
BRANCH   4   7
ATOM      7  C   UNL A   1      47.182  27.139  25.887  1.00  0.00     0.095 C 
ATOM      8  C   UNL A   1      47.942  25.812  25.691  1.00  0.00     0.095 C 
ATOM      9  C   UNL A   1      49.465  25.947  25.534  1.00  0.00     0.045 C 
ATOM     10  C   UNL A   1      50.115  27.200  26.070  1.00  0.00    -0.074 C 
ATOM     11  C   UNL A   1      47.912  28.183  26.738  1.00  0.00     0.045 C 
ATOM     12  C   UNL A   1      51.612  27.229  25.865  1.00  0.00     0.039 C 
ATOM     13  C   UNL A   1      49.415  28.206  26.634  1.00  0.00    -0.074 C 
ATOM     14  C   UNL A   1      50.058  29.472  27.143  1.00  0.00     0.039 C 
BRANCH   8  15
ATOM     15  C   UNL A   1      47.416  24.954  24.540  1.00  0.00     0.230 C 
ATOM     16  N   UNL A   1      46.394  24.070  24.628  1.00  0.00    -0.302 N 
ATOM     17  H   UNL A   1      46.217  23.632  23.764  1.00  0.00     0.172 HD
ATOM     18  O   UNL A   1      47.976  24.988  23.436  1.00  0.00    -0.274 OA
BRANCH  16  19
ATOM     19  C   UNL A   1      45.547  23.626  25.600  1.00  0.00     0.190 A 
ATOM     20  C   UNL A   1      43.891  22.574  27.032  1.00  0.00     0.034 A 
ATOM     21  S   UNL A   1      44.305  22.500  25.366  1.00  0.00    -0.101 S 
ATOM     22  C   UNL A   1      44.740  23.477  27.653  1.00  0.00     0.087 A 
ATOM     23  N   UNL A   1      45.655  24.094  26.820  1.00  0.00    -0.220 NA
BRANCH  20  24
ATOM     24  C   UNL A   1      42.779  21.722  27.565  1.00  0.00     0.046 C 
ATOM     25  C   UNL A   1      41.584  21.640  26.627  1.00  0.00     0.010 C 
ENDBRANCH  20  24
BRANCH  22  26
ATOM     26  C   UNL A   1      44.692  23.806  29.066  1.00  0.00     0.001 A 
ATOM     27  C   UNL A   1      44.019  22.974  29.970  1.00  0.00     0.010 A 
ATOM     28  C   UNL A   1      45.307  24.974  29.528  1.00  0.00     0.010 A 
ATOM     29  C   UNL A   1      43.934  23.328  31.318  1.00  0.00     0.001 A 
ATOM     30  C   UNL A   1      45.217  25.327  30.876  1.00  0.00     0.001 A 
ATOM     31  C   UNL A   1      44.525  24.508  31.767  1.00  0.00     0.000 A 
ENDBRANCH  22  26
ENDBRANCH  16  19
ENDBRANCH   8  15
ENDBRANCH   4   7
ENDBRANCH   2   3
ENDBRANCH   1   2
BRANCH   1  32
ATOM     32  C   UNL A   1      42.469  25.455  26.004  1.00  0.00     0.118 C 
BRANCH  32  33
ATOM     33  N   UNL A   1      41.078  25.120  25.732  1.00  0.00    -0.352 N 
ATOM     34  C   UNL A   1      39.970  25.268  26.526  1.00  0.00     0.251 C 
ATOM     35  H   UNL A   1      40.908  24.726  24.845  1.00  0.00     0.163 HD
ATOM     36  O   UNL A   1      38.944  24.654  26.249  1.00  0.00    -0.269 OA
BRANCH  34  37
ATOM     37  C   UNL A   1      40.002  26.165  27.704  1.00  0.00     0.039 A 
ATOM     38  C   UNL A   1      39.238  25.835  28.826  1.00  0.00     0.014 A 
ATOM     39  C   UNL A   1      40.721  27.364  27.677  1.00  0.00     0.014 A 
ATOM     40  C   UNL A   1      39.218  26.690  29.931  1.00  0.00     0.010 A 
ATOM     41  C   UNL A   1      40.757  28.181  28.803  1.00  0.00     0.010 A 
ATOM     42  C   UNL A   1      39.989  27.865  29.933  1.00  0.00    -0.014 A 
BRANCH  42  43
ATOM     43  C   UNL A   1      39.972  28.797  31.087  1.00  0.00     0.031 A 
ATOM     44  C   UNL A   1      38.992  29.938  31.117  1.00  0.00     0.074 A 
ATOM     45  C   UNL A   1      40.873  28.653  32.077  1.00  0.00     0.049 A 
ATOM     46  N   UNL A   1      38.862  30.892  32.003  1.00  0.00    -0.248 NA
ATOM     47  C   UNL A   1      38.050  30.033  29.989  1.00  0.00     0.031 C 
ATOM     48  C   UNL A   1      41.896  27.607  32.147  1.00  0.00     0.029 A 
ATOM     49  N   UNL A   1      41.076  29.394  33.213  1.00  0.00    -0.354 N 
ATOM     50  C   UNL A   1      37.846  31.714  31.527  1.00  0.00     0.074 A 
ATOM     51  C   UNL A   1      37.422  31.168  30.256  1.00  0.00     0.031 C 
ATOM     52  C   UNL A   1      42.601  27.760  33.280  1.00  0.00     0.029 A 
ATOM     53  C   UNL A   1      42.105  28.931  33.996  1.00  0.00     0.049 A 
ATOM     54  H   UNL A   1      40.536  30.184  33.445  1.00  0.00     0.167 HD
ATOM     55  C   UNL A   1      37.304  32.815  32.102  1.00  0.00     0.031 A 
ATOM     56  C   UNL A   1      42.597  29.396  35.160  1.00  0.00     0.031 A 
ATOM     57  C   UNL A   1      37.715  33.345  33.373  1.00  0.00     0.049 A 
ATOM     58  C   UNL A   1      41.975  30.612  35.787  1.00  0.00     0.074 A 
ATOM     59  C   UNL A   1      37.190  34.419  34.071  1.00  0.00     0.029 A 
ATOM     60  N   UNL A   1      38.753  32.838  34.141  1.00  0.00    -0.354 N 
ATOM     61  N   UNL A   1      40.981  31.347  35.348  1.00  0.00    -0.248 NA
ATOM     62  C   UNL A   1      42.537  31.058  37.069  1.00  0.00     0.031 C 
ATOM     63  C   UNL A   1      37.937  34.584  35.243  1.00  0.00     0.029 A 
ATOM     64  C   UNL A   1      38.897  33.587  35.297  1.00  0.00     0.049 A 
ATOM     65  H   UNL A   1      39.306  32.060  33.899  1.00  0.00     0.167 HD
ATOM     66  C   UNL A   1      40.782  32.329  36.310  1.00  0.00     0.074 A 
ATOM     67  C   UNL A   1      41.754  32.090  37.359  1.00  0.00     0.031 C 
ATOM     68  C   UNL A   1      39.875  33.337  36.325  1.00  0.00     0.031 A 
BRANCH  55  69
ATOM     69  C   UNL A   1      36.214  33.521  31.339  1.00  0.00    -0.014 A 
ATOM     70  C   UNL A   1      36.320  33.737  29.952  1.00  0.00     0.010 A 
ATOM     71  C   UNL A   1      35.071  33.981  32.018  1.00  0.00     0.010 A 
ATOM     72  C   UNL A   1      35.333  34.451  29.270  1.00  0.00     0.020 A 
ATOM     73  C   UNL A   1      34.068  34.673  31.333  1.00  0.00     0.020 A 
ATOM     74  C   UNL A   1      34.219  34.926  29.968  1.00  0.00     0.054 A 
BRANCH  74  75
ATOM     75  S   UNL A   1      32.955  35.863  29.063  1.00  0.00     0.124 S 
ATOM     76  O   UNL A   1      33.761  36.877  28.388  1.00  0.00    -0.237 OA
ATOM     77  O   UNL A   1      32.361  34.852  28.193  1.00  0.00    -0.237 OA
ATOM     78  O   UNL A   1      32.078  36.366  30.118  1.00  0.00    -0.744 OA
ENDBRANCH  74  75
ENDBRANCH  55  69
BRANCH  56  79
ATOM     79  C   UNL A   1      43.719  28.679  35.821  1.00  0.00    -0.014 A 
ATOM     80  C   UNL A   1      45.045  29.095  35.607  1.00  0.00     0.010 A 
ATOM     81  C   UNL A   1      43.466  27.614  36.704  1.00  0.00     0.010 A 
ATOM     82  C   UNL A   1      46.100  28.458  36.268  1.00  0.00     0.020 A 
ATOM     83  C   UNL A   1      44.517  26.989  37.381  1.00  0.00     0.020 A 
ATOM     84  C   UNL A   1      45.829  27.413  37.155  1.00  0.00     0.054 A 
BRANCH  84  85
ATOM     85  S   UNL A   1      47.205  26.659  38.067  1.00  0.00     0.124 S 
ATOM     86  O   UNL A   1      47.528  27.696  39.042  1.00  0.00    -0.237 OA
ATOM     87  O   UNL A   1      46.599  25.445  38.610  1.00  0.00    -0.237 OA
ATOM     88  O   UNL A   1      48.214  26.432  37.034  1.00  0.00    -0.744 OA
ENDBRANCH  84  85
ENDBRANCH  56  79
BRANCH  68  89
ATOM     89  C   UNL A   1      39.876  34.245  37.524  1.00  0.00    -0.014 A 
ATOM     90  C   UNL A   1      40.695  35.387  37.567  1.00  0.00     0.010 A 
ATOM     91  C   UNL A   1      39.009  33.978  38.598  1.00  0.00     0.010 A 
ATOM     92  C   UNL A   1      40.665  36.234  38.678  1.00  0.00     0.020 A 
ATOM     93  C   UNL A   1      38.961  34.834  39.701  1.00  0.00     0.020 A 
ATOM     94  C   UNL A   1      39.800  35.950  39.740  1.00  0.00     0.054 A 
BRANCH  94  95
ATOM     95  S   UNL A   1      39.745  37.086  41.153  1.00  0.00     0.124 S 
ATOM     96  O   UNL A   1      41.156  37.418  41.330  1.00  0.00    -0.237 OA
ATOM     97  O   UNL A   1      38.900  38.172  40.662  1.00  0.00    -0.237 OA
ATOM     98  O   UNL A   1      39.155  36.281  42.220  1.00  0.00    -0.744 OA
ENDBRANCH  94  95
ENDBRANCH  68  89
ENDBRANCH  42  43
ENDBRANCH  34  37
ENDBRANCH  32  33
ENDBRANCH   1  32
TORSDOF 17
ENDMDL
