MODEL 1
REMARK VINA RESULT:     -11.2      0.000      0.000
REMARK SMILES CC[C@H](C)[C@@H](C(=O)NCCCNC(=O)c1ccc(-c2c3nc(c(-c4ccc(S(=O)(=O)[O-])cc4)c4ccc([nH]4)c(-c4ccc(S(=O)(=O)[O-])cc4)c4nc(c(-c5ccc(S(=O)(=O)[O-])cc5)c5ccc2[nH]5)C=C4)C=C3)cc1)[NH+]1CC(C)(C)C1
REMARK SMILES IDX 10 1 9 2 8 3 6 4 7 5 5 7 3 8 4 9 2 10 1 11 75 12 76 13 80 14
REMARK SMILES IDX 77 16 78 17 79 18 11 19 12 20 13 21 14 23 15 24 16 25 74 26
REMARK SMILES IDX 17 27 73 28 18 29 19 30 20 31 67 32 21 33 72 34 66 35 68 36
REMARK SMILES IDX 22 37 71 38 65 39 64 40 23 42 53 43 34 44 52 45 35 46 38 47
REMARK SMILES IDX 51 48 69 49 36 50 37 51 50 53 70 54 39 55 24 56 25 57 33 58
REMARK SMILES IDX 26 59 32 60 27 61 28 62 29 63 30 64 31 65 54 66 55 67 63 68
REMARK SMILES IDX 56 69 62 70 57 71 58 72 59 73 60 74 61 75 40 76 41 77 49 78
REMARK SMILES IDX 42 79 48 80 43 81 44 82 45 83 46 84 47 85
REMARK H PARENT 8 6 75 15 12 22 68 41 38 52
REMARK Flexibility Score: inf
ROOT
ATOM      1  C   UNL A   1      37.838  23.889  26.071  1.00  0.00     0.042 C 
ENDROOT
BRANCH   1   2
ATOM      2  C   UNL A   1      36.965  22.714  25.611  1.00  0.00     0.118 C 
BRANCH   2   3
ATOM      3  N   UNL A   1      36.000  22.291  26.615  1.00  0.00    -0.351 N 
ATOM      4  C   UNL A   1      34.824  21.593  26.553  1.00  0.00     0.278 C 
ATOM      5  O   UNL A   1      34.252  21.456  27.638  1.00  0.00    -0.268 OA
ATOM      6  H   UNL A   1      36.244  22.562  27.530  1.00  0.00     0.163 HD
BRANCH   4   7
ATOM      7  C   UNL A   1      34.299  21.000  25.210  1.00  0.00     0.277 C 
BRANCH   7   8
ATOM      8  C   UNL A   1      33.304  21.911  24.410  1.00  0.00     0.054 C 
ATOM      9  C   UNL A   1      32.581  22.946  25.261  1.00  0.00     0.014 C 
BRANCH   8  10
ATOM     10  C   UNL A   1      34.052  22.584  23.223  1.00  0.00     0.006 C 
ATOM     11  C   UNL A   1      33.976  24.103  23.179  1.00  0.00     0.004 C 
ENDBRANCH   8  10
ENDBRANCH   7   8
BRANCH   7  12
ATOM     12  N   UNL A   1      33.660  19.656  25.311  1.00  0.00    -0.323 N 
ATOM     13  C   UNL A   1      32.411  19.460  24.562  1.00  0.00     0.275 C 
ATOM     14  C   UNL A   1      34.322  18.585  24.536  1.00  0.00     0.275 C 
ATOM     15  H   UNL A   1      33.634  19.616  26.329  1.00  0.00     0.348 HD
ATOM     16  C   UNL A   1      32.911  18.017  24.219  1.00  0.00     0.063 C 
ATOM     17  C   UNL A   1      32.685  17.602  22.770  1.00  0.00     0.023 C 
ATOM     18  C   UNL A   1      32.501  16.908  25.191  1.00  0.00     0.023 C 
ENDBRANCH   7  12
ENDBRANCH   4   7
ENDBRANCH   2   3
ENDBRANCH   1   2
BRANCH   1  19
ATOM     19  C   UNL A   1      39.100  23.516  26.845  1.00  0.00     0.118 C 
BRANCH  19  20
ATOM     20  N   UNL A   1      40.314  23.877  26.133  1.00  0.00    -0.352 N 
ATOM     21  C   UNL A   1      41.110  24.987  26.273  1.00  0.00     0.251 C 
ATOM     22  H   UNL A   1      40.607  23.231  25.451  1.00  0.00     0.163 HD
ATOM     23  O   UNL A   1      41.977  25.206  25.422  1.00  0.00    -0.269 OA
BRANCH  21  24
ATOM     24  C   UNL A   1      40.941  25.931  27.406  1.00  0.00     0.039 A 
ATOM     25  C   UNL A   1      41.896  26.937  27.588  1.00  0.00     0.014 A 
ATOM     26  C   UNL A   1      39.894  25.805  28.324  1.00  0.00     0.014 A 
ATOM     27  C   UNL A   1      41.780  27.835  28.655  1.00  0.00     0.010 A 
ATOM     28  C   UNL A   1      39.741  26.743  29.350  1.00  0.00     0.010 A 
ATOM     29  C   UNL A   1      40.689  27.760  29.536  1.00  0.00    -0.014 A 
BRANCH  29  30
ATOM     30  C   UNL A   1      40.539  28.731  30.655  1.00  0.00     0.031 A 
ATOM     31  C   UNL A   1      41.397  28.625  31.888  1.00  0.00     0.074 A 
ATOM     32  C   UNL A   1      39.592  29.689  30.589  1.00  0.00     0.049 A 
ATOM     33  N   UNL A   1      41.396  29.374  32.963  1.00  0.00    -0.248 NA
ATOM     34  C   UNL A   1      42.364  27.517  31.930  1.00  0.00     0.031 C 
ATOM     35  C   UNL A   1      38.654  29.876  29.480  1.00  0.00     0.029 A 
ATOM     36  N   UNL A   1      39.258  30.681  31.479  1.00  0.00    -0.354 N 
ATOM     37  C   UNL A   1      42.341  28.817  33.817  1.00  0.00     0.074 A 
ATOM     38  C   UNL A   1      42.866  27.643  33.151  1.00  0.00     0.031 C 
ATOM     39  C   UNL A   1      37.864  30.928  29.747  1.00  0.00     0.029 A 
ATOM     40  C   UNL A   1      38.218  31.474  31.056  1.00  0.00     0.049 A 
ATOM     41  H   UNL A   1      39.719  30.810  32.339  1.00  0.00     0.167 HD
ATOM     42  C   UNL A   1      42.749  29.245  35.037  1.00  0.00     0.031 A 
ATOM     43  C   UNL A   1      37.611  32.522  31.647  1.00  0.00     0.031 A 
ATOM     44  C   UNL A   1      42.240  30.419  35.697  1.00  0.00     0.049 A 
ATOM     45  C   UNL A   1      38.096  33.002  32.985  1.00  0.00     0.074 A 
ATOM     46  C   UNL A   1      42.648  30.977  36.896  1.00  0.00     0.029 A 
ATOM     47  N   UNL A   1      41.205  31.210  35.221  1.00  0.00    -0.354 N 
ATOM     48  N   UNL A   1      39.053  32.512  33.737  1.00  0.00    -0.248 NA
ATOM     49  C   UNL A   1      37.430  34.185  33.547  1.00  0.00     0.031 C 
ATOM     50  C   UNL A   1      41.830  32.080  37.168  1.00  0.00     0.029 A 
ATOM     51  C   UNL A   1      40.943  32.236  36.114  1.00  0.00     0.049 A 
ATOM     52  H   UNL A   1      40.728  31.064  34.373  1.00  0.00     0.167 HD
ATOM     53  C   UNL A   1      39.112  33.334  34.857  1.00  0.00     0.074 A 
ATOM     54  C   UNL A   1      38.106  34.363  34.674  1.00  0.00     0.031 C 
ATOM     55  C   UNL A   1      39.927  33.244  35.936  1.00  0.00     0.031 A 
BRANCH  42  56
ATOM     56  C   UNL A   1      43.791  28.417  35.743  1.00  0.00    -0.014 A 
ATOM     57  C   UNL A   1      45.164  28.654  35.549  1.00  0.00     0.010 A 
ATOM     58  C   UNL A   1      43.391  27.386  36.611  1.00  0.00     0.010 A 
ATOM     59  C   UNL A   1      46.117  27.832  36.157  1.00  0.00     0.020 A 
ATOM     60  C   UNL A   1      44.341  26.579  37.244  1.00  0.00     0.020 A 
ATOM     61  C   UNL A   1      45.698  26.791  36.990  1.00  0.00     0.054 A 
BRANCH  61  62
ATOM     62  S   UNL A   1      46.951  25.721  37.750  1.00  0.00     0.124 S 
ATOM     63  O   UNL A   1      47.486  26.587  38.798  1.00  0.00    -0.237 OA
ATOM     64  O   UNL A   1      46.165  24.583  38.219  1.00  0.00    -0.237 OA
ATOM     65  O   UNL A   1      47.870  25.429  36.653  1.00  0.00    -0.744 OA
ENDBRANCH  61  62
ENDBRANCH  42  56
BRANCH  43  66
ATOM     66  C   UNL A   1      36.488  33.198  30.946  1.00  0.00    -0.014 A 
ATOM     67  C   UNL A   1      35.202  33.213  31.512  1.00  0.00     0.010 A 
ATOM     68  C   UNL A   1      36.717  33.892  29.744  1.00  0.00     0.010 A 
ATOM     69  C   UNL A   1      34.166  33.919  30.894  1.00  0.00     0.020 A 
ATOM     70  C   UNL A   1      35.689  34.616  29.135  1.00  0.00     0.020 A 
ATOM     71  C   UNL A   1      34.419  34.625  29.714  1.00  0.00     0.054 A 
BRANCH  71  72
ATOM     72  S   UNL A   1      33.090  35.626  28.990  1.00  0.00     0.124 S 
ATOM     73  O   UNL A   1      32.422  34.663  28.121  1.00  0.00    -0.237 OA
ATOM     74  O   UNL A   1      32.334  36.050  30.166  1.00  0.00    -0.237 OA
ATOM     75  O   UNL A   1      33.808  36.699  28.304  1.00  0.00    -0.744 OA
ENDBRANCH  71  72
ENDBRANCH  43  66
BRANCH  55  76
ATOM     76  C   UNL A   1      39.773  34.289  37.007  1.00  0.00    -0.014 A 
ATOM     77  C   UNL A   1      40.359  35.561  36.869  1.00  0.00     0.010 A 
ATOM     78  C   UNL A   1      38.994  34.014  38.146  1.00  0.00     0.010 A 
ATOM     79  C   UNL A   1      40.194  36.527  37.866  1.00  0.00     0.020 A 
ATOM     80  C   UNL A   1      38.808  34.984  39.133  1.00  0.00     0.020 A 
ATOM     81  C   UNL A   1      39.423  36.231  38.994  1.00  0.00     0.054 A 
BRANCH  81  82
ATOM     82  S   UNL A   1      39.192  37.512  40.258  1.00  0.00     0.124 S 
ATOM     83  O   UNL A   1      38.249  38.415  39.606  1.00  0.00    -0.237 OA
ATOM     84  O   UNL A   1      38.658  36.757  41.389  1.00  0.00    -0.237 OA
ATOM     85  O   UNL A   1      40.537  38.049  40.456  1.00  0.00    -0.744 OA
ENDBRANCH  81  82
ENDBRANCH  55  76
ENDBRANCH  29  30
ENDBRANCH  21  24
ENDBRANCH  19  20
ENDBRANCH   1  19
TORSDOF 16
ENDMDL
MODEL 2
REMARK VINA RESULT:     -10.9      4.651     10.444
REMARK SMILES CC[C@H](C)[C@@H](C(=O)NCCCNC(=O)c1ccc(-c2c3nc(c(-c4ccc(S(=O)(=O)[O-])cc4)c4ccc([nH]4)c(-c4ccc(S(=O)(=O)[O-])cc4)c4nc(c(-c5ccc(S(=O)(=O)[O-])cc5)c5ccc2[nH]5)C=C4)C=C3)cc1)[NH+]1CC(C)(C)C1
REMARK SMILES IDX 10 1 9 2 8 3 6 4 7 5 5 7 3 8 4 9 2 10 1 11 75 12 76 13 80 14
REMARK SMILES IDX 77 16 78 17 79 18 11 19 12 20 13 21 14 23 15 24 16 25 74 26
REMARK SMILES IDX 17 27 73 28 18 29 19 30 20 31 67 32 21 33 72 34 66 35 68 36
REMARK SMILES IDX 22 37 71 38 65 39 64 40 23 42 53 43 34 44 52 45 35 46 38 47
REMARK SMILES IDX 51 48 69 49 36 50 37 51 50 53 70 54 39 55 24 56 25 57 33 58
REMARK SMILES IDX 26 59 32 60 27 61 28 62 29 63 30 64 31 65 54 66 55 67 63 68
REMARK SMILES IDX 56 69 62 70 57 71 58 72 59 73 60 74 61 75 40 76 41 77 49 78
REMARK SMILES IDX 42 79 48 80 43 81 44 82 45 83 46 84 47 85
REMARK H PARENT 8 6 75 15 12 22 68 41 38 52
REMARK Flexibility Score: inf
ROOT
ATOM      1  C   UNL A   1      32.843  27.822  25.429  1.00  0.00     0.042 C 
ENDROOT
BRANCH   1   2
ATOM      2  C   UNL A   1      31.417  27.406  25.812  1.00  0.00     0.118 C 
BRANCH   2   3
ATOM      3  N   UNL A   1      31.364  26.144  26.537  1.00  0.00    -0.351 N 
ATOM      4  C   UNL A   1      31.906  24.907  26.310  1.00  0.00     0.278 C 
ATOM      5  O   UNL A   1      31.603  24.054  27.148  1.00  0.00    -0.268 OA
ATOM      6  H   UNL A   1      30.829  26.190  27.362  1.00  0.00     0.163 HD
BRANCH   4   7
ATOM      7  C   UNL A   1      32.856  24.644  25.102  1.00  0.00     0.277 C 
BRANCH   7   8
ATOM      8  C   UNL A   1      32.172  24.064  23.815  1.00  0.00     0.054 C 
ATOM      9  C   UNL A   1      30.664  23.888  23.934  1.00  0.00     0.014 C 
BRANCH   8  10
ATOM     10  C   UNL A   1      32.539  24.946  22.586  1.00  0.00     0.006 C 
ATOM     11  C   UNL A   1      31.598  26.110  22.313  1.00  0.00     0.004 C 
ENDBRANCH   8  10
ENDBRANCH   7   8
BRANCH   7  12
ATOM     12  N   UNL A   1      34.030  23.770  25.390  1.00  0.00    -0.323 N 
ATOM     13  C   UNL A   1      34.239  22.626  24.493  1.00  0.00     0.275 C 
ATOM     14  C   UNL A   1      35.343  24.337  25.015  1.00  0.00     0.275 C 
ATOM     15  H   UNL A   1      33.805  23.593  26.369  1.00  0.00     0.348 HD
ATOM     16  C   UNL A   1      35.776  22.908  24.586  1.00  0.00     0.063 C 
ATOM     17  C   UNL A   1      36.512  22.821  23.254  1.00  0.00     0.023 C 
ATOM     18  C   UNL A   1      36.534  22.175  25.696  1.00  0.00     0.023 C 
ENDBRANCH   7  12
ENDBRANCH   4   7
ENDBRANCH   2   3
ENDBRANCH   1   2
BRANCH   1  19
ATOM     19  C   UNL A   1      33.755  28.215  26.588  1.00  0.00     0.118 C 
BRANCH  19  20
ATOM     20  N   UNL A   1      33.552  29.589  27.013  1.00  0.00    -0.352 N 
ATOM     21  C   UNL A   1      34.364  30.397  27.771  1.00  0.00     0.251 C 
ATOM     22  H   UNL A   1      32.709  30.000  26.714  1.00  0.00     0.163 HD
ATOM     23  O   UNL A   1      33.908  31.462  28.199  1.00  0.00    -0.269 OA
BRANCH  21  24
ATOM     24  C   UNL A   1      35.759  30.013  28.100  1.00  0.00     0.039 A 
ATOM     25  C   UNL A   1      36.043  29.566  29.395  1.00  0.00     0.014 A 
ATOM     26  C   UNL A   1      36.800  30.143  27.175  1.00  0.00     0.014 A 
ATOM     27  C   UNL A   1      37.351  29.213  29.748  1.00  0.00     0.010 A 
ATOM     28  C   UNL A   1      38.093  29.725  27.507  1.00  0.00     0.010 A 
ATOM     29  C   UNL A   1      38.387  29.268  28.801  1.00  0.00    -0.014 A 
BRANCH  29  30
ATOM     30  C   UNL A   1      39.774  28.863  29.158  1.00  0.00     0.031 A 
ATOM     31  C   UNL A   1      40.701  29.821  29.857  1.00  0.00     0.074 A 
ATOM     32  C   UNL A   1      40.226  27.641  28.809  1.00  0.00     0.049 A 
ATOM     33  N   UNL A   1      41.944  29.644  30.233  1.00  0.00    -0.248 NA
ATOM     34  C   UNL A   1      40.173  31.163  30.150  1.00  0.00     0.031 C 
ATOM     35  C   UNL A   1      39.456  26.631  28.080  1.00  0.00     0.029 A 
ATOM     36  N   UNL A   1      41.446  27.045  29.014  1.00  0.00    -0.354 N 
ATOM     37  C   UNL A   1      42.353  30.853  30.783  1.00  0.00     0.074 A 
ATOM     38  C   UNL A   1      41.238  31.768  30.655  1.00  0.00     0.031 C 
ATOM     39  C   UNL A   1      40.215  25.536  27.916  1.00  0.00     0.029 A 
ATOM     40  C   UNL A   1      41.533  25.774  28.500  1.00  0.00     0.049 A 
ATOM     41  H   UNL A   1      42.189  27.489  29.484  1.00  0.00     0.167 HD
ATOM     42  C   UNL A   1      43.539  31.174  31.357  1.00  0.00     0.031 A 
ATOM     43  C   UNL A   1      42.552  24.892  28.495  1.00  0.00     0.031 A 
ATOM     44  C   UNL A   1      44.644  30.263  31.499  1.00  0.00     0.049 A 
ATOM     45  C   UNL A   1      43.849  25.253  29.161  1.00  0.00     0.074 A 
ATOM     46  C   UNL A   1      45.855  30.473  32.137  1.00  0.00     0.029 A 
ATOM     47  N   UNL A   1      44.680  28.974  30.989  1.00  0.00    -0.354 N 
ATOM     48  N   UNL A   1      44.184  26.374  29.755  1.00  0.00    -0.248 NA
ATOM     49  C   UNL A   1      44.899  24.225  29.171  1.00  0.00     0.031 C 
ATOM     50  C   UNL A   1      46.641  29.326  31.973  1.00  0.00     0.029 A 
ATOM     51  C   UNL A   1      45.902  28.385  31.274  1.00  0.00     0.049 A 
ATOM     52  H   UNL A   1      43.946  28.542  30.497  1.00  0.00     0.167 HD
ATOM     53  C   UNL A   1      45.481  26.183  30.219  1.00  0.00     0.074 A 
ATOM     54  C   UNL A   1      45.862  24.832  29.853  1.00  0.00     0.031 C 
ATOM     55  C   UNL A   1      46.281  27.048  30.889  1.00  0.00     0.031 A 
BRANCH  42  56
ATOM     56  C   UNL A   1      43.700  32.586  31.856  1.00  0.00    -0.014 A 
ATOM     57  C   UNL A   1      44.217  33.598  31.027  1.00  0.00     0.010 A 
ATOM     58  C   UNL A   1      43.333  32.905  33.176  1.00  0.00     0.010 A 
ATOM     59  C   UNL A   1      44.425  34.886  31.527  1.00  0.00     0.020 A 
ATOM     60  C   UNL A   1      43.514  34.199  33.673  1.00  0.00     0.020 A 
ATOM     61  C   UNL A   1      44.085  35.175  32.852  1.00  0.00     0.054 A 
BRANCH  61  62
ATOM     62  S   UNL A   1      44.386  36.847  33.488  1.00  0.00     0.124 S 
ATOM     63  O   UNL A   1      43.613  37.664  32.556  1.00  0.00    -0.237 OA
ATOM     64  O   UNL A   1      43.857  36.777  34.848  1.00  0.00    -0.237 OA
ATOM     65  O   UNL A   1      45.836  36.997  33.395  1.00  0.00    -0.744 OA
ENDBRANCH  61  62
ENDBRANCH  42  56
BRANCH  43  66
ATOM     66  C   UNL A   1      42.360  23.567  27.850  1.00  0.00    -0.014 A 
ATOM     67  C   UNL A   1      42.849  23.329  26.554  1.00  0.00     0.010 A 
ATOM     68  C   UNL A   1      41.751  22.515  28.558  1.00  0.00     0.010 A 
ATOM     69  C   UNL A   1      42.741  22.058  25.981  1.00  0.00     0.020 A 
ATOM     70  C   UNL A   1      41.661  21.239  27.996  1.00  0.00     0.020 A 
ATOM     71  C   UNL A   1      42.157  21.019  26.710  1.00  0.00     0.054 A 
BRANCH  71  72
ATOM     72  S   UNL A   1      42.129  19.352  25.992  1.00  0.00     0.124 S 
ATOM     73  O   UNL A   1      42.683  18.545  27.074  1.00  0.00    -0.237 OA
ATOM     74  O   UNL A   1      40.709  19.150  25.714  1.00  0.00    -0.237 OA
ATOM     75  O   UNL A   1      42.973  19.479  24.806  1.00  0.00    -0.744 OA
ENDBRANCH  71  72
ENDBRANCH  43  66
BRANCH  55  76
ATOM     76  C   UNL A   1      47.650  26.563  31.278  1.00  0.00    -0.014 A 
ATOM     77  C   UNL A   1      47.856  25.858  32.478  1.00  0.00     0.010 A 
ATOM     78  C   UNL A   1      48.739  26.772  30.412  1.00  0.00     0.010 A 
ATOM     79  C   UNL A   1      49.132  25.400  32.819  1.00  0.00     0.020 A 
ATOM     80  C   UNL A   1      50.011  26.296  30.738  1.00  0.00     0.020 A 
ATOM     81  C   UNL A   1      50.202  25.625  31.948  1.00  0.00     0.054 A 
BRANCH  81  82
ATOM     82  S   UNL A   1      51.843  24.990  32.394  1.00  0.00     0.124 S 
ATOM     83  O   UNL A   1      52.669  25.492  31.300  1.00  0.00    -0.237 OA
ATOM     84  O   UNL A   1      52.084  25.604  33.697  1.00  0.00    -0.237 OA
ATOM     85  O   UNL A   1      51.656  23.540  32.421  1.00  0.00    -0.744 OA
ENDBRANCH  81  82
ENDBRANCH  55  76
ENDBRANCH  29  30
ENDBRANCH  21  24
ENDBRANCH  19  20
ENDBRANCH   1  19
TORSDOF 16
ENDMDL
MODEL 3
REMARK VINA RESULT:     -10.9      4.613     10.324
REMARK SMILES CC[C@H](C)[C@@H](C(=O)NCCCNC(=O)c1ccc(-c2c3nc(c(-c4ccc(S(=O)(=O)[O-])cc4)c4ccc([nH]4)c(-c4ccc(S(=O)(=O)[O-])cc4)c4nc(c(-c5ccc(S(=O)(=O)[O-])cc5)c5ccc2[nH]5)C=C4)C=C3)cc1)[NH+]1CC(C)(C)C1
REMARK SMILES IDX 10 1 9 2 8 3 6 4 7 5 5 7 3 8 4 9 2 10 1 11 75 12 76 13 80 14
REMARK SMILES IDX 77 16 78 17 79 18 11 19 12 20 13 21 14 23 15 24 16 25 74 26
REMARK SMILES IDX 17 27 73 28 18 29 19 30 20 31 67 32 21 33 72 34 66 35 68 36
REMARK SMILES IDX 22 37 71 38 65 39 64 40 23 42 53 43 34 44 52 45 35 46 38 47
REMARK SMILES IDX 51 48 69 49 36 50 37 51 50 53 70 54 39 55 24 56 25 57 33 58
REMARK SMILES IDX 26 59 32 60 27 61 28 62 29 63 30 64 31 65 54 66 55 67 63 68
REMARK SMILES IDX 56 69 62 70 57 71 58 72 59 73 60 74 61 75 40 76 41 77 49 78
REMARK SMILES IDX 42 79 48 80 43 81 44 82 45 83 46 84 47 85
REMARK H PARENT 8 6 75 15 12 22 68 41 38 52
REMARK Flexibility Score: inf
ROOT
ATOM      1  C   UNL A   1      33.488  27.538  25.690  1.00  0.00     0.042 C 
ENDROOT
BRANCH   1   2
ATOM      2  C   UNL A   1      33.380  26.019  25.502  1.00  0.00     0.118 C 
BRANCH   2   3
ATOM      3  N   UNL A   1      33.504  25.605  24.112  1.00  0.00    -0.351 N 
ATOM      4  C   UNL A   1      33.887  24.437  23.510  1.00  0.00     0.278 C 
ATOM      5  O   UNL A   1      33.901  24.477  22.277  1.00  0.00    -0.268 OA
ATOM      6  H   UNL A   1      33.260  26.312  23.471  1.00  0.00     0.163 HD
BRANCH   4   7
ATOM      7  C   UNL A   1      34.233  23.166  24.345  1.00  0.00     0.277 C 
BRANCH   7   8
ATOM      8  C   UNL A   1      35.763  22.880  24.539  1.00  0.00     0.054 C 
ATOM      9  C   UNL A   1      36.612  23.151  23.305  1.00  0.00     0.014 C 
BRANCH   8  10
ATOM     10  C   UNL A   1      36.291  23.675  25.769  1.00  0.00     0.006 C 
ATOM     11  C   UNL A   1      37.805  23.784  25.877  1.00  0.00     0.004 C 
ENDBRANCH   8  10
ENDBRANCH   7   8
BRANCH   7  12
ATOM     12  N   UNL A   1      33.621  21.896  23.861  1.00  0.00    -0.323 N 
ATOM     13  C   UNL A   1      34.291  20.648  24.249  1.00  0.00     0.275 C 
ATOM     14  C   UNL A   1      32.388  21.484  24.565  1.00  0.00     0.275 C 
ATOM     15  H   UNL A   1      33.590  22.151  22.874  1.00  0.00     0.348 HD
ATOM     16  C   UNL A   1      32.873  20.013  24.438  1.00  0.00     0.063 C 
ATOM     17  C   UNL A   1      32.726  19.166  25.696  1.00  0.00     0.023 C 
ATOM     18  C   UNL A   1      32.276  19.310  23.215  1.00  0.00     0.023 C 
ENDBRANCH   7  12
ENDBRANCH   4   7
ENDBRANCH   2   3
ENDBRANCH   1   2
BRANCH   1  19
ATOM     19  C   UNL A   1      33.417  28.036  27.132  1.00  0.00     0.118 C 
BRANCH  19  20
ATOM     20  N   UNL A   1      33.308  29.482  27.215  1.00  0.00    -0.352 N 
ATOM     21  C   UNL A   1      34.196  30.396  27.727  1.00  0.00     0.251 C 
ATOM     22  H   UNL A   1      32.476  29.861  26.851  1.00  0.00     0.163 HD
ATOM     23  O   UNL A   1      33.818  31.559  27.897  1.00  0.00    -0.269 OA
BRANCH  21  24
ATOM     24  C   UNL A   1      35.582  30.015  28.096  1.00  0.00     0.039 A 
ATOM     25  C   UNL A   1      36.572  30.050  27.107  1.00  0.00     0.014 A 
ATOM     26  C   UNL A   1      35.910  29.568  29.379  1.00  0.00     0.014 A 
ATOM     27  C   UNL A   1      37.887  29.680  27.413  1.00  0.00     0.010 A 
ATOM     28  C   UNL A   1      37.237  29.264  29.702  1.00  0.00     0.010 A 
ATOM     29  C   UNL A   1      38.238  29.303  28.719  1.00  0.00    -0.014 A 
BRANCH  29  30
ATOM     30  C   UNL A   1      39.641  28.939  29.062  1.00  0.00     0.031 A 
ATOM     31  C   UNL A   1      40.555  29.935  29.724  1.00  0.00     0.074 A 
ATOM     32  C   UNL A   1      40.117  27.722  28.732  1.00  0.00     0.049 A 
ATOM     33  N   UNL A   1      41.808  29.797  30.084  1.00  0.00    -0.248 NA
ATOM     34  C   UNL A   1      39.998  31.270  29.997  1.00  0.00     0.031 C 
ATOM     35  C   UNL A   1      39.361  26.677  28.039  1.00  0.00     0.029 A 
ATOM     36  N   UNL A   1      41.355  27.161  28.930  1.00  0.00    -0.354 N 
ATOM     37  C   UNL A   1      42.195  31.028  30.600  1.00  0.00     0.074 A 
ATOM     38  C   UNL A   1      41.056  31.913  30.471  1.00  0.00     0.031 C 
ATOM     39  C   UNL A   1      40.144  25.598  27.886  1.00  0.00     0.029 A 
ATOM     40  C   UNL A   1      41.465  25.880  28.443  1.00  0.00     0.049 A 
ATOM     41  H   UNL A   1      42.095  27.632  29.377  1.00  0.00     0.167 HD
ATOM     42  C   UNL A   1      43.382  31.390  31.146  1.00  0.00     0.031 A 
ATOM     43  C   UNL A   1      42.506  25.024  28.440  1.00  0.00     0.031 A 
ATOM     44  C   UNL A   1      44.512  30.510  31.290  1.00  0.00     0.049 A 
ATOM     45  C   UNL A   1      43.804  25.432  29.077  1.00  0.00     0.074 A 
ATOM     46  C   UNL A   1      45.727  30.764  31.903  1.00  0.00     0.029 A 
ATOM     47  N   UNL A   1      44.572  29.212  30.808  1.00  0.00    -0.354 N 
ATOM     48  N   UNL A   1      44.121  26.573  29.639  1.00  0.00    -0.248 NA
ATOM     49  C   UNL A   1      44.879  24.429  29.092  1.00  0.00     0.031 C 
ATOM     50  C   UNL A   1      46.539  29.633  31.751  1.00  0.00     0.029 A 
ATOM     51  C   UNL A   1      45.812  28.659  31.085  1.00  0.00     0.049 A 
ATOM     52  H   UNL A   1      43.841  28.751  30.338  1.00  0.00     0.167 HD
ATOM     53  C   UNL A   1      45.429  26.424  30.086  1.00  0.00     0.074 A 
ATOM     54  C   UNL A   1      45.837  25.075  29.744  1.00  0.00     0.031 C 
ATOM     55  C   UNL A   1      46.218  27.323  30.724  1.00  0.00     0.031 A 
BRANCH  42  56
ATOM     56  C   UNL A   1      43.517  32.817  31.612  1.00  0.00    -0.014 A 
ATOM     57  C   UNL A   1      44.011  33.819  30.757  1.00  0.00     0.010 A 
ATOM     58  C   UNL A   1      43.146  33.159  32.925  1.00  0.00     0.010 A 
ATOM     59  C   UNL A   1      44.195  35.122  31.226  1.00  0.00     0.020 A 
ATOM     60  C   UNL A   1      43.302  34.468  33.390  1.00  0.00     0.020 A 
ATOM     61  C   UNL A   1      43.852  35.436  32.545  1.00  0.00     0.054 A 
BRANCH  61  62
ATOM     62  S   UNL A   1      44.121  37.128  33.141  1.00  0.00     0.124 S 
ATOM     63  O   UNL A   1      44.073  37.893  31.897  1.00  0.00    -0.237 OA
ATOM     64  O   UNL A   1      42.996  37.335  34.049  1.00  0.00    -0.237 OA
ATOM     65  O   UNL A   1      45.432  37.065  33.783  1.00  0.00    -0.744 OA
ENDBRANCH  61  62
ENDBRANCH  42  56
BRANCH  43  66
ATOM     66  C   UNL A   1      42.336  23.680  27.827  1.00  0.00    -0.014 A 
ATOM     67  C   UNL A   1      42.615  23.479  26.465  1.00  0.00     0.010 A 
ATOM     68  C   UNL A   1      41.965  22.581  28.622  1.00  0.00     0.010 A 
ATOM     69  C   UNL A   1      42.536  22.199  25.909  1.00  0.00     0.020 A 
ATOM     70  C   UNL A   1      41.904  21.296  28.074  1.00  0.00     0.020 A 
ATOM     71  C   UNL A   1      42.191  21.114  26.720  1.00  0.00     0.054 A 
BRANCH  71  72
ATOM     72  S   UNL A   1      42.203  19.446  26.004  1.00  0.00     0.124 S 
ATOM     73  O   UNL A   1      42.750  18.650  27.098  1.00  0.00    -0.237 OA
ATOM     74  O   UNL A   1      40.792  19.220  25.700  1.00  0.00    -0.237 OA
ATOM     75  O   UNL A   1      43.067  19.584  24.835  1.00  0.00    -0.744 OA
ENDBRANCH  71  72
ENDBRANCH  43  66
BRANCH  55  76
ATOM     76  C   UNL A   1      47.605  26.880  31.100  1.00  0.00    -0.014 A 
ATOM     77  C   UNL A   1      48.700  27.127  30.253  1.00  0.00     0.010 A 
ATOM     78  C   UNL A   1      47.826  26.250  32.339  1.00  0.00     0.010 A 
ATOM     79  C   UNL A   1      49.986  26.723  30.623  1.00  0.00     0.020 A 
ATOM     80  C   UNL A   1      49.113  25.866  32.722  1.00  0.00     0.020 A 
ATOM     81  C   UNL A   1      50.184  26.092  31.854  1.00  0.00     0.054 A 
BRANCH  81  82
ATOM     82  S   UNL A   1      51.867  25.609  32.331  1.00  0.00     0.124 S 
ATOM     83  O   UNL A   1      51.687  24.208  32.702  1.00  0.00    -0.237 OA
ATOM     84  O   UNL A   1      52.629  25.841  31.106  1.00  0.00    -0.237 OA
ATOM     85  O   UNL A   1      52.186  26.512  33.435  1.00  0.00    -0.744 OA
ENDBRANCH  81  82
ENDBRANCH  55  76
ENDBRANCH  29  30
ENDBRANCH  21  24
ENDBRANCH  19  20
ENDBRANCH   1  19
TORSDOF 16
ENDMDL
