MODEL 1
REMARK VINA RESULT:     -11.9      0.000      0.000
REMARK SMILES COC(=O)c1ccc(C)c(NC(=O)[C@H]2CC=CC[C@H]2C(=O)NCCCNC(=O)c2ccc(-c3c4nc(c(-c5ccc(S(=O)(=O)[O-])cc5)c5ccc([nH]5)c(-c5ccc(S(=O)(=O)[O-])cc5)c5nc(c(-c6ccc(S(=O)(=O)[O-])cc6)c6ccc3[nH]6)C=C5)C=C4)cc2)c1
REMARK SMILES IDX 23 1 22 2 20 3 21 4 19 6 14 7 15 8 16 9 18 10 17 11 12 12
REMARK SMILES IDX 11 13 13 15 10 16 5 17 6 18 89 19 7 20 8 21 9 22 3 23 4 24
REMARK SMILES IDX 2 25 1 26 24 27 25 28 26 29 27 30 28 32 29 33 30 34 88 35
REMARK SMILES IDX 31 36 87 37 32 38 33 39 34 40 81 41 35 42 86 43 80 44 82 45
REMARK SMILES IDX 36 46 85 47 79 48 78 49 37 51 67 52 48 53 66 54 49 55 52 56
REMARK SMILES IDX 65 57 83 58 50 59 51 60 64 62 84 63 53 64 38 65 39 66 47 67
REMARK SMILES IDX 40 68 46 69 41 70 42 71 43 72 44 73 45 74 68 75 69 76 77 77
REMARK SMILES IDX 70 78 76 79 71 80 72 81 73 82 74 83 75 84 54 85 55 86 63 87
REMARK SMILES IDX 56 88 62 89 57 90 58 91 59 92 60 93 61 94
REMARK H PARENT 22 5 11 14 26 31 82 50 52 61
REMARK Flexibility Score: inf
ROOT
ATOM      1  C   UNL A   1      31.013  27.418  26.219  1.00  0.00     0.117 C 
ENDROOT
BRANCH   1   2
ATOM      2  N   UNL A   1      30.731  25.984  26.387  1.00  0.00    -0.356 N 
ATOM      3  C   UNL A   1      31.019  24.827  25.719  1.00  0.00     0.224 C 
ATOM      4  O   UNL A   1      30.884  23.730  26.274  1.00  0.00    -0.275 OA
ATOM      5  H   UNL A   1      30.192  25.813  27.193  1.00  0.00     0.163 HD
BRANCH   3   6
ATOM      6  C   UNL A   1      31.542  24.832  24.294  1.00  0.00     0.095 C 
ATOM      7  C   UNL A   1      33.067  25.132  24.148  1.00  0.00     0.095 C 
ATOM      8  C   UNL A   1      33.651  24.462  22.901  1.00  0.00     0.041 C 
ATOM      9  C   UNL A   1      33.166  23.078  22.624  1.00  0.00    -0.030 C 
ATOM     10  C   UNL A   1      30.934  23.644  23.531  1.00  0.00     0.041 C 
ATOM     11  C   UNL A   1      31.912  22.712  22.896  1.00  0.00    -0.030 C 
BRANCH   7  12
ATOM     12  C   UNL A   1      33.839  25.152  25.491  1.00  0.00     0.228 C 
ATOM     13  N   UNL A   1      34.012  24.038  26.257  1.00  0.00    -0.326 N 
ATOM     14  H   UNL A   1      33.665  24.088  27.177  1.00  0.00     0.169 HD
ATOM     15  O   UNL A   1      34.298  26.212  25.919  1.00  0.00    -0.274 OA
BRANCH  13  16
ATOM     16  C   UNL A   1      34.628  22.829  25.893  1.00  0.00     0.044 A 
ATOM     17  C   UNL A   1      34.294  20.511  25.261  1.00  0.00     0.062 A 
ATOM     18  C   UNL A   1      35.607  20.447  24.791  1.00  0.00     0.016 A 
ATOM     19  C   UNL A   1      33.803  21.711  25.800  1.00  0.00     0.042 A 
ATOM     20  C   UNL A   1      36.466  21.521  25.013  1.00  0.00     0.006 A 
ATOM     21  C   UNL A   1      36.004  22.687  25.646  1.00  0.00    -0.027 A 
ATOM     22  C   UNL A   1      37.014  23.716  26.078  1.00  0.00     0.046 C 
BRANCH  17  23
ATOM     23  C   UNL A   1      33.406  19.343  25.083  1.00  0.00     0.337 C 
ATOM     24  O   UNL A   1      32.373  19.146  25.721  1.00  0.00    -0.246 OA
BRANCH  23  25
ATOM     25  O   UNL A   1      33.959  18.509  24.181  1.00  0.00    -0.465 OA
ATOM     26  C   UNL A   1      33.163  17.376  23.850  1.00  0.00     0.282 C 
ENDBRANCH  23  25
ENDBRANCH  17  23
ENDBRANCH  13  16
ENDBRANCH   7  12
ENDBRANCH   3   6
ENDBRANCH   1   2
BRANCH   1  27
ATOM     27  C   UNL A   1      31.793  28.257  27.367  1.00  0.00     0.042 C 
BRANCH  27  28
ATOM     28  C   UNL A   1      32.514  29.617  26.930  1.00  0.00     0.118 C 
BRANCH  28  29
ATOM     29  N   UNL A   1      33.487  30.517  27.825  1.00  0.00    -0.352 N 
ATOM     30  C   UNL A   1      34.926  30.775  27.980  1.00  0.00     0.251 C 
ATOM     31  H   UNL A   1      32.968  31.058  28.463  1.00  0.00     0.163 HD
ATOM     32  O   UNL A   1      35.238  31.950  27.701  1.00  0.00    -0.269 OA
BRANCH  30  33
ATOM     33  C   UNL A   1      36.163  29.928  28.537  1.00  0.00     0.039 A 
ATOM     34  C   UNL A   1      36.189  29.408  29.877  1.00  0.00     0.014 A 
ATOM     35  C   UNL A   1      37.352  29.675  27.863  1.00  0.00     0.014 A 
ATOM     36  C   UNL A   1      37.447  29.235  30.606  1.00  0.00     0.010 A 
ATOM     37  C   UNL A   1      38.589  29.533  28.577  1.00  0.00     0.010 A 
ATOM     38  C   UNL A   1      38.662  29.571  29.978  1.00  0.00    -0.014 A 
BRANCH  38  39
ATOM     39  C   UNL A   1      39.858  30.274  30.661  1.00  0.00     0.031 A 
ATOM     40  C   UNL A   1      39.625  31.456  31.478  1.00  0.00     0.074 A 
ATOM     41  C   UNL A   1      41.171  29.879  30.776  1.00  0.00     0.049 A 
ATOM     42  N   UNL A   1      40.250  32.584  31.376  1.00  0.00    -0.248 NA
ATOM     43  C   UNL A   1      38.634  31.402  32.535  1.00  0.00     0.031 C 
ATOM     44  C   UNL A   1      42.352  30.389  31.503  1.00  0.00     0.029 A 
ATOM     45  N   UNL A   1      41.767  28.771  30.221  1.00  0.00    -0.354 N 
ATOM     46  C   UNL A   1      39.994  33.232  32.567  1.00  0.00     0.074 A 
ATOM     47  C   UNL A   1      38.784  32.613  33.067  1.00  0.00     0.031 C 
ATOM     48  C   UNL A   1      43.483  29.836  30.990  1.00  0.00     0.029 A 
ATOM     49  C   UNL A   1      43.096  28.983  29.884  1.00  0.00     0.049 A 
ATOM     50  H   UNL A   1      41.299  27.917  30.077  1.00  0.00     0.167 HD
ATOM     51  C   UNL A   1      40.959  33.966  33.204  1.00  0.00     0.031 A 
ATOM     52  C   UNL A   1      43.433  29.041  28.552  1.00  0.00     0.031 A 
ATOM     53  C   UNL A   1      42.272  33.869  32.526  1.00  0.00     0.049 A 
ATOM     54  C   UNL A   1      43.716  30.481  28.179  1.00  0.00     0.074 A 
ATOM     55  C   UNL A   1      43.504  33.342  32.896  1.00  0.00     0.029 A 
ATOM     56  N   UNL A   1      42.360  34.066  31.150  1.00  0.00    -0.354 N 
ATOM     57  N   UNL A   1      43.663  31.457  29.040  1.00  0.00    -0.248 NA
ATOM     58  C   UNL A   1      44.045  30.965  26.846  1.00  0.00     0.031 C 
ATOM     59  C   UNL A   1      44.299  33.177  31.717  1.00  0.00     0.029 A 
ATOM     60  C   UNL A   1      43.576  33.646  30.635  1.00  0.00     0.049 A 
ATOM     61  H   UNL A   1      41.639  34.459  30.606  1.00  0.00     0.167 HD
ATOM     62  C   UNL A   1      43.898  32.658  28.452  1.00  0.00     0.074 A 
ATOM     63  C   UNL A   1      44.147  32.293  27.063  1.00  0.00     0.031 C 
ATOM     64  C   UNL A   1      43.844  33.807  29.196  1.00  0.00     0.031 A 
BRANCH  51  65
ATOM     65  C   UNL A   1      40.774  34.524  34.617  1.00  0.00    -0.014 A 
ATOM     66  C   UNL A   1      41.086  33.757  35.756  1.00  0.00     0.010 A 
ATOM     67  C   UNL A   1      40.329  35.836  34.891  1.00  0.00     0.010 A 
ATOM     68  C   UNL A   1      40.906  34.251  37.068  1.00  0.00     0.020 A 
ATOM     69  C   UNL A   1      40.087  36.324  36.180  1.00  0.00     0.020 A 
ATOM     70  C   UNL A   1      40.393  35.531  37.271  1.00  0.00     0.054 A 
BRANCH  70  71
ATOM     71  S   UNL A   1      40.207  36.192  38.947  1.00  0.00     0.124 S 
ATOM     72  O   UNL A   1      39.220  37.253  38.766  1.00  0.00    -0.237 OA
ATOM     73  O   UNL A   1      39.748  35.024  39.695  1.00  0.00    -0.237 OA
ATOM     74  O   UNL A   1      41.550  36.653  39.294  1.00  0.00    -0.744 OA
ENDBRANCH  70  71
ENDBRANCH  51  65
BRANCH  52  75
ATOM     75  C   UNL A   1      42.722  27.999  27.635  1.00  0.00    -0.014 A 
ATOM     76  C   UNL A   1      42.751  28.312  26.252  1.00  0.00     0.010 A 
ATOM     77  C   UNL A   1      43.097  26.700  27.926  1.00  0.00     0.010 A 
ATOM     78  C   UNL A   1      43.770  27.790  25.426  1.00  0.00     0.020 A 
ATOM     79  C   UNL A   1      44.138  26.221  27.107  1.00  0.00     0.020 A 
ATOM     80  C   UNL A   1      44.603  26.829  25.966  1.00  0.00     0.054 A 
BRANCH  80  81
ATOM     81  S   UNL A   1      46.559  26.717  25.515  1.00  0.00     0.124 S 
ATOM     82  O   UNL A   1      46.516  25.672  24.520  1.00  0.00    -0.237 OA
ATOM     83  O   UNL A   1      46.929  28.002  24.957  1.00  0.00    -0.237 OA
ATOM     84  O   UNL A   1      47.280  26.359  26.723  1.00  0.00    -0.744 OA
ENDBRANCH  80  81
ENDBRANCH  52  75
BRANCH  64  85
ATOM     85  C   UNL A   1      44.023  35.224  28.693  1.00  0.00    -0.014 A 
ATOM     86  C   UNL A   1      44.863  36.186  29.260  1.00  0.00     0.010 A 
ATOM     87  C   UNL A   1      43.276  35.639  27.558  1.00  0.00     0.010 A 
ATOM     88  C   UNL A   1      45.002  37.461  28.694  1.00  0.00     0.020 A 
ATOM     89  C   UNL A   1      43.413  36.896  26.973  1.00  0.00     0.020 A 
ATOM     90  C   UNL A   1      44.286  37.802  27.547  1.00  0.00     0.054 A 
BRANCH  90  91
ATOM     91  S   UNL A   1      44.501  39.445  26.837  1.00  0.00     0.124 S 
ATOM     92  O   UNL A   1      43.195  39.689  26.230  1.00  0.00    -0.237 OA
ATOM     93  O   UNL A   1      44.804  40.254  28.016  1.00  0.00    -0.237 OA
ATOM     94  O   UNL A   1      45.605  39.282  25.896  1.00  0.00    -0.744 OA
ENDBRANCH  90  91
ENDBRANCH  64  85
ENDBRANCH  38  39
ENDBRANCH  30  33
ENDBRANCH  28  29
ENDBRANCH  27  28
ENDBRANCH   1  27
TORSDOF 17
ENDMDL
MODEL 2
REMARK VINA RESULT:     -11.9      4.829     10.846
REMARK SMILES COC(=O)c1ccc(C)c(NC(=O)[C@H]2CC=CC[C@H]2C(=O)NCCCNC(=O)c2ccc(-c3c4nc(c(-c5ccc(S(=O)(=O)[O-])cc5)c5ccc([nH]5)c(-c5ccc(S(=O)(=O)[O-])cc5)c5nc(c(-c6ccc(S(=O)(=O)[O-])cc6)c6ccc3[nH]6)C=C5)C=C4)cc2)c1
REMARK SMILES IDX 23 1 22 2 20 3 21 4 19 6 14 7 15 8 16 9 18 10 17 11 12 12
REMARK SMILES IDX 11 13 13 15 10 16 5 17 6 18 89 19 7 20 8 21 9 22 3 23 4 24
REMARK SMILES IDX 2 25 1 26 24 27 25 28 26 29 27 30 28 32 29 33 30 34 88 35
REMARK SMILES IDX 31 36 87 37 32 38 33 39 34 40 81 41 35 42 86 43 80 44 82 45
REMARK SMILES IDX 36 46 85 47 79 48 78 49 37 51 67 52 48 53 66 54 49 55 52 56
REMARK SMILES IDX 65 57 83 58 50 59 51 60 64 62 84 63 53 64 38 65 39 66 47 67
REMARK SMILES IDX 40 68 46 69 41 70 42 71 43 72 44 73 45 74 68 75 69 76 77 77
REMARK SMILES IDX 70 78 76 79 71 80 72 81 73 82 74 83 75 84 54 85 55 86 63 87
REMARK SMILES IDX 56 88 62 89 57 90 58 91 59 92 60 93 61 94
REMARK H PARENT 22 5 11 14 26 31 82 50 52 61
REMARK Flexibility Score: inf
ROOT
ATOM      1  C   UNL A   1      34.968  22.706  23.827  1.00  0.00     0.117 C 
ENDROOT
BRANCH   1   2
ATOM      2  N   UNL A   1      34.210  23.511  22.855  1.00  0.00    -0.356 N 
ATOM      3  C   UNL A   1      33.066  24.260  22.858  1.00  0.00     0.224 C 
ATOM      4  O   UNL A   1      32.839  25.065  21.948  1.00  0.00    -0.275 OA
ATOM      5  H   UNL A   1      34.640  23.509  21.969  1.00  0.00     0.163 HD
BRANCH   3   6
ATOM      6  C   UNL A   1      32.048  24.166  23.980  1.00  0.00     0.095 C 
ATOM      7  C   UNL A   1      32.406  24.968  25.270  1.00  0.00     0.095 C 
ATOM      8  C   UNL A   1      31.146  25.415  26.017  1.00  0.00     0.041 C 
ATOM      9  C   UNL A   1      30.025  25.902  25.160  1.00  0.00    -0.030 C 
ATOM     10  C   UNL A   1      30.635  24.287  23.388  1.00  0.00     0.041 C 
ATOM     11  C   UNL A   1      29.781  25.368  23.962  1.00  0.00    -0.030 C 
BRANCH   7  12
ATOM     12  C   UNL A   1      33.627  25.909  25.111  1.00  0.00     0.228 C 
ATOM     13  N   UNL A   1      33.610  27.008  24.305  1.00  0.00    -0.326 N 
ATOM     14  H   UNL A   1      34.291  27.034  23.595  1.00  0.00     0.169 HD
ATOM     15  O   UNL A   1      34.676  25.657  25.705  1.00  0.00    -0.274 OA
BRANCH  13  16
ATOM     16  C   UNL A   1      32.739  28.109  24.366  1.00  0.00     0.044 A 
ATOM     17  C   UNL A   1      30.803  29.200  23.394  1.00  0.00     0.062 A 
ATOM     18  C   UNL A   1      30.675  29.995  24.533  1.00  0.00     0.016 A 
ATOM     19  C   UNL A   1      31.831  28.246  23.319  1.00  0.00     0.042 A 
ATOM     20  C   UNL A   1      31.665  29.950  25.514  1.00  0.00     0.006 A 
ATOM     21  C   UNL A   1      32.751  29.069  25.392  1.00  0.00    -0.027 A 
ATOM     22  C   UNL A   1      33.908  29.223  26.342  1.00  0.00     0.046 C 
BRANCH  17  23
ATOM     23  C   UNL A   1      29.787  29.300  22.325  1.00  0.00     0.337 C 
ATOM     24  O   UNL A   1      29.908  29.977  21.306  1.00  0.00    -0.246 OA
BRANCH  23  25
ATOM     25  O   UNL A   1      28.695  28.603  22.697  1.00  0.00    -0.465 OA
ATOM     26  C   UNL A   1      27.546  29.398  22.972  1.00  0.00     0.282 C 
ENDBRANCH  23  25
ENDBRANCH  17  23
ENDBRANCH  13  16
ENDBRANCH   7  12
ENDBRANCH   3   6
ENDBRANCH   1   2
BRANCH   1  27
ATOM     27  C   UNL A   1      36.573  22.523  23.689  1.00  0.00     0.042 C 
BRANCH  27  28
ATOM     28  C   UNL A   1      37.319  21.656  24.808  1.00  0.00     0.118 C 
BRANCH  28  29
ATOM     29  N   UNL A   1      38.765  21.934  25.430  1.00  0.00    -0.352 N 
ATOM     30  C   UNL A   1      39.367  22.688  26.539  1.00  0.00     0.251 C 
ATOM     31  H   UNL A   1      39.459  21.458  24.918  1.00  0.00     0.163 HD
ATOM     32  O   UNL A   1      39.914  21.952  27.384  1.00  0.00    -0.269 OA
BRANCH  30  33
ATOM     33  C   UNL A   1      39.586  24.243  26.849  1.00  0.00     0.039 A 
ATOM     34  C   UNL A   1      40.238  25.121  25.916  1.00  0.00     0.014 A 
ATOM     35  C   UNL A   1      39.271  24.893  28.036  1.00  0.00     0.014 A 
ATOM     36  C   UNL A   1      41.011  26.279  26.368  1.00  0.00     0.010 A 
ATOM     37  C   UNL A   1      40.046  26.012  28.492  1.00  0.00     0.010 A 
ATOM     38  C   UNL A   1      41.108  26.550  27.747  1.00  0.00    -0.014 A 
BRANCH  38  39
ATOM     39  C   UNL A   1      42.380  27.040  28.476  1.00  0.00     0.031 A 
ATOM     40  C   UNL A   1      43.645  26.357  28.249  1.00  0.00     0.074 A 
ATOM     41  C   UNL A   1      42.589  28.171  29.232  1.00  0.00     0.049 A 
ATOM     42  N   UNL A   1      44.446  25.917  29.166  1.00  0.00    -0.248 NA
ATOM     43  C   UNL A   1      44.108  26.157  26.890  1.00  0.00     0.031 C 
ATOM     44  C   UNL A   1      43.770  28.802  29.857  1.00  0.00     0.029 A 
ATOM     45  N   UNL A   1      41.664  29.119  29.600  1.00  0.00    -0.354 N 
ATOM     46  C   UNL A   1      45.647  25.728  28.515  1.00  0.00     0.074 A 
ATOM     47  C   UNL A   1      45.290  25.590  27.119  1.00  0.00     0.031 C 
ATOM     48  C   UNL A   1      43.371  29.707  30.789  1.00  0.00     0.029 A 
ATOM     49  C   UNL A   1      41.922  29.673  30.846  1.00  0.00     0.049 A 
ATOM     50  H   UNL A   1      40.897  29.377  29.039  1.00  0.00     0.167 HD
ATOM     51  C   UNL A   1      46.841  26.036  29.113  1.00  0.00     0.031 A 
ATOM     52  C   UNL A   1      41.077  29.368  31.887  1.00  0.00     0.031 A 
ATOM     53  C   UNL A   1      46.653  26.676  30.435  1.00  0.00     0.049 A 
ATOM     54  C   UNL A   1      41.775  28.402  32.820  1.00  0.00     0.074 A 
ATOM     55  C   UNL A   1      46.945  27.940  30.937  1.00  0.00     0.029 A 
ATOM     56  N   UNL A   1      45.792  26.104  31.368  1.00  0.00    -0.354 N 
ATOM     57  N   UNL A   1      42.996  27.991  32.626  1.00  0.00    -0.248 NA
ATOM     58  C   UNL A   1      41.191  27.793  34.007  1.00  0.00     0.031 C 
ATOM     59  C   UNL A   1      46.203  28.129  32.146  1.00  0.00     0.029 A 
ATOM     60  C   UNL A   1      45.496  26.969  32.410  1.00  0.00     0.049 A 
ATOM     61  H   UNL A   1      45.434  25.190  31.294  1.00  0.00     0.167 HD
ATOM     62  C   UNL A   1      43.375  27.086  33.565  1.00  0.00     0.074 A 
ATOM     63  C   UNL A   1      42.202  27.003  34.425  1.00  0.00     0.031 C 
ATOM     64  C   UNL A   1      44.617  26.511  33.499  1.00  0.00     0.031 A 
BRANCH  51  65
ATOM     65  C   UNL A   1      48.170  26.032  28.354  1.00  0.00    -0.014 A 
ATOM     66  C   UNL A   1      48.746  27.225  27.875  1.00  0.00     0.010 A 
ATOM     67  C   UNL A   1      48.933  24.868  28.115  1.00  0.00     0.010 A 
ATOM     68  C   UNL A   1      49.964  27.237  27.159  1.00  0.00     0.020 A 
ATOM     69  C   UNL A   1      50.110  24.850  27.357  1.00  0.00     0.020 A 
ATOM     70  C   UNL A   1      50.633  26.043  26.892  1.00  0.00     0.054 A 
BRANCH  70  71
ATOM     71  S   UNL A   1      52.220  26.054  26.019  1.00  0.00     0.124 S 
ATOM     72  O   UNL A   1      53.037  26.932  26.852  1.00  0.00    -0.237 OA
ATOM     73  O   UNL A   1      52.594  24.642  26.033  1.00  0.00    -0.237 OA
ATOM     74  O   UNL A   1      51.891  26.589  24.699  1.00  0.00    -0.744 OA
ENDBRANCH  70  71
ENDBRANCH  51  65
BRANCH  52  75
ATOM     75  C   UNL A   1      39.559  29.333  31.530  1.00  0.00    -0.014 A 
ATOM     76  C   UNL A   1      38.773  28.507  32.371  1.00  0.00     0.010 A 
ATOM     77  C   UNL A   1      39.036  30.599  31.335  1.00  0.00     0.010 A 
ATOM     78  C   UNL A   1      38.116  29.054  33.494  1.00  0.00     0.020 A 
ATOM     79  C   UNL A   1      38.417  31.131  32.483  1.00  0.00     0.020 A 
ATOM     80  C   UNL A   1      38.110  30.430  33.625  1.00  0.00     0.054 A 
BRANCH  80  81
ATOM     81  S   UNL A   1      38.236  31.347  35.410  1.00  0.00     0.124 S 
ATOM     82  O   UNL A   1      39.516  31.995  35.255  1.00  0.00    -0.237 OA
ATOM     83  O   UNL A   1      37.138  32.291  35.468  1.00  0.00    -0.237 OA
ATOM     84  O   UNL A   1      38.205  30.328  36.443  1.00  0.00    -0.744 OA
ENDBRANCH  80  81
ENDBRANCH  52  75
BRANCH  64  85
ATOM     85  C   UNL A   1      45.177  25.451  34.424  1.00  0.00    -0.014 A 
ATOM     86  C   UNL A   1      44.468  24.355  34.923  1.00  0.00     0.010 A 
ATOM     87  C   UNL A   1      46.529  25.563  34.844  1.00  0.00     0.010 A 
ATOM     88  C   UNL A   1      45.084  23.394  35.737  1.00  0.00     0.020 A 
ATOM     89  C   UNL A   1      47.163  24.610  35.639  1.00  0.00     0.020 A 
ATOM     90  C   UNL A   1      46.431  23.521  36.078  1.00  0.00     0.054 A 
BRANCH  90  91
ATOM     91  S   UNL A   1      47.196  22.259  37.113  1.00  0.00     0.124 S 
ATOM     92  O   UNL A   1      47.767  21.355  36.118  1.00  0.00    -0.237 OA
ATOM     93  O   UNL A   1      48.165  23.036  37.882  1.00  0.00    -0.237 OA
ATOM     94  O   UNL A   1      46.084  21.713  37.885  1.00  0.00    -0.744 OA
ENDBRANCH  90  91
ENDBRANCH  64  85
ENDBRANCH  38  39
ENDBRANCH  30  33
ENDBRANCH  28  29
ENDBRANCH  27  28
ENDBRANCH   1  27
TORSDOF 17
ENDMDL
MODEL 3
REMARK VINA RESULT:     -11.8      2.641      5.220
REMARK SMILES COC(=O)c1ccc(C)c(NC(=O)[C@H]2CC=CC[C@H]2C(=O)NCCCNC(=O)c2ccc(-c3c4nc(c(-c5ccc(S(=O)(=O)[O-])cc5)c5ccc([nH]5)c(-c5ccc(S(=O)(=O)[O-])cc5)c5nc(c(-c6ccc(S(=O)(=O)[O-])cc6)c6ccc3[nH]6)C=C5)C=C4)cc2)c1
REMARK SMILES IDX 23 1 22 2 20 3 21 4 19 6 14 7 15 8 16 9 18 10 17 11 12 12
REMARK SMILES IDX 11 13 13 15 10 16 5 17 6 18 89 19 7 20 8 21 9 22 3 23 4 24
REMARK SMILES IDX 2 25 1 26 24 27 25 28 26 29 27 30 28 32 29 33 30 34 88 35
REMARK SMILES IDX 31 36 87 37 32 38 33 39 34 40 81 41 35 42 86 43 80 44 82 45
REMARK SMILES IDX 36 46 85 47 79 48 78 49 37 51 67 52 48 53 66 54 49 55 52 56
REMARK SMILES IDX 65 57 83 58 50 59 51 60 64 62 84 63 53 64 38 65 39 66 47 67
REMARK SMILES IDX 40 68 46 69 41 70 42 71 43 72 44 73 45 74 68 75 69 76 77 77
REMARK SMILES IDX 70 78 76 79 71 80 72 81 73 82 74 83 75 84 54 85 55 86 63 87
REMARK SMILES IDX 56 88 62 89 57 90 58 91 59 92 60 93 61 94
REMARK H PARENT 22 5 11 14 26 31 82 50 52 61
REMARK Flexibility Score: inf
ROOT
ATOM      1  C   UNL A   1      37.938  20.519  24.700  1.00  0.00     0.117 C 
ENDROOT
BRANCH   1   2
ATOM      2  N   UNL A   1      36.512  20.158  24.727  1.00  0.00    -0.356 N 
ATOM      3  C   UNL A   1      35.341  20.752  25.110  1.00  0.00     0.224 C 
ATOM      4  O   UNL A   1      34.254  20.297  24.734  1.00  0.00    -0.275 OA
ATOM      5  H   UNL A   1      36.361  19.250  24.377  1.00  0.00     0.163 HD
BRANCH   3   6
ATOM      6  C   UNL A   1      35.319  21.999  25.975  1.00  0.00     0.095 C 
ATOM      7  C   UNL A   1      35.467  23.346  25.201  1.00  0.00     0.095 C 
ATOM      8  C   UNL A   1      34.763  24.492  25.935  1.00  0.00     0.041 C 
ATOM      9  C   UNL A   1      33.440  24.156  26.538  1.00  0.00    -0.030 C 
ATOM     10  C   UNL A   1      34.211  21.857  27.031  1.00  0.00     0.041 C 
ATOM     11  C   UNL A   1      33.197  22.952  27.059  1.00  0.00    -0.030 C 
BRANCH   7  12
ATOM     12  C   UNL A   1      35.386  23.202  23.661  1.00  0.00     0.228 C 
ATOM     13  N   UNL A   1      34.206  23.236  22.979  1.00  0.00    -0.326 N 
ATOM     14  H   UNL A   1      33.998  22.442  22.435  1.00  0.00     0.169 HD
ATOM     15  O   UNL A   1      36.414  23.021  23.006  1.00  0.00    -0.274 OA
BRANCH  13  16
ATOM     16  C   UNL A   1      33.251  24.266  22.958  1.00  0.00     0.044 A 
ATOM     17  C   UNL A   1      32.841  26.622  22.556  1.00  0.00     0.062 A 
ATOM     18  C   UNL A   1      31.470  26.375  22.484  1.00  0.00     0.016 A 
ATOM     19  C   UNL A   1      33.732  25.561  22.780  1.00  0.00     0.042 A 
ATOM     20  C   UNL A   1      30.986  25.107  22.800  1.00  0.00     0.006 A 
ATOM     21  C   UNL A   1      31.870  24.066  23.126  1.00  0.00    -0.027 A 
ATOM     22  C   UNL A   1      31.300  22.792  23.689  1.00  0.00     0.046 C 
BRANCH  17  23
ATOM     23  C   UNL A   1      33.344  27.986  22.286  1.00  0.00     0.337 C 
ATOM     24  O   UNL A   1      34.325  28.245  21.591  1.00  0.00    -0.246 OA
BRANCH  23  25
ATOM     25  O   UNL A   1      32.607  28.869  22.989  1.00  0.00    -0.465 OA
ATOM     26  C   UNL A   1      32.989  29.011  24.352  1.00  0.00     0.282 C 
ENDBRANCH  23  25
ENDBRANCH  17  23
ENDBRANCH  13  16
ENDBRANCH   7  12
ENDBRANCH   3   6
ENDBRANCH   1   2
BRANCH   1  27
ATOM     27  C   UNL A   1      39.029  19.677  25.556  1.00  0.00     0.042 C 
BRANCH  27  28
ATOM     28  C   UNL A   1      40.188  20.498  26.291  1.00  0.00     0.118 C 
BRANCH  28  29
ATOM     29  N   UNL A   1      40.953  21.786  25.733  1.00  0.00    -0.352 N 
ATOM     30  C   UNL A   1      41.422  23.092  26.218  1.00  0.00     0.251 C 
ATOM     31  H   UNL A   1      41.176  21.671  24.781  1.00  0.00     0.163 HD
ATOM     32  O   UNL A   1      42.663  23.203  26.184  1.00  0.00    -0.269 OA
BRANCH  30  33
ATOM     33  C   UNL A   1      40.698  24.447  26.668  1.00  0.00     0.039 A 
ATOM     34  C   UNL A   1      40.854  25.674  25.935  1.00  0.00     0.014 A 
ATOM     35  C   UNL A   1      39.938  24.627  27.817  1.00  0.00     0.014 A 
ATOM     36  C   UNL A   1      40.790  26.976  26.600  1.00  0.00     0.010 A 
ATOM     37  C   UNL A   1      39.897  25.896  28.484  1.00  0.00     0.010 A 
ATOM     38  C   UNL A   1      40.557  27.032  27.988  1.00  0.00    -0.014 A 
BRANCH  38  39
ATOM     39  C   UNL A   1      41.243  28.007  28.973  1.00  0.00     0.031 A 
ATOM     40  C   UNL A   1      40.429  28.916  29.767  1.00  0.00     0.074 A 
ATOM     41  C   UNL A   1      42.555  28.078  29.380  1.00  0.00     0.049 A 
ATOM     42  N   UNL A   1      40.604  30.193  29.875  1.00  0.00    -0.248 NA
ATOM     43  C   UNL A   1      39.333  28.383  30.551  1.00  0.00     0.031 C 
ATOM     44  C   UNL A   1      43.289  28.863  30.394  1.00  0.00     0.029 A 
ATOM     45  N   UNL A   1      43.617  27.329  28.930  1.00  0.00    -0.354 N 
ATOM     46  C   UNL A   1      39.888  30.548  31.000  1.00  0.00     0.074 A 
ATOM     47  C   UNL A   1      38.915  29.489  31.163  1.00  0.00     0.031 C 
ATOM     48  C   UNL A   1      44.624  28.808  30.142  1.00  0.00     0.029 A 
ATOM     49  C   UNL A   1      44.814  28.029  28.934  1.00  0.00     0.049 A 
ATOM     50  H   UNL A   1      43.536  26.393  28.636  1.00  0.00     0.167 HD
ATOM     51  C   UNL A   1      40.364  31.478  31.886  1.00  0.00     0.031 A 
ATOM     52  C   UNL A   1      45.373  28.377  27.727  1.00  0.00     0.031 A 
ATOM     53  C   UNL A   1      41.730  31.931  31.540  1.00  0.00     0.049 A 
ATOM     54  C   UNL A   1      45.179  29.863  27.505  1.00  0.00     0.074 A 
ATOM     55  C   UNL A   1      42.965  31.818  32.169  1.00  0.00     0.029 A 
ATOM     56  N   UNL A   1      42.021  32.328  30.237  1.00  0.00    -0.354 N 
ATOM     57  N   UNL A   1      44.596  30.636  28.375  1.00  0.00    -0.248 NA
ATOM     58  C   UNL A   1      45.575  30.604  26.316  1.00  0.00     0.031 C 
ATOM     59  C   UNL A   1      43.989  32.096  31.209  1.00  0.00     0.029 A 
ATOM     60  C   UNL A   1      43.385  32.426  30.010  1.00  0.00     0.049 A 
ATOM     61  H   UNL A   1      41.335  32.517  29.556  1.00  0.00     0.167 HD
ATOM     62  C   UNL A   1      44.489  31.911  27.921  1.00  0.00     0.074 A 
ATOM     63  C   UNL A   1      45.136  31.844  26.617  1.00  0.00     0.031 C 
ATOM     64  C   UNL A   1      43.865  32.861  28.687  1.00  0.00     0.031 A 
BRANCH  51  65
ATOM     65  C   UNL A   1      39.699  31.744  33.239  1.00  0.00    -0.014 A 
ATOM     66  C   UNL A   1      40.244  31.240  34.437  1.00  0.00     0.010 A 
ATOM     67  C   UNL A   1      38.540  32.534  33.403  1.00  0.00     0.010 A 
ATOM     68  C   UNL A   1      39.635  31.463  35.692  1.00  0.00     0.020 A 
ATOM     69  C   UNL A   1      37.888  32.717  34.628  1.00  0.00     0.020 A 
ATOM     70  C   UNL A   1      38.449  32.191  35.777  1.00  0.00     0.054 A 
BRANCH  70  71
ATOM     71  S   UNL A   1      37.689  32.525  37.387  1.00  0.00     0.124 S 
ATOM     72  O   UNL A   1      38.737  33.259  38.090  1.00  0.00    -0.237 OA
ATOM     73  O   UNL A   1      36.509  33.303  37.020  1.00  0.00    -0.237 OA
ATOM     74  O   UNL A   1      37.404  31.194  37.923  1.00  0.00    -0.744 OA
ENDBRANCH  70  71
ENDBRANCH  51  65
BRANCH  52  75
ATOM     75  C   UNL A   1      45.300  27.287  26.615  1.00  0.00    -0.014 A 
ATOM     76  C   UNL A   1      45.618  27.747  25.313  1.00  0.00     0.010 A 
ATOM     77  C   UNL A   1      45.955  26.123  26.976  1.00  0.00     0.010 A 
ATOM     78  C   UNL A   1      46.935  27.633  24.819  1.00  0.00     0.020 A 
ATOM     79  C   UNL A   1      47.278  26.054  26.496  1.00  0.00     0.020 A 
ATOM     80  C   UNL A   1      47.836  26.894  25.562  1.00  0.00     0.054 A 
BRANCH  80  81
ATOM     81  S   UNL A   1      49.777  27.393  25.717  1.00  0.00     0.124 S 
ATOM     82  O   UNL A   1      49.679  28.812  25.467  1.00  0.00    -0.237 OA
ATOM     83  O   UNL A   1      50.173  27.095  27.079  1.00  0.00    -0.237 OA
ATOM     84  O   UNL A   1      50.514  26.660  24.705  1.00  0.00    -0.744 OA
ENDBRANCH  80  81
ENDBRANCH  52  75
BRANCH  64  85
ATOM     85  C   UNL A   1      43.612  34.306  28.313  1.00  0.00    -0.014 A 
ATOM     86  C   UNL A   1      43.051  34.746  27.111  1.00  0.00     0.010 A 
ATOM     87  C   UNL A   1      43.979  35.319  29.238  1.00  0.00     0.010 A 
ATOM     88  C   UNL A   1      42.808  36.106  26.872  1.00  0.00     0.020 A 
ATOM     89  C   UNL A   1      43.731  36.674  29.024  1.00  0.00     0.020 A 
ATOM     90  C   UNL A   1      43.137  37.059  27.835  1.00  0.00     0.054 A 
BRANCH  90  91
ATOM     91  S   UNL A   1      42.797  38.797  27.501  1.00  0.00     0.124 S 
ATOM     92  O   UNL A   1      44.084  39.269  26.997  1.00  0.00    -0.237 OA
ATOM     93  O   UNL A   1      41.727  38.716  26.508  1.00  0.00    -0.237 OA
ATOM     94  O   UNL A   1      42.400  39.336  28.799  1.00  0.00    -0.744 OA
ENDBRANCH  90  91
ENDBRANCH  64  85
ENDBRANCH  38  39
ENDBRANCH  30  33
ENDBRANCH  28  29
ENDBRANCH  27  28
ENDBRANCH   1  27
TORSDOF 17
ENDMDL
