MODEL 1
REMARK VINA RESULT:     -12.4      0.000      0.000
REMARK SMILES COc1cccc([C@@H]2[NH2+][C@@](C)(C(=O)NCCCNC(=O)c3ccc(-c4c5nc(c(-c6ccc(S(=O)(=O)[O-])cc6)c6ccc([nH]6)c(-c6ccc(S(=O)(=O)[O-])cc6)c6nc(c(-c7ccc(S(=O)(=O)[O-])cc7)c7ccc4[nH]7)C=C6)C=C5)cc3)[C@@H]3C(=O)N(C)C(=O)[C@@H]32)c1O
REMARK SMILES IDX 16 1 15 2 14 3 12 4 13 5 10 7 8 8 9 9 88 10 81 13 86 14
REMARK SMILES IDX 11 15 82 16 84 17 87 18 83 19 85 20 7 21 3 22 4 23 89 24
REMARK SMILES IDX 5 25 6 26 2 27 1 28 90 29 17 31 18 32 19 33 20 35 21 36
REMARK SMILES IDX 22 37 80 38 23 39 79 40 24 41 25 42 26 43 73 44 27 45 78 46
REMARK SMILES IDX 72 47 74 48 28 49 77 50 71 51 70 52 29 54 59 55 40 56 58 57
REMARK SMILES IDX 41 58 44 59 57 60 75 61 42 62 43 63 56 65 76 66 45 67 30 68
REMARK SMILES IDX 31 69 39 70 32 71 38 72 33 73 34 74 35 75 36 76 37 77 60 78
REMARK SMILES IDX 61 79 69 80 62 81 68 82 63 83 64 84 65 85 66 86 67 87 46 88
REMARK SMILES IDX 47 89 55 90 48 91 54 92 49 93 50 94 51 95 52 96 53 97
REMARK H PARENT 14 6 9 11 9 12 90 30 18 34 74 53 44 64
REMARK Flexibility Score: inf
ROOT
ATOM      1  C   UNL A   1      33.660  27.961  25.783  1.00  0.00     0.042 C 
ENDROOT
BRANCH   1   2
ATOM      2  C   UNL A   1      32.396  27.551  25.045  1.00  0.00     0.118 C 
BRANCH   2   3
ATOM      3  N   UNL A   1      31.486  26.783  25.880  1.00  0.00    -0.351 N 
ATOM      4  C   UNL A   1      31.075  25.485  25.777  1.00  0.00     0.281 C 
ATOM      5  O   UNL A   1      30.238  25.098  26.597  1.00  0.00    -0.268 OA
ATOM      6  H   UNL A   1      31.105  27.278  26.642  1.00  0.00     0.163 HD
BRANCH   4   7
ATOM      7  C   UNL A   1      31.670  24.531  24.692  1.00  0.00     0.185 C 
ATOM      8  C   UNL A   1      32.207  22.366  25.626  1.00  0.00     0.232 C 
ATOM      9  N   UNL A   1      31.155  23.161  24.955  1.00  0.00    -0.326 N 
ATOM     10  C   UNL A   1      33.416  23.289  25.832  1.00  0.00     0.161 C 
ATOM     11  H   UNL A   1      30.334  23.217  25.557  1.00  0.00     0.347 HD
ATOM     12  H   UNL A   1      30.898  22.717  24.074  1.00  0.00     0.347 HD
ATOM     13  C   UNL A   1      33.191  24.454  24.878  1.00  0.00     0.169 C 
ATOM     14  C   UNL A   1      34.746  22.740  25.393  1.00  0.00     0.239 C 
ATOM     15  C   UNL A   1      31.266  25.079  23.313  1.00  0.00     0.091 C 
ATOM     16  C   UNL A   1      34.062  24.092  23.701  1.00  0.00     0.240 C 
ATOM     17  N   UNL A   1      34.993  23.187  24.124  1.00  0.00    -0.285 N 
ATOM     18  O   UNL A   1      35.452  21.993  26.048  1.00  0.00    -0.274 OA
ATOM     19  O   UNL A   1      33.984  24.543  22.567  1.00  0.00    -0.274 OA
ATOM     20  C   UNL A   1      36.082  22.697  23.313  1.00  0.00     0.156 C 
BRANCH   8  21
ATOM     21  C   UNL A   1      32.490  21.037  24.926  1.00  0.00     0.056 A 
ATOM     22  C   UNL A   1      33.000  18.632  24.952  1.00  0.00     0.161 A 
ATOM     23  C   UNL A   1      32.735  18.587  23.579  1.00  0.00     0.050 A 
ATOM     24  C   UNL A   1      32.917  19.870  25.603  1.00  0.00     0.166 A 
ATOM     25  C   UNL A   1      32.367  19.733  22.877  1.00  0.00     0.005 A 
ATOM     26  C   UNL A   1      32.230  20.945  23.549  1.00  0.00     0.014 A 
BRANCH  22  27
ATOM     27  O   UNL A   1      33.363  17.417  25.460  1.00  0.00    -0.493 OA
ATOM     28  C   UNL A   1      32.869  16.235  24.853  1.00  0.00     0.278 C 
ENDBRANCH  22  27
BRANCH  24  29
ATOM     29  O   UNL A   1      33.317  20.035  26.899  1.00  0.00    -0.504 OA
ATOM     30  H   UNL A   1      32.814  20.571  27.481  1.00  0.00     0.293 HD
ENDBRANCH  24  29
ENDBRANCH   8  21
ENDBRANCH   4   7
ENDBRANCH   2   3
ENDBRANCH   1   2
BRANCH   1  31
ATOM     31  C   UNL A   1      33.441  28.332  27.243  1.00  0.00     0.118 C 
BRANCH  31  32
ATOM     32  N   UNL A   1      33.443  29.771  27.473  1.00  0.00    -0.352 N 
ATOM     33  C   UNL A   1      34.418  30.588  27.990  1.00  0.00     0.251 C 
ATOM     34  H   UNL A   1      32.612  30.232  27.216  1.00  0.00     0.163 HD
ATOM     35  O   UNL A   1      34.143  31.755  28.255  1.00  0.00    -0.269 OA
BRANCH  33  36
ATOM     36  C   UNL A   1      35.778  30.067  28.252  1.00  0.00     0.039 A 
ATOM     37  C   UNL A   1      36.724  30.115  27.225  1.00  0.00     0.014 A 
ATOM     38  C   UNL A   1      36.125  29.525  29.492  1.00  0.00     0.014 A 
ATOM     39  C   UNL A   1      38.032  29.688  27.467  1.00  0.00     0.010 A 
ATOM     40  C   UNL A   1      37.450  29.192  29.761  1.00  0.00     0.010 A 
ATOM     41  C   UNL A   1      38.419  29.265  28.750  1.00  0.00    -0.014 A 
BRANCH  41  42
ATOM     42  C   UNL A   1      39.834  28.917  29.044  1.00  0.00     0.031 A 
ATOM     43  C   UNL A   1      40.751  29.918  29.697  1.00  0.00     0.074 A 
ATOM     44  C   UNL A   1      40.302  27.703  28.686  1.00  0.00     0.049 A 
ATOM     45  N   UNL A   1      42.010  29.785  30.027  1.00  0.00    -0.248 NA
ATOM     46  C   UNL A   1      40.192  31.246  29.997  1.00  0.00     0.031 C 
ATOM     47  C   UNL A   1      39.529  26.665  27.998  1.00  0.00     0.029 A 
ATOM     48  N   UNL A   1      41.539  27.133  28.857  1.00  0.00    -0.354 N 
ATOM     49  C   UNL A   1      42.394  31.007  30.567  1.00  0.00     0.074 A 
ATOM     50  C   UNL A   1      41.252  31.890  30.465  1.00  0.00     0.031 C 
ATOM     51  C   UNL A   1      40.294  25.573  27.847  1.00  0.00     0.029 A 
ATOM     52  C   UNL A   1      41.623  25.844  28.384  1.00  0.00     0.049 A 
ATOM     53  H   UNL A   1      42.295  27.602  29.278  1.00  0.00     0.167 HD
ATOM     54  C   UNL A   1      43.579  31.358  31.121  1.00  0.00     0.031 A 
ATOM     55  C   UNL A   1      42.654  24.977  28.379  1.00  0.00     0.031 A 
ATOM     56  C   UNL A   1      44.712  30.476  31.226  1.00  0.00     0.049 A 
ATOM     57  C   UNL A   1      43.962  25.397  28.992  1.00  0.00     0.074 A 
ATOM     58  C   UNL A   1      45.941  30.722  31.814  1.00  0.00     0.029 A 
ATOM     59  N   UNL A   1      44.758  29.181  30.734  1.00  0.00    -0.354 N 
ATOM     60  N   UNL A   1      44.279  26.535  29.562  1.00  0.00    -0.248 NA
ATOM     61  C   UNL A   1      45.048  24.408  28.973  1.00  0.00     0.031 C 
ATOM     62  C   UNL A   1      46.749  29.596  31.627  1.00  0.00     0.029 A 
ATOM     63  C   UNL A   1      46.002  28.624  30.983  1.00  0.00     0.049 A 
ATOM     64  H   UNL A   1      44.016  28.724  30.275  1.00  0.00     0.167 HD
ATOM     65  C   UNL A   1      45.592  26.388  29.994  1.00  0.00     0.074 A 
ATOM     66  C   UNL A   1      45.998  25.041  29.645  1.00  0.00     0.031 C 
ATOM     67  C   UNL A   1      46.394  27.285  30.621  1.00  0.00     0.031 A 
BRANCH  54  68
ATOM     68  C   UNL A   1      43.713  32.758  31.666  1.00  0.00    -0.014 A 
ATOM     69  C   UNL A   1      44.169  33.812  30.851  1.00  0.00     0.010 A 
ATOM     70  C   UNL A   1      43.315  33.039  32.985  1.00  0.00     0.010 A 
ATOM     71  C   UNL A   1      44.251  35.112  31.354  1.00  0.00     0.020 A 
ATOM     72  C   UNL A   1      43.367  34.345  33.483  1.00  0.00     0.020 A 
ATOM     73  C   UNL A   1      43.846  35.371  32.667  1.00  0.00     0.054 A 
BRANCH  73  74
ATOM     74  S   UNL A   1      43.915  37.079  33.274  1.00  0.00     0.124 S 
ATOM     75  O   UNL A   1      43.897  37.842  32.029  1.00  0.00    -0.237 OA
ATOM     76  O   UNL A   1      42.706  37.178  34.088  1.00  0.00    -0.237 OA
ATOM     77  O   UNL A   1      45.171  37.134  34.019  1.00  0.00    -0.744 OA
ENDBRANCH  73  74
ENDBRANCH  54  68
BRANCH  55  78
ATOM     78  C   UNL A   1      42.492  23.620  27.784  1.00  0.00    -0.014 A 
ATOM     79  C   UNL A   1      41.852  22.593  28.501  1.00  0.00     0.010 A 
ATOM     80  C   UNL A   1      42.998  23.342  26.501  1.00  0.00     0.010 A 
ATOM     81  C   UNL A   1      41.754  21.307  27.963  1.00  0.00     0.020 A 
ATOM     82  C   UNL A   1      42.869  22.067  25.944  1.00  0.00     0.020 A 
ATOM     83  C   UNL A   1      42.265  21.052  26.686  1.00  0.00     0.054 A 
BRANCH  83  84
ATOM     84  S   UNL A   1      42.109  19.381  25.999  1.00  0.00     0.124 S 
ATOM     85  O   UNL A   1      40.668  19.268  25.798  1.00  0.00    -0.237 OA
ATOM     86  O   UNL A   1      42.915  19.462  24.784  1.00  0.00    -0.237 OA
ATOM     87  O   UNL A   1      42.664  18.527  27.048  1.00  0.00    -0.744 OA
ENDBRANCH  83  84
ENDBRANCH  55  78
BRANCH  67  88
ATOM     88  C   UNL A   1      47.778  26.824  30.997  1.00  0.00    -0.014 A 
ATOM     89  C   UNL A   1      48.032  26.204  32.235  1.00  0.00     0.010 A 
ATOM     90  C   UNL A   1      48.839  27.002  30.091  1.00  0.00     0.010 A 
ATOM     91  C   UNL A   1      49.332  25.826  32.583  1.00  0.00     0.020 A 
ATOM     92  C   UNL A   1      50.134  26.592  30.420  1.00  0.00     0.020 A 
ATOM     93  C   UNL A   1      50.376  26.028  31.674  1.00  0.00     0.054 A 
BRANCH  93  94
ATOM     94  S   UNL A   1      52.052  25.524  32.147  1.00  0.00     0.124 S 
ATOM     95  O   UNL A   1      52.831  25.929  30.981  1.00  0.00    -0.237 OA
ATOM     96  O   UNL A   1      52.289  26.298  33.363  1.00  0.00    -0.237 OA
ATOM     97  O   UNL A   1      51.936  24.080  32.347  1.00  0.00    -0.744 OA
ENDBRANCH  93  94
ENDBRANCH  67  88
ENDBRANCH  41  42
ENDBRANCH  33  36
ENDBRANCH  31  32
ENDBRANCH   1  31
TORSDOF 16
ENDMDL
MODEL 2
REMARK VINA RESULT:     -12.4      2.877      9.568
REMARK SMILES COc1cccc([C@@H]2[NH2+][C@@](C)(C(=O)NCCCNC(=O)c3ccc(-c4c5nc(c(-c6ccc(S(=O)(=O)[O-])cc6)c6ccc([nH]6)c(-c6ccc(S(=O)(=O)[O-])cc6)c6nc(c(-c7ccc(S(=O)(=O)[O-])cc7)c7ccc4[nH]7)C=C6)C=C5)cc3)[C@@H]3C(=O)N(C)C(=O)[C@@H]32)c1O
REMARK SMILES IDX 16 1 15 2 14 3 12 4 13 5 10 7 8 8 9 9 88 10 81 13 86 14
REMARK SMILES IDX 11 15 82 16 84 17 87 18 83 19 85 20 7 21 3 22 4 23 89 24
REMARK SMILES IDX 5 25 6 26 2 27 1 28 90 29 17 31 18 32 19 33 20 35 21 36
REMARK SMILES IDX 22 37 80 38 23 39 79 40 24 41 25 42 26 43 73 44 27 45 78 46
REMARK SMILES IDX 72 47 74 48 28 49 77 50 71 51 70 52 29 54 59 55 40 56 58 57
REMARK SMILES IDX 41 58 44 59 57 60 75 61 42 62 43 63 56 65 76 66 45 67 30 68
REMARK SMILES IDX 31 69 39 70 32 71 38 72 33 73 34 74 35 75 36 76 37 77 60 78
REMARK SMILES IDX 61 79 69 80 62 81 68 82 63 83 64 84 65 85 66 86 67 87 46 88
REMARK SMILES IDX 47 89 55 90 48 91 54 92 49 93 50 94 51 95 52 96 53 97
REMARK H PARENT 14 6 9 11 9 12 90 30 18 34 74 53 44 64
REMARK Flexibility Score: inf
ROOT
ATOM      1  C   UNL A   1      35.604  23.611  25.726  1.00  0.00     0.042 C 
ENDROOT
BRANCH   1   2
ATOM      2  C   UNL A   1      34.451  22.946  24.995  1.00  0.00     0.118 C 
BRANCH   2   3
ATOM      3  N   UNL A   1      34.406  23.297  23.584  1.00  0.00    -0.351 N 
ATOM      4  C   UNL A   1      33.484  24.020  22.882  1.00  0.00     0.281 C 
ATOM      5  O   UNL A   1      33.661  24.117  21.664  1.00  0.00    -0.268 OA
ATOM      6  H   UNL A   1      35.162  22.960  23.049  1.00  0.00     0.163 HD
BRANCH   4   7
ATOM      7  C   UNL A   1      32.285  24.719  23.601  1.00  0.00     0.185 C 
ATOM      8  C   UNL A   1      31.853  26.906  22.663  1.00  0.00     0.232 C 
ATOM      9  N   UNL A   1      31.512  25.468  22.576  1.00  0.00    -0.326 N 
ATOM     10  C   UNL A   1      32.919  27.056  23.758  1.00  0.00     0.161 C 
ATOM     11  H   UNL A   1      31.748  25.117  21.648  1.00  0.00     0.347 HD
ATOM     12  H   UNL A   1      30.513  25.342  22.740  1.00  0.00     0.347 HD
ATOM     13  C   UNL A   1      32.834  25.772  24.571  1.00  0.00     0.169 C 
ATOM     14  C   UNL A   1      32.663  28.127  24.782  1.00  0.00     0.239 C 
ATOM     15  C   UNL A   1      31.462  23.628  24.308  1.00  0.00     0.091 C 
ATOM     16  C   UNL A   1      32.001  26.187  25.759  1.00  0.00     0.240 C 
ATOM     17  N   UNL A   1      32.057  27.547  25.863  1.00  0.00    -0.285 N 
ATOM     18  O   UNL A   1      32.917  29.311  24.644  1.00  0.00    -0.274 OA
ATOM     19  O   UNL A   1      31.401  25.447  26.526  1.00  0.00    -0.274 OA
ATOM     20  C   UNL A   1      31.486  28.307  26.949  1.00  0.00     0.156 C 
BRANCH   8  21
ATOM     21  C   UNL A   1      30.625  27.806  22.794  1.00  0.00     0.056 A 
ATOM     22  C   UNL A   1      29.351  29.836  22.251  1.00  0.00     0.161 A 
ATOM     23  C   UNL A   1      28.233  29.271  22.875  1.00  0.00     0.050 A 
ATOM     24  C   UNL A   1      30.550  29.112  22.256  1.00  0.00     0.166 A 
ATOM     25  C   UNL A   1      28.295  28.009  23.462  1.00  0.00     0.005 A 
ATOM     26  C   UNL A   1      29.478  27.275  23.407  1.00  0.00     0.014 A 
BRANCH  22  27
ATOM     27  O   UNL A   1      29.103  31.084  21.752  1.00  0.00    -0.493 OA
ATOM     28  C   UNL A   1      28.512  32.062  22.591  1.00  0.00     0.278 C 
ENDBRANCH  22  27
BRANCH  24  29
ATOM     29  O   UNL A   1      31.726  29.654  21.819  1.00  0.00    -0.504 OA
ATOM     30  H   UNL A   1      31.890  30.571  21.930  1.00  0.00     0.293 HD
ENDBRANCH  24  29
ENDBRANCH   8  21
ENDBRANCH   4   7
ENDBRANCH   2   3
ENDBRANCH   1   2
BRANCH   1  31
ATOM     31  C   UNL A   1      36.901  23.669  24.929  1.00  0.00     0.118 C 
BRANCH  31  32
ATOM     32  N   UNL A   1      37.892  22.703  25.380  1.00  0.00    -0.352 N 
ATOM     33  C   UNL A   1      39.031  22.878  26.127  1.00  0.00     0.251 C 
ATOM     34  H   UNL A   1      37.718  21.773  25.105  1.00  0.00     0.163 HD
ATOM     35  O   UNL A   1      39.819  21.944  26.248  1.00  0.00    -0.269 OA
BRANCH  33  36
ATOM     36  C   UNL A   1      39.325  24.184  26.759  1.00  0.00     0.039 A 
ATOM     37  C   UNL A   1      38.880  24.414  28.062  1.00  0.00     0.014 A 
ATOM     38  C   UNL A   1      40.024  25.183  26.076  1.00  0.00     0.014 A 
ATOM     39  C   UNL A   1      39.199  25.613  28.702  1.00  0.00     0.010 A 
ATOM     40  C   UNL A   1      40.425  26.335  26.748  1.00  0.00     0.010 A 
ATOM     41  C   UNL A   1      40.014  26.567  28.067  1.00  0.00    -0.014 A 
BRANCH  41  42
ATOM     42  C   UNL A   1      40.451  27.794  28.782  1.00  0.00     0.031 A 
ATOM     43  C   UNL A   1      41.828  27.880  29.389  1.00  0.00     0.074 A 
ATOM     44  C   UNL A   1      39.588  28.822  28.917  1.00  0.00     0.049 A 
ATOM     45  N   UNL A   1      42.376  28.870  30.044  1.00  0.00    -0.248 NA
ATOM     46  C   UNL A   1      42.693  26.695  29.263  1.00  0.00     0.031 C 
ATOM     47  C   UNL A   1      38.208  28.840  28.423  1.00  0.00     0.029 A 
ATOM     48  N   UNL A   1      39.743  30.054  29.503  1.00  0.00    -0.354 N 
ATOM     49  C   UNL A   1      43.642  28.429  30.413  1.00  0.00     0.074 A 
ATOM     50  C   UNL A   1      43.759  27.060  29.961  1.00  0.00     0.031 C 
ATOM     51  C   UNL A   1      37.661  30.038  28.687  1.00  0.00     0.029 A 
ATOM     52  C   UNL A   1      38.630  30.856  29.407  1.00  0.00     0.049 A 
ATOM     53  H   UNL A   1      40.574  30.335  29.951  1.00  0.00     0.167 HD
ATOM     54  C   UNL A   1      44.628  29.107  31.047  1.00  0.00     0.031 A 
ATOM     55  C   UNL A   1      38.412  32.109  29.849  1.00  0.00     0.031 A 
ATOM     56  C   UNL A   1      44.512  30.472  31.491  1.00  0.00     0.049 A 
ATOM     57  C   UNL A   1      39.522  32.835  30.560  1.00  0.00     0.074 A 
ATOM     58  C   UNL A   1      45.471  31.263  32.099  1.00  0.00     0.029 A 
ATOM     59  N   UNL A   1      43.369  31.249  31.376  1.00  0.00    -0.354 N 
ATOM     60  N   UNL A   1      40.736  32.422  30.832  1.00  0.00    -0.248 NA
ATOM     61  C   UNL A   1      39.235  34.204  31.008  1.00  0.00     0.031 C 
ATOM     62  C   UNL A   1      44.891  32.499  32.404  1.00  0.00     0.029 A 
ATOM     63  C   UNL A   1      43.592  32.501  31.924  1.00  0.00     0.049 A 
ATOM     64  H   UNL A   1      42.524  30.953  30.965  1.00  0.00     0.167 HD
ATOM     65  C   UNL A   1      41.367  33.491  31.460  1.00  0.00     0.074 A 
ATOM     66  C   UNL A   1      40.408  34.577  31.499  1.00  0.00     0.031 C 
ATOM     67  C   UNL A   1      42.624  33.569  31.964  1.00  0.00     0.031 A 
BRANCH  54  68
ATOM     68  C   UNL A   1      45.930  28.387  31.294  1.00  0.00    -0.014 A 
ATOM     69  C   UNL A   1      46.112  27.596  32.445  1.00  0.00     0.010 A 
ATOM     70  C   UNL A   1      46.957  28.443  30.335  1.00  0.00     0.010 A 
ATOM     71  C   UNL A   1      47.307  26.900  32.644  1.00  0.00     0.020 A 
ATOM     72  C   UNL A   1      48.143  27.724  30.517  1.00  0.00     0.020 A 
ATOM     73  C   UNL A   1      48.315  26.966  31.677  1.00  0.00     0.054 A 
BRANCH  73  74
ATOM     74  S   UNL A   1      49.833  26.010  31.940  1.00  0.00     0.124 S 
ATOM     75  O   UNL A   1      50.741  27.025  32.468  1.00  0.00    -0.237 OA
ATOM     76  O   UNL A   1      49.407  24.991  32.897  1.00  0.00    -0.237 OA
ATOM     77  O   UNL A   1      50.166  25.510  30.608  1.00  0.00    -0.744 OA
ENDBRANCH  73  74
ENDBRANCH  54  68
BRANCH  55  78
ATOM     78  C   UNL A   1      37.093  32.766  29.627  1.00  0.00    -0.014 A 
ATOM     79  C   UNL A   1      36.775  33.337  28.381  1.00  0.00     0.010 A 
ATOM     80  C   UNL A   1      36.152  32.840  30.670  1.00  0.00     0.010 A 
ATOM     81  C   UNL A   1      35.559  34.002  28.195  1.00  0.00     0.020 A 
ATOM     82  C   UNL A   1      34.920  33.472  30.477  1.00  0.00     0.020 A 
ATOM     83  C   UNL A   1      34.640  34.067  29.246  1.00  0.00     0.054 A 
BRANCH  83  84
ATOM     84  S   UNL A   1      33.061  34.916  28.976  1.00  0.00     0.124 S 
ATOM     85  O   UNL A   1      32.474  34.899  30.311  1.00  0.00    -0.237 OA
ATOM     86  O   UNL A   1      33.486  36.225  28.485  1.00  0.00    -0.237 OA
ATOM     87  O   UNL A   1      32.387  34.079  27.985  1.00  0.00    -0.744 OA
ENDBRANCH  83  84
ENDBRANCH  55  78
BRANCH  67  88
ATOM     88  C   UNL A   1      43.041  34.885  32.568  1.00  0.00    -0.014 A 
ATOM     89  C   UNL A   1      42.795  35.179  33.922  1.00  0.00     0.010 A 
ATOM     90  C   UNL A   1      43.703  35.836  31.771  1.00  0.00     0.010 A 
ATOM     91  C   UNL A   1      43.149  36.423  34.450  1.00  0.00     0.020 A 
ATOM     92  C   UNL A   1      44.092  37.068  32.305  1.00  0.00     0.020 A 
ATOM     93  C   UNL A   1      43.790  37.362  33.636  1.00  0.00     0.054 A 
BRANCH  93  94
ATOM     94  S   UNL A   1      44.244  38.967  34.347  1.00  0.00     0.124 S 
ATOM     95  O   UNL A   1      43.102  39.797  33.975  1.00  0.00    -0.237 OA
ATOM     96  O   UNL A   1      44.365  38.664  35.770  1.00  0.00    -0.237 OA
ATOM     97  O   UNL A   1      45.500  39.299  33.677  1.00  0.00    -0.744 OA
ENDBRANCH  93  94
ENDBRANCH  67  88
ENDBRANCH  41  42
ENDBRANCH  33  36
ENDBRANCH  31  32
ENDBRANCH   1  31
TORSDOF 16
ENDMDL
MODEL 3
REMARK VINA RESULT:     -12.2      0.582      8.037
REMARK SMILES COc1cccc([C@@H]2[NH2+][C@@](C)(C(=O)NCCCNC(=O)c3ccc(-c4c5nc(c(-c6ccc(S(=O)(=O)[O-])cc6)c6ccc([nH]6)c(-c6ccc(S(=O)(=O)[O-])cc6)c6nc(c(-c7ccc(S(=O)(=O)[O-])cc7)c7ccc4[nH]7)C=C6)C=C5)cc3)[C@@H]3C(=O)N(C)C(=O)[C@@H]32)c1O
REMARK SMILES IDX 16 1 15 2 14 3 12 4 13 5 10 7 8 8 9 9 88 10 81 13 86 14
REMARK SMILES IDX 11 15 82 16 84 17 87 18 83 19 85 20 7 21 3 22 4 23 89 24
REMARK SMILES IDX 5 25 6 26 2 27 1 28 90 29 17 31 18 32 19 33 20 35 21 36
REMARK SMILES IDX 22 37 80 38 23 39 79 40 24 41 25 42 26 43 73 44 27 45 78 46
REMARK SMILES IDX 72 47 74 48 28 49 77 50 71 51 70 52 29 54 59 55 40 56 58 57
REMARK SMILES IDX 41 58 44 59 57 60 75 61 42 62 43 63 56 65 76 66 45 67 30 68
REMARK SMILES IDX 31 69 39 70 32 71 38 72 33 73 34 74 35 75 36 76 37 77 60 78
REMARK SMILES IDX 61 79 69 80 62 81 68 82 63 83 64 84 65 85 66 86 67 87 46 88
REMARK SMILES IDX 47 89 55 90 48 91 54 92 49 93 50 94 51 95 52 96 53 97
REMARK H PARENT 14 6 9 11 9 12 90 30 18 34 74 53 44 64
REMARK Flexibility Score: inf
ROOT
ATOM      1  C   UNL A   1      33.663  28.027  25.545  1.00  0.00     0.042 C 
ENDROOT
BRANCH   1   2
ATOM      2  C   UNL A   1      32.353  27.610  24.898  1.00  0.00     0.118 C 
BRANCH   2   3
ATOM      3  N   UNL A   1      31.513  26.829  25.793  1.00  0.00    -0.351 N 
ATOM      4  C   UNL A   1      31.155  25.512  25.744  1.00  0.00     0.281 C 
ATOM      5  O   UNL A   1      30.370  25.115  26.610  1.00  0.00    -0.268 OA
ATOM      6  H   UNL A   1      31.143  27.331  26.556  1.00  0.00     0.163 HD
BRANCH   4   7
ATOM      7  C   UNL A   1      31.746  24.552  24.662  1.00  0.00     0.185 C 
ATOM      8  C   UNL A   1      32.188  22.359  25.581  1.00  0.00     0.232 C 
ATOM      9  N   UNL A   1      31.179  23.197  24.895  1.00  0.00    -0.326 N 
ATOM     10  C   UNL A   1      33.421  23.240  25.829  1.00  0.00     0.161 C 
ATOM     11  H   UNL A   1      30.345  23.273  25.477  1.00  0.00     0.347 HD
ATOM     12  H   UNL A   1      30.930  22.772  24.002  1.00  0.00     0.347 HD
ATOM     13  C   UNL A   1      33.258  24.423  24.885  1.00  0.00     0.169 C 
ATOM     14  C   UNL A   1      34.742  22.652  25.416  1.00  0.00     0.239 C 
ATOM     15  C   UNL A   1      31.394  25.130  23.280  1.00  0.00     0.091 C 
ATOM     16  C   UNL A   1      34.145  24.046  23.725  1.00  0.00     0.240 C 
ATOM     17  N   UNL A   1      35.036  23.106  24.159  1.00  0.00    -0.285 N 
ATOM     18  O   UNL A   1      35.407  21.875  26.078  1.00  0.00    -0.274 OA
ATOM     19  O   UNL A   1      34.111  24.512  22.595  1.00  0.00    -0.274 OA
ATOM     20  C   UNL A   1      36.128  22.590  23.369  1.00  0.00     0.156 C 
BRANCH   8  21
ATOM     21  C   UNL A   1      32.444  21.030  24.872  1.00  0.00     0.056 A 
ATOM     22  C   UNL A   1      32.856  18.607  24.879  1.00  0.00     0.161 A 
ATOM     23  C   UNL A   1      32.644  18.592  23.496  1.00  0.00     0.050 A 
ATOM     24  C   UNL A   1      32.797  19.837  25.547  1.00  0.00     0.166 A 
ATOM     25  C   UNL A   1      32.351  19.762  22.799  1.00  0.00     0.005 A 
ATOM     26  C   UNL A   1      32.235  20.969  23.485  1.00  0.00     0.014 A 
BRANCH  22  27
ATOM     27  O   UNL A   1      33.150  17.370  25.382  1.00  0.00    -0.493 OA
ATOM     28  C   UNL A   1      33.399  16.299  24.487  1.00  0.00     0.278 C 
ENDBRANCH  22  27
BRANCH  24  29
ATOM     29  O   UNL A   1      33.152  19.967  26.859  1.00  0.00    -0.504 OA
ATOM     30  H   UNL A   1      33.956  19.595  27.167  1.00  0.00     0.293 HD
ENDBRANCH  24  29
ENDBRANCH   8  21
ENDBRANCH   4   7
ENDBRANCH   2   3
ENDBRANCH   1   2
BRANCH   1  31
ATOM     31  C   UNL A   1      33.578  28.244  27.050  1.00  0.00     0.118 C 
BRANCH  31  32
ATOM     32  N   UNL A   1      33.473  29.649  27.419  1.00  0.00    -0.352 N 
ATOM     33  C   UNL A   1      34.377  30.477  28.039  1.00  0.00     0.251 C 
ATOM     34  H   UNL A   1      32.616  30.075  27.187  1.00  0.00     0.163 HD
ATOM     35  O   UNL A   1      34.015  31.590  28.409  1.00  0.00    -0.269 OA
BRANCH  33  36
ATOM     36  C   UNL A   1      35.766  30.028  28.284  1.00  0.00     0.039 A 
ATOM     37  C   UNL A   1      36.685  30.087  27.234  1.00  0.00     0.014 A 
ATOM     38  C   UNL A   1      36.166  29.542  29.532  1.00  0.00     0.014 A 
ATOM     39  C   UNL A   1      38.017  29.729  27.458  1.00  0.00     0.010 A 
ATOM     40  C   UNL A   1      37.511  29.279  29.779  1.00  0.00     0.010 A 
ATOM     41  C   UNL A   1      38.452  29.365  28.744  1.00  0.00    -0.014 A 
BRANCH  41  42
ATOM     42  C   UNL A   1      39.887  29.092  29.015  1.00  0.00     0.031 A 
ATOM     43  C   UNL A   1      40.491  27.753  28.679  1.00  0.00     0.074 A 
ATOM     44  C   UNL A   1      40.641  30.045  29.601  1.00  0.00     0.049 A 
ATOM     45  N   UNL A   1      41.722  27.342  28.844  1.00  0.00    -0.248 NA
ATOM     46  C   UNL A   1      39.593  26.736  28.104  1.00  0.00     0.031 C 
ATOM     47  C   UNL A   1      40.161  31.363  30.026  1.00  0.00     0.029 A 
ATOM     48  N   UNL A   1      41.972  30.056  29.936  1.00  0.00    -0.354 N 
ATOM     49  C   UNL A   1      41.747  26.024  28.401  1.00  0.00     0.074 A 
ATOM     50  C   UNL A   1      40.394  25.683  28.016  1.00  0.00     0.031 C 
ATOM     51  C   UNL A   1      41.191  32.069  30.521  1.00  0.00     0.029 A 
ATOM     52  C   UNL A   1      42.392  31.242  30.493  1.00  0.00     0.049 A 
ATOM     53  H   UNL A   1      42.570  29.288  29.791  1.00  0.00     0.167 HD
ATOM     54  C   UNL A   1      42.800  25.180  28.299  1.00  0.00     0.031 A 
ATOM     55  C   UNL A   1      43.606  31.622  30.935  1.00  0.00     0.031 A 
ATOM     56  C   UNL A   1      44.147  25.523  28.677  1.00  0.00     0.049 A 
ATOM     57  C   UNL A   1      44.758  30.661  30.819  1.00  0.00     0.074 A 
ATOM     58  C   UNL A   1      45.294  24.755  28.567  1.00  0.00     0.029 A 
ATOM     59  N   UNL A   1      44.530  26.732  29.239  1.00  0.00    -0.354 N 
ATOM     60  N   UNL A   1      44.771  29.444  30.329  1.00  0.00    -0.248 NA
ATOM     61  C   UNL A   1      46.062  31.132  31.302  1.00  0.00     0.031 C 
ATOM     62  C   UNL A   1      46.359  25.477  29.114  1.00  0.00     0.029 A 
ATOM     63  C   UNL A   1      45.890  26.721  29.503  1.00  0.00     0.049 A 
ATOM     64  H   UNL A   1      43.925  27.486  29.422  1.00  0.00     0.167 HD
ATOM     65  C   UNL A   1      46.091  29.015  30.421  1.00  0.00     0.074 A 
ATOM     66  C   UNL A   1      46.849  30.114  30.985  1.00  0.00     0.031 C 
ATOM     67  C   UNL A   1      46.629  27.819  30.073  1.00  0.00     0.031 A 
BRANCH  54  68
ATOM     68  C   UNL A   1      42.546  23.800  27.748  1.00  0.00    -0.014 A 
ATOM     69  C   UNL A   1      42.712  23.526  26.377  1.00  0.00     0.010 A 
ATOM     70  C   UNL A   1      42.203  22.749  28.618  1.00  0.00     0.010 A 
ATOM     71  C   UNL A   1      42.513  22.234  25.884  1.00  0.00     0.020 A 
ATOM     72  C   UNL A   1      42.033  21.448  28.132  1.00  0.00     0.020 A 
ATOM     73  C   UNL A   1      42.178  21.202  26.766  1.00  0.00     0.054 A 
BRANCH  73  74
ATOM     74  S   UNL A   1      41.978  19.525  26.102  1.00  0.00     0.124 S 
ATOM     75  O   UNL A   1      42.814  19.574  24.905  1.00  0.00    -0.237 OA
ATOM     76  O   UNL A   1      42.484  18.690  27.188  1.00  0.00    -0.237 OA
ATOM     77  O   UNL A   1      40.542  19.418  25.854  1.00  0.00    -0.744 OA
ENDBRANCH  73  74
ENDBRANCH  54  68
BRANCH  55  78
ATOM     78  C   UNL A   1      43.802  32.979  31.520  1.00  0.00    -0.014 A 
ATOM     79  C   UNL A   1      43.613  33.202  32.896  1.00  0.00     0.010 A 
ATOM     80  C   UNL A   1      44.161  34.062  30.697  1.00  0.00     0.010 A 
ATOM     81  C   UNL A   1      43.742  34.487  33.431  1.00  0.00     0.020 A 
ATOM     82  C   UNL A   1      44.326  35.342  31.234  1.00  0.00     0.020 A 
ATOM     83  C   UNL A   1      44.097  35.550  32.595  1.00  0.00     0.054 A 
BRANCH  83  84
ATOM     84  S   UNL A   1      44.278  37.205  33.313  1.00  0.00     0.124 S 
ATOM     85  O   UNL A   1      43.025  37.358  34.045  1.00  0.00    -0.237 OA
ATOM     86  O   UNL A   1      45.479  37.064  34.133  1.00  0.00    -0.237 OA
ATOM     87  O   UNL A   1      44.430  38.070  32.144  1.00  0.00    -0.744 OA
ENDBRANCH  83  84
ENDBRANCH  55  78
BRANCH  67  88
ATOM     88  C   UNL A   1      48.114  27.653  30.264  1.00  0.00    -0.014 A 
ATOM     89  C   UNL A   1      49.025  27.988  29.245  1.00  0.00     0.010 A 
ATOM     90  C   UNL A   1      48.607  27.168  31.489  1.00  0.00     0.010 A 
ATOM     91  C   UNL A   1      50.396  27.783  29.426  1.00  0.00     0.020 A 
ATOM     92  C   UNL A   1      49.980  26.995  31.688  1.00  0.00     0.020 A 
ATOM     93  C   UNL A   1      50.863  27.282  30.646  1.00  0.00     0.054 A 
BRANCH  93  94
ATOM     94  S   UNL A   1      52.646  27.030  30.858  1.00  0.00     0.124 S 
ATOM     95  O   UNL A   1      52.705  26.365  32.157  1.00  0.00    -0.237 OA
ATOM     96  O   UNL A   1      52.991  26.197  29.708  1.00  0.00    -0.237 OA
ATOM     97  O   UNL A   1      53.193  28.385  30.825  1.00  0.00    -0.744 OA
ENDBRANCH  93  94
ENDBRANCH  67  88
ENDBRANCH  41  42
ENDBRANCH  33  36
ENDBRANCH  31  32
ENDBRANCH   1  31
TORSDOF 16
ENDMDL
