MODEL 1
REMARK VINA RESULT:     -13.3      0.000      0.000
REMARK SMILES CS(=O)(=O)Nc1ccc(-c2cc(Cl)cc3c2O[C@H](C(F)(F)F)C(C(=O)NCCCNC(=O)c2ccc(-c4c5nc(c(-c6ccc(S(=O)(=O)[O-])cc6)c6ccc([nH]6)c(-c6ccc(S(=O)(=O)[O-])cc6)c6nc(c(-c7ccc(S(=O)(=O)[O-])cc7)c7ccc4[nH]7)C=C6)C=C5)cc2)=C3)cc1
REMARK SMILES IDX 28 1 27 2 26 3 24 4 25 5 23 7 10 8 11 9 16 10 12 11 15 12
REMARK SMILES IDX 17 13 13 14 14 15 93 16 18 17 9 18 6 19 7 20 95 21 8 22
REMARK SMILES IDX 94 23 5 24 2 26 1 27 3 28 4 29 19 30 20 31 21 32 22 33 29 34
REMARK SMILES IDX 30 35 31 36 32 38 33 39 34 40 92 41 35 42 91 43 36 44 37 45
REMARK SMILES IDX 38 46 85 47 39 48 90 49 84 50 86 51 40 52 89 53 83 54 82 55
REMARK SMILES IDX 41 57 71 58 52 59 70 60 53 61 56 62 69 63 87 64 54 65 55 66
REMARK SMILES IDX 68 68 88 69 57 70 42 71 43 72 51 73 44 74 50 75 45 76 46 77
REMARK SMILES IDX 47 78 48 79 49 80 72 81 73 82 81 83 74 84 80 85 75 86 76 87
REMARK SMILES IDX 77 88 78 89 79 90 58 91 59 92 67 93 60 94 66 95 61 96 62 97
REMARK SMILES IDX 63 98 64 99 65 100
REMARK H PARENT 26 6 5 25 30 37 86 56 56 67
REMARK Flexibility Score: inf
ROOT
ATOM      1  C   UNL A   1      34.283  30.318  27.138  1.00  0.00     0.042 C 
ENDROOT
BRANCH   1   2
ATOM      2  C   UNL A   1      33.691  29.383  26.080  1.00  0.00     0.118 C 
BRANCH   2   3
ATOM      3  N   UNL A   1      33.428  28.079  26.657  1.00  0.00    -0.352 N 
ATOM      4  C   UNL A   1      32.401  27.243  26.366  1.00  0.00     0.251 C 
ATOM      5  O   UNL A   1      31.869  26.599  27.262  1.00  0.00    -0.270 OA
ATOM      6  H   UNL A   1      34.068  27.764  27.335  1.00  0.00     0.163 HD
BRANCH   4   7
ATOM      7  C   UNL A   1      32.078  27.038  24.924  1.00  0.00     0.067 C 
ATOM      8  C   UNL A   1      32.841  23.049  24.631  1.00  0.00     0.026 A 
ATOM      9  C   UNL A   1      34.083  22.831  25.292  1.00  0.00     0.033 A 
ATOM     10  C   UNL A   1      32.522  24.391  24.353  1.00  0.00     0.135 A 
ATOM     11  C   UNL A   1      35.014  23.842  25.515  1.00  0.00     0.042 A 
ATOM     12  C   UNL A   1      33.533  25.381  24.474  1.00  0.00     0.019 A 
ATOM     13  O   UNL A   1      31.243  24.824  24.025  1.00  0.00    -0.475 OA
ATOM     14  Cl  UNL A   1      36.469  23.493  26.360  1.00  0.00    -0.084 Cl
ATOM     15  C   UNL A   1      34.777  25.113  25.038  1.00  0.00     0.032 A 
ATOM     16  C   UNL A   1      33.171  26.785  24.180  1.00  0.00     0.025 C 
ATOM     17  C   UNL A   1      30.879  26.145  24.636  1.00  0.00     0.314 C 
BRANCH   8  18
ATOM     18  C   UNL A   1      32.172  21.797  24.166  1.00  0.00    -0.014 A 
ATOM     19  C   UNL A   1      32.261  19.128  23.152  1.00  0.00     0.048 A 
ATOM     20  C   UNL A   1      32.190  19.374  24.526  1.00  0.00     0.027 A 
ATOM     21  C   UNL A   1      32.120  20.210  22.287  1.00  0.00     0.027 A 
ATOM     22  C   UNL A   1      32.104  20.684  25.025  1.00  0.00     0.011 A 
ATOM     23  C   UNL A   1      32.067  21.532  22.788  1.00  0.00     0.011 A 
BRANCH  19  24
ATOM     24  N   UNL A   1      32.726  17.833  22.768  1.00  0.00    -0.284 N 
ATOM     25  H   UNL A   1      32.399  17.492  21.904  1.00  0.00     0.180 HD
BRANCH  24  26
ATOM     26  S   UNL A   1      33.754  16.835  23.610  1.00  0.00     0.229 S 
ATOM     27  C   UNL A   1      34.929  17.955  24.349  1.00  0.00     0.183 C 
ATOM     28  O   UNL A   1      34.448  15.954  22.695  1.00  0.00    -0.207 OA
ATOM     29  O   UNL A   1      32.952  16.302  24.691  1.00  0.00    -0.207 OA
ENDBRANCH  24  26
ENDBRANCH  19  24
ENDBRANCH   8  18
BRANCH  17  30
ATOM     30  C   UNL A   1      29.902  26.948  23.744  1.00  0.00     0.429 C 
ATOM     31  F   UNL A   1      29.752  28.227  24.156  1.00  0.00    -0.167 F 
ATOM     32  F   UNL A   1      30.320  26.975  22.457  1.00  0.00    -0.167 F 
ATOM     33  F   UNL A   1      28.653  26.407  23.723  1.00  0.00    -0.167 F 
ENDBRANCH  17  30
ENDBRANCH   4   7
ENDBRANCH   2   3
ENDBRANCH   1   2
BRANCH   1  34
ATOM     34  C   UNL A   1      35.539  29.791  27.829  1.00  0.00     0.118 C 
BRANCH  34  35
ATOM     35  N   UNL A   1      35.502  29.944  29.275  1.00  0.00    -0.352 N 
ATOM     36  C   UNL A   1      36.472  29.669  30.207  1.00  0.00     0.251 C 
ATOM     37  H   UNL A   1      34.657  30.296  29.638  1.00  0.00     0.163 HD
ATOM     38  O   UNL A   1      36.193  29.712  31.402  1.00  0.00    -0.269 OA
BRANCH  36  39
ATOM     39  C   UNL A   1      37.837  29.296  29.774  1.00  0.00     0.039 A 
ATOM     40  C   UNL A   1      38.230  29.587  28.467  1.00  0.00     0.014 A 
ATOM     41  C   UNL A   1      38.724  28.657  30.645  1.00  0.00     0.014 A 
ATOM     42  C   UNL A   1      39.529  29.287  28.051  1.00  0.00     0.010 A 
ATOM     43  C   UNL A   1      40.045  28.445  30.258  1.00  0.00     0.010 A 
ATOM     44  C   UNL A   1      40.459  28.743  28.953  1.00  0.00    -0.014 A 
BRANCH  44  45
ATOM     45  C   UNL A   1      41.861  28.474  28.532  1.00  0.00     0.031 A 
ATOM     46  C   UNL A   1      42.266  27.106  28.048  1.00  0.00     0.074 A 
ATOM     47  C   UNL A   1      42.782  29.455  28.623  1.00  0.00     0.049 A 
ATOM     48  N   UNL A   1      43.434  26.695  27.624  1.00  0.00    -0.248 NA
ATOM     49  C   UNL A   1      41.235  26.056  28.073  1.00  0.00     0.031 C 
ATOM     50  C   UNL A   1      42.533  30.805  29.137  1.00  0.00     0.029 A 
ATOM     51  N   UNL A   1      44.111  29.470  28.282  1.00  0.00    -0.354 N 
ATOM     52  C   UNL A   1      43.283  25.339  27.350  1.00  0.00     0.074 A 
ATOM     53  C   UNL A   1      41.929  24.985  27.714  1.00  0.00     0.031 C 
ATOM     54  C   UNL A   1      43.661  31.526  29.042  1.00  0.00     0.029 A 
ATOM     55  C   UNL A   1      44.722  30.684  28.497  1.00  0.00     0.049 A 
ATOM     56  H   UNL A   1      44.584  28.687  27.920  1.00  0.00     0.167 HD
ATOM     57  C   UNL A   1      44.180  24.471  26.825  1.00  0.00     0.031 A 
ATOM     58  C   UNL A   1      45.991  31.080  28.279  1.00  0.00     0.031 A 
ATOM     59  C   UNL A   1      45.526  24.830  26.459  1.00  0.00     0.049 A 
ATOM     60  C   UNL A   1      46.964  30.109  27.670  1.00  0.00     0.074 A 
ATOM     61  C   UNL A   1      46.491  24.045  25.853  1.00  0.00     0.029 A 
ATOM     62  N   UNL A   1      46.099  26.074  26.674  1.00  0.00    -0.354 N 
ATOM     63  N   UNL A   1      46.775  28.854  27.333  1.00  0.00    -0.248 NA
ATOM     64  C   UNL A   1      48.313  30.615  27.389  1.00  0.00     0.031 C 
ATOM     65  C   UNL A   1      47.669  24.795  25.761  1.00  0.00     0.029 A 
ATOM     66  C   UNL A   1      47.416  26.071  26.240  1.00  0.00     0.049 A 
ATOM     67  H   UNL A   1      45.639  26.847  27.075  1.00  0.00     0.167 HD
ATOM     68  C   UNL A   1      47.977  28.427  26.780  1.00  0.00     0.074 A 
ATOM     69  C   UNL A   1      48.874  29.565  26.805  1.00  0.00     0.031 C 
ATOM     70  C   UNL A   1      48.307  27.204  26.292  1.00  0.00     0.031 A 
BRANCH  57  71
ATOM     71  C   UNL A   1      43.736  23.041  26.636  1.00  0.00    -0.014 A 
ATOM     72  C   UNL A   1      42.873  22.412  27.555  1.00  0.00     0.010 A 
ATOM     73  C   UNL A   1      44.176  22.319  25.513  1.00  0.00     0.010 A 
ATOM     74  C   UNL A   1      42.510  21.073  27.385  1.00  0.00     0.020 A 
ATOM     75  C   UNL A   1      43.787  20.990  25.320  1.00  0.00     0.020 A 
ATOM     76  C   UNL A   1      42.973  20.369  26.270  1.00  0.00     0.054 A 
BRANCH  76  77
ATOM     77  S   UNL A   1      42.484  18.634  26.073  1.00  0.00     0.124 S 
ATOM     78  O   UNL A   1      41.072  18.758  25.718  1.00  0.00    -0.237 OA
ATOM     79  O   UNL A   1      43.362  18.174  25.000  1.00  0.00    -0.237 OA
ATOM     80  O   UNL A   1      42.746  18.047  27.384  1.00  0.00    -0.744 OA
ENDBRANCH  76  77
ENDBRANCH  57  71
BRANCH  58  81
ATOM     81  C   UNL A   1      46.396  32.473  28.617  1.00  0.00    -0.014 A 
ATOM     82  C   UNL A   1      46.950  32.779  29.872  1.00  0.00     0.010 A 
ATOM     83  C   UNL A   1      46.264  33.497  27.661  1.00  0.00     0.010 A 
ATOM     84  C   UNL A   1      47.359  34.083  30.168  1.00  0.00     0.020 A 
ATOM     85  C   UNL A   1      46.700  34.796  27.941  1.00  0.00     0.020 A 
ATOM     86  C   UNL A   1      47.238  35.081  29.196  1.00  0.00     0.054 A 
BRANCH  86  87
ATOM     87  S   UNL A   1      47.850  36.747  29.574  1.00  0.00     0.124 S 
ATOM     88  O   UNL A   1      46.647  37.409  30.068  1.00  0.00    -0.237 OA
ATOM     89  O   UNL A   1      48.885  36.484  30.572  1.00  0.00    -0.237 OA
ATOM     90  O   UNL A   1      48.347  37.229  28.286  1.00  0.00    -0.744 OA
ENDBRANCH  86  87
ENDBRANCH  58  81
BRANCH  70  91
ATOM     91  C   UNL A   1      49.693  27.044  25.720  1.00  0.00    -0.014 A 
ATOM     92  C   UNL A   1      49.984  27.387  24.387  1.00  0.00     0.010 A 
ATOM     93  C   UNL A   1      50.726  26.553  26.540  1.00  0.00     0.010 A 
ATOM     94  C   UNL A   1      51.266  27.184  23.868  1.00  0.00     0.020 A 
ATOM     95  C   UNL A   1      52.018  26.383  26.035  1.00  0.00     0.020 A 
ATOM     96  C   UNL A   1      52.272  26.676  24.694  1.00  0.00     0.054 A 
BRANCH  96  97
ATOM     97  S   UNL A   1      53.926  26.416  23.997  1.00  0.00     0.124 S 
ATOM     98  O   UNL A   1      54.588  27.678  24.310  1.00  0.00    -0.237 OA
ATOM     99  O   UNL A   1      54.406  25.251  24.737  1.00  0.00    -0.237 OA
ATOM    100  O   UNL A   1      53.669  26.182  22.577  1.00  0.00    -0.744 OA
ENDBRANCH  96  97
ENDBRANCH  70  91
ENDBRANCH  44  45
ENDBRANCH  36  39
ENDBRANCH  34  35
ENDBRANCH   1  34
TORSDOF 17
ENDMDL
MODEL 2
REMARK VINA RESULT:     -13.1      5.617      7.875
REMARK SMILES CS(=O)(=O)Nc1ccc(-c2cc(Cl)cc3c2O[C@H](C(F)(F)F)C(C(=O)NCCCNC(=O)c2ccc(-c4c5nc(c(-c6ccc(S(=O)(=O)[O-])cc6)c6ccc([nH]6)c(-c6ccc(S(=O)(=O)[O-])cc6)c6nc(c(-c7ccc(S(=O)(=O)[O-])cc7)c7ccc4[nH]7)C=C6)C=C5)cc2)=C3)cc1
REMARK SMILES IDX 28 1 27 2 26 3 24 4 25 5 23 7 10 8 11 9 16 10 12 11 15 12
REMARK SMILES IDX 17 13 13 14 14 15 93 16 18 17 9 18 6 19 7 20 95 21 8 22
REMARK SMILES IDX 94 23 5 24 2 26 1 27 3 28 4 29 19 30 20 31 21 32 22 33 29 34
REMARK SMILES IDX 30 35 31 36 32 38 33 39 34 40 92 41 35 42 91 43 36 44 37 45
REMARK SMILES IDX 38 46 85 47 39 48 90 49 84 50 86 51 40 52 89 53 83 54 82 55
REMARK SMILES IDX 41 57 71 58 52 59 70 60 53 61 56 62 69 63 87 64 54 65 55 66
REMARK SMILES IDX 68 68 88 69 57 70 42 71 43 72 51 73 44 74 50 75 45 76 46 77
REMARK SMILES IDX 47 78 48 79 49 80 72 81 73 82 81 83 74 84 80 85 75 86 76 87
REMARK SMILES IDX 77 88 78 89 79 90 58 91 59 92 67 93 60 94 66 95 61 96 62 97
REMARK SMILES IDX 63 98 64 99 65 100
REMARK H PARENT 26 6 5 25 30 37 86 56 56 67
REMARK Flexibility Score: inf
ROOT
ATOM      1  C   UNL A   1      32.316  30.827  26.855  1.00  0.00     0.042 C 
ENDROOT
BRANCH   1   2
ATOM      2  C   UNL A   1      32.746  29.915  25.704  1.00  0.00     0.118 C 
BRANCH   2   3
ATOM      3  N   UNL A   1      33.192  28.635  26.220  1.00  0.00    -0.352 N 
ATOM      4  C   UNL A   1      32.675  27.413  25.944  1.00  0.00     0.251 C 
ATOM      5  O   UNL A   1      32.594  26.573  26.833  1.00  0.00    -0.270 OA
ATOM      6  H   UNL A   1      33.956  28.657  26.839  1.00  0.00     0.163 HD
BRANCH   4   7
ATOM      7  C   UNL A   1      32.377  27.106  24.514  1.00  0.00     0.067 C 
ATOM      8  C   UNL A   1      32.970  23.078  24.558  1.00  0.00     0.026 A 
ATOM      9  C   UNL A   1      34.186  22.861  25.267  1.00  0.00     0.033 A 
ATOM     10  C   UNL A   1      32.717  24.406  24.167  1.00  0.00     0.135 A 
ATOM     11  C   UNL A   1      35.155  23.847  25.433  1.00  0.00     0.042 A 
ATOM     12  C   UNL A   1      33.768  25.359  24.235  1.00  0.00     0.019 A 
ATOM     13  O   UNL A   1      31.466  24.864  23.772  1.00  0.00    -0.475 OA
ATOM     14  Cl  UNL A   1      36.573  23.506  26.341  1.00  0.00    -0.084 Cl
ATOM     15  C   UNL A   1      34.985  25.085  24.851  1.00  0.00     0.032 A 
ATOM     16  C   UNL A   1      33.475  26.749  23.822  1.00  0.00     0.025 C 
ATOM     17  C   UNL A   1      31.147  26.245  24.267  1.00  0.00     0.314 C 
BRANCH   8  18
ATOM     18  C   UNL A   1      32.257  21.823  24.175  1.00  0.00    -0.014 A 
ATOM     19  C   UNL A   1      32.252  19.079  23.380  1.00  0.00     0.048 A 
ATOM     20  C   UNL A   1      32.158  19.437  24.728  1.00  0.00     0.027 A 
ATOM     21  C   UNL A   1      32.180  20.093  22.428  1.00  0.00     0.027 A 
ATOM     22  C   UNL A   1      32.120  20.786  25.118  1.00  0.00     0.011 A 
ATOM     23  C   UNL A   1      32.174  21.451  22.820  1.00  0.00     0.011 A 
BRANCH  19  24
ATOM     24  N   UNL A   1      32.668  17.738  23.114  1.00  0.00    -0.284 N 
ATOM     25  H   UNL A   1      32.092  17.216  22.508  1.00  0.00     0.180 HD
BRANCH  24  26
ATOM     26  S   UNL A   1      34.010  16.958  23.705  1.00  0.00     0.229 S 
ATOM     27  C   UNL A   1      33.365  15.917  25.003  1.00  0.00     0.183 C 
ATOM     28  O   UNL A   1      34.929  17.918  24.277  1.00  0.00    -0.207 OA
ATOM     29  O   UNL A   1      34.428  16.075  22.635  1.00  0.00    -0.207 OA
ENDBRANCH  24  26
ENDBRANCH  19  24
ENDBRANCH   8  18
BRANCH  17  30
ATOM     30  C   UNL A   1      30.227  27.014  23.288  1.00  0.00     0.429 C 
ATOM     31  F   UNL A   1      28.934  26.628  23.377  1.00  0.00    -0.167 F 
ATOM     32  F   UNL A   1      30.276  28.347  23.512  1.00  0.00    -0.167 F 
ATOM     33  F   UNL A   1      30.588  26.837  21.988  1.00  0.00    -0.167 F 
ENDBRANCH  17  30
ENDBRANCH   4   7
ENDBRANCH   2   3
ENDBRANCH   1   2
BRANCH   1  34
ATOM     34  C   UNL A   1      33.419  31.730  27.406  1.00  0.00     0.118 C 
BRANCH  34  35
ATOM     35  N   UNL A   1      32.954  33.070  27.724  1.00  0.00    -0.352 N 
ATOM     36  C   UNL A   1      33.417  33.953  28.670  1.00  0.00     0.251 C 
ATOM     37  H   UNL A   1      32.198  33.392  27.183  1.00  0.00     0.163 HD
ATOM     38  O   UNL A   1      32.787  34.981  28.897  1.00  0.00    -0.269 OA
BRANCH  36  39
ATOM     39  C   UNL A   1      34.651  33.653  29.428  1.00  0.00     0.039 A 
ATOM     40  C   UNL A   1      34.580  32.763  30.501  1.00  0.00     0.014 A 
ATOM     41  C   UNL A   1      35.871  34.247  29.092  1.00  0.00     0.014 A 
ATOM     42  C   UNL A   1      35.742  32.428  31.201  1.00  0.00     0.010 A 
ATOM     43  C   UNL A   1      37.040  33.841  29.730  1.00  0.00     0.010 A 
ATOM     44  C   UNL A   1      36.988  32.939  30.802  1.00  0.00    -0.014 A 
BRANCH  44  45
ATOM     45  C   UNL A   1      38.236  32.542  31.508  1.00  0.00     0.031 A 
ATOM     46  C   UNL A   1      39.185  31.551  30.886  1.00  0.00     0.074 A 
ATOM     47  C   UNL A   1      38.496  33.046  32.732  1.00  0.00     0.049 A 
ATOM     48  N   UNL A   1      40.326  31.103  31.345  1.00  0.00    -0.248 NA
ATOM     49  C   UNL A   1      38.787  30.964  29.597  1.00  0.00     0.031 C 
ATOM     50  C   UNL A   1      37.626  33.963  33.473  1.00  0.00     0.029 A 
ATOM     51  N   UNL A   1      39.569  32.860  33.567  1.00  0.00    -0.354 N 
ATOM     52  C   UNL A   1      40.770  30.171  30.413  1.00  0.00     0.074 A 
ATOM     53  C   UNL A   1      39.748  30.074  29.395  1.00  0.00     0.031 C 
ATOM     54  C   UNL A   1      38.217  34.289  34.633  1.00  0.00     0.029 A 
ATOM     55  C   UNL A   1      39.488  33.578  34.737  1.00  0.00     0.049 A 
ATOM     56  H   UNL A   1      40.325  32.268  33.350  1.00  0.00     0.167 HD
ATOM     57  C   UNL A   1      41.932  29.474  30.394  1.00  0.00     0.031 A 
ATOM     58  C   UNL A   1      40.338  33.660  35.779  1.00  0.00     0.031 A 
ATOM     59  C   UNL A   1      42.949  29.579  31.407  1.00  0.00     0.049 A 
ATOM     60  C   UNL A   1      41.634  32.900  35.724  1.00  0.00     0.074 A 
ATOM     61  C   UNL A   1      44.192  28.971  31.444  1.00  0.00     0.029 A 
ATOM     62  N   UNL A   1      42.838  30.332  32.566  1.00  0.00    -0.354 N 
ATOM     63  N   UNL A   1      42.078  32.092  34.789  1.00  0.00    -0.248 NA
ATOM     64  C   UNL A   1      42.554  33.082  36.854  1.00  0.00     0.031 C 
ATOM     65  C   UNL A   1      44.805  29.306  32.657  1.00  0.00     0.029 A 
ATOM     66  C   UNL A   1      43.976  30.182  33.341  1.00  0.00     0.049 A 
ATOM     67  H   UNL A   1      42.063  30.892  32.803  1.00  0.00     0.167 HD
ATOM     68  C   UNL A   1      43.340  31.686  35.208  1.00  0.00     0.074 A 
ATOM     69  C   UNL A   1      43.597  32.358  36.467  1.00  0.00     0.031 C 
ATOM     70  C   UNL A   1      44.210  30.837  34.604  1.00  0.00     0.031 A 
BRANCH  57  71
ATOM     71  C   UNL A   1      42.150  28.520  29.245  1.00  0.00    -0.014 A 
ATOM     72  C   UNL A   1      41.926  27.137  29.385  1.00  0.00     0.010 A 
ATOM     73  C   UNL A   1      42.573  29.016  27.999  1.00  0.00     0.010 A 
ATOM     74  C   UNL A   1      42.178  26.265  28.322  1.00  0.00     0.020 A 
ATOM     75  C   UNL A   1      42.792  28.152  26.921  1.00  0.00     0.020 A 
ATOM     76  C   UNL A   1      42.613  26.779  27.097  1.00  0.00     0.054 A 
BRANCH  76  77
ATOM     77  S   UNL A   1      42.930  25.626  25.734  1.00  0.00     0.124 S 
ATOM     78  O   UNL A   1      42.902  24.335  26.419  1.00  0.00    -0.237 OA
ATOM     79  O   UNL A   1      41.809  25.881  24.832  1.00  0.00    -0.237 OA
ATOM     80  O   UNL A   1      44.238  26.033  25.229  1.00  0.00    -0.744 OA
ENDBRANCH  76  77
ENDBRANCH  57  71
BRANCH  58  81
ATOM     81  C   UNL A   1      39.994  34.520  36.945  1.00  0.00    -0.014 A 
ATOM     82  C   UNL A   1      39.280  34.000  38.040  1.00  0.00     0.010 A 
ATOM     83  C   UNL A   1      40.417  35.862  36.982  1.00  0.00     0.010 A 
ATOM     84  C   UNL A   1      38.991  34.807  39.145  1.00  0.00     0.020 A 
ATOM     85  C   UNL A   1      40.157  36.663  38.098  1.00  0.00     0.020 A 
ATOM     86  C   UNL A   1      39.439  36.130  39.169  1.00  0.00     0.054 A 
BRANCH  86  87
ATOM     87  S   UNL A   1      39.122  37.133  40.649  1.00  0.00     0.124 S 
ATOM     88  O   UNL A   1      38.294  38.209  40.115  1.00  0.00    -0.237 OA
ATOM     89  O   UNL A   1      38.443  36.186  41.531  1.00  0.00    -0.237 OA
ATOM     90  O   UNL A   1      40.460  37.530  41.086  1.00  0.00    -0.744 OA
ENDBRANCH  86  87
ENDBRANCH  58  81
BRANCH  70  91
ATOM     91  C   UNL A   1      45.534  30.609  35.289  1.00  0.00    -0.014 A 
ATOM     92  C   UNL A   1      45.717  29.556  36.204  1.00  0.00     0.010 A 
ATOM     93  C   UNL A   1      46.618  31.457  34.998  1.00  0.00     0.010 A 
ATOM     94  C   UNL A   1      46.940  29.395  36.862  1.00  0.00     0.020 A 
ATOM     95  C   UNL A   1      47.853  31.276  35.626  1.00  0.00     0.020 A 
ATOM     96  C   UNL A   1      47.997  30.261  36.573  1.00  0.00     0.054 A 
BRANCH  96  97
ATOM     97  S   UNL A   1      49.573  30.036  37.442  1.00  0.00     0.124 S 
ATOM     98  O   UNL A   1      50.429  31.012  36.775  1.00  0.00    -0.237 OA
ATOM     99  O   UNL A   1      49.223  30.348  38.826  1.00  0.00    -0.237 OA
ATOM    100  O   UNL A   1      49.910  28.636  37.191  1.00  0.00    -0.744 OA
ENDBRANCH  96  97
ENDBRANCH  70  91
ENDBRANCH  44  45
ENDBRANCH  36  39
ENDBRANCH  34  35
ENDBRANCH   1  34
TORSDOF 17
ENDMDL
MODEL 3
REMARK VINA RESULT:     -12.7      5.797      9.953
REMARK SMILES CS(=O)(=O)Nc1ccc(-c2cc(Cl)cc3c2O[C@H](C(F)(F)F)C(C(=O)NCCCNC(=O)c2ccc(-c4c5nc(c(-c6ccc(S(=O)(=O)[O-])cc6)c6ccc([nH]6)c(-c6ccc(S(=O)(=O)[O-])cc6)c6nc(c(-c7ccc(S(=O)(=O)[O-])cc7)c7ccc4[nH]7)C=C6)C=C5)cc2)=C3)cc1
REMARK SMILES IDX 28 1 27 2 26 3 24 4 25 5 23 7 10 8 11 9 16 10 12 11 15 12
REMARK SMILES IDX 17 13 13 14 14 15 93 16 18 17 9 18 6 19 7 20 95 21 8 22
REMARK SMILES IDX 94 23 5 24 2 26 1 27 3 28 4 29 19 30 20 31 21 32 22 33 29 34
REMARK SMILES IDX 30 35 31 36 32 38 33 39 34 40 92 41 35 42 91 43 36 44 37 45
REMARK SMILES IDX 38 46 85 47 39 48 90 49 84 50 86 51 40 52 89 53 83 54 82 55
REMARK SMILES IDX 41 57 71 58 52 59 70 60 53 61 56 62 69 63 87 64 54 65 55 66
REMARK SMILES IDX 68 68 88 69 57 70 42 71 43 72 51 73 44 74 50 75 45 76 46 77
REMARK SMILES IDX 47 78 48 79 49 80 72 81 73 82 81 83 74 84 80 85 75 86 76 87
REMARK SMILES IDX 77 88 78 89 79 90 58 91 59 92 67 93 60 94 66 95 61 96 62 97
REMARK SMILES IDX 63 98 64 99 65 100
REMARK H PARENT 26 6 5 25 30 37 86 56 56 67
REMARK Flexibility Score: inf
ROOT
ATOM      1  C   UNL A   1      32.072  31.066  26.897  1.00  0.00     0.042 C 
ENDROOT
BRANCH   1   2
ATOM      2  C   UNL A   1      32.294  30.114  25.719  1.00  0.00     0.118 C 
BRANCH   2   3
ATOM      3  N   UNL A   1      32.964  28.909  26.170  1.00  0.00    -0.352 N 
ATOM      4  C   UNL A   1      32.604  27.626  25.917  1.00  0.00     0.251 C 
ATOM      5  O   UNL A   1      32.724  26.778  26.794  1.00  0.00    -0.270 OA
ATOM      6  H   UNL A   1      33.768  29.036  26.721  1.00  0.00     0.163 HD
BRANCH   4   7
ATOM      7  C   UNL A   1      32.227  27.289  24.514  1.00  0.00     0.067 C 
ATOM      8  C   UNL A   1      32.928  23.279  24.580  1.00  0.00     0.026 A 
ATOM      9  C   UNL A   1      34.190  23.105  25.215  1.00  0.00     0.033 A 
ATOM     10  C   UNL A   1      32.616  24.593  24.186  1.00  0.00     0.135 A 
ATOM     11  C   UNL A   1      35.141  24.117  25.307  1.00  0.00     0.042 A 
ATOM     12  C   UNL A   1      33.644  25.573  24.175  1.00  0.00     0.019 A 
ATOM     13  O   UNL A   1      31.331  25.013  23.862  1.00  0.00    -0.475 OA
ATOM     14  Cl  UNL A   1      36.621  23.827  26.130  1.00  0.00    -0.084 Cl
ATOM     15  C   UNL A   1      34.903  25.340  24.718  1.00  0.00     0.032 A 
ATOM     16  C   UNL A   1      33.289  26.948  23.760  1.00  0.00     0.025 C 
ATOM     17  C   UNL A   1      31.007  26.392  24.355  1.00  0.00     0.314 C 
BRANCH   8  18
ATOM     18  C   UNL A   1      32.226  21.999  24.261  1.00  0.00    -0.014 A 
ATOM     19  C   UNL A   1      32.234  19.187  23.758  1.00  0.00     0.048 A 
ATOM     20  C   UNL A   1      32.018  19.687  25.045  1.00  0.00     0.027 A 
ATOM     21  C   UNL A   1      32.278  20.096  22.703  1.00  0.00     0.027 A 
ATOM     22  C   UNL A   1      31.973  21.070  25.288  1.00  0.00     0.011 A 
ATOM     23  C   UNL A   1      32.266  21.488  22.950  1.00  0.00     0.011 A 
BRANCH  19  24
ATOM     24  N   UNL A   1      32.642  17.820  23.674  1.00  0.00    -0.284 N 
ATOM     25  H   UNL A   1      31.928  17.163  23.507  1.00  0.00     0.180 HD
BRANCH  24  26
ATOM     26  S   UNL A   1      34.181  17.212  23.824  1.00  0.00     0.229 S 
ATOM     27  C   UNL A   1      34.016  15.924  25.047  1.00  0.00     0.183 C 
ATOM     28  O   UNL A   1      35.071  18.237  24.328  1.00  0.00    -0.207 OA
ATOM     29  O   UNL A   1      34.445  16.554  22.561  1.00  0.00    -0.207 OA
ENDBRANCH  24  26
ENDBRANCH  19  24
ENDBRANCH   8  18
BRANCH  17  30
ATOM     30  C   UNL A   1      30.009  27.122  23.425  1.00  0.00     0.429 C 
ATOM     31  F   UNL A   1      28.773  26.574  23.455  1.00  0.00    -0.167 F 
ATOM     32  F   UNL A   1      29.890  28.428  23.757  1.00  0.00    -0.167 F 
ATOM     33  F   UNL A   1      30.402  27.100  22.121  1.00  0.00    -0.167 F 
ENDBRANCH  17  30
ENDBRANCH   4   7
ENDBRANCH   2   3
ENDBRANCH   1   2
BRANCH   1  34
ATOM     34  C   UNL A   1      33.332  31.762  27.407  1.00  0.00     0.118 C 
BRANCH  34  35
ATOM     35  N   UNL A   1      33.092  33.124  27.854  1.00  0.00    -0.352 N 
ATOM     36  C   UNL A   1      33.747  33.857  28.814  1.00  0.00     0.251 C 
ATOM     37  H   UNL A   1      32.352  33.590  27.402  1.00  0.00     0.163 HD
ATOM     38  O   UNL A   1      33.291  34.942  29.163  1.00  0.00    -0.269 OA
BRANCH  36  39
ATOM     39  C   UNL A   1      34.978  33.329  29.443  1.00  0.00     0.039 A 
ATOM     40  C   UNL A   1      36.204  33.905  29.105  1.00  0.00     0.014 A 
ATOM     41  C   UNL A   1      34.929  32.271  30.355  1.00  0.00     0.014 A 
ATOM     42  C   UNL A   1      37.373  33.455  29.723  1.00  0.00     0.010 A 
ATOM     43  C   UNL A   1      36.082  31.889  31.037  1.00  0.00     0.010 A 
ATOM     44  C   UNL A   1      37.320  32.464  30.718  1.00  0.00    -0.014 A 
BRANCH  44  45
ATOM     45  C   UNL A   1      38.555  32.022  31.419  1.00  0.00     0.031 A 
ATOM     46  C   UNL A   1      38.904  32.574  32.776  1.00  0.00     0.074 A 
ATOM     47  C   UNL A   1      39.386  31.148  30.814  1.00  0.00     0.049 A 
ATOM     48  N   UNL A   1      39.927  32.291  33.543  1.00  0.00    -0.248 NA
ATOM     49  C   UNL A   1      38.008  33.600  33.331  1.00  0.00     0.031 C 
ATOM     50  C   UNL A   1      39.196  30.589  29.473  1.00  0.00     0.029 A 
ATOM     51  N   UNL A   1      40.554  30.575  31.250  1.00  0.00    -0.354 N 
ATOM     52  C   UNL A   1      39.805  33.114  34.658  1.00  0.00     0.074 A 
ATOM     53  C   UNL A   1      38.646  33.950  34.439  1.00  0.00     0.031 C 
ATOM     54  C   UNL A   1      40.190  29.725  29.212  1.00  0.00     0.029 A 
ATOM     55  C   UNL A   1      41.107  29.696  30.348  1.00  0.00     0.049 A 
ATOM     56  H   UNL A   1      40.959  30.774  32.125  1.00  0.00     0.167 HD
ATOM     57  C   UNL A   1      40.575  33.158  35.771  1.00  0.00     0.031 A 
ATOM     58  C   UNL A   1      42.225  28.948  30.422  1.00  0.00     0.031 A 
ATOM     59  C   UNL A   1      41.725  32.320  35.987  1.00  0.00     0.049 A 
ATOM     60  C   UNL A   1      43.049  28.991  31.679  1.00  0.00     0.074 A 
ATOM     61  C   UNL A   1      42.529  32.235  37.111  1.00  0.00     0.029 A 
ATOM     62  N   UNL A   1      42.241  31.429  35.058  1.00  0.00    -0.354 N 
ATOM     63  N   UNL A   1      42.867  29.711  32.761  1.00  0.00    -0.248 NA
ATOM     64  C   UNL A   1      44.217  28.102  31.733  1.00  0.00     0.031 C 
ATOM     65  C   UNL A   1      43.569  31.339  36.835  1.00  0.00     0.029 A 
ATOM     66  C   UNL A   1      43.371  30.811  35.569  1.00  0.00     0.049 A 
ATOM     67  H   UNL A   1      41.860  31.259  34.166  1.00  0.00     0.167 HD
ATOM     68  C   UNL A   1      43.885  29.346  33.634  1.00  0.00     0.074 A 
ATOM     69  C   UNL A   1      44.662  28.323  32.962  1.00  0.00     0.031 C 
ATOM     70  C   UNL A   1      44.150  29.811  34.881  1.00  0.00     0.031 A 
BRANCH  57  71
ATOM     71  C   UNL A   1      40.204  34.165  36.833  1.00  0.00    -0.014 A 
ATOM     72  C   UNL A   1      40.680  35.489  36.789  1.00  0.00     0.010 A 
ATOM     73  C   UNL A   1      39.352  33.785  37.885  1.00  0.00     0.010 A 
ATOM     74  C   UNL A   1      40.362  36.393  37.806  1.00  0.00     0.020 A 
ATOM     75  C   UNL A   1      39.001  34.696  38.887  1.00  0.00     0.020 A 
ATOM     76  C   UNL A   1      39.527  35.989  38.851  1.00  0.00     0.054 A 
BRANCH  76  77
ATOM     77  S   UNL A   1      39.127  37.183  40.156  1.00  0.00     0.124 S 
ATOM     78  O   UNL A   1      38.369  38.192  39.419  1.00  0.00    -0.237 OA
ATOM     79  O   UNL A   1      38.351  36.380  41.098  1.00  0.00    -0.237 OA
ATOM     80  O   UNL A   1      40.434  37.619  40.642  1.00  0.00    -0.744 OA
ENDBRANCH  76  77
ENDBRANCH  57  71
BRANCH  58  81
ATOM     81  C   UNL A   1      42.604  28.075  29.277  1.00  0.00    -0.014 A 
ATOM     82  C   UNL A   1      43.337  28.586  28.191  1.00  0.00     0.010 A 
ATOM     83  C   UNL A   1      42.265  26.709  29.288  1.00  0.00     0.010 A 
ATOM     84  C   UNL A   1      43.718  27.751  27.136  1.00  0.00     0.020 A 
ATOM     85  C   UNL A   1      42.670  25.864  28.250  1.00  0.00     0.020 A 
ATOM     86  C   UNL A   1      43.388  26.393  27.178  1.00  0.00     0.054 A 
BRANCH  86  87
ATOM     87  S   UNL A   1      43.963  25.313  25.837  1.00  0.00     0.124 S 
ATOM     88  O   UNL A   1      44.641  24.250  26.573  1.00  0.00    -0.237 OA
ATOM     89  O   UNL A   1      42.714  24.935  25.181  1.00  0.00    -0.237 OA
ATOM     90  O   UNL A   1      44.834  26.182  25.048  1.00  0.00    -0.744 OA
ENDBRANCH  86  87
ENDBRANCH  58  81
BRANCH  70  91
ATOM     91  C   UNL A   1      45.319  29.197  35.609  1.00  0.00    -0.014 A 
ATOM     92  C   UNL A   1      45.168  28.047  36.406  1.00  0.00     0.010 A 
ATOM     93  C   UNL A   1      46.595  29.775  35.481  1.00  0.00     0.010 A 
ATOM     94  C   UNL A   1      46.257  27.525  37.109  1.00  0.00     0.020 A 
ATOM     95  C   UNL A   1      47.694  29.235  36.153  1.00  0.00     0.020 A 
ATOM     96  C   UNL A   1      47.512  28.128  36.983  1.00  0.00     0.054 A 
BRANCH  96  97
ATOM     97  S   UNL A   1      48.910  27.436  37.909  1.00  0.00     0.124 S 
ATOM     98  O   UNL A   1      48.355  27.321  39.254  1.00  0.00    -0.237 OA
ATOM     99  O   UNL A   1      49.157  26.172  37.219  1.00  0.00    -0.237 OA
ATOM    100  O   UNL A   1      49.960  28.441  37.752  1.00  0.00    -0.744 OA
ENDBRANCH  96  97
ENDBRANCH  70  91
ENDBRANCH  44  45
ENDBRANCH  36  39
ENDBRANCH  34  35
ENDBRANCH   1  34
TORSDOF 17
ENDMDL
