MODEL 1
REMARK VINA RESULT:     -11.8      0.000      0.000
REMARK SMILES C[C@]1(C(=O)NCCCNC(=O)c2ccc(-c3c4nc(c(-c5ccc(S(=O)(=O)[O-])cc5)c5ccc([nH]5)c(-c5ccc(S(=O)(=O)[O-])cc5)c5nc(c(-c6ccc(S(=O)(=O)[O-])cc6)c6ccc3[nH]6)C=C5)C=C4)cc2)CCN(c2ccc([N+](=O)[O-])c(N)n2)C1
REMARK SMILES IDX 7 1 6 2 5 3 3 4 4 5 2 7 1 8 72 9 85 10 73 11 74 12 75 13
REMARK SMILES IDX 76 14 84 15 77 16 82 17 78 18 83 19 79 22 80 23 81 24 8 25
REMARK SMILES IDX 9 26 10 27 11 29 12 30 13 31 71 32 14 33 70 34 15 35 16 36
REMARK SMILES IDX 17 37 64 38 18 39 69 40 63 41 65 42 19 43 68 44 62 45 61 46
REMARK SMILES IDX 20 48 50 49 31 50 49 51 32 52 35 53 48 54 66 55 33 56 34 57
REMARK SMILES IDX 47 59 67 60 36 61 21 62 22 63 30 64 23 65 29 66 24 67 25 68
REMARK SMILES IDX 26 69 27 70 28 71 51 72 52 73 60 74 53 75 59 76 54 77 55 78
REMARK SMILES IDX 56 79 57 80 58 81 37 82 38 83 46 84 39 85 45 86 40 87 41 88
REMARK SMILES IDX 42 89 43 90 44 91
REMARK H PARENT 5 6 83 20 83 21 9 28 65 47 35 58
REMARK Flexibility Score: inf
ROOT
ATOM      1  C   UNL A   1      33.638  28.340  25.374  1.00  0.00     0.042 C 
ENDROOT
BRANCH   1   2
ATOM      2  C   UNL A   1      32.673  27.274  24.874  1.00  0.00     0.117 C 
BRANCH   2   3
ATOM      3  N   UNL A   1      33.136  26.658  23.644  1.00  0.00    -0.356 N 
ATOM      4  C   UNL A   1      33.633  25.421  23.381  1.00  0.00     0.227 C 
ATOM      5  O   UNL A   1      33.929  25.188  22.206  1.00  0.00    -0.274 OA
ATOM      6  H   UNL A   1      33.078  27.243  22.854  1.00  0.00     0.163 HD
BRANCH   4   7
ATOM      7  C   UNL A   1      33.755  24.348  24.465  1.00  0.00     0.066 C 
ATOM      8  C   UNL A   1      34.731  24.807  25.562  1.00  0.00     0.024 C 
ATOM      9  C   UNL A   1      32.367  24.058  25.085  1.00  0.00     0.040 C 
ATOM     10  C   UNL A   1      34.106  22.973  23.882  1.00  0.00     0.134 C 
ATOM     11  C   UNL A   1      32.445  22.618  25.595  1.00  0.00     0.119 C 
ATOM     12  N   UNL A   1      33.518  22.022  24.816  1.00  0.00    -0.355 N 
BRANCH  12  13
ATOM     13  C   UNL A   1      33.552  20.675  24.541  1.00  0.00     0.131 A 
ATOM     14  C   UNL A   1      32.442  20.052  23.977  1.00  0.00     0.054 A 
ATOM     15  N   UNL A   1      34.672  19.973  24.823  1.00  0.00    -0.207 NA
ATOM     16  C   UNL A   1      32.481  18.691  23.691  1.00  0.00     0.093 A 
ATOM     17  C   UNL A   1      34.707  18.637  24.598  1.00  0.00     0.204 A 
ATOM     18  C   UNL A   1      33.634  17.975  24.009  1.00  0.00     0.311 A 
BRANCH  17  19
ATOM     19  N   UNL A   1      35.911  18.045  24.927  1.00  0.00    -0.378 N 
ATOM     20  H   UNL A   1      36.022  17.071  24.837  1.00  0.00     0.158 HD
ATOM     21  H   UNL A   1      36.659  18.598  25.251  1.00  0.00     0.158 HD
ENDBRANCH  17  19
BRANCH  18  22
ATOM     22  N   UNL A   1      33.684  16.550  23.716  1.00  0.00     0.066 N 
ATOM     23  O   UNL A   1      34.300  16.203  22.697  1.00  0.00    -0.258 OA
ATOM     24  O   UNL A   1      33.102  15.769  24.484  1.00  0.00    -0.258 OA
ENDBRANCH  18  22
ENDBRANCH  12  13
ENDBRANCH   4   7
ENDBRANCH   2   3
ENDBRANCH   1   2
BRANCH   1  25
ATOM     25  C   UNL A   1      33.664  28.468  26.892  1.00  0.00     0.118 C 
BRANCH  25  26
ATOM     26  N   UNL A   1      33.579  29.855  27.334  1.00  0.00    -0.352 N 
ATOM     27  C   UNL A   1      34.477  30.604  28.052  1.00  0.00     0.251 C 
ATOM     28  H   UNL A   1      32.752  30.325  27.078  1.00  0.00     0.163 HD
ATOM     29  O   UNL A   1      34.135  31.692  28.507  1.00  0.00    -0.269 OA
BRANCH  27  30
ATOM     30  C   UNL A   1      35.843  30.093  28.291  1.00  0.00     0.039 A 
ATOM     31  C   UNL A   1      36.797  30.190  27.274  1.00  0.00     0.014 A 
ATOM     32  C   UNL A   1      36.181  29.517  29.518  1.00  0.00     0.014 A 
ATOM     33  C   UNL A   1      38.109  29.772  27.514  1.00  0.00     0.010 A 
ATOM     34  C   UNL A   1      37.503  29.184  29.783  1.00  0.00     0.010 A 
ATOM     35  C   UNL A   1      38.482  29.301  28.784  1.00  0.00    -0.014 A 
BRANCH  35  36
ATOM     36  C   UNL A   1      39.877  28.899  29.095  1.00  0.00     0.031 A 
ATOM     37  C   UNL A   1      40.817  29.895  29.721  1.00  0.00     0.074 A 
ATOM     38  C   UNL A   1      40.320  27.673  28.750  1.00  0.00     0.049 A 
ATOM     39  N   UNL A   1      42.100  29.790  29.951  1.00  0.00    -0.248 NA
ATOM     40  C   UNL A   1      40.241  31.193  30.118  1.00  0.00     0.031 C 
ATOM     41  C   UNL A   1      39.515  26.622  28.121  1.00  0.00     0.029 A 
ATOM     42  N   UNL A   1      41.565  27.107  28.868  1.00  0.00    -0.354 N 
ATOM     43  C   UNL A   1      42.485  31.006  30.504  1.00  0.00     0.074 A 
ATOM     44  C   UNL A   1      41.316  31.855  30.519  1.00  0.00     0.031 C 
ATOM     45  C   UNL A   1      40.280  25.534  27.935  1.00  0.00     0.029 A 
ATOM     46  C   UNL A   1      41.639  25.823  28.379  1.00  0.00     0.049 A 
ATOM     47  H   UNL A   1      42.333  27.576  29.267  1.00  0.00     0.167 HD
ATOM     48  C   UNL A   1      43.697  31.374  30.981  1.00  0.00     0.031 A 
ATOM     49  C   UNL A   1      42.687  24.981  28.287  1.00  0.00     0.031 A 
ATOM     50  C   UNL A   1      44.857  30.524  30.975  1.00  0.00     0.049 A 
ATOM     51  C   UNL A   1      44.037  25.434  28.780  1.00  0.00     0.074 A 
ATOM     52  C   UNL A   1      46.126  30.796  31.455  1.00  0.00     0.029 A 
ATOM     53  N   UNL A   1      44.886  29.231  30.474  1.00  0.00    -0.354 N 
ATOM     54  N   UNL A   1      44.374  26.577  29.328  1.00  0.00    -0.248 NA
ATOM     55  C   UNL A   1      45.145  24.478  28.651  1.00  0.00     0.031 C 
ATOM     56  C   UNL A   1      46.936  29.684  31.203  1.00  0.00     0.029 A 
ATOM     57  C   UNL A   1      46.154  28.697  30.624  1.00  0.00     0.049 A 
ATOM     58  H   UNL A   1      44.120  28.763  30.070  1.00  0.00     0.167 HD
ATOM     59  C   UNL A   1      45.721  26.458  29.651  1.00  0.00     0.074 A 
ATOM     60  C   UNL A   1      46.136  25.132  29.243  1.00  0.00     0.031 C 
ATOM     61  C   UNL A   1      46.541  27.364  30.237  1.00  0.00     0.031 A 
BRANCH  48  62
ATOM     62  C   UNL A   1      43.827  32.757  31.562  1.00  0.00    -0.014 A 
ATOM     63  C   UNL A   1      44.108  33.862  30.739  1.00  0.00     0.010 A 
ATOM     64  C   UNL A   1      43.615  32.967  32.937  1.00  0.00     0.010 A 
ATOM     65  C   UNL A   1      44.209  35.145  31.281  1.00  0.00     0.020 A 
ATOM     66  C   UNL A   1      43.683  34.253  33.481  1.00  0.00     0.020 A 
ATOM     67  C   UNL A   1      43.994  35.332  32.650  1.00  0.00     0.054 A 
BRANCH  67  68
ATOM     68  S   UNL A   1      44.094  37.015  33.318  1.00  0.00     0.124 S 
ATOM     69  O   UNL A   1      44.179  37.818  32.101  1.00  0.00    -0.237 OA
ATOM     70  O   UNL A   1      42.845  37.137  34.064  1.00  0.00    -0.237 OA
ATOM     71  O   UNL A   1      45.306  36.993  34.135  1.00  0.00    -0.744 OA
ENDBRANCH  67  68
ENDBRANCH  48  62
BRANCH  49  72
ATOM     72  C   UNL A   1      42.512  23.617  27.713  1.00  0.00    -0.014 A 
ATOM     73  C   UNL A   1      42.316  22.510  28.560  1.00  0.00     0.010 A 
ATOM     74  C   UNL A   1      42.574  23.409  26.324  1.00  0.00     0.010 A 
ATOM     75  C   UNL A   1      42.227  21.219  28.032  1.00  0.00     0.020 A 
ATOM     76  C   UNL A   1      42.452  22.124  25.789  1.00  0.00     0.020 A 
ATOM     77  C   UNL A   1      42.300  21.034  26.649  1.00  0.00     0.054 A 
BRANCH  77  78
ATOM     78  S   UNL A   1      42.175  19.350  25.985  1.00  0.00     0.124 S 
ATOM     79  O   UNL A   1      43.081  19.407  24.843  1.00  0.00    -0.237 OA
ATOM     80  O   UNL A   1      42.623  18.534  27.111  1.00  0.00    -0.237 OA
ATOM     81  O   UNL A   1      40.757  19.219  25.656  1.00  0.00    -0.744 OA
ENDBRANCH  77  78
ENDBRANCH  49  72
BRANCH  61  82
ATOM     82  C   UNL A   1      47.952  26.936  30.543  1.00  0.00    -0.014 A 
ATOM     83  C   UNL A   1      49.011  27.206  29.661  1.00  0.00     0.010 A 
ATOM     84  C   UNL A   1      48.227  26.315  31.777  1.00  0.00     0.010 A 
ATOM     85  C   UNL A   1      50.319  26.841  29.997  1.00  0.00     0.020 A 
ATOM     86  C   UNL A   1      49.535  25.978  32.129  1.00  0.00     0.020 A 
ATOM     87  C   UNL A   1      50.573  26.234  31.230  1.00  0.00     0.054 A 
BRANCH  87  88
ATOM     88  S   UNL A   1      52.286  25.830  31.669  1.00  0.00     0.124 S 
ATOM     89  O   UNL A   1      52.579  26.823  32.699  1.00  0.00    -0.237 OA
ATOM     90  O   UNL A   1      52.178  24.450  32.138  1.00  0.00    -0.237 OA
ATOM     91  O   UNL A   1      53.015  26.000  30.415  1.00  0.00    -0.744 OA
ENDBRANCH  87  88
ENDBRANCH  61  82
ENDBRANCH  35  36
ENDBRANCH  27  30
ENDBRANCH  25  26
ENDBRANCH   1  25
TORSDOF 16
ENDMDL
MODEL 2
REMARK VINA RESULT:     -11.6      2.597      8.956
REMARK SMILES C[C@]1(C(=O)NCCCNC(=O)c2ccc(-c3c4nc(c(-c5ccc(S(=O)(=O)[O-])cc5)c5ccc([nH]5)c(-c5ccc(S(=O)(=O)[O-])cc5)c5nc(c(-c6ccc(S(=O)(=O)[O-])cc6)c6ccc3[nH]6)C=C5)C=C4)cc2)CCN(c2ccc([N+](=O)[O-])c(N)n2)C1
REMARK SMILES IDX 7 1 6 2 5 3 3 4 4 5 2 7 1 8 72 9 85 10 73 11 74 12 75 13
REMARK SMILES IDX 76 14 84 15 77 16 82 17 78 18 83 19 79 22 80 23 81 24 8 25
REMARK SMILES IDX 9 26 10 27 11 29 12 30 13 31 71 32 14 33 70 34 15 35 16 36
REMARK SMILES IDX 17 37 64 38 18 39 69 40 63 41 65 42 19 43 68 44 62 45 61 46
REMARK SMILES IDX 20 48 50 49 31 50 49 51 32 52 35 53 48 54 66 55 33 56 34 57
REMARK SMILES IDX 47 59 67 60 36 61 21 62 22 63 30 64 23 65 29 66 24 67 25 68
REMARK SMILES IDX 26 69 27 70 28 71 51 72 52 73 60 74 53 75 59 76 54 77 55 78
REMARK SMILES IDX 56 79 57 80 58 81 37 82 38 83 46 84 39 85 45 86 40 87 41 88
REMARK SMILES IDX 42 89 43 90 44 91
REMARK H PARENT 5 6 83 20 83 21 9 28 65 47 35 58
REMARK Flexibility Score: inf
ROOT
ATOM      1  C   UNL A   1      35.820  23.875  25.572  1.00  0.00     0.042 C 
ENDROOT
BRANCH   1   2
ATOM      2  C   UNL A   1      34.809  24.711  24.799  1.00  0.00     0.117 C 
BRANCH   2   3
ATOM      3  N   UNL A   1      33.984  25.516  25.681  1.00  0.00    -0.356 N 
ATOM      4  C   UNL A   1      32.654  25.482  25.961  1.00  0.00     0.227 C 
ATOM      5  O   UNL A   1      32.247  26.306  26.785  1.00  0.00    -0.274 OA
ATOM      6  H   UNL A   1      34.478  26.217  26.165  1.00  0.00     0.163 HD
BRANCH   4   7
ATOM      7  C   UNL A   1      31.723  24.435  25.348  1.00  0.00     0.066 C 
ATOM      8  C   UNL A   1      30.279  24.659  25.828  1.00  0.00     0.024 C 
ATOM      9  C   UNL A   1      31.781  24.511  23.804  1.00  0.00     0.040 C 
ATOM     10  C   UNL A   1      32.223  23.004  25.587  1.00  0.00     0.134 C 
ATOM     11  C   UNL A   1      31.418  23.107  23.315  1.00  0.00     0.119 C 
ATOM     12  N   UNL A   1      31.717  22.248  24.449  1.00  0.00    -0.355 N 
BRANCH  12  13
ATOM     13  C   UNL A   1      32.072  20.930  24.285  1.00  0.00     0.131 A 
ATOM     14  C   UNL A   1      32.131  20.379  23.007  1.00  0.00     0.054 A 
ATOM     15  N   UNL A   1      32.363  20.184  25.374  1.00  0.00    -0.207 NA
ATOM     16  C   UNL A   1      32.499  19.048  22.842  1.00  0.00     0.093 A 
ATOM     17  C   UNL A   1      32.672  18.873  25.234  1.00  0.00     0.204 A 
ATOM     18  C   UNL A   1      32.773  18.285  23.976  1.00  0.00     0.311 A 
BRANCH  17  19
ATOM     19  N   UNL A   1      32.950  18.232  26.426  1.00  0.00    -0.378 N 
ATOM     20  H   UNL A   1      33.718  18.518  26.971  1.00  0.00     0.158 HD
ATOM     21  H   UNL A   1      32.380  17.489  26.729  1.00  0.00     0.158 HD
ENDBRANCH  17  19
BRANCH  18  22
ATOM     22  N   UNL A   1      33.156  16.890  23.814  1.00  0.00     0.066 N 
ATOM     23  O   UNL A   1      32.712  16.082  24.643  1.00  0.00    -0.258 OA
ATOM     24  O   UNL A   1      33.910  16.590  22.877  1.00  0.00    -0.258 OA
ENDBRANCH  18  22
ENDBRANCH  12  13
ENDBRANCH   4   7
ENDBRANCH   2   3
ENDBRANCH   1   2
BRANCH   1  25
ATOM     25  C   UNL A   1      37.137  23.681  24.830  1.00  0.00     0.118 C 
BRANCH  25  26
ATOM     26  N   UNL A   1      37.985  22.675  25.458  1.00  0.00    -0.352 N 
ATOM     27  C   UNL A   1      39.063  22.833  26.292  1.00  0.00     0.251 C 
ATOM     28  H   UNL A   1      37.748  21.741  25.253  1.00  0.00     0.163 HD
ATOM     29  O   UNL A   1      39.777  21.868  26.552  1.00  0.00    -0.269 OA
BRANCH  27  30
ATOM     30  C   UNL A   1      39.372  24.162  26.860  1.00  0.00     0.039 A 
ATOM     31  C   UNL A   1      38.953  24.466  28.157  1.00  0.00     0.014 A 
ATOM     32  C   UNL A   1      40.073  25.109  26.108  1.00  0.00     0.014 A 
ATOM     33  C   UNL A   1      39.300  25.694  28.726  1.00  0.00     0.010 A 
ATOM     34  C   UNL A   1      40.490  26.292  26.705  1.00  0.00     0.010 A 
ATOM     35  C   UNL A   1      40.104  26.602  28.018  1.00  0.00    -0.014 A 
BRANCH  35  36
ATOM     36  C   UNL A   1      40.539  27.894  28.608  1.00  0.00     0.031 A 
ATOM     37  C   UNL A   1      41.939  28.033  29.145  1.00  0.00     0.074 A 
ATOM     38  C   UNL A   1      39.662  28.910  28.729  1.00  0.00     0.049 A 
ATOM     39  N   UNL A   1      42.473  29.022  29.812  1.00  0.00    -0.248 NA
ATOM     40  C   UNL A   1      42.851  26.896  28.924  1.00  0.00     0.031 C 
ATOM     41  C   UNL A   1      38.272  28.897  28.265  1.00  0.00     0.029 A 
ATOM     42  N   UNL A   1      39.808  30.154  29.293  1.00  0.00    -0.354 N 
ATOM     43  C   UNL A   1      43.774  28.623  30.102  1.00  0.00     0.074 A 
ATOM     44  C   UNL A   1      43.929  27.279  29.592  1.00  0.00     0.031 C 
ATOM     45  C   UNL A   1      37.704  30.083  28.540  1.00  0.00     0.029 A 
ATOM     46  C   UNL A   1      38.667  30.922  29.245  1.00  0.00     0.049 A 
ATOM     47  H   UNL A   1      40.651  30.467  29.694  1.00  0.00     0.167 HD
ATOM     48  C   UNL A   1      44.759  29.322  30.713  1.00  0.00     0.031 A 
ATOM     49  C   UNL A   1      38.422  32.156  29.727  1.00  0.00     0.031 A 
ATOM     50  C   UNL A   1      44.605  30.663  31.209  1.00  0.00     0.049 A 
ATOM     51  C   UNL A   1      39.522  32.893  30.447  1.00  0.00     0.074 A 
ATOM     52  C   UNL A   1      45.550  31.466  31.824  1.00  0.00     0.029 A 
ATOM     53  N   UNL A   1      43.435  31.404  31.136  1.00  0.00    -0.354 N 
ATOM     54  N   UNL A   1      40.754  32.510  30.683  1.00  0.00    -0.248 NA
ATOM     55  C   UNL A   1      39.200  34.233  30.957  1.00  0.00     0.031 C 
ATOM     56  C   UNL A   1      44.939  32.676  32.165  1.00  0.00     0.029 A 
ATOM     57  C   UNL A   1      43.632  32.650  31.705  1.00  0.00     0.049 A 
ATOM     58  H   UNL A   1      42.591  31.090  30.740  1.00  0.00     0.167 HD
ATOM     59  C   UNL A   1      41.365  33.581  31.326  1.00  0.00     0.074 A 
ATOM     60  C   UNL A   1      40.371  34.628  31.438  1.00  0.00     0.031 C 
ATOM     61  C   UNL A   1      42.637  33.690  31.782  1.00  0.00     0.031 A 
BRANCH  48  62
ATOM     62  C   UNL A   1      46.098  28.651  30.867  1.00  0.00    -0.014 A 
ATOM     63  C   UNL A   1      46.377  27.850  31.990  1.00  0.00     0.010 A 
ATOM     64  C   UNL A   1      47.070  28.775  29.858  1.00  0.00     0.010 A 
ATOM     65  C   UNL A   1      47.614  27.215  32.118  1.00  0.00     0.020 A 
ATOM     66  C   UNL A   1      48.298  28.116  29.967  1.00  0.00     0.020 A 
ATOM     67  C   UNL A   1      48.567  27.350  31.104  1.00  0.00     0.054 A 
BRANCH  67  68
ATOM     68  S   UNL A   1      50.149  26.483  31.283  1.00  0.00     0.124 S 
ATOM     69  O   UNL A   1      49.964  25.334  30.399  1.00  0.00    -0.237 OA
ATOM     70  O   UNL A   1      51.113  27.479  30.824  1.00  0.00    -0.237 OA
ATOM     71  O   UNL A   1      50.213  26.167  32.708  1.00  0.00    -0.744 OA
ENDBRANCH  67  68
ENDBRANCH  48  62
BRANCH  49  72
ATOM     72  C   UNL A   1      37.085  32.788  29.543  1.00  0.00    -0.014 A 
ATOM     73  C   UNL A   1      36.771  33.448  28.341  1.00  0.00     0.010 A 
ATOM     74  C   UNL A   1      36.132  32.764  30.577  1.00  0.00     0.010 A 
ATOM     75  C   UNL A   1      35.548  34.107  28.192  1.00  0.00     0.020 A 
ATOM     76  C   UNL A   1      34.894  33.393  30.419  1.00  0.00     0.020 A 
ATOM     77  C   UNL A   1      34.618  34.079  29.235  1.00  0.00     0.054 A 
BRANCH  77  78
ATOM     78  S   UNL A   1      33.034  34.934  29.015  1.00  0.00     0.124 S 
ATOM     79  O   UNL A   1      32.371  34.093  28.025  1.00  0.00    -0.237 OA
ATOM     80  O   UNL A   1      32.467  34.897  30.360  1.00  0.00    -0.237 OA
ATOM     81  O   UNL A   1      33.426  36.262  28.549  1.00  0.00    -0.744 OA
ENDBRANCH  77  78
ENDBRANCH  49  72
BRANCH  61  82
ATOM     82  C   UNL A   1      43.058  35.008  32.376  1.00  0.00    -0.014 A 
ATOM     83  C   UNL A   1      43.643  36.016  31.592  1.00  0.00     0.010 A 
ATOM     84  C   UNL A   1      42.792  35.263  33.735  1.00  0.00     0.010 A 
ATOM     85  C   UNL A   1      43.975  37.249  32.162  1.00  0.00     0.020 A 
ATOM     86  C   UNL A   1      43.094  36.503  34.300  1.00  0.00     0.020 A 
ATOM     87  C   UNL A   1      43.694  37.486  33.512  1.00  0.00     0.054 A 
BRANCH  87  88
ATOM     88  S   UNL A   1      44.077  39.115  34.211  1.00  0.00     0.124 S 
ATOM     89  O   UNL A   1      45.367  39.414  33.596  1.00  0.00    -0.237 OA
ATOM     90  O   UNL A   1      42.956  39.931  33.748  1.00  0.00    -0.237 OA
ATOM     91  O   UNL A   1      44.113  38.876  35.651  1.00  0.00    -0.744 OA
ENDBRANCH  87  88
ENDBRANCH  61  82
ENDBRANCH  35  36
ENDBRANCH  27  30
ENDBRANCH  25  26
ENDBRANCH   1  25
TORSDOF 16
ENDMDL
MODEL 3
REMARK VINA RESULT:     -11.3      3.214     10.006
REMARK SMILES C[C@]1(C(=O)NCCCNC(=O)c2ccc(-c3c4nc(c(-c5ccc(S(=O)(=O)[O-])cc5)c5ccc([nH]5)c(-c5ccc(S(=O)(=O)[O-])cc5)c5nc(c(-c6ccc(S(=O)(=O)[O-])cc6)c6ccc3[nH]6)C=C5)C=C4)cc2)CCN(c2ccc([N+](=O)[O-])c(N)n2)C1
REMARK SMILES IDX 7 1 6 2 5 3 3 4 4 5 2 7 1 8 72 9 85 10 73 11 74 12 75 13
REMARK SMILES IDX 76 14 84 15 77 16 82 17 78 18 83 19 79 22 80 23 81 24 8 25
REMARK SMILES IDX 9 26 10 27 11 29 12 30 13 31 71 32 14 33 70 34 15 35 16 36
REMARK SMILES IDX 17 37 64 38 18 39 69 40 63 41 65 42 19 43 68 44 62 45 61 46
REMARK SMILES IDX 20 48 50 49 31 50 49 51 32 52 35 53 48 54 66 55 33 56 34 57
REMARK SMILES IDX 47 59 67 60 36 61 21 62 22 63 30 64 23 65 29 66 24 67 25 68
REMARK SMILES IDX 26 69 27 70 28 71 51 72 52 73 60 74 53 75 59 76 54 77 55 78
REMARK SMILES IDX 56 79 57 80 58 81 37 82 38 83 46 84 39 85 45 86 40 87 41 88
REMARK SMILES IDX 42 89 43 90 44 91
REMARK H PARENT 5 6 83 20 83 21 9 28 65 47 35 58
REMARK Flexibility Score: inf
ROOT
ATOM      1  C   UNL A   1      35.657  23.686  25.650  1.00  0.00     0.042 C 
ENDROOT
BRANCH   1   2
ATOM      2  C   UNL A   1      34.525  23.146  24.787  1.00  0.00     0.117 C 
BRANCH   2   3
ATOM      3  N   UNL A   1      34.478  23.791  23.488  1.00  0.00    -0.356 N 
ATOM      4  C   UNL A   1      33.534  24.570  22.896  1.00  0.00     0.227 C 
ATOM      5  O   UNL A   1      33.800  24.990  21.766  1.00  0.00    -0.274 OA
ATOM      6  H   UNL A   1      35.276  23.636  22.932  1.00  0.00     0.163 HD
BRANCH   4   7
ATOM      7  C   UNL A   1      32.243  24.967  23.615  1.00  0.00     0.066 C 
ATOM      8  C   UNL A   1      31.318  23.748  23.763  1.00  0.00     0.024 C 
ATOM      9  C   UNL A   1      32.570  25.551  25.010  1.00  0.00     0.040 C 
ATOM     10  C   UNL A   1      31.557  26.168  22.951  1.00  0.00     0.134 C 
ATOM     11  C   UNL A   1      31.408  26.492  25.336  1.00  0.00     0.119 C 
ATOM     12  N   UNL A   1      30.846  26.827  24.039  1.00  0.00    -0.355 N 
BRANCH  12  13
ATOM     13  C   UNL A   1      30.198  28.019  23.816  1.00  0.00     0.131 A 
ATOM     14  C   UNL A   1      30.791  29.218  24.205  1.00  0.00     0.054 A 
ATOM     15  N   UNL A   1      28.987  28.009  23.215  1.00  0.00    -0.207 NA
ATOM     16  C   UNL A   1      30.138  30.423  23.971  1.00  0.00     0.093 A 
ATOM     17  C   UNL A   1      28.315  29.170  23.027  1.00  0.00     0.204 A 
ATOM     18  C   UNL A   1      28.879  30.395  23.372  1.00  0.00     0.311 A 
BRANCH  17  19
ATOM     19  N   UNL A   1      27.094  29.016  22.400  1.00  0.00    -0.378 N 
ATOM     20  H   UNL A   1      26.451  28.349  22.733  1.00  0.00     0.158 HD
ATOM     21  H   UNL A   1      26.867  29.573  21.621  1.00  0.00     0.158 HD
ENDBRANCH  17  19
BRANCH  18  22
ATOM     22  N   UNL A   1      28.186  31.651  23.125  1.00  0.00     0.066 N 
ATOM     23  O   UNL A   1      28.790  32.510  22.467  1.00  0.00    -0.258 OA
ATOM     24  O   UNL A   1      27.047  31.799  23.594  1.00  0.00    -0.258 OA
ENDBRANCH  18  22
ENDBRANCH  12  13
ENDBRANCH   4   7
ENDBRANCH   2   3
ENDBRANCH   1   2
BRANCH   1  25
ATOM     25  C   UNL A   1      37.002  23.716  24.934  1.00  0.00     0.118 C 
BRANCH  25  26
ATOM     26  N   UNL A   1      37.922  22.703  25.438  1.00  0.00    -0.352 N 
ATOM     27  C   UNL A   1      39.053  22.847  26.202  1.00  0.00     0.251 C 
ATOM     28  H   UNL A   1      37.698  21.776  25.193  1.00  0.00     0.163 HD
ATOM     29  O   UNL A   1      39.811  21.892  26.351  1.00  0.00    -0.269 OA
BRANCH  27  30
ATOM     30  C   UNL A   1      39.363  24.150  26.827  1.00  0.00     0.039 A 
ATOM     31  C   UNL A   1      38.972  24.386  28.147  1.00  0.00     0.014 A 
ATOM     32  C   UNL A   1      40.039  25.139  26.107  1.00  0.00     0.014 A 
ATOM     33  C   UNL A   1      39.322  25.588  28.767  1.00  0.00     0.010 A 
ATOM     34  C   UNL A   1      40.460  26.295  26.751  1.00  0.00     0.010 A 
ATOM     35  C   UNL A   1      40.102  26.537  28.086  1.00  0.00    -0.014 A 
BRANCH  35  36
ATOM     36  C   UNL A   1      40.539  27.803  28.728  1.00  0.00     0.031 A 
ATOM     37  C   UNL A   1      41.922  27.899  29.318  1.00  0.00     0.074 A 
ATOM     38  C   UNL A   1      39.678  28.832  28.849  1.00  0.00     0.049 A 
ATOM     39  N   UNL A   1      42.451  28.858  30.032  1.00  0.00    -0.248 NA
ATOM     40  C   UNL A   1      42.820  26.751  29.096  1.00  0.00     0.031 C 
ATOM     41  C   UNL A   1      38.305  28.860  28.337  1.00  0.00     0.029 A 
ATOM     42  N   UNL A   1      39.826  30.056  29.454  1.00  0.00    -0.354 N 
ATOM     43  C   UNL A   1      43.732  28.426  30.355  1.00  0.00     0.074 A 
ATOM     44  C   UNL A   1      43.881  27.094  29.811  1.00  0.00     0.031 C 
ATOM     45  C   UNL A   1      37.750  30.048  28.626  1.00  0.00     0.029 A 
ATOM     46  C   UNL A   1      38.703  30.847  29.389  1.00  0.00     0.049 A 
ATOM     47  H   UNL A   1      40.661  30.341  29.893  1.00  0.00     0.167 HD
ATOM     48  C   UNL A   1      44.708  29.088  31.020  1.00  0.00     0.031 A 
ATOM     49  C   UNL A   1      38.464  32.072  29.898  1.00  0.00     0.031 A 
ATOM     50  C   UNL A   1      44.562  30.416  31.550  1.00  0.00     0.049 A 
ATOM     51  C   UNL A   1      39.551  32.766  30.677  1.00  0.00     0.074 A 
ATOM     52  C   UNL A   1      45.499  31.182  32.221  1.00  0.00     0.029 A 
ATOM     53  N   UNL A   1      43.409  31.181  31.458  1.00  0.00    -0.354 N 
ATOM     54  N   UNL A   1      40.767  32.353  30.945  1.00  0.00    -0.248 NA
ATOM     55  C   UNL A   1      39.236  34.097  31.214  1.00  0.00     0.031 C 
ATOM     56  C   UNL A   1      44.898  32.394  32.576  1.00  0.00     0.029 A 
ATOM     57  C   UNL A   1      43.608  32.407  32.069  1.00  0.00     0.049 A 
ATOM     58  H   UNL A   1      42.573  30.896  31.024  1.00  0.00     0.167 HD
ATOM     59  C   UNL A   1      41.374  33.392  31.640  1.00  0.00     0.074 A 
ATOM     60  C   UNL A   1      40.396  34.455  31.747  1.00  0.00     0.031 C 
ATOM     61  C   UNL A   1      42.631  33.464  32.142  1.00  0.00     0.031 A 
BRANCH  48  62
ATOM     62  C   UNL A   1      46.028  28.386  31.201  1.00  0.00    -0.014 A 
ATOM     63  C   UNL A   1      46.236  27.510  32.282  1.00  0.00     0.010 A 
ATOM     64  C   UNL A   1      47.055  28.559  30.256  1.00  0.00     0.010 A 
ATOM     65  C   UNL A   1      47.456  26.848  32.435  1.00  0.00     0.020 A 
ATOM     66  C   UNL A   1      48.267  27.874  30.386  1.00  0.00     0.020 A 
ATOM     67  C   UNL A   1      48.464  27.033  31.484  1.00  0.00     0.054 A 
BRANCH  67  68
ATOM     68  S   UNL A   1      50.022  26.130  31.689  1.00  0.00     0.124 S 
ATOM     69  O   UNL A   1      49.976  25.191  30.570  1.00  0.00    -0.237 OA
ATOM     70  O   UNL A   1      51.022  27.189  31.578  1.00  0.00    -0.237 OA
ATOM     71  O   UNL A   1      49.903  25.526  33.014  1.00  0.00    -0.744 OA
ENDBRANCH  67  68
ENDBRANCH  48  62
BRANCH  49  72
ATOM     72  C   UNL A   1      37.146  32.734  29.686  1.00  0.00    -0.014 A 
ATOM     73  C   UNL A   1      36.901  33.468  28.511  1.00  0.00     0.010 A 
ATOM     74  C   UNL A   1      36.143  32.666  30.669  1.00  0.00     0.010 A 
ATOM     75  C   UNL A   1      35.696  34.154  28.341  1.00  0.00     0.020 A 
ATOM     76  C   UNL A   1      34.922  33.323  30.488  1.00  0.00     0.020 A 
ATOM     77  C   UNL A   1      34.715  34.081  29.334  1.00  0.00     0.054 A 
BRANCH  77  78
ATOM     78  S   UNL A   1      33.155  34.973  29.087  1.00  0.00     0.124 S 
ATOM     79  O   UNL A   1      32.570  34.934  30.424  1.00  0.00    -0.237 OA
ATOM     80  O   UNL A   1      33.610  36.284  28.632  1.00  0.00    -0.237 OA
ATOM     81  O   UNL A   1      32.463  34.176  28.077  1.00  0.00    -0.744 OA
ENDBRANCH  77  78
ENDBRANCH  49  72
BRANCH  61  82
ATOM     82  C   UNL A   1      43.055  34.756  32.789  1.00  0.00    -0.014 A 
ATOM     83  C   UNL A   1      42.869  34.986  34.162  1.00  0.00     0.010 A 
ATOM     84  C   UNL A   1      43.718  35.726  32.013  1.00  0.00     0.010 A 
ATOM     85  C   UNL A   1      43.319  36.175  34.744  1.00  0.00     0.020 A 
ATOM     86  C   UNL A   1      44.196  36.900  32.597  1.00  0.00     0.020 A 
ATOM     87  C   UNL A   1      43.984  37.122  33.959  1.00  0.00     0.054 A 
BRANCH  87  88
ATOM     88  S   UNL A   1      44.615  38.627  34.752  1.00  0.00     0.124 S 
ATOM     89  O   UNL A   1      44.652  38.237  36.158  1.00  0.00    -0.237 OA
ATOM     90  O   UNL A   1      45.917  38.802  34.113  1.00  0.00    -0.237 OA
ATOM     91  O   UNL A   1      43.620  39.642  34.413  1.00  0.00    -0.744 OA
ENDBRANCH  87  88
ENDBRANCH  61  82
ENDBRANCH  35  36
ENDBRANCH  27  30
ENDBRANCH  25  26
ENDBRANCH   1  25
TORSDOF 16
ENDMDL
