MODEL 1
REMARK VINA RESULT:     -10.4      0.000      0.000
REMARK SMILES CC[N@@H+](C)CCNC(=O)N1CCC(CC(=O)NCCCNC(=O)c2ccc(-c3c4nc(c(-c5ccc(S(=O)(=O)[O-])cc5)c5ccc([nH]5)c(-c5ccc(S(=O)(=O)[O-])cc5)c5nc(c(-c6ccc(S(=O)(=O)[O-])cc6)c6ccc3[nH]6)C=C5)C=C4)cc2)CC1
REMARK SMILES IDX 18 1 17 2 15 3 16 4 14 6 13 7 7 8 8 9 9 11 10 12 11 13 85 14
REMARK SMILES IDX 12 15 84 16 6 17 5 18 3 19 4 20 2 22 1 23 19 24 20 25 21 26
REMARK SMILES IDX 22 27 23 29 24 30 25 31 83 32 26 33 82 34 27 35 28 36 29 37
REMARK SMILES IDX 76 38 30 39 81 40 75 41 77 42 31 43 80 44 74 45 73 46 32 48
REMARK SMILES IDX 62 49 43 50 61 51 44 52 47 53 60 54 78 55 45 56 46 57 59 59
REMARK SMILES IDX 79 60 48 61 33 62 34 63 42 64 35 65 41 66 36 67 37 68 38 69
REMARK SMILES IDX 39 70 40 71 63 72 64 73 72 74 65 75 71 76 66 77 67 78 68 79
REMARK SMILES IDX 69 80 70 81 49 82 50 83 58 84 51 85 57 86 52 87 53 88 54 89
REMARK SMILES IDX 55 90 56 91
REMARK H PARENT 17 5 7 10 3 21 21 28 77 47 47 58
REMARK Flexibility Score: inf
ROOT
ATOM      1  C   UNL A   1      31.586  29.406  25.243  1.00  0.00     0.117 C 
ENDROOT
BRANCH   1   2
ATOM      2  N   UNL A   1      31.183  29.407  23.842  1.00  0.00    -0.356 N 
ATOM      3  C   UNL A   1      30.414  28.539  23.126  1.00  0.00     0.220 C 
ATOM      4  O   UNL A   1      30.195  28.794  21.939  1.00  0.00    -0.275 OA
ATOM      5  H   UNL A   1      31.529  30.168  23.320  1.00  0.00     0.163 HD
BRANCH   3   6
ATOM      6  C   UNL A   1      29.858  27.275  23.757  1.00  0.00     0.103 C 
BRANCH   6   7
ATOM      7  C   UNL A   1      30.510  25.998  23.197  1.00  0.00     0.002 C 
ATOM      8  N   UNL A   1      34.045  22.870  24.858  1.00  0.00    -0.332 N 
ATOM      9  C   UNL A   1      33.740  24.066  24.288  1.00  0.00     0.317 C 
ATOM     10  H   UNL A   1      34.448  22.891  25.756  1.00  0.00     0.165 HD
ATOM     11  O   UNL A   1      34.414  25.057  24.560  1.00  0.00    -0.249 OA
ATOM     12  N   UNL A   1      32.688  24.086  23.405  1.00  0.00    -0.325 N 
ATOM     13  C   UNL A   1      32.707  25.040  22.317  1.00  0.00     0.121 C 
ATOM     14  C   UNL A   1      31.356  23.672  23.829  1.00  0.00     0.121 C 
ATOM     15  C   UNL A   1      31.927  26.288  22.686  1.00  0.00     0.026 C 
ATOM     16  C   UNL A   1      30.540  24.893  24.273  1.00  0.00     0.026 C 
BRANCH   8  17
ATOM     17  C   UNL A   1      33.828  21.563  24.261  1.00  0.00     0.179 C 
BRANCH  17  18
ATOM     18  C   UNL A   1      34.387  20.404  25.116  1.00  0.00     0.283 C 
BRANCH  18  19
ATOM     19  N   UNL A   1      33.830  19.055  24.929  1.00  0.00    -0.336 N 
ATOM     20  C   UNL A   1      34.815  18.093  24.446  1.00  0.00     0.332 C 
ATOM     21  H   UNL A   1      33.568  18.804  25.883  1.00  0.00     0.347 HD
BRANCH  19  22
ATOM     22  C   UNL A   1      32.577  18.955  24.177  1.00  0.00     0.258 C 
ATOM     23  C   UNL A   1      32.629  18.022  22.972  1.00  0.00     0.071 C 
ENDBRANCH  19  22
ENDBRANCH  18  19
ENDBRANCH  17  18
ENDBRANCH   8  17
ENDBRANCH   6   7
ENDBRANCH   3   6
ENDBRANCH   1   2
BRANCH   1  24
ATOM     24  C   UNL A   1      32.483  28.226  25.621  1.00  0.00     0.042 C 
BRANCH  24  25
ATOM     25  C   UNL A   1      33.518  28.526  26.698  1.00  0.00     0.118 C 
BRANCH  25  26
ATOM     26  N   UNL A   1      33.479  29.917  27.107  1.00  0.00    -0.352 N 
ATOM     27  C   UNL A   1      34.376  30.638  27.858  1.00  0.00     0.251 C 
ATOM     28  H   UNL A   1      32.689  30.420  26.801  1.00  0.00     0.163 HD
ATOM     29  O   UNL A   1      34.023  31.724  28.312  1.00  0.00    -0.269 OA
BRANCH  27  30
ATOM     30  C   UNL A   1      35.751  30.140  28.128  1.00  0.00     0.039 A 
ATOM     31  C   UNL A   1      36.037  29.629  29.400  1.00  0.00     0.014 A 
ATOM     32  C   UNL A   1      36.783  30.257  27.192  1.00  0.00     0.014 A 
ATOM     33  C   UNL A   1      37.339  29.230  29.725  1.00  0.00     0.010 A 
ATOM     34  C   UNL A   1      38.067  29.795  27.494  1.00  0.00     0.010 A 
ATOM     35  C   UNL A   1      38.367  29.304  28.774  1.00  0.00    -0.014 A 
BRANCH  35  36
ATOM     36  C   UNL A   1      39.767  28.938  29.128  1.00  0.00     0.031 A 
ATOM     37  C   UNL A   1      40.647  29.923  29.857  1.00  0.00     0.074 A 
ATOM     38  C   UNL A   1      40.263  27.734  28.781  1.00  0.00     0.049 A 
ATOM     39  N   UNL A   1      41.895  29.796  30.235  1.00  0.00    -0.248 NA
ATOM     40  C   UNL A   1      40.055  31.231  30.184  1.00  0.00     0.031 C 
ATOM     41  C   UNL A   1      39.538  26.698  28.042  1.00  0.00     0.029 A 
ATOM     42  N   UNL A   1      41.498  27.177  29.006  1.00  0.00    -0.354 N 
ATOM     43  C   UNL A   1      42.243  31.010  30.817  1.00  0.00     0.074 A 
ATOM     44  C   UNL A   1      41.088  31.876  30.708  1.00  0.00     0.031 C 
ATOM     45  C   UNL A   1      40.332  25.624  27.898  1.00  0.00     0.029 A 
ATOM     46  C   UNL A   1      41.628  25.901  28.510  1.00  0.00     0.049 A 
ATOM     47  H   UNL A   1      42.223  27.648  29.478  1.00  0.00     0.167 HD
ATOM     48  C   UNL A   1      43.408  31.373  31.405  1.00  0.00     0.031 A 
ATOM     49  C   UNL A   1      42.668  25.045  28.551  1.00  0.00     0.031 A 
ATOM     50  C   UNL A   1      44.549  30.507  31.549  1.00  0.00     0.049 A 
ATOM     51  C   UNL A   1      43.935  25.451  29.251  1.00  0.00     0.074 A 
ATOM     52  C   UNL A   1      45.756  30.769  32.176  1.00  0.00     0.029 A 
ATOM     53  N   UNL A   1      44.620  29.209  31.069  1.00  0.00    -0.354 N 
ATOM     54  N   UNL A   1      44.226  26.588  29.838  1.00  0.00    -0.248 NA
ATOM     55  C   UNL A   1      45.009  24.449  29.315  1.00  0.00     0.031 C 
ATOM     56  C   UNL A   1      46.568  29.635  32.052  1.00  0.00     0.029 A 
ATOM     57  C   UNL A   1      45.850  28.658  31.382  1.00  0.00     0.049 A 
ATOM     58  H   UNL A   1      43.903  28.749  30.578  1.00  0.00     0.167 HD
ATOM     59  C   UNL A   1      45.503  26.427  30.362  1.00  0.00     0.074 A 
ATOM     60  C   UNL A   1      45.927  25.081  30.034  1.00  0.00     0.031 C 
ATOM     61  C   UNL A   1      46.256  27.315  31.056  1.00  0.00     0.031 A 
BRANCH  48  62
ATOM     62  C   UNL A   1      43.506  32.777  31.942  1.00  0.00    -0.014 A 
ATOM     63  C   UNL A   1      44.010  33.823  31.148  1.00  0.00     0.010 A 
ATOM     64  C   UNL A   1      43.061  33.059  33.246  1.00  0.00     0.010 A 
ATOM     65  C   UNL A   1      44.111  35.117  31.664  1.00  0.00     0.020 A 
ATOM     66  C   UNL A   1      43.137  34.358  33.757  1.00  0.00     0.020 A 
ATOM     67  C   UNL A   1      43.681  35.375  32.970  1.00  0.00     0.054 A 
BRANCH  67  68
ATOM     68  S   UNL A   1      43.811  37.066  33.614  1.00  0.00     0.124 S 
ATOM     69  O   UNL A   1      45.119  37.040  34.263  1.00  0.00    -0.237 OA
ATOM     70  O   UNL A   1      43.726  37.882  32.406  1.00  0.00    -0.237 OA
ATOM     71  O   UNL A   1      42.669  37.179  34.519  1.00  0.00    -0.744 OA
ENDBRANCH  67  68
ENDBRANCH  48  62
BRANCH  49  72
ATOM     72  C   UNL A   1      42.540  23.697  27.937  1.00  0.00    -0.014 A 
ATOM     73  C   UNL A   1      42.984  23.469  26.622  1.00  0.00     0.010 A 
ATOM     74  C   UNL A   1      41.986  22.631  28.668  1.00  0.00     0.010 A 
ATOM     75  C   UNL A   1      42.861  22.204  26.043  1.00  0.00     0.020 A 
ATOM     76  C   UNL A   1      41.883  21.357  28.100  1.00  0.00     0.020 A 
ATOM     77  C   UNL A   1      42.312  21.155  26.786  1.00  0.00     0.054 A 
BRANCH  77  78
ATOM     78  S   UNL A   1      42.213  19.505  26.035  1.00  0.00     0.124 S 
ATOM     79  O   UNL A   1      42.732  18.655  27.102  1.00  0.00    -0.237 OA
ATOM     80  O   UNL A   1      40.786  19.367  25.754  1.00  0.00    -0.237 OA
ATOM     81  O   UNL A   1      43.064  19.619  24.853  1.00  0.00    -0.744 OA
ENDBRANCH  77  78
ENDBRANCH  49  72
BRANCH  61  82
ATOM     82  C   UNL A   1      47.600  26.848  31.544  1.00  0.00    -0.014 A 
ATOM     83  C   UNL A   1      47.736  26.170  32.768  1.00  0.00     0.010 A 
ATOM     84  C   UNL A   1      48.738  27.054  30.742  1.00  0.00     0.010 A 
ATOM     85  C   UNL A   1      48.994  25.737  33.199  1.00  0.00     0.020 A 
ATOM     86  C   UNL A   1      49.992  26.604  31.160  1.00  0.00     0.020 A 
ATOM     87  C   UNL A   1      50.115  25.963  32.395  1.00  0.00     0.054 A 
BRANCH  87  88
ATOM     88  S   UNL A   1      51.734  25.366  32.955  1.00  0.00     0.124 S 
ATOM     89  O   UNL A   1      51.362  24.251  33.821  1.00  0.00    -0.237 OA
ATOM     90  O   UNL A   1      52.394  24.998  31.705  1.00  0.00    -0.237 OA
ATOM     91  O   UNL A   1      52.310  26.522  33.638  1.00  0.00    -0.744 OA
ENDBRANCH  87  88
ENDBRANCH  61  82
ENDBRANCH  35  36
ENDBRANCH  27  30
ENDBRANCH  25  26
ENDBRANCH  24  25
ENDBRANCH   1  24
TORSDOF 18
ENDMDL
MODEL 2
REMARK VINA RESULT:     -10.1      2.709      3.678
REMARK SMILES CC[N@@H+](C)CCNC(=O)N1CCC(CC(=O)NCCCNC(=O)c2ccc(-c3c4nc(c(-c5ccc(S(=O)(=O)[O-])cc5)c5ccc([nH]5)c(-c5ccc(S(=O)(=O)[O-])cc5)c5nc(c(-c6ccc(S(=O)(=O)[O-])cc6)c6ccc3[nH]6)C=C5)C=C4)cc2)CC1
REMARK SMILES IDX 18 1 17 2 15 3 16 4 14 6 13 7 7 8 8 9 9 11 10 12 11 13 85 14
REMARK SMILES IDX 12 15 84 16 6 17 5 18 3 19 4 20 2 22 1 23 19 24 20 25 21 26
REMARK SMILES IDX 22 27 23 29 24 30 25 31 83 32 26 33 82 34 27 35 28 36 29 37
REMARK SMILES IDX 76 38 30 39 81 40 75 41 77 42 31 43 80 44 74 45 73 46 32 48
REMARK SMILES IDX 62 49 43 50 61 51 44 52 47 53 60 54 78 55 45 56 46 57 59 59
REMARK SMILES IDX 79 60 48 61 33 62 34 63 42 64 35 65 41 66 36 67 37 68 38 69
REMARK SMILES IDX 39 70 40 71 63 72 64 73 72 74 65 75 71 76 66 77 67 78 68 79
REMARK SMILES IDX 69 80 70 81 49 82 50 83 58 84 51 85 57 86 52 87 53 88 54 89
REMARK SMILES IDX 55 90 56 91
REMARK H PARENT 17 5 7 10 3 21 21 28 77 47 47 58
REMARK Flexibility Score: inf
ROOT
ATOM      1  C   UNL A   1      31.390  29.540  25.457  1.00  0.00     0.117 C 
ENDROOT
BRANCH   1   2
ATOM      2  N   UNL A   1      32.153  29.386  24.225  1.00  0.00    -0.356 N 
ATOM      3  C   UNL A   1      32.347  28.306  23.415  1.00  0.00     0.220 C 
ATOM      4  O   UNL A   1      33.023  28.455  22.394  1.00  0.00    -0.275 OA
ATOM      5  H   UNL A   1      32.610  30.205  23.924  1.00  0.00     0.163 HD
BRANCH   3   6
ATOM      6  C   UNL A   1      31.773  26.946  23.767  1.00  0.00     0.103 C 
BRANCH   6   7
ATOM      7  C   UNL A   1      32.668  26.160  24.743  1.00  0.00     0.002 C 
ATOM      8  N   UNL A   1      34.818  21.644  24.639  1.00  0.00    -0.332 N 
ATOM      9  C   UNL A   1      33.689  22.378  24.823  1.00  0.00     0.317 C 
ATOM     10  H   UNL A   1      34.837  21.040  23.861  1.00  0.00     0.165 HD
ATOM     11  O   UNL A   1      32.606  21.931  24.453  1.00  0.00    -0.249 OA
ATOM     12  N   UNL A   1      33.831  23.593  25.449  1.00  0.00    -0.325 N 
ATOM     13  C   UNL A   1      32.736  24.099  26.248  1.00  0.00     0.121 C 
ATOM     14  C   UNL A   1      34.700  24.620  24.886  1.00  0.00     0.121 C 
ATOM     15  C   UNL A   1      31.873  25.046  25.435  1.00  0.00     0.026 C 
ATOM     16  C   UNL A   1      33.887  25.574  24.002  1.00  0.00     0.026 C 
BRANCH   8  17
ATOM     17  C   UNL A   1      35.998  21.670  25.485  1.00  0.00     0.179 C 
BRANCH  17  18
ATOM     18  C   UNL A   1      37.304  21.926  24.701  1.00  0.00     0.283 C 
BRANCH  18  19
ATOM     19  N   UNL A   1      38.414  22.614  25.379  1.00  0.00    -0.336 N 
ATOM     20  C   UNL A   1      39.262  21.711  26.148  1.00  0.00     0.332 C 
ATOM     21  H   UNL A   1      38.951  22.973  24.588  1.00  0.00     0.347 HD
BRANCH  19  22
ATOM     22  C   UNL A   1      38.075  23.813  26.151  1.00  0.00     0.258 C 
ATOM     23  C   UNL A   1      39.107  24.206  27.201  1.00  0.00     0.071 C 
ENDBRANCH  19  22
ENDBRANCH  18  19
ENDBRANCH  17  18
ENDBRANCH   8  17
ENDBRANCH   6   7
ENDBRANCH   3   6
ENDBRANCH   1   2
BRANCH   1  24
ATOM     24  C   UNL A   1      32.087  28.952  26.685  1.00  0.00     0.042 C 
BRANCH  24  25
ATOM     25  C   UNL A   1      33.489  29.489  26.947  1.00  0.00     0.118 C 
BRANCH  25  26
ATOM     26  N   UNL A   1      33.488  30.930  27.112  1.00  0.00    -0.352 N 
ATOM     27  C   UNL A   1      34.318  31.728  27.862  1.00  0.00     0.251 C 
ATOM     28  H   UNL A   1      32.786  31.408  26.613  1.00  0.00     0.163 HD
ATOM     29  O   UNL A   1      33.980  32.891  28.074  1.00  0.00    -0.269 OA
BRANCH  27  30
ATOM     30  C   UNL A   1      35.604  31.224  28.413  1.00  0.00     0.039 A 
ATOM     31  C   UNL A   1      35.606  29.990  29.075  1.00  0.00     0.014 A 
ATOM     32  C   UNL A   1      36.778  31.982  28.379  1.00  0.00     0.014 A 
ATOM     33  C   UNL A   1      36.775  29.518  29.684  1.00  0.00     0.010 A 
ATOM     34  C   UNL A   1      37.961  31.479  28.927  1.00  0.00     0.010 A 
ATOM     35  C   UNL A   1      37.966  30.255  29.613  1.00  0.00    -0.014 A 
BRANCH  35  36
ATOM     36  C   UNL A   1      39.198  29.790  30.308  1.00  0.00     0.031 A 
ATOM     37  C   UNL A   1      39.627  30.433  31.603  1.00  0.00     0.074 A 
ATOM     38  C   UNL A   1      39.949  28.806  29.774  1.00  0.00     0.049 A 
ATOM     39  N   UNL A   1      40.677  30.179  32.346  1.00  0.00    -0.248 NA
ATOM     40  C   UNL A   1      38.780  31.520  32.120  1.00  0.00     0.031 C 
ATOM     41  C   UNL A   1      39.674  28.119  28.510  1.00  0.00     0.029 A 
ATOM     42  N   UNL A   1      41.100  28.210  30.231  1.00  0.00    -0.354 N 
ATOM     43  C   UNL A   1      40.629  31.088  33.397  1.00  0.00     0.074 A 
ATOM     44  C   UNL A   1      39.469  31.926  33.177  1.00  0.00     0.031 C 
ATOM     45  C   UNL A   1      40.614  27.181  28.306  1.00  0.00     0.029 A 
ATOM     46  C   UNL A   1      41.571  27.214  29.409  1.00  0.00     0.049 A 
ATOM     47  H   UNL A   1      41.545  28.473  31.069  1.00  0.00     0.167 HD
ATOM     48  C   UNL A   1      41.460  31.209  34.461  1.00  0.00     0.031 A 
ATOM     49  C   UNL A   1      42.645  26.410  29.531  1.00  0.00     0.031 A 
ATOM     50  C   UNL A   1      42.595  30.359  34.705  1.00  0.00     0.049 A 
ATOM     51  C   UNL A   1      43.527  26.529  30.744  1.00  0.00     0.074 A 
ATOM     52  C   UNL A   1      43.465  30.372  35.782  1.00  0.00     0.029 A 
ATOM     53  N   UNL A   1      43.009  29.336  33.867  1.00  0.00    -0.354 N 
ATOM     54  N   UNL A   1      43.435  27.365  31.751  1.00  0.00    -0.248 NA
ATOM     55  C   UNL A   1      44.646  25.582  30.847  1.00  0.00     0.031 C 
ATOM     56  C   UNL A   1      44.423  29.371  35.582  1.00  0.00     0.029 A 
ATOM     57  C   UNL A   1      44.124  28.712  34.400  1.00  0.00     0.049 A 
ATOM     58  H   UNL A   1      42.575  29.089  33.019  1.00  0.00     0.167 HD
ATOM     59  C   UNL A   1      44.467  27.025  32.619  1.00  0.00     0.074 A 
ATOM     60  C   UNL A   1      45.164  25.903  32.025  1.00  0.00     0.031 C 
ATOM     61  C   UNL A   1      44.804  27.592  33.804  1.00  0.00     0.031 A 
BRANCH  48  62
ATOM     62  C   UNL A   1      41.168  32.310  35.446  1.00  0.00    -0.014 A 
ATOM     63  C   UNL A   1      40.350  32.080  36.568  1.00  0.00     0.010 A 
ATOM     64  C   UNL A   1      41.742  33.581  35.265  1.00  0.00     0.010 A 
ATOM     65  C   UNL A   1      40.074  33.115  37.466  1.00  0.00     0.020 A 
ATOM     66  C   UNL A   1      41.488  34.612  36.175  1.00  0.00     0.020 A 
ATOM     67  C   UNL A   1      40.639  34.377  37.258  1.00  0.00     0.054 A 
BRANCH  67  68
ATOM     68  S   UNL A   1      40.275  35.702  38.444  1.00  0.00     0.124 S 
ATOM     69  O   UNL A   1      40.000  36.830  37.557  1.00  0.00    -0.237 OA
ATOM     70  O   UNL A   1      39.120  35.180  39.171  1.00  0.00    -0.237 OA
ATOM     71  O   UNL A   1      41.503  35.810  39.228  1.00  0.00    -0.744 OA
ENDBRANCH  67  68
ENDBRANCH  48  62
BRANCH  49  72
ATOM     72  C   UNL A   1      42.928  25.390  28.487  1.00  0.00    -0.014 A 
ATOM     73  C   UNL A   1      42.506  24.060  28.660  1.00  0.00     0.010 A 
ATOM     74  C   UNL A   1      43.606  25.746  27.307  1.00  0.00     0.010 A 
ATOM     75  C   UNL A   1      42.774  23.100  27.681  1.00  0.00     0.020 A 
ATOM     76  C   UNL A   1      43.855  24.793  26.315  1.00  0.00     0.020 A 
ATOM     77  C   UNL A   1      43.446  23.472  26.514  1.00  0.00     0.054 A 
BRANCH  77  78
ATOM     78  S   UNL A   1      43.734  22.223  25.229  1.00  0.00     0.124 S 
ATOM     79  O   UNL A   1      45.137  21.883  25.446  1.00  0.00    -0.237 OA
ATOM     80  O   UNL A   1      42.769  21.181  25.574  1.00  0.00    -0.237 OA
ATOM     81  O   UNL A   1      43.446  22.940  23.989  1.00  0.00    -0.744 OA
ENDBRANCH  77  78
ENDBRANCH  49  72
BRANCH  61  82
ATOM     82  C   UNL A   1      45.953  26.982  34.558  1.00  0.00    -0.014 A 
ATOM     83  C   UNL A   1      45.756  25.906  35.441  1.00  0.00     0.010 A 
ATOM     84  C   UNL A   1      47.257  27.467  34.345  1.00  0.00     0.010 A 
ATOM     85  C   UNL A   1      46.840  25.349  36.127  1.00  0.00     0.020 A 
ATOM     86  C   UNL A   1      48.344  26.899  35.013  1.00  0.00     0.020 A 
ATOM     87  C   UNL A   1      48.126  25.853  35.913  1.00  0.00     0.054 A 
BRANCH  87  88
ATOM     88  S   UNL A   1      49.524  25.097  36.787  1.00  0.00     0.124 S 
ATOM     89  O   UNL A   1      49.971  26.190  37.646  1.00  0.00    -0.237 OA
ATOM     90  O   UNL A   1      48.903  23.969  37.477  1.00  0.00    -0.237 OA
ATOM     91  O   UNL A   1      50.444  24.730  35.714  1.00  0.00    -0.744 OA
ENDBRANCH  87  88
ENDBRANCH  61  82
ENDBRANCH  35  36
ENDBRANCH  27  30
ENDBRANCH  25  26
ENDBRANCH  24  25
ENDBRANCH   1  24
TORSDOF 18
ENDMDL
MODEL 3
REMARK VINA RESULT:     -10.1      3.632      4.302
REMARK SMILES CC[N@@H+](C)CCNC(=O)N1CCC(CC(=O)NCCCNC(=O)c2ccc(-c3c4nc(c(-c5ccc(S(=O)(=O)[O-])cc5)c5ccc([nH]5)c(-c5ccc(S(=O)(=O)[O-])cc5)c5nc(c(-c6ccc(S(=O)(=O)[O-])cc6)c6ccc3[nH]6)C=C5)C=C4)cc2)CC1
REMARK SMILES IDX 18 1 17 2 15 3 16 4 14 6 13 7 7 8 8 9 9 11 10 12 11 13 85 14
REMARK SMILES IDX 12 15 84 16 6 17 5 18 3 19 4 20 2 22 1 23 19 24 20 25 21 26
REMARK SMILES IDX 22 27 23 29 24 30 25 31 83 32 26 33 82 34 27 35 28 36 29 37
REMARK SMILES IDX 76 38 30 39 81 40 75 41 77 42 31 43 80 44 74 45 73 46 32 48
REMARK SMILES IDX 62 49 43 50 61 51 44 52 47 53 60 54 78 55 45 56 46 57 59 59
REMARK SMILES IDX 79 60 48 61 33 62 34 63 42 64 35 65 41 66 36 67 37 68 38 69
REMARK SMILES IDX 39 70 40 71 63 72 64 73 72 74 65 75 71 76 66 77 67 78 68 79
REMARK SMILES IDX 69 80 70 81 49 82 50 83 58 84 51 85 57 86 52 87 53 88 54 89
REMARK SMILES IDX 55 90 56 91
REMARK H PARENT 17 5 7 10 3 21 21 28 77 47 47 58
REMARK Flexibility Score: inf
ROOT
ATOM      1  C   UNL A   1      33.573  29.666  26.325  1.00  0.00     0.117 C 
ENDROOT
BRANCH   1   2
ATOM      2  N   UNL A   1      33.648  29.456  24.885  1.00  0.00    -0.356 N 
ATOM      3  C   UNL A   1      32.694  29.114  23.973  1.00  0.00     0.220 C 
ATOM      4  O   UNL A   1      33.021  29.032  22.787  1.00  0.00    -0.275 OA
ATOM      5  H   UNL A   1      34.547  29.582  24.502  1.00  0.00     0.163 HD
BRANCH   3   6
ATOM      6  C   UNL A   1      31.269  28.812  24.402  1.00  0.00     0.103 C 
BRANCH   6   7
ATOM      7  C   UNL A   1      30.949  27.307  24.375  1.00  0.00     0.002 C 
ATOM      8  N   UNL A   1      33.702  23.165  23.826  1.00  0.00    -0.332 N 
ATOM      9  C   UNL A   1      33.105  24.237  23.241  1.00  0.00     0.317 C 
ATOM     10  H   UNL A   1      34.685  23.134  23.804  1.00  0.00     0.165 HD
ATOM     11  O   UNL A   1      33.646  24.789  22.287  1.00  0.00    -0.249 OA
ATOM     12  N   UNL A   1      31.891  24.630  23.752  1.00  0.00    -0.325 N 
ATOM     13  C   UNL A   1      30.927  25.247  22.867  1.00  0.00     0.121 C 
ATOM     14  C   UNL A   1      31.766  25.015  25.153  1.00  0.00     0.121 C 
ATOM     15  C   UNL A   1      31.021  26.760  22.944  1.00  0.00     0.026 C 
ATOM     16  C   UNL A   1      31.914  26.535  25.297  1.00  0.00     0.026 C 
BRANCH   8  17
ATOM     17  C   UNL A   1      33.019  22.062  24.480  1.00  0.00     0.179 C 
BRANCH  17  18
ATOM     18  C   UNL A   1      32.679  20.901  23.519  1.00  0.00     0.283 C 
BRANCH  18  19
ATOM     19  N   UNL A   1      32.380  19.577  24.085  1.00  0.00    -0.336 N 
ATOM     20  C   UNL A   1      33.132  19.295  25.303  1.00  0.00     0.332 C 
ATOM     21  H   UNL A   1      31.392  19.671  24.325  1.00  0.00     0.347 HD
BRANCH  19  22
ATOM     22  C   UNL A   1      32.417  18.439  23.163  1.00  0.00     0.258 C 
ATOM     23  C   UNL A   1      33.532  17.436  23.432  1.00  0.00     0.071 C 
ENDBRANCH  19  22
ENDBRANCH  18  19
ENDBRANCH  17  18
ENDBRANCH   8  17
ENDBRANCH   6   7
ENDBRANCH   3   6
ENDBRANCH   1   2
BRANCH   1  24
ATOM     24  C   UNL A   1      34.572  28.822  27.119  1.00  0.00     0.042 C 
BRANCH  24  25
ATOM     25  C   UNL A   1      35.796  29.580  27.621  1.00  0.00     0.118 C 
BRANCH  25  26
ATOM     26  N   UNL A   1      35.878  29.566  29.069  1.00  0.00    -0.352 N 
ATOM     27  C   UNL A   1      36.904  29.158  29.886  1.00  0.00     0.251 C 
ATOM     28  H   UNL A   1      35.077  29.897  29.536  1.00  0.00     0.163 HD
ATOM     29  O   UNL A   1      36.669  28.978  31.080  1.00  0.00    -0.269 OA
BRANCH  27  30
ATOM     30  C   UNL A   1      38.280  28.935  29.367  1.00  0.00     0.039 A 
ATOM     31  C   UNL A   1      39.237  28.389  30.231  1.00  0.00     0.014 A 
ATOM     32  C   UNL A   1      38.668  29.342  28.087  1.00  0.00     0.014 A 
ATOM     33  C   UNL A   1      40.565  28.242  29.811  1.00  0.00     0.010 A 
ATOM     34  C   UNL A   1      39.978  29.132  27.646  1.00  0.00     0.010 A 
ATOM     35  C   UNL A   1      40.949  28.607  28.513  1.00  0.00    -0.014 A 
BRANCH  35  36
ATOM     36  C   UNL A   1      42.370  28.511  28.077  1.00  0.00     0.031 A 
ATOM     37  C   UNL A   1      43.296  29.691  28.244  1.00  0.00     0.074 A 
ATOM     38  C   UNL A   1      42.832  27.378  27.513  1.00  0.00     0.049 A 
ATOM     39  N   UNL A   1      44.558  29.806  27.910  1.00  0.00    -0.248 NA
ATOM     40  C   UNL A   1      42.724  30.908  28.841  1.00  0.00     0.031 C 
ATOM     41  C   UNL A   1      42.040  26.172  27.257  1.00  0.00     0.029 A 
ATOM     42  N   UNL A   1      44.085  27.054  27.053  1.00  0.00    -0.354 N 
ATOM     43  C   UNL A   1      44.920  31.109  28.231  1.00  0.00     0.074 A 
ATOM     44  C   UNL A   1      43.736  31.759  28.750  1.00  0.00     0.031 C 
ATOM     45  C   UNL A   1      42.831  25.235  26.710  1.00  0.00     0.029 A 
ATOM     46  C   UNL A   1      44.178  25.776  26.554  1.00  0.00     0.049 A 
ATOM     47  H   UNL A   1      44.846  27.679  27.078  1.00  0.00     0.167 HD
ATOM     48  C   UNL A   1      46.129  31.711  28.123  1.00  0.00     0.031 A 
ATOM     49  C   UNL A   1      45.229  25.110  26.037  1.00  0.00     0.031 A 
ATOM     50  C   UNL A   1      47.319  31.062  27.641  1.00  0.00     0.049 A 
ATOM     51  C   UNL A   1      46.573  25.781  25.971  1.00  0.00     0.074 A 
ATOM     52  C   UNL A   1      48.601  31.575  27.543  1.00  0.00     0.029 A 
ATOM     53  N   UNL A   1      47.375  29.754  27.186  1.00  0.00    -0.354 N 
ATOM     54  N   UNL A   1      46.904  27.000  26.326  1.00  0.00    -0.248 NA
ATOM     55  C   UNL A   1      47.692  24.979  25.455  1.00  0.00     0.031 C 
ATOM     56  C   UNL A   1      49.430  30.584  27.004  1.00  0.00     0.029 A 
ATOM     57  C   UNL A   1      48.669  29.443  26.803  1.00  0.00     0.049 A 
ATOM     58  H   UNL A   1      46.609  29.138  27.141  1.00  0.00     0.167 HD
ATOM     59  C   UNL A   1      48.272  27.101  26.101  1.00  0.00     0.074 A 
ATOM     60  C   UNL A   1      48.710  25.818  25.590  1.00  0.00     0.031 C 
ATOM     61  C   UNL A   1      49.093  28.161  26.303  1.00  0.00     0.031 A 
BRANCH  48  62
ATOM     62  C   UNL A   1      46.223  33.156  28.539  1.00  0.00    -0.014 A 
ATOM     63  C   UNL A   1      45.980  34.192  27.619  1.00  0.00     0.010 A 
ATOM     64  C   UNL A   1      46.530  33.481  29.872  1.00  0.00     0.010 A 
ATOM     65  C   UNL A   1      46.086  35.528  28.014  1.00  0.00     0.020 A 
ATOM     66  C   UNL A   1      46.614  34.816  30.277  1.00  0.00     0.020 A 
ATOM     67  C   UNL A   1      46.412  35.832  29.340  1.00  0.00     0.054 A 
BRANCH  67  68
ATOM     68  S   UNL A   1      46.533  37.573  29.832  1.00  0.00     0.124 S 
ATOM     69  O   UNL A   1      47.379  37.490  31.021  1.00  0.00    -0.237 OA
ATOM     70  O   UNL A   1      47.151  38.199  28.666  1.00  0.00    -0.237 OA
ATOM     71  O   UNL A   1      45.146  37.960  30.080  1.00  0.00    -0.744 OA
ENDBRANCH  67  68
ENDBRANCH  48  62
BRANCH  49  72
ATOM     72  C   UNL A   1      45.059  23.708  25.572  1.00  0.00    -0.014 A 
ATOM     73  C   UNL A   1      44.688  23.440  24.242  1.00  0.00     0.010 A 
ATOM     74  C   UNL A   1      45.281  22.633  26.452  1.00  0.00     0.010 A 
ATOM     75  C   UNL A   1      44.525  22.123  23.805  1.00  0.00     0.020 A 
ATOM     76  C   UNL A   1      45.142  21.314  26.011  1.00  0.00     0.020 A 
ATOM     77  C   UNL A   1      44.753  21.068  24.692  1.00  0.00     0.054 A 
BRANCH  77  78
ATOM     78  S   UNL A   1      44.591  19.363  24.090  1.00  0.00     0.124 S 
ATOM     79  O   UNL A   1      43.365  18.924  24.748  1.00  0.00    -0.237 OA
ATOM     80  O   UNL A   1      44.504  19.543  22.642  1.00  0.00    -0.237 OA
ATOM     81  O   UNL A   1      45.818  18.721  24.556  1.00  0.00    -0.744 OA
ENDBRANCH  77  78
ENDBRANCH  49  72
BRANCH  61  82
ATOM     82  C   UNL A   1      50.555  27.968  26.010  1.00  0.00    -0.014 A 
ATOM     83  C   UNL A   1      51.456  27.583  27.019  1.00  0.00     0.010 A 
ATOM     84  C   UNL A   1      51.026  28.134  24.694  1.00  0.00     0.010 A 
ATOM     85  C   UNL A   1      52.810  27.402  26.723  1.00  0.00     0.020 A 
ATOM     86  C   UNL A   1      52.374  27.933  24.391  1.00  0.00     0.020 A 
ATOM     87  C   UNL A   1      53.262  27.584  25.412  1.00  0.00     0.054 A 
BRANCH  87  88
ATOM     88  S   UNL A   1      55.017  27.313  25.040  1.00  0.00     0.124 S 
ATOM     89  O   UNL A   1      55.660  27.769  26.269  1.00  0.00    -0.237 OA
ATOM     90  O   UNL A   1      55.078  25.874  24.795  1.00  0.00    -0.237 OA
ATOM     91  O   UNL A   1      55.253  28.148  23.865  1.00  0.00    -0.744 OA
ENDBRANCH  87  88
ENDBRANCH  61  82
ENDBRANCH  35  36
ENDBRANCH  27  30
ENDBRANCH  25  26
ENDBRANCH  24  25
ENDBRANCH   1  24
TORSDOF 18
ENDMDL
