MODEL 1
REMARK VINA RESULT:     -12.1      0.000      0.000
REMARK SMILES O=C(NCCCNC(=O)c1ccc(-c2c3nc(c(-c4ccc(S(=O)(=O)[O-])cc4)c4ccc([nH]4)c(-c4ccc(S(=O)(=O)[O-])cc4)c4nc(c(-c5ccc(S(=O)(=O)[O-])cc5)c5ccc2[nH]5)C=C4)C=C3)cc1)C1=Cc2cc(Cl)c(Cl)cc2O[C@@H]1C(F)(F)F
REMARK SMILES IDX 6 1 5 2 4 3 3 4 1 5 2 6 70 8 71 9 81 10 72 11 80 12 73 13
REMARK SMILES IDX 79 14 74 15 78 16 75 17 76 18 77 19 82 20 83 21 84 22 85 23
REMARK SMILES IDX 7 24 8 25 9 27 10 28 11 29 69 30 12 31 68 32 13 33 14 34
REMARK SMILES IDX 15 35 62 36 16 37 67 38 61 39 63 40 17 41 66 42 60 43 59 44
REMARK SMILES IDX 18 46 48 47 29 48 47 49 30 50 33 51 46 52 64 53 31 54 32 55
REMARK SMILES IDX 45 57 65 58 34 59 19 60 20 61 28 62 21 63 27 64 22 65 23 66
REMARK SMILES IDX 24 67 25 68 26 69 49 70 50 71 58 72 51 73 57 74 52 75 53 76
REMARK SMILES IDX 54 77 55 78 56 79 35 80 36 81 44 82 37 83 43 84 38 85 39 86
REMARK SMILES IDX 40 87 41 88 42 89
REMARK H PARENT 3 7 7 26 63 45 33 56
REMARK Flexibility Score: inf
ROOT
ATOM      1  C   UNL A   1      33.246  28.602  27.269  1.00  0.00     0.118 C 
ENDROOT
BRANCH   1   2
ATOM      2  C   UNL A   1      31.864  27.976  27.404  1.00  0.00     0.042 C 
BRANCH   2   3
ATOM      3  C   UNL A   1      31.621  26.896  26.357  1.00  0.00     0.118 C 
BRANCH   3   4
ATOM      4  N   UNL A   1      31.411  25.567  26.939  1.00  0.00    -0.352 N 
ATOM      5  O   UNL A   1      31.934  23.406  27.406  1.00  0.00    -0.270 OA
ATOM      6  C   UNL A   1      32.059  24.383  26.682  1.00  0.00     0.251 C 
ATOM      7  H   UNL A   1      30.697  25.516  27.616  1.00  0.00     0.163 HD
BRANCH   6   8
ATOM      8  C   UNL A   1      32.973  24.369  25.527  1.00  0.00     0.067 C 
ATOM      9  C   UNL A   1      34.247  24.701  25.774  1.00  0.00     0.025 C 
ATOM     10  C   UNL A   1      32.533  23.604  24.319  1.00  0.00     0.314 C 
ATOM     11  C   UNL A   1      35.221  23.801  25.150  1.00  0.00     0.019 A 
ATOM     12  O   UNL A   1      33.475  22.564  23.950  1.00  0.00    -0.475 OA
ATOM     13  C   UNL A   1      36.519  23.795  25.670  1.00  0.00     0.034 A 
ATOM     14  C   UNL A   1      34.764  22.702  24.400  1.00  0.00     0.129 A 
ATOM     15  C   UNL A   1      37.308  22.648  25.557  1.00  0.00     0.060 A 
ATOM     16  C   UNL A   1      35.569  21.574  24.253  1.00  0.00     0.069 A 
ATOM     17  Cl  UNL A   1      38.815  22.634  26.400  1.00  0.00    -0.083 Cl
ATOM     18  C   UNL A   1      36.822  21.528  24.870  1.00  0.00     0.063 A 
ATOM     19  Cl  UNL A   1      37.675  20.027  24.829  1.00  0.00    -0.083 Cl
BRANCH  10  20
ATOM     20  C   UNL A   1      32.249  24.528  23.126  1.00  0.00     0.429 C 
ATOM     21  F   UNL A   1      30.914  24.648  22.916  1.00  0.00    -0.167 F 
ATOM     22  F   UNL A   1      32.723  25.779  23.323  1.00  0.00    -0.167 F 
ATOM     23  F   UNL A   1      32.792  24.066  21.975  1.00  0.00    -0.167 F 
ENDBRANCH  10  20
ENDBRANCH   6   8
ENDBRANCH   3   4
ENDBRANCH   2   3
ENDBRANCH   1   2
BRANCH   1  24
ATOM     24  N   UNL A   1      33.291  30.016  27.630  1.00  0.00    -0.352 N 
ATOM     25  C   UNL A   1      34.342  30.768  28.121  1.00  0.00     0.251 C 
ATOM     26  H   UNL A   1      32.448  30.508  27.505  1.00  0.00     0.163 HD
ATOM     27  O   UNL A   1      34.166  31.933  28.435  1.00  0.00    -0.269 OA
BRANCH  25  28
ATOM     28  C   UNL A   1      35.671  30.137  28.297  1.00  0.00     0.039 A 
ATOM     29  C   UNL A   1      36.575  30.119  27.230  1.00  0.00     0.014 A 
ATOM     30  C   UNL A   1      36.041  29.612  29.534  1.00  0.00     0.014 A 
ATOM     31  C   UNL A   1      37.885  29.673  27.439  1.00  0.00     0.010 A 
ATOM     32  C   UNL A   1      37.370  29.288  29.769  1.00  0.00     0.010 A 
ATOM     33  C   UNL A   1      38.310  29.308  28.726  1.00  0.00    -0.014 A 
BRANCH  33  34
ATOM     34  C   UNL A   1      39.709  28.909  29.039  1.00  0.00     0.031 A 
ATOM     35  C   UNL A   1      40.650  29.940  29.608  1.00  0.00     0.074 A 
ATOM     36  C   UNL A   1      40.172  27.691  28.695  1.00  0.00     0.049 A 
ATOM     37  N   UNL A   1      41.953  29.910  29.707  1.00  0.00    -0.248 NA
ATOM     38  C   UNL A   1      40.042  31.201  30.067  1.00  0.00     0.031 C 
ATOM     39  C   UNL A   1      39.379  26.608  28.107  1.00  0.00     0.029 A 
ATOM     40  N   UNL A   1      41.439  27.166  28.771  1.00  0.00    -0.354 N 
ATOM     41  C   UNL A   1      42.322  31.167  30.173  1.00  0.00     0.074 A 
ATOM     42  C   UNL A   1      41.112  31.949  30.288  1.00  0.00     0.031 C 
ATOM     43  C   UNL A   1      40.171  25.541  27.904  1.00  0.00     0.029 A 
ATOM     44  C   UNL A   1      41.536  25.881  28.292  1.00  0.00     0.049 A 
ATOM     45  H   UNL A   1      42.206  27.664  29.137  1.00  0.00     0.167 HD
ATOM     46  C   UNL A   1      43.555  31.625  30.496  1.00  0.00     0.031 A 
ATOM     47  C   UNL A   1      42.606  25.072  28.165  1.00  0.00     0.031 A 
ATOM     48  C   UNL A   1      44.744  30.820  30.444  1.00  0.00     0.049 A 
ATOM     49  C   UNL A   1      43.960  25.579  28.581  1.00  0.00     0.074 A 
ATOM     50  C   UNL A   1      46.032  31.160  30.816  1.00  0.00     0.029 A 
ATOM     51  N   UNL A   1      44.782  29.502  30.015  1.00  0.00    -0.354 N 
ATOM     52  N   UNL A   1      44.291  26.766  29.035  1.00  0.00    -0.248 NA
ATOM     53  C   UNL A   1      45.086  24.639  28.474  1.00  0.00     0.031 C 
ATOM     54  C   UNL A   1      46.856  30.051  30.588  1.00  0.00     0.029 A 
ATOM     55  C   UNL A   1      46.071  29.010  30.117  1.00  0.00     0.049 A 
ATOM     56  H   UNL A   1      44.007  28.991  29.687  1.00  0.00     0.167 HD
ATOM     57  C   UNL A   1      45.654  26.702  29.301  1.00  0.00     0.074 A 
ATOM     58  C   UNL A   1      46.086  25.363  28.959  1.00  0.00     0.031 C 
ATOM     59  C   UNL A   1      46.473  27.665  29.790  1.00  0.00     0.031 A 
BRANCH  46  60
ATOM     60  C   UNL A   1      43.665  33.062  30.936  1.00  0.00    -0.014 A 
ATOM     61  C   UNL A   1      43.877  34.095  30.005  1.00  0.00     0.010 A 
ATOM     62  C   UNL A   1      43.564  33.384  32.302  1.00  0.00     0.010 A 
ATOM     63  C   UNL A   1      44.057  35.411  30.436  1.00  0.00     0.020 A 
ATOM     64  C   UNL A   1      43.709  34.706  32.734  1.00  0.00     0.020 A 
ATOM     65  C   UNL A   1      43.983  35.707  31.800  1.00  0.00     0.054 A 
BRANCH  65  66
ATOM     66  S   UNL A   1      44.233  37.422  32.335  1.00  0.00     0.124 S 
ATOM     67  O   UNL A   1      43.314  37.519  33.466  1.00  0.00    -0.237 OA
ATOM     68  O   UNL A   1      45.653  37.449  32.676  1.00  0.00    -0.237 OA
ATOM     69  O   UNL A   1      43.863  38.207  31.160  1.00  0.00    -0.744 OA
ENDBRANCH  65  66
ENDBRANCH  46  60
BRANCH  47  70
ATOM     70  C   UNL A   1      42.433  23.684  27.655  1.00  0.00    -0.014 A 
ATOM     71  C   UNL A   1      42.640  23.404  26.293  1.00  0.00     0.010 A 
ATOM     72  C   UNL A   1      42.093  22.632  28.525  1.00  0.00     0.010 A 
ATOM     73  C   UNL A   1      42.499  22.101  25.806  1.00  0.00     0.020 A 
ATOM     74  C   UNL A   1      41.974  21.323  28.045  1.00  0.00     0.020 A 
ATOM     75  C   UNL A   1      42.170  21.068  26.686  1.00  0.00     0.054 A 
BRANCH  75  76
ATOM     76  S   UNL A   1      42.056  19.374  26.042  1.00  0.00     0.124 S 
ATOM     77  O   UNL A   1      42.557  18.588  27.166  1.00  0.00    -0.237 OA
ATOM     78  O   UNL A   1      40.630  19.239  25.759  1.00  0.00    -0.237 OA
ATOM     79  O   UNL A   1      42.917  19.400  24.862  1.00  0.00    -0.744 OA
ENDBRANCH  75  76
ENDBRANCH  47  70
BRANCH  59  80
ATOM     80  C   UNL A   1      47.908  27.297  30.043  1.00  0.00    -0.014 A 
ATOM     81  C   UNL A   1      48.897  27.495  29.064  1.00  0.00     0.010 A 
ATOM     82  C   UNL A   1      48.282  26.826  31.315  1.00  0.00     0.010 A 
ATOM     83  C   UNL A   1      50.235  27.214  29.349  1.00  0.00     0.020 A 
ATOM     84  C   UNL A   1      49.620  26.565  31.611  1.00  0.00     0.020 A 
ATOM     85  C   UNL A   1      50.589  26.753  30.622  1.00  0.00     0.054 A 
BRANCH  85  86
ATOM     86  S   UNL A   1      52.341  26.464  30.992  1.00  0.00     0.124 S 
ATOM     87  O   UNL A   1      52.701  27.678  31.719  1.00  0.00    -0.237 OA
ATOM     88  O   UNL A   1      52.304  25.241  31.789  1.00  0.00    -0.237 OA
ATOM     89  O   UNL A   1      52.954  26.322  29.673  1.00  0.00    -0.744 OA
ENDBRANCH  85  86
ENDBRANCH  59  80
ENDBRANCH  33  34
ENDBRANCH  25  28
ENDBRANCH   1  24
TORSDOF 14
ENDMDL
MODEL 2
REMARK VINA RESULT:     -11.8      4.937     10.364
REMARK SMILES O=C(NCCCNC(=O)c1ccc(-c2c3nc(c(-c4ccc(S(=O)(=O)[O-])cc4)c4ccc([nH]4)c(-c4ccc(S(=O)(=O)[O-])cc4)c4nc(c(-c5ccc(S(=O)(=O)[O-])cc5)c5ccc2[nH]5)C=C4)C=C3)cc1)C1=Cc2cc(Cl)c(Cl)cc2O[C@@H]1C(F)(F)F
REMARK SMILES IDX 6 1 5 2 4 3 3 4 1 5 2 6 70 8 71 9 81 10 72 11 80 12 73 13
REMARK SMILES IDX 79 14 74 15 78 16 75 17 76 18 77 19 82 20 83 21 84 22 85 23
REMARK SMILES IDX 7 24 8 25 9 27 10 28 11 29 69 30 12 31 68 32 13 33 14 34
REMARK SMILES IDX 15 35 62 36 16 37 67 38 61 39 63 40 17 41 66 42 60 43 59 44
REMARK SMILES IDX 18 46 48 47 29 48 47 49 30 50 33 51 46 52 64 53 31 54 32 55
REMARK SMILES IDX 45 57 65 58 34 59 19 60 20 61 28 62 21 63 27 64 22 65 23 66
REMARK SMILES IDX 24 67 25 68 26 69 49 70 50 71 58 72 51 73 57 74 52 75 53 76
REMARK SMILES IDX 54 77 55 78 56 79 35 80 36 81 44 82 37 83 43 84 38 85 39 86
REMARK SMILES IDX 40 87 41 88 42 89
REMARK H PARENT 3 7 7 26 63 45 33 56
REMARK Flexibility Score: inf
ROOT
ATOM      1  C   UNL A   1      37.944  24.197  26.144  1.00  0.00     0.118 C 
ENDROOT
BRANCH   1   2
ATOM      2  C   UNL A   1      37.091  23.498  25.094  1.00  0.00     0.042 C 
BRANCH   2   3
ATOM      3  C   UNL A   1      35.617  23.860  25.221  1.00  0.00     0.118 C 
BRANCH   3   4
ATOM      4  N   UNL A   1      34.990  23.306  26.425  1.00  0.00    -0.352 N 
ATOM      5  O   UNL A   1      34.048  21.686  27.710  1.00  0.00    -0.270 OA
ATOM      6  C   UNL A   1      34.317  22.121  26.600  1.00  0.00     0.251 C 
ATOM      7  H   UNL A   1      35.061  23.869  27.230  1.00  0.00     0.163 HD
BRANCH   6   8
ATOM      8  C   UNL A   1      33.998  21.358  25.380  1.00  0.00     0.067 C 
ATOM      9  C   UNL A   1      34.882  20.419  25.018  1.00  0.00     0.025 C 
ATOM     10  C   UNL A   1      32.577  21.387  24.911  1.00  0.00     0.314 C 
ATOM     11  C   UNL A   1      34.264  19.143  24.646  1.00  0.00     0.019 A 
ATOM     12  O   UNL A   1      31.996  20.061  24.825  1.00  0.00    -0.475 OA
ATOM     13  C   UNL A   1      35.077  18.005  24.664  1.00  0.00     0.034 A 
ATOM     14  C   UNL A   1      32.867  19.005  24.718  1.00  0.00     0.129 A 
ATOM     15  C   UNL A   1      34.507  16.748  24.887  1.00  0.00     0.060 A 
ATOM     16  C   UNL A   1      32.298  17.745  24.899  1.00  0.00     0.069 A 
ATOM     17  Cl  UNL A   1      35.584  15.416  25.105  1.00  0.00    -0.083 Cl
ATOM     18  C   UNL A   1      33.119  16.623  25.030  1.00  0.00     0.063 A 
ATOM     19  Cl  UNL A   1      32.366  15.131  25.465  1.00  0.00    -0.083 Cl
BRANCH  10  20
ATOM     20  C   UNL A   1      32.427  22.133  23.577  1.00  0.00     0.429 C 
ATOM     21  F   UNL A   1      32.137  21.270  22.571  1.00  0.00    -0.167 F 
ATOM     22  F   UNL A   1      31.425  23.041  23.609  1.00  0.00    -0.167 F 
ATOM     23  F   UNL A   1      33.557  22.790  23.224  1.00  0.00    -0.167 F 
ENDBRANCH  10  20
ENDBRANCH   6   8
ENDBRANCH   3   4
ENDBRANCH   2   3
ENDBRANCH   1   2
BRANCH   1  24
ATOM     24  N   UNL A   1      39.364  23.869  26.064  1.00  0.00    -0.352 N 
ATOM     25  C   UNL A   1      40.448  24.489  26.659  1.00  0.00     0.251 C 
ATOM     26  H   UNL A   1      39.585  23.091  25.503  1.00  0.00     0.163 HD
ATOM     27  O   UNL A   1      41.580  24.109  26.413  1.00  0.00    -0.269 OA
BRANCH  25  28
ATOM     28  C   UNL A   1      40.223  25.640  27.565  1.00  0.00     0.039 A 
ATOM     29  C   UNL A   1      39.396  25.487  28.683  1.00  0.00     0.014 A 
ATOM     30  C   UNL A   1      40.874  26.851  27.339  1.00  0.00     0.014 A 
ATOM     31  C   UNL A   1      39.311  26.517  29.627  1.00  0.00     0.010 A 
ATOM     32  C   UNL A   1      40.886  27.817  28.334  1.00  0.00     0.010 A 
ATOM     33  C   UNL A   1      40.102  27.668  29.490  1.00  0.00    -0.014 A 
BRANCH  33  34
ATOM     34  C   UNL A   1      40.130  28.762  30.498  1.00  0.00     0.031 A 
ATOM     35  C   UNL A   1      41.086  28.658  31.659  1.00  0.00     0.074 A 
ATOM     36  C   UNL A   1      39.225  29.761  30.458  1.00  0.00     0.049 A 
ATOM     37  N   UNL A   1      41.107  29.330  32.780  1.00  0.00    -0.248 NA
ATOM     38  C   UNL A   1      42.117  27.610  31.567  1.00  0.00     0.031 C 
ATOM     39  C   UNL A   1      38.221  29.965  29.410  1.00  0.00     0.029 A 
ATOM     40  N   UNL A   1      38.990  30.785  31.342  1.00  0.00    -0.354 N 
ATOM     41  C   UNL A   1      42.104  28.741  33.550  1.00  0.00     0.074 A 
ATOM     42  C   UNL A   1      42.628  27.630  32.788  1.00  0.00     0.031 C 
ATOM     43  C   UNL A   1      37.501  31.062  29.698  1.00  0.00     0.029 A 
ATOM     44  C   UNL A   1      37.950  31.606  30.975  1.00  0.00     0.049 A 
ATOM     45  H   UNL A   1      39.519  30.920  32.161  1.00  0.00     0.167 HD
ATOM     46  C   UNL A   1      42.559  29.104  34.773  1.00  0.00     0.031 A 
ATOM     47  C   UNL A   1      37.408  32.668  31.603  1.00  0.00     0.031 A 
ATOM     48  C   UNL A   1      42.080  30.251  35.494  1.00  0.00     0.049 A 
ATOM     49  C   UNL A   1      37.962  33.090  32.937  1.00  0.00     0.074 A 
ATOM     50  C   UNL A   1      42.518  30.752  36.706  1.00  0.00     0.029 A 
ATOM     51  N   UNL A   1      41.070  31.092  35.051  1.00  0.00    -0.354 N 
ATOM     52  N   UNL A   1      38.917  32.533  33.645  1.00  0.00    -0.248 NA
ATOM     53  C   UNL A   1      37.373  34.287  33.554  1.00  0.00     0.031 C 
ATOM     54  C   UNL A   1      41.754  31.885  37.009  1.00  0.00     0.029 A 
ATOM     55  C   UNL A   1      40.873  32.112  35.964  1.00  0.00     0.049 A 
ATOM     56  H   UNL A   1      40.568  30.979  34.212  1.00  0.00     0.167 HD
ATOM     57  C   UNL A   1      39.066  33.331  34.773  1.00  0.00     0.074 A 
ATOM     58  C   UNL A   1      38.106  34.410  34.653  1.00  0.00     0.031 C 
ATOM     59  C   UNL A   1      39.924  33.188  35.812  1.00  0.00     0.031 A 
BRANCH  46  60
ATOM     60  C   UNL A   1      43.630  28.246  35.395  1.00  0.00    -0.014 A 
ATOM     61  C   UNL A   1      43.304  27.199  36.276  1.00  0.00     0.010 A 
ATOM     62  C   UNL A   1      44.983  28.495  35.101  1.00  0.00     0.010 A 
ATOM     63  C   UNL A   1      44.311  26.464  36.907  1.00  0.00     0.020 A 
ATOM     64  C   UNL A   1      45.993  27.739  35.704  1.00  0.00     0.020 A 
ATOM     65  C   UNL A   1      45.650  26.747  36.625  1.00  0.00     0.054 A 
BRANCH  65  66
ATOM     66  S   UNL A   1      46.939  25.788  37.467  1.00  0.00     0.124 S 
ATOM     67  O   UNL A   1      48.096  26.672  37.347  1.00  0.00    -0.237 OA
ATOM     68  O   UNL A   1      46.401  25.640  38.817  1.00  0.00    -0.237 OA
ATOM     69  O   UNL A   1      47.014  24.553  36.690  1.00  0.00    -0.744 OA
ENDBRANCH  65  66
ENDBRANCH  46  60
BRANCH  47  70
ATOM     70  C   UNL A   1      36.302  33.428  30.960  1.00  0.00    -0.014 A 
ATOM     71  C   UNL A   1      35.159  33.772  31.703  1.00  0.00     0.010 A 
ATOM     72  C   UNL A   1      36.392  33.839  29.617  1.00  0.00     0.010 A 
ATOM     73  C   UNL A   1      34.121  34.503  31.115  1.00  0.00     0.020 A 
ATOM     74  C   UNL A   1      35.367  34.590  29.033  1.00  0.00     0.020 A 
ATOM     75  C   UNL A   1      34.234  34.910  29.784  1.00  0.00     0.054 A 
BRANCH  75  76
ATOM     76  S   UNL A   1      32.904  35.913  29.061  1.00  0.00     0.124 S 
ATOM     77  O   UNL A   1      32.105  36.248  30.236  1.00  0.00    -0.237 OA
ATOM     78  O   UNL A   1      33.638  37.021  28.456  1.00  0.00    -0.237 OA
ATOM     79  O   UNL A   1      32.270  35.002  28.110  1.00  0.00    -0.744 OA
ENDBRANCH  75  76
ENDBRANCH  47  70
BRANCH  59  80
ATOM     80  C   UNL A   1      39.913  34.248  36.877  1.00  0.00    -0.014 A 
ATOM     81  C   UNL A   1      40.604  35.460  36.709  1.00  0.00     0.010 A 
ATOM     82  C   UNL A   1      39.126  34.057  38.028  1.00  0.00     0.010 A 
ATOM     83  C   UNL A   1      40.518  36.459  37.682  1.00  0.00     0.020 A 
ATOM     84  C   UNL A   1      39.019  35.061  38.991  1.00  0.00     0.020 A 
ATOM     85  C   UNL A   1      39.723  36.254  38.815  1.00  0.00     0.054 A 
BRANCH  85  86
ATOM     86  S   UNL A   1      39.570  37.594  40.028  1.00  0.00     0.124 S 
ATOM     87  O   UNL A   1      38.516  38.416  39.440  1.00  0.00    -0.237 OA
ATOM     88  O   UNL A   1      39.203  36.882  41.250  1.00  0.00    -0.237 OA
ATOM     89  O   UNL A   1      40.899  38.200  40.044  1.00  0.00    -0.744 OA
ENDBRANCH  85  86
ENDBRANCH  59  80
ENDBRANCH  33  34
ENDBRANCH  25  28
ENDBRANCH   1  24
TORSDOF 14
ENDMDL
MODEL 3
REMARK VINA RESULT:     -11.6      2.993      9.152
REMARK SMILES O=C(NCCCNC(=O)c1ccc(-c2c3nc(c(-c4ccc(S(=O)(=O)[O-])cc4)c4ccc([nH]4)c(-c4ccc(S(=O)(=O)[O-])cc4)c4nc(c(-c5ccc(S(=O)(=O)[O-])cc5)c5ccc2[nH]5)C=C4)C=C3)cc1)C1=Cc2cc(Cl)c(Cl)cc2O[C@@H]1C(F)(F)F
REMARK SMILES IDX 6 1 5 2 4 3 3 4 1 5 2 6 70 8 71 9 81 10 72 11 80 12 73 13
REMARK SMILES IDX 79 14 74 15 78 16 75 17 76 18 77 19 82 20 83 21 84 22 85 23
REMARK SMILES IDX 7 24 8 25 9 27 10 28 11 29 69 30 12 31 68 32 13 33 14 34
REMARK SMILES IDX 15 35 62 36 16 37 67 38 61 39 63 40 17 41 66 42 60 43 59 44
REMARK SMILES IDX 18 46 48 47 29 48 47 49 30 50 33 51 46 52 64 53 31 54 32 55
REMARK SMILES IDX 45 57 65 58 34 59 19 60 20 61 28 62 21 63 27 64 22 65 23 66
REMARK SMILES IDX 24 67 25 68 26 69 49 70 50 71 58 72 51 73 57 74 52 75 53 76
REMARK SMILES IDX 54 77 55 78 56 79 35 80 36 81 44 82 37 83 43 84 38 85 39 86
REMARK SMILES IDX 40 87 41 88 42 89
REMARK H PARENT 3 7 7 26 63 45 33 56
REMARK Flexibility Score: inf
ROOT
ATOM      1  C   UNL A   1      36.924  23.060  26.158  1.00  0.00     0.118 C 
ENDROOT
BRANCH   1   2
ATOM      2  C   UNL A   1      36.497  23.648  24.820  1.00  0.00     0.042 C 
BRANCH   2   3
ATOM      3  C   UNL A   1      34.996  23.905  24.762  1.00  0.00     0.118 C 
BRANCH   3   4
ATOM      4  N   UNL A   1      34.278  23.396  25.934  1.00  0.00    -0.352 N 
ATOM      5  O   UNL A   1      33.330  21.806  27.252  1.00  0.00    -0.270 OA
ATOM      6  C   UNL A   1      33.693  22.171  26.142  1.00  0.00     0.251 C 
ATOM      7  H   UNL A   1      34.204  24.029  26.685  1.00  0.00     0.163 HD
BRANCH   6   8
ATOM      8  C   UNL A   1      33.588  21.283  24.971  1.00  0.00     0.067 C 
ATOM      9  C   UNL A   1      34.602  20.428  24.782  1.00  0.00     0.025 C 
ATOM     10  C   UNL A   1      32.230  21.109  24.368  1.00  0.00     0.314 C 
ATOM     11  C   UNL A   1      34.168  19.063  24.469  1.00  0.00     0.019 A 
ATOM     12  O   UNL A   1      31.808  19.721  24.347  1.00  0.00    -0.475 OA
ATOM     13  C   UNL A   1      35.093  18.033  24.668  1.00  0.00     0.034 A 
ATOM     14  C   UNL A   1      32.795  18.768  24.420  1.00  0.00     0.129 A 
ATOM     15  C   UNL A   1      34.643  16.740  24.947  1.00  0.00     0.060 A 
ATOM     16  C   UNL A   1      32.349  17.469  24.658  1.00  0.00     0.069 A 
ATOM     17  Cl  UNL A   1      35.829  15.564  25.387  1.00  0.00    -0.083 Cl
ATOM     18  C   UNL A   1      33.269  16.465  24.968  1.00  0.00     0.063 A 
ATOM     19  Cl  UNL A   1      32.641  14.934  25.461  1.00  0.00    -0.083 Cl
BRANCH  10  20
ATOM     20  C   UNL A   1      32.141  21.725  22.964  1.00  0.00     0.429 C 
ATOM     21  F   UNL A   1      31.203  22.703  22.925  1.00  0.00    -0.167 F 
ATOM     22  F   UNL A   1      33.308  22.293  22.581  1.00  0.00    -0.167 F 
ATOM     23  F   UNL A   1      31.805  20.813  22.021  1.00  0.00    -0.167 F 
ENDBRANCH  10  20
ENDBRANCH   6   8
ENDBRANCH   3   4
ENDBRANCH   2   3
ENDBRANCH   1   2
BRANCH   1  24
ATOM     24  N   UNL A   1      38.218  22.385  26.119  1.00  0.00    -0.352 N 
ATOM     25  C   UNL A   1      39.474  22.864  26.443  1.00  0.00     0.251 C 
ATOM     26  H   UNL A   1      38.193  21.448  25.818  1.00  0.00     0.163 HD
ATOM     27  O   UNL A   1      40.457  22.163  26.275  1.00  0.00    -0.269 OA
BRANCH  25  28
ATOM     28  C   UNL A   1      39.617  24.247  26.956  1.00  0.00     0.039 A 
ATOM     29  C   UNL A   1      39.310  24.522  28.292  1.00  0.00     0.014 A 
ATOM     30  C   UNL A   1      40.106  25.256  26.130  1.00  0.00     0.014 A 
ATOM     31  C   UNL A   1      39.598  25.785  28.823  1.00  0.00     0.010 A 
ATOM     32  C   UNL A   1      40.505  26.463  26.687  1.00  0.00     0.010 A 
ATOM     33  C   UNL A   1      40.252  26.748  28.039  1.00  0.00    -0.014 A 
BRANCH  33  34
ATOM     34  C   UNL A   1      40.668  28.078  28.561  1.00  0.00     0.031 A 
ATOM     35  C   UNL A   1      42.073  28.248  29.081  1.00  0.00     0.074 A 
ATOM     36  C   UNL A   1      39.773  29.076  28.699  1.00  0.00     0.049 A 
ATOM     37  N   UNL A   1      42.575  29.206  29.815  1.00  0.00    -0.248 NA
ATOM     38  C   UNL A   1      43.019  27.159  28.785  1.00  0.00     0.031 C 
ATOM     39  C   UNL A   1      38.372  29.035  28.270  1.00  0.00     0.029 A 
ATOM     40  N   UNL A   1      39.906  30.319  29.267  1.00  0.00    -0.354 N 
ATOM     41  C   UNL A   1      43.870  28.801  30.123  1.00  0.00     0.074 A 
ATOM     42  C   UNL A   1      44.055  27.491  29.539  1.00  0.00     0.031 C 
ATOM     43  C   UNL A   1      37.787  30.209  28.562  1.00  0.00     0.029 A 
ATOM     44  C   UNL A   1      38.749  31.063  29.250  1.00  0.00     0.049 A 
ATOM     45  H   UNL A   1      40.752  30.648  29.648  1.00  0.00     0.167 HD
ATOM     46  C   UNL A   1      44.826  29.465  30.813  1.00  0.00     0.031 A 
ATOM     47  C   UNL A   1      38.489  32.289  29.746  1.00  0.00     0.031 A 
ATOM     48  C   UNL A   1      44.658  30.795  31.333  1.00  0.00     0.049 A 
ATOM     49  C   UNL A   1      39.581  33.035  30.463  1.00  0.00     0.074 A 
ATOM     50  C   UNL A   1      45.583  31.590  31.984  1.00  0.00     0.029 A 
ATOM     51  N   UNL A   1      43.489  31.535  31.233  1.00  0.00    -0.354 N 
ATOM     52  N   UNL A   1      40.805  32.645  30.732  1.00  0.00    -0.248 NA
ATOM     53  C   UNL A   1      39.261  34.390  30.936  1.00  0.00     0.031 C 
ATOM     54  C   UNL A   1      44.964  32.805  32.300  1.00  0.00     0.029 A 
ATOM     55  C   UNL A   1      43.670  32.780  31.806  1.00  0.00     0.049 A 
ATOM     56  H   UNL A   1      42.655  31.220  30.814  1.00  0.00     0.167 HD
ATOM     57  C   UNL A   1      41.411  33.718  31.374  1.00  0.00     0.074 A 
ATOM     58  C   UNL A   1      40.422  34.773  31.453  1.00  0.00     0.031 C 
ATOM     59  C   UNL A   1      42.675  33.823  31.853  1.00  0.00     0.031 A 
BRANCH  46  60
ATOM     60  C   UNL A   1      46.137  28.755  31.037  1.00  0.00    -0.014 A 
ATOM     61  C   UNL A   1      47.183  28.845  30.100  1.00  0.00     0.010 A 
ATOM     62  C   UNL A   1      46.323  27.980  32.195  1.00  0.00     0.010 A 
ATOM     63  C   UNL A   1      48.361  28.117  30.281  1.00  0.00     0.020 A 
ATOM     64  C   UNL A   1      47.515  27.277  32.397  1.00  0.00     0.020 A 
ATOM     65  C   UNL A   1      48.515  27.328  31.424  1.00  0.00     0.054 A 
BRANCH  65  66
ATOM     66  S   UNL A   1      50.049  26.382  31.630  1.00  0.00     0.124 S 
ATOM     67  O   UNL A   1      50.916  26.999  30.629  1.00  0.00    -0.237 OA
ATOM     68  O   UNL A   1      50.408  26.649  33.021  1.00  0.00    -0.237 OA
ATOM     69  O   UNL A   1      49.647  25.007  31.346  1.00  0.00    -0.744 OA
ENDBRANCH  65  66
ENDBRANCH  46  60
BRANCH  47  70
ATOM     70  C   UNL A   1      37.146  32.901  29.550  1.00  0.00    -0.014 A 
ATOM     71  C   UNL A   1      36.224  32.932  30.610  1.00  0.00     0.010 A 
ATOM     72  C   UNL A   1      36.790  33.481  28.318  1.00  0.00     0.010 A 
ATOM     73  C   UNL A   1      34.967  33.521  30.443  1.00  0.00     0.020 A 
ATOM     74  C   UNL A   1      35.542  34.092  28.154  1.00  0.00     0.020 A 
ATOM     75  C   UNL A   1      34.636  34.100  29.217  1.00  0.00     0.054 A 
BRANCH  75  76
ATOM     76  S   UNL A   1      33.023  34.916  29.043  1.00  0.00     0.124 S 
ATOM     77  O   UNL A   1      33.404  36.245  28.576  1.00  0.00    -0.237 OA
ATOM     78  O   UNL A   1      32.345  34.070  28.065  1.00  0.00    -0.237 OA
ATOM     79  O   UNL A   1      32.467  34.862  30.393  1.00  0.00    -0.744 OA
ENDBRANCH  75  76
ENDBRANCH  47  70
BRANCH  59  80
ATOM     80  C   UNL A   1      43.088  35.138  32.451  1.00  0.00    -0.014 A 
ATOM     81  C   UNL A   1      43.699  36.135  31.671  1.00  0.00     0.010 A 
ATOM     82  C   UNL A   1      42.778  35.409  33.796  1.00  0.00     0.010 A 
ATOM     83  C   UNL A   1      44.007  37.376  32.233  1.00  0.00     0.020 A 
ATOM     84  C   UNL A   1      43.063  36.655  34.355  1.00  0.00     0.020 A 
ATOM     85  C   UNL A   1      43.684  37.630  33.571  1.00  0.00     0.054 A 
BRANCH  85  86
ATOM     86  S   UNL A   1      44.027  39.273  34.257  1.00  0.00     0.124 S 
ATOM     87  O   UNL A   1      42.865  40.037  33.809  1.00  0.00    -0.237 OA
ATOM     88  O   UNL A   1      44.094  39.015  35.693  1.00  0.00    -0.237 OA
ATOM     89  O   UNL A   1      45.296  39.649  33.639  1.00  0.00    -0.744 OA
ENDBRANCH  85  86
ENDBRANCH  59  80
ENDBRANCH  33  34
ENDBRANCH  25  28
ENDBRANCH   1  24
TORSDOF 14
ENDMDL
