MODEL 1
REMARK VINA RESULT:     -13.2      0.000      0.000
REMARK SMILES COc1cc2c(CC(=O)NCCCNC(=O)c3ccc(-c4c5nc(c(-c6ccc(S(=O)(=O)[O-])cc6)c6ccc([nH]6)c(-c6ccc(S(=O)(=O)[O-])cc6)c6nc(c(-c7ccc(S(=O)(=O)[O-])cc7)c7ccc4[nH]7)C=C6)C=C5)cc3)c(C)n(C(=O)c3ccc(Cl)cc3)c2cc1Cl
REMARK SMILES IDX 12 1 11 2 10 3 8 4 9 5 7 7 6 8 3 9 4 10 91 11 5 12 90 13
REMARK SMILES IDX 92 14 89 15 77 16 79 17 78 18 2 19 1 20 80 21 81 22 82 23
REMARK SMILES IDX 83 24 88 25 84 26 87 27 85 28 86 29 13 30 14 31 15 32 16 34
REMARK SMILES IDX 17 35 18 36 76 37 19 38 75 39 20 40 21 41 22 42 69 43 23 44
REMARK SMILES IDX 74 45 68 46 70 47 24 48 73 49 67 50 66 51 25 53 55 54 36 55
REMARK SMILES IDX 54 56 37 57 40 58 53 59 71 60 38 61 39 62 52 64 72 65 41 66
REMARK SMILES IDX 26 67 27 68 35 69 28 70 34 71 29 72 30 73 31 74 32 75 33 76
REMARK SMILES IDX 56 77 57 78 65 79 58 80 64 81 59 82 60 83 61 84 62 85 63 86
REMARK SMILES IDX 42 87 43 88 51 89 44 90 50 91 45 92 46 93 47 94 48 95 49 96
REMARK H PARENT 10 6 14 33 70 52 40 63
REMARK Flexibility Score: inf
ROOT
ATOM      1  C   UNL A   1      39.610  21.155  26.193  1.00  0.00     0.042 C 
ENDROOT
BRANCH   1   2
ATOM      2  C   UNL A   1      38.668  22.360  26.127  1.00  0.00     0.117 C 
BRANCH   2   3
ATOM      3  N   UNL A   1      38.129  22.590  24.796  1.00  0.00    -0.356 N 
ATOM      4  C   UNL A   1      37.060  23.349  24.412  1.00  0.00     0.224 C 
ATOM      5  O   UNL A   1      36.808  23.430  23.206  1.00  0.00    -0.275 OA
ATOM      6  H   UNL A   1      38.603  22.130  24.065  1.00  0.00     0.163 HD
BRANCH   4   7
ATOM      7  C   UNL A   1      36.241  24.118  25.438  1.00  0.00     0.138 C 
BRANCH   7   8
ATOM      8  C   UNL A   1      34.772  23.815  25.382  1.00  0.00    -0.009 A 
ATOM      9  C   UNL A   1      32.541  26.632  24.037  1.00  0.00     0.138 A 
ATOM     10  C   UNL A   1      33.740  26.006  24.409  1.00  0.00     0.058 A 
ATOM     11  C   UNL A   1      31.340  25.950  24.196  1.00  0.00     0.085 A 
ATOM     12  C   UNL A   1      33.743  24.687  24.924  1.00  0.00     0.008 A 
ATOM     13  C   UNL A   1      31.319  24.677  24.774  1.00  0.00     0.051 A 
ATOM     14  Cl  UNL A   1      29.823  26.542  23.612  1.00  0.00    -0.080 Cl
ATOM     15  C   UNL A   1      32.526  24.014  25.072  1.00  0.00     0.058 A 
ATOM     16  C   UNL A   1      34.157  22.649  25.827  1.00  0.00     0.028 A 
ATOM     17  N   UNL A   1      32.805  22.689  25.457  1.00  0.00    -0.280 N 
ATOM     18  C   UNL A   1      34.806  21.498  26.537  1.00  0.00     0.065 C 
BRANCH   9  19
ATOM     19  O   UNL A   1      32.682  27.868  23.459  1.00  0.00    -0.495 OA
ATOM     20  C   UNL A   1      32.868  28.927  24.396  1.00  0.00     0.278 C 
ENDBRANCH   9  19
BRANCH  17  21
ATOM     21  C   UNL A   1      31.904  21.582  25.427  1.00  0.00     0.262 C 
ATOM     22  O   UNL A   1      30.793  21.721  25.936  1.00  0.00    -0.268 OA
BRANCH  21  23
ATOM     23  C   UNL A   1      32.215  20.254  24.868  1.00  0.00     0.040 A 
ATOM     24  C   UNL A   1      32.595  19.203  25.711  1.00  0.00     0.015 A 
ATOM     25  C   UNL A   1      32.215  20.094  23.479  1.00  0.00     0.015 A 
ATOM     26  C   UNL A   1      33.087  18.021  25.152  1.00  0.00     0.021 A 
ATOM     27  C   UNL A   1      32.694  18.904  22.926  1.00  0.00     0.021 A 
ATOM     28  C   UNL A   1      33.155  17.887  23.763  1.00  0.00     0.041 A 
ATOM     29  Cl  UNL A   1      33.858  16.471  23.080  1.00  0.00    -0.084 Cl
ENDBRANCH  21  23
ENDBRANCH  17  21
ENDBRANCH   7   8
ENDBRANCH   4   7
ENDBRANCH   2   3
ENDBRANCH   1   2
BRANCH   1  30
ATOM     30  C   UNL A   1      41.034  21.502  26.626  1.00  0.00     0.118 C 
BRANCH  30  31
ATOM     31  N   UNL A   1      41.865  22.046  25.570  1.00  0.00    -0.352 N 
ATOM     32  C   UNL A   1      42.514  23.227  25.338  1.00  0.00     0.251 C 
ATOM     33  H   UNL A   1      41.996  21.404  24.836  1.00  0.00     0.163 HD
ATOM     34  O   UNL A   1      43.266  23.226  24.358  1.00  0.00    -0.269 OA
BRANCH  32  35
ATOM     35  C   UNL A   1      42.341  24.494  26.103  1.00  0.00     0.039 A 
ATOM     36  C   UNL A   1      43.006  24.850  27.276  1.00  0.00     0.014 A 
ATOM     37  C   UNL A   1      41.370  25.381  25.591  1.00  0.00     0.014 A 
ATOM     38  C   UNL A   1      42.645  26.016  27.958  1.00  0.00     0.010 A 
ATOM     39  C   UNL A   1      41.009  26.544  26.266  1.00  0.00     0.010 A 
ATOM     40  C   UNL A   1      41.620  26.844  27.476  1.00  0.00    -0.014 A 
BRANCH  40  41
ATOM     41  C   UNL A   1      41.347  28.110  28.163  1.00  0.00     0.031 A 
ATOM     42  C   UNL A   1      42.401  29.139  27.938  1.00  0.00     0.074 A 
ATOM     43  C   UNL A   1      40.219  28.407  28.847  1.00  0.00     0.049 A 
ATOM     44  N   UNL A   1      43.230  29.611  28.808  1.00  0.00    -0.248 NA
ATOM     45  C   UNL A   1      42.671  29.574  26.558  1.00  0.00     0.031 C 
ATOM     46  C   UNL A   1      38.990  27.612  28.932  1.00  0.00     0.029 A 
ATOM     47  N   UNL A   1      39.893  29.537  29.548  1.00  0.00    -0.354 N 
ATOM     48  C   UNL A   1      43.989  30.566  28.137  1.00  0.00     0.074 A 
ATOM     49  C   UNL A   1      43.720  30.380  26.735  1.00  0.00     0.031 C 
ATOM     50  C   UNL A   1      37.993  28.372  29.443  1.00  0.00     0.029 A 
ATOM     51  C   UNL A   1      38.539  29.651  29.863  1.00  0.00     0.049 A 
ATOM     52  H   UNL A   1      40.560  30.212  29.809  1.00  0.00     0.167 HD
ATOM     53  C   UNL A   1      44.603  31.578  28.810  1.00  0.00     0.031 A 
ATOM     54  C   UNL A   1      37.904  30.722  30.410  1.00  0.00     0.031 A 
ATOM     55  C   UNL A   1      44.650  31.307  30.222  1.00  0.00     0.049 A 
ATOM     56  C   UNL A   1      38.929  31.524  31.110  1.00  0.00     0.074 A 
ATOM     57  C   UNL A   1      45.269  30.373  31.021  1.00  0.00     0.029 A 
ATOM     58  N   UNL A   1      43.638  31.865  30.963  1.00  0.00    -0.354 N 
ATOM     59  N   UNL A   1      39.565  31.115  32.170  1.00  0.00    -0.248 NA
ATOM     60  C   UNL A   1      39.529  32.647  30.409  1.00  0.00     0.031 C 
ATOM     61  C   UNL A   1      44.357  30.132  32.086  1.00  0.00     0.029 A 
ATOM     62  C   UNL A   1      43.261  30.988  31.943  1.00  0.00     0.049 A 
ATOM     63  H   UNL A   1      43.245  32.756  30.813  1.00  0.00     0.167 HD
ATOM     64  C   UNL A   1      40.848  31.610  32.011  1.00  0.00     0.074 A 
ATOM     65  C   UNL A   1      40.728  32.651  30.993  1.00  0.00     0.031 C 
ATOM     66  C   UNL A   1      41.925  30.935  32.509  1.00  0.00     0.031 A 
BRANCH  53  67
ATOM     67  C   UNL A   1      44.784  32.978  28.265  1.00  0.00    -0.014 A 
ATOM     68  C   UNL A   1      43.716  33.817  27.894  1.00  0.00     0.010 A 
ATOM     69  C   UNL A   1      46.058  33.581  28.360  1.00  0.00     0.010 A 
ATOM     70  C   UNL A   1      43.900  35.176  27.622  1.00  0.00     0.020 A 
ATOM     71  C   UNL A   1      46.248  34.951  28.129  1.00  0.00     0.020 A 
ATOM     72  C   UNL A   1      45.164  35.737  27.749  1.00  0.00     0.054 A 
BRANCH  72  73
ATOM     73  S   UNL A   1      45.347  37.510  27.441  1.00  0.00     0.124 S 
ATOM     74  O   UNL A   1      44.029  37.857  26.916  1.00  0.00    -0.237 OA
ATOM     75  O   UNL A   1      45.653  38.030  28.770  1.00  0.00    -0.237 OA
ATOM     76  O   UNL A   1      46.442  37.580  26.476  1.00  0.00    -0.744 OA
ENDBRANCH  72  73
ENDBRANCH  53  67
BRANCH  54  77
ATOM     77  C   UNL A   1      36.579  31.307  30.054  1.00  0.00    -0.014 A 
ATOM     78  C   UNL A   1      36.256  31.529  28.701  1.00  0.00     0.010 A 
ATOM     79  C   UNL A   1      35.792  31.964  31.027  1.00  0.00     0.010 A 
ATOM     80  C   UNL A   1      35.263  32.444  28.329  1.00  0.00     0.020 A 
ATOM     81  C   UNL A   1      34.793  32.885  30.660  1.00  0.00     0.020 A 
ATOM     82  C   UNL A   1      34.567  33.151  29.309  1.00  0.00     0.054 A 
BRANCH  82  83
ATOM     83  S   UNL A   1      33.449  34.484  28.779  1.00  0.00     0.124 S 
ATOM     84  O   UNL A   1      34.383  35.468  28.241  1.00  0.00    -0.237 OA
ATOM     85  O   UNL A   1      32.607  33.814  27.789  1.00  0.00    -0.237 OA
ATOM     86  O   UNL A   1      32.766  34.876  30.009  1.00  0.00    -0.744 OA
ENDBRANCH  82  83
ENDBRANCH  54  77
BRANCH  66  87
ATOM     87  C   UNL A   1      41.711  29.894  33.587  1.00  0.00    -0.014 A 
ATOM     88  C   UNL A   1      42.260  30.186  34.850  1.00  0.00     0.010 A 
ATOM     89  C   UNL A   1      41.186  28.605  33.367  1.00  0.00     0.010 A 
ATOM     90  C   UNL A   1      42.349  29.213  35.842  1.00  0.00     0.020 A 
ATOM     91  C   UNL A   1      41.240  27.628  34.377  1.00  0.00     0.020 A 
ATOM     92  C   UNL A   1      41.854  27.932  35.597  1.00  0.00     0.054 A 
BRANCH  92  93
ATOM     93  S   UNL A   1      42.055  26.686  36.899  1.00  0.00     0.124 S 
ATOM     94  O   UNL A   1      43.125  27.258  37.716  1.00  0.00    -0.237 OA
ATOM     95  O   UNL A   1      40.737  26.665  37.532  1.00  0.00    -0.237 OA
ATOM     96  O   UNL A   1      42.409  25.468  36.176  1.00  0.00    -0.744 OA
ENDBRANCH  92  93
ENDBRANCH  66  87
ENDBRANCH  40  41
ENDBRANCH  32  35
ENDBRANCH  30  31
ENDBRANCH   1  30
TORSDOF 17
ENDMDL
MODEL 2
REMARK VINA RESULT:     -13.1      1.044      3.416
REMARK SMILES COc1cc2c(CC(=O)NCCCNC(=O)c3ccc(-c4c5nc(c(-c6ccc(S(=O)(=O)[O-])cc6)c6ccc([nH]6)c(-c6ccc(S(=O)(=O)[O-])cc6)c6nc(c(-c7ccc(S(=O)(=O)[O-])cc7)c7ccc4[nH]7)C=C6)C=C5)cc3)c(C)n(C(=O)c3ccc(Cl)cc3)c2cc1Cl
REMARK SMILES IDX 12 1 11 2 10 3 8 4 9 5 7 7 6 8 3 9 4 10 91 11 5 12 90 13
REMARK SMILES IDX 92 14 89 15 77 16 79 17 78 18 2 19 1 20 80 21 81 22 82 23
REMARK SMILES IDX 83 24 88 25 84 26 87 27 85 28 86 29 13 30 14 31 15 32 16 34
REMARK SMILES IDX 17 35 18 36 76 37 19 38 75 39 20 40 21 41 22 42 69 43 23 44
REMARK SMILES IDX 74 45 68 46 70 47 24 48 73 49 67 50 66 51 25 53 55 54 36 55
REMARK SMILES IDX 54 56 37 57 40 58 53 59 71 60 38 61 39 62 52 64 72 65 41 66
REMARK SMILES IDX 26 67 27 68 35 69 28 70 34 71 29 72 30 73 31 74 32 75 33 76
REMARK SMILES IDX 56 77 57 78 65 79 58 80 64 81 59 82 60 83 61 84 62 85 63 86
REMARK SMILES IDX 42 87 43 88 51 89 44 90 50 91 45 92 46 93 47 94 48 95 49 96
REMARK H PARENT 10 6 14 33 70 52 40 63
REMARK Flexibility Score: inf
ROOT
ATOM      1  C   UNL A   1      40.041  21.101  26.525  1.00  0.00     0.042 C 
ENDROOT
BRANCH   1   2
ATOM      2  C   UNL A   1      39.242  22.400  26.666  1.00  0.00     0.117 C 
BRANCH   2   3
ATOM      3  N   UNL A   1      38.621  22.825  25.421  1.00  0.00    -0.356 N 
ATOM      4  C   UNL A   1      37.305  23.067  25.148  1.00  0.00     0.224 C 
ATOM      5  O   UNL A   1      37.011  23.464  24.016  1.00  0.00    -0.275 OA
ATOM      6  H   UNL A   1      39.240  22.957  24.666  1.00  0.00     0.163 HD
BRANCH   4   7
ATOM      7  C   UNL A   1      36.242  22.910  26.224  1.00  0.00     0.138 C 
BRANCH   7   8
ATOM      8  C   UNL A   1      34.874  22.620  25.678  1.00  0.00    -0.009 A 
ATOM      9  C   UNL A   1      34.308  19.039  24.421  1.00  0.00     0.138 A 
ATOM     10  C   UNL A   1      35.020  20.106  24.987  1.00  0.00     0.058 A 
ATOM     11  C   UNL A   1      32.998  19.241  24.002  1.00  0.00     0.085 A 
ATOM     12  C   UNL A   1      34.415  21.377  25.155  1.00  0.00     0.008 A 
ATOM     13  C   UNL A   1      32.412  20.508  24.091  1.00  0.00     0.051 A 
ATOM     14  Cl  UNL A   1      31.964  17.966  23.457  1.00  0.00    -0.080 Cl
ATOM     15  C   UNL A   1      33.095  21.560  24.734  1.00  0.00     0.058 A 
ATOM     16  C   UNL A   1      33.837  23.535  25.533  1.00  0.00     0.028 A 
ATOM     17  N   UNL A   1      32.683  22.844  25.138  1.00  0.00    -0.280 N 
ATOM     18  C   UNL A   1      33.890  25.011  25.796  1.00  0.00     0.065 C 
BRANCH   9  19
ATOM     19  O   UNL A   1      34.970  17.838  24.406  1.00  0.00    -0.495 OA
ATOM     20  C   UNL A   1      34.264  16.781  25.054  1.00  0.00     0.278 C 
ENDBRANCH   9  19
BRANCH  17  21
ATOM     21  C   UNL A   1      31.343  23.336  25.191  1.00  0.00     0.262 C 
ATOM     22  O   UNL A   1      30.521  22.716  25.864  1.00  0.00    -0.268 OA
BRANCH  21  23
ATOM     23  C   UNL A   1      30.848  24.516  24.460  1.00  0.00     0.040 A 
ATOM     24  C   UNL A   1      31.240  24.742  23.135  1.00  0.00     0.015 A 
ATOM     25  C   UNL A   1      30.060  25.448  25.143  1.00  0.00     0.015 A 
ATOM     26  C   UNL A   1      30.934  25.964  22.530  1.00  0.00     0.021 A 
ATOM     27  C   UNL A   1      29.745  26.661  24.527  1.00  0.00     0.021 A 
ATOM     28  C   UNL A   1      30.208  26.926  23.237  1.00  0.00     0.041 A 
ATOM     29  Cl  UNL A   1      29.923  28.467  22.526  1.00  0.00    -0.084 Cl
ENDBRANCH  21  23
ENDBRANCH  17  21
ENDBRANCH   7   8
ENDBRANCH   4   7
ENDBRANCH   2   3
ENDBRANCH   1   2
BRANCH   1  30
ATOM     30  C   UNL A   1      41.547  21.273  26.723  1.00  0.00     0.118 C 
BRANCH  30  31
ATOM     31  N   UNL A   1      42.236  21.864  25.593  1.00  0.00    -0.352 N 
ATOM     32  C   UNL A   1      42.770  23.087  25.296  1.00  0.00     0.251 C 
ATOM     33  H   UNL A   1      42.349  21.224  24.854  1.00  0.00     0.163 HD
ATOM     34  O   UNL A   1      43.429  23.131  24.253  1.00  0.00    -0.269 OA
BRANCH  32  35
ATOM     35  C   UNL A   1      42.571  24.348  26.066  1.00  0.00     0.039 A 
ATOM     36  C   UNL A   1      43.160  24.674  27.287  1.00  0.00     0.014 A 
ATOM     37  C   UNL A   1      41.656  25.262  25.501  1.00  0.00     0.014 A 
ATOM     38  C   UNL A   1      42.777  25.838  27.960  1.00  0.00     0.010 A 
ATOM     39  C   UNL A   1      41.274  26.424  26.166  1.00  0.00     0.010 A 
ATOM     40  C   UNL A   1      41.805  26.695  27.420  1.00  0.00    -0.014 A 
BRANCH  40  41
ATOM     41  C   UNL A   1      41.512  27.957  28.105  1.00  0.00     0.031 A 
ATOM     42  C   UNL A   1      42.571  28.987  27.917  1.00  0.00     0.074 A 
ATOM     43  C   UNL A   1      40.364  28.250  28.757  1.00  0.00     0.049 A 
ATOM     44  N   UNL A   1      43.374  29.456  28.813  1.00  0.00    -0.248 NA
ATOM     45  C   UNL A   1      42.882  29.429  26.548  1.00  0.00     0.031 C 
ATOM     46  C   UNL A   1      39.133  27.454  28.802  1.00  0.00     0.029 A 
ATOM     47  N   UNL A   1      40.017  29.376  29.454  1.00  0.00    -0.354 N 
ATOM     48  C   UNL A   1      44.152  30.414  28.170  1.00  0.00     0.074 A 
ATOM     49  C   UNL A   1      43.925  30.235  26.759  1.00  0.00     0.031 C 
ATOM     50  C   UNL A   1      38.121  28.212  29.287  1.00  0.00     0.029 A 
ATOM     51  C   UNL A   1      38.654  29.489  29.729  1.00  0.00     0.049 A 
ATOM     52  H   UNL A   1      40.676  30.051  29.738  1.00  0.00     0.167 HD
ATOM     53  C   UNL A   1      44.745  31.422  28.865  1.00  0.00     0.031 A 
ATOM     54  C   UNL A   1      38.003  30.557  30.263  1.00  0.00     0.031 A 
ATOM     55  C   UNL A   1      44.751  31.144  30.277  1.00  0.00     0.049 A 
ATOM     56  C   UNL A   1      39.006  31.355  30.997  1.00  0.00     0.074 A 
ATOM     57  C   UNL A   1      45.347  30.206  31.090  1.00  0.00     0.029 A 
ATOM     58  N   UNL A   1      43.717  31.698  30.990  1.00  0.00    -0.354 N 
ATOM     59  N   UNL A   1      39.611  30.941  32.073  1.00  0.00    -0.248 NA
ATOM     60  C   UNL A   1      39.626  32.482  30.319  1.00  0.00     0.031 C 
ATOM     61  C   UNL A   1      44.404  29.960  32.126  1.00  0.00     0.029 A 
ATOM     62  C   UNL A   1      43.312  30.816  31.954  1.00  0.00     0.049 A 
ATOM     63  H   UNL A   1      43.329  32.590  30.834  1.00  0.00     0.167 HD
ATOM     64  C   UNL A   1      40.898  31.438  31.954  1.00  0.00     0.074 A 
ATOM     65  C   UNL A   1      40.808  32.484  30.939  1.00  0.00     0.031 C 
ATOM     66  C   UNL A   1      41.960  30.760  32.481  1.00  0.00     0.031 A 
BRANCH  53  67
ATOM     67  C   UNL A   1      44.942  32.825  28.334  1.00  0.00    -0.014 A 
ATOM     68  C   UNL A   1      43.901  33.617  27.813  1.00  0.00     0.010 A 
ATOM     69  C   UNL A   1      46.167  33.481  28.591  1.00  0.00     0.010 A 
ATOM     70  C   UNL A   1      44.066  34.980  27.552  1.00  0.00     0.020 A 
ATOM     71  C   UNL A   1      46.331  34.856  28.372  1.00  0.00     0.020 A 
ATOM     72  C   UNL A   1      45.278  35.594  27.840  1.00  0.00     0.054 A 
BRANCH  72  73
ATOM     73  S   UNL A   1      45.429  37.371  27.539  1.00  0.00     0.124 S 
ATOM     74  O   UNL A   1      46.304  37.400  26.369  1.00  0.00    -0.237 OA
ATOM     75  O   UNL A   1      44.045  37.769  27.301  1.00  0.00    -0.237 OA
ATOM     76  O   UNL A   1      46.022  37.879  28.774  1.00  0.00    -0.744 OA
ENDBRANCH  72  73
ENDBRANCH  53  67
BRANCH  54  77
ATOM     77  C   UNL A   1      36.688  31.144  29.871  1.00  0.00    -0.014 A 
ATOM     78  C   UNL A   1      36.456  31.496  28.527  1.00  0.00     0.010 A 
ATOM     79  C   UNL A   1      35.814  31.677  30.844  1.00  0.00     0.010 A 
ATOM     80  C   UNL A   1      35.464  32.421  28.177  1.00  0.00     0.020 A 
ATOM     81  C   UNL A   1      34.815  32.606  30.500  1.00  0.00     0.020 A 
ATOM     82  C   UNL A   1      34.678  33.006  29.170  1.00  0.00     0.054 A 
BRANCH  82  83
ATOM     83  S   UNL A   1      33.558  34.358  28.696  1.00  0.00     0.124 S 
ATOM     84  O   UNL A   1      34.479  35.317  28.092  1.00  0.00    -0.237 OA
ATOM     85  O   UNL A   1      32.643  33.699  27.767  1.00  0.00    -0.237 OA
ATOM     86  O   UNL A   1      32.961  34.776  29.962  1.00  0.00    -0.744 OA
ENDBRANCH  82  83
ENDBRANCH  54  77
BRANCH  66  87
ATOM     87  C   UNL A   1      41.714  29.714  33.547  1.00  0.00    -0.014 A 
ATOM     88  C   UNL A   1      42.108  30.055  34.854  1.00  0.00     0.010 A 
ATOM     89  C   UNL A   1      41.312  28.387  33.293  1.00  0.00     0.010 A 
ATOM     90  C   UNL A   1      42.167  29.099  35.865  1.00  0.00     0.020 A 
ATOM     91  C   UNL A   1      41.335  27.424  34.318  1.00  0.00     0.020 A 
ATOM     92  C   UNL A   1      41.796  27.782  35.589  1.00  0.00     0.054 A 
BRANCH  92  93
ATOM     93  S   UNL A   1      41.954  26.564  36.923  1.00  0.00     0.124 S 
ATOM     94  O   UNL A   1      42.254  25.335  36.191  1.00  0.00    -0.237 OA
ATOM     95  O   UNL A   1      43.061  27.097  37.717  1.00  0.00    -0.237 OA
ATOM     96  O   UNL A   1      40.653  26.590  37.587  1.00  0.00    -0.744 OA
ENDBRANCH  92  93
ENDBRANCH  66  87
ENDBRANCH  40  41
ENDBRANCH  32  35
ENDBRANCH  30  31
ENDBRANCH   1  30
TORSDOF 17
ENDMDL
MODEL 3
REMARK VINA RESULT:     -13.0      2.719      4.290
REMARK SMILES COc1cc2c(CC(=O)NCCCNC(=O)c3ccc(-c4c5nc(c(-c6ccc(S(=O)(=O)[O-])cc6)c6ccc([nH]6)c(-c6ccc(S(=O)(=O)[O-])cc6)c6nc(c(-c7ccc(S(=O)(=O)[O-])cc7)c7ccc4[nH]7)C=C6)C=C5)cc3)c(C)n(C(=O)c3ccc(Cl)cc3)c2cc1Cl
REMARK SMILES IDX 12 1 11 2 10 3 8 4 9 5 7 7 6 8 3 9 4 10 91 11 5 12 90 13
REMARK SMILES IDX 92 14 89 15 77 16 79 17 78 18 2 19 1 20 80 21 81 22 82 23
REMARK SMILES IDX 83 24 88 25 84 26 87 27 85 28 86 29 13 30 14 31 15 32 16 34
REMARK SMILES IDX 17 35 18 36 76 37 19 38 75 39 20 40 21 41 22 42 69 43 23 44
REMARK SMILES IDX 74 45 68 46 70 47 24 48 73 49 67 50 66 51 25 53 55 54 36 55
REMARK SMILES IDX 54 56 37 57 40 58 53 59 71 60 38 61 39 62 52 64 72 65 41 66
REMARK SMILES IDX 26 67 27 68 35 69 28 70 34 71 29 72 30 73 31 74 32 75 33 76
REMARK SMILES IDX 56 77 57 78 65 79 58 80 64 81 59 82 60 83 61 84 62 85 63 86
REMARK SMILES IDX 42 87 43 88 51 89 44 90 50 91 45 92 46 93 47 94 48 95 49 96
REMARK H PARENT 10 6 14 33 70 52 40 63
REMARK Flexibility Score: inf
ROOT
ATOM      1  C   UNL A   1      37.331  21.808  24.583  1.00  0.00     0.042 C 
ENDROOT
BRANCH   1   2
ATOM      2  C   UNL A   1      36.433  23.026  24.348  1.00  0.00     0.117 C 
BRANCH   2   3
ATOM      3  N   UNL A   1      35.431  23.204  25.387  1.00  0.00    -0.356 N 
ATOM      4  C   UNL A   1      34.499  24.192  25.531  1.00  0.00     0.224 C 
ATOM      5  O   UNL A   1      33.714  24.116  26.483  1.00  0.00    -0.275 OA
ATOM      6  H   UNL A   1      35.424  22.513  26.088  1.00  0.00     0.163 HD
BRANCH   4   7
ATOM      7  C   UNL A   1      34.393  25.320  24.517  1.00  0.00     0.138 C 
BRANCH   7   8
ATOM      8  C   UNL A   1      33.156  26.157  24.677  1.00  0.00    -0.009 A 
ATOM      9  C   UNL A   1      33.628  29.488  26.521  1.00  0.00     0.138 A 
ATOM     10  C   UNL A   1      34.015  28.263  25.958  1.00  0.00     0.058 A 
ATOM     11  C   UNL A   1      32.294  29.873  26.464  1.00  0.00     0.085 A 
ATOM     12  C   UNL A   1      33.068  27.425  25.318  1.00  0.00     0.008 A 
ATOM     13  C   UNL A   1      31.335  29.023  25.902  1.00  0.00     0.051 A 
ATOM     14  Cl  UNL A   1      31.728  31.431  26.959  1.00  0.00    -0.080 Cl
ATOM     15  C   UNL A   1      31.731  27.831  25.264  1.00  0.00     0.058 A 
ATOM     16  C   UNL A   1      31.870  25.806  24.279  1.00  0.00     0.028 A 
ATOM     17  N   UNL A   1      31.030  26.912  24.460  1.00  0.00    -0.280 N 
ATOM     18  C   UNL A   1      31.429  24.494  23.700  1.00  0.00     0.065 C 
BRANCH   9  19
ATOM     19  O   UNL A   1      34.653  30.250  27.021  1.00  0.00    -0.495 OA
ATOM     20  C   UNL A   1      35.466  29.571  27.976  1.00  0.00     0.278 C 
ENDBRANCH   9  19
BRANCH  17  21
ATOM     21  C   UNL A   1      29.733  27.091  23.890  1.00  0.00     0.262 C 
ATOM     22  O   UNL A   1      28.887  26.218  24.080  1.00  0.00    -0.268 OA
BRANCH  21  23
ATOM     23  C   UNL A   1      29.332  28.230  23.045  1.00  0.00     0.040 A 
ATOM     24  C   UNL A   1      30.287  28.918  22.287  1.00  0.00     0.015 A 
ATOM     25  C   UNL A   1      28.004  28.666  23.089  1.00  0.00     0.015 A 
ATOM     26  C   UNL A   1      29.931  30.116  21.661  1.00  0.00     0.021 A 
ATOM     27  C   UNL A   1      27.651  29.856  22.450  1.00  0.00     0.021 A 
ATOM     28  C   UNL A   1      28.621  30.590  21.765  1.00  0.00     0.041 A 
ATOM     29  Cl  UNL A   1      28.213  32.116  21.081  1.00  0.00    -0.084 Cl
ENDBRANCH  21  23
ENDBRANCH  17  21
ENDBRANCH   7   8
ENDBRANCH   4   7
ENDBRANCH   2   3
ENDBRANCH   1   2
BRANCH   1  30
ATOM     30  C   UNL A   1      38.119  21.858  25.892  1.00  0.00     0.118 C 
BRANCH  30  31
ATOM     31  N   UNL A   1      39.559  21.828  25.725  1.00  0.00    -0.352 N 
ATOM     32  C   UNL A   1      40.617  22.566  26.176  1.00  0.00     0.251 C 
ATOM     33  H   UNL A   1      39.847  21.090  25.141  1.00  0.00     0.163 HD
ATOM     34  O   UNL A   1      41.730  22.096  25.919  1.00  0.00    -0.269 OA
BRANCH  32  35
ATOM     35  C   UNL A   1      40.543  23.883  26.870  1.00  0.00     0.039 A 
ATOM     36  C   UNL A   1      39.577  24.869  26.673  1.00  0.00     0.014 A 
ATOM     37  C   UNL A   1      41.592  24.149  27.775  1.00  0.00     0.014 A 
ATOM     38  C   UNL A   1      39.709  26.113  27.298  1.00  0.00     0.010 A 
ATOM     39  C   UNL A   1      41.726  25.384  28.402  1.00  0.00     0.010 A 
ATOM     40  C   UNL A   1      40.804  26.386  28.132  1.00  0.00    -0.014 A 
BRANCH  40  41
ATOM     41  C   UNL A   1      40.847  27.663  28.852  1.00  0.00     0.031 A 
ATOM     42  C   UNL A   1      41.924  28.571  28.370  1.00  0.00     0.074 A 
ATOM     43  C   UNL A   1      39.957  28.072  29.784  1.00  0.00     0.049 A 
ATOM     44  N   UNL A   1      42.985  28.934  29.010  1.00  0.00    -0.248 NA
ATOM     45  C   UNL A   1      41.903  28.997  26.961  1.00  0.00     0.031 C 
ATOM     46  C   UNL A   1      38.703  27.417  30.170  1.00  0.00     0.029 A 
ATOM     47  N   UNL A   1      39.937  29.219  30.531  1.00  0.00    -0.354 N 
ATOM     48  C   UNL A   1      43.664  29.810  28.166  1.00  0.00     0.074 A 
ATOM     49  C   UNL A   1      43.046  29.678  26.872  1.00  0.00     0.031 C 
ATOM     50  C   UNL A   1      37.949  28.274  30.898  1.00  0.00     0.029 A 
ATOM     51  C   UNL A   1      38.720  29.477  31.161  1.00  0.00     0.049 A 
ATOM     52  H   UNL A   1      40.719  29.811  30.617  1.00  0.00     0.167 HD
ATOM     53  C   UNL A   1      44.530  30.736  28.661  1.00  0.00     0.031 A 
ATOM     54  C   UNL A   1      38.359  30.603  31.833  1.00  0.00     0.031 A 
ATOM     55  C   UNL A   1      44.884  30.438  30.023  1.00  0.00     0.049 A 
ATOM     56  C   UNL A   1      39.606  31.274  32.258  1.00  0.00     0.074 A 
ATOM     57  C   UNL A   1      45.569  29.427  30.660  1.00  0.00     0.029 A 
ATOM     58  N   UNL A   1      44.149  31.092  30.979  1.00  0.00    -0.354 N 
ATOM     59  N   UNL A   1      40.427  30.779  33.138  1.00  0.00    -0.248 NA
ATOM     60  C   UNL A   1      40.141  32.335  31.422  1.00  0.00     0.031 C 
ATOM     61  C   UNL A   1      44.918  29.271  31.915  1.00  0.00     0.029 A 
ATOM     62  C   UNL A   1      43.922  30.246  32.030  1.00  0.00     0.049 A 
ATOM     63  H   UNL A   1      43.834  32.023  30.919  1.00  0.00     0.167 HD
ATOM     64  C   UNL A   1      41.682  31.131  32.670  1.00  0.00     0.074 A 
ATOM     65  C   UNL A   1      41.439  32.196  31.701  1.00  0.00     0.031 C 
ATOM     66  C   UNL A   1      42.764  30.332  32.902  1.00  0.00     0.031 A 
BRANCH  53  67
ATOM     67  C   UNL A   1      44.731  32.116  28.074  1.00  0.00    -0.014 A 
ATOM     68  C   UNL A   1      43.838  33.187  28.271  1.00  0.00     0.010 A 
ATOM     69  C   UNL A   1      45.986  32.435  27.509  1.00  0.00     0.010 A 
ATOM     70  C   UNL A   1      44.165  34.499  27.919  1.00  0.00     0.020 A 
ATOM     71  C   UNL A   1      46.340  33.754  27.190  1.00  0.00     0.020 A 
ATOM     72  C   UNL A   1      45.419  34.777  27.388  1.00  0.00     0.054 A 
BRANCH  72  73
ATOM     73  S   UNL A   1      45.821  36.497  26.999  1.00  0.00     0.124 S 
ATOM     74  O   UNL A   1      46.522  36.918  28.209  1.00  0.00    -0.237 OA
ATOM     75  O   UNL A   1      46.648  36.364  25.804  1.00  0.00    -0.237 OA
ATOM     76  O   UNL A   1      44.514  37.115  26.788  1.00  0.00    -0.744 OA
ENDBRANCH  72  73
ENDBRANCH  53  67
BRANCH  54  77
ATOM     77  C   UNL A   1      37.061  31.338  31.801  1.00  0.00    -0.014 A 
ATOM     78  C   UNL A   1      36.670  32.008  30.625  1.00  0.00     0.010 A 
ATOM     79  C   UNL A   1      36.389  31.675  32.997  1.00  0.00     0.010 A 
ATOM     80  C   UNL A   1      35.727  33.044  30.657  1.00  0.00     0.020 A 
ATOM     81  C   UNL A   1      35.441  32.714  33.035  1.00  0.00     0.020 A 
ATOM     82  C   UNL A   1      35.150  33.422  31.868  1.00  0.00     0.054 A 
BRANCH  82  83
ATOM     83  S   UNL A   1      34.103  34.909  31.897  1.00  0.00     0.124 S 
ATOM     84  O   UNL A   1      33.910  35.171  30.474  1.00  0.00    -0.237 OA
ATOM     85  O   UNL A   1      32.916  34.445  32.614  1.00  0.00    -0.237 OA
ATOM     86  O   UNL A   1      34.912  35.892  32.611  1.00  0.00    -0.744 OA
ENDBRANCH  82  83
ENDBRANCH  54  77
BRANCH  66  87
ATOM     87  C   UNL A   1      42.700  29.304  34.011  1.00  0.00    -0.014 A 
ATOM     88  C   UNL A   1      42.594  27.960  33.606  1.00  0.00     0.010 A 
ATOM     89  C   UNL A   1      42.546  29.605  35.379  1.00  0.00     0.010 A 
ATOM     90  C   UNL A   1      42.279  26.953  34.515  1.00  0.00     0.020 A 
ATOM     91  C   UNL A   1      42.262  28.589  36.308  1.00  0.00     0.020 A 
ATOM     92  C   UNL A   1      42.097  27.273  35.861  1.00  0.00     0.054 A 
BRANCH  92  93
ATOM     93  S   UNL A   1      41.623  25.935  36.989  1.00  0.00     0.124 S 
ATOM     94  O   UNL A   1      41.236  24.870  36.066  1.00  0.00    -0.237 OA
ATOM     95  O   UNL A   1      42.855  25.690  37.736  1.00  0.00    -0.237 OA
ATOM     96  O   UNL A   1      40.530  26.502  37.776  1.00  0.00    -0.744 OA
ENDBRANCH  92  93
ENDBRANCH  66  87
ENDBRANCH  40  41
ENDBRANCH  32  35
ENDBRANCH  30  31
ENDBRANCH   1  30
TORSDOF 17
ENDMDL
