MODEL 1
REMARK VINA RESULT:      -8.9      0.000      0.000
REMARK SMILES COC[C@H](O)CC1(C(=O)NCCCNC(=O)c2ccc(-c3c4nc(c(-c5ccc(S(=O)(=O)[O-])cc5)c5ccc([nH]5)c(-c5ccc(S(=O)(=O)[O-])cc5)c5nc(c(-c6ccc(S(=O)(=O)[O-])cc6)c6ccc3[nH]6)C=C5)C=C4)cc2)CC1
REMARK SMILES IDX 11 1 10 2 8 3 9 4 7 6 77 7 78 8 6 9 4 10 3 11 2 12 1 13 5 14
REMARK SMILES IDX 12 16 13 17 14 18 15 19 16 21 17 22 18 23 76 24 19 25 75 26
REMARK SMILES IDX 20 27 21 28 22 29 69 30 23 31 74 32 68 33 70 34 24 35 73 36
REMARK SMILES IDX 67 37 66 38 25 40 55 41 36 42 54 43 37 44 40 45 53 46 71 47
REMARK SMILES IDX 38 48 39 49 52 51 72 52 41 53 26 54 27 55 35 56 28 57 34 58
REMARK SMILES IDX 29 59 30 60 31 61 32 62 33 63 56 64 57 65 65 66 58 67 64 68
REMARK SMILES IDX 59 69 60 70 61 71 62 72 63 73 42 74 43 75 51 76 44 77 50 78
REMARK SMILES IDX 45 79 46 80 47 81 48 82 49 83
REMARK H PARENT 10 5 5 15 14 20 70 39 40 50
REMARK Flexibility Score: inf
ROOT
ATOM      1  C   UNL A   1      42.929  23.089  27.768  1.00  0.00     0.117 C 
ENDROOT
BRANCH   1   2
ATOM      2  N   UNL A   1      44.368  23.092  27.560  1.00  0.00    -0.356 N 
ATOM      3  C   UNL A   1      45.186  23.255  26.479  1.00  0.00     0.226 C 
ATOM      4  O   UNL A   1      46.392  23.098  26.682  1.00  0.00    -0.274 OA
ATOM      5  H   UNL A   1      44.869  22.941  28.393  1.00  0.00     0.163 HD
BRANCH   3   6
ATOM      6  C   UNL A   1      44.728  23.642  25.082  1.00  0.00     0.052 C 
ATOM      7  C   UNL A   1      43.925  22.622  24.286  1.00  0.00     0.018 C 
ATOM      8  C   UNL A   1      45.327  22.967  23.859  1.00  0.00     0.018 C 
BRANCH   6   9
ATOM      9  C   UNL A   1      44.309  25.129  24.982  1.00  0.00     0.051 C 
BRANCH   9  10
ATOM     10  C   UNL A   1      45.300  26.210  25.421  1.00  0.00     0.141 C 
BRANCH  10  11
ATOM     11  C   UNL A   1      44.637  27.182  26.421  1.00  0.00     0.191 C 
BRANCH  11  12
ATOM     12  O   UNL A   1      44.673  28.539  25.956  1.00  0.00    -0.382 OA
ATOM     13  C   UNL A   1      45.522  29.382  26.726  1.00  0.00     0.195 C 
ENDBRANCH  11  12
ENDBRANCH  10  11
BRANCH  10  14
ATOM     14  O   UNL A   1      45.745  26.952  24.280  1.00  0.00    -0.391 OA
ATOM     15  H   UNL A   1      46.208  26.357  23.668  1.00  0.00     0.211 HD
ENDBRANCH  10  14
ENDBRANCH   9  10
ENDBRANCH   6   9
ENDBRANCH   3   6
ENDBRANCH   1   2
BRANCH   1  16
ATOM     16  C   UNL A   1      42.276  21.856  27.159  1.00  0.00     0.042 C 
BRANCH  16  17
ATOM     17  C   UNL A   1      40.867  21.599  27.677  1.00  0.00     0.118 C 
BRANCH  17  18
ATOM     18  N   UNL A   1      39.856  21.748  26.637  1.00  0.00    -0.352 N 
ATOM     19  C   UNL A   1      39.070  22.828  26.319  1.00  0.00     0.251 C 
ATOM     20  H   UNL A   1      39.715  20.952  26.077  1.00  0.00     0.163 HD
ATOM     21  O   UNL A   1      38.119  22.686  25.557  1.00  0.00    -0.269 OA
BRANCH  19  22
ATOM     22  C   UNL A   1      39.364  24.150  26.908  1.00  0.00     0.039 A 
ATOM     23  C   UNL A   1      38.908  24.440  28.196  1.00  0.00     0.014 A 
ATOM     24  C   UNL A   1      40.088  25.102  26.188  1.00  0.00     0.014 A 
ATOM     25  C   UNL A   1      39.241  25.661  28.785  1.00  0.00     0.010 A 
ATOM     26  C   UNL A   1      40.503  26.271  26.813  1.00  0.00     0.010 A 
ATOM     27  C   UNL A   1      40.075  26.569  28.114  1.00  0.00    -0.014 A 
BRANCH  27  28
ATOM     28  C   UNL A   1      40.509  27.838  28.748  1.00  0.00     0.031 A 
ATOM     29  C   UNL A   1      41.904  27.971  29.296  1.00  0.00     0.074 A 
ATOM     30  C   UNL A   1      39.627  28.847  28.891  1.00  0.00     0.049 A 
ATOM     31  N   UNL A   1      42.453  28.982  29.920  1.00  0.00    -0.248 NA
ATOM     32  C   UNL A   1      42.788  26.803  29.151  1.00  0.00     0.031 C 
ATOM     33  C   UNL A   1      38.236  28.827  28.434  1.00  0.00     0.029 A 
ATOM     34  N   UNL A   1      39.772  30.086  29.461  1.00  0.00    -0.354 N 
ATOM     35  C   UNL A   1      43.736  28.566  30.256  1.00  0.00     0.074 A 
ATOM     36  C   UNL A   1      43.859  27.191  29.825  1.00  0.00     0.031 C 
ATOM     37  C   UNL A   1      37.670  30.015  28.698  1.00  0.00     0.029 A 
ATOM     38  C   UNL A   1      38.639  30.861  29.387  1.00  0.00     0.049 A 
ATOM     39  H   UNL A   1      40.607  30.392  29.882  1.00  0.00     0.167 HD
ATOM     40  C   UNL A   1      44.731  29.270  30.848  1.00  0.00     0.031 A 
ATOM     41  C   UNL A   1      38.405  32.114  29.823  1.00  0.00     0.031 A 
ATOM     42  C   UNL A   1      44.598  30.635  31.281  1.00  0.00     0.049 A 
ATOM     43  C   UNL A   1      39.510  32.867  30.510  1.00  0.00     0.074 A 
ATOM     44  C   UNL A   1      45.557  31.457  31.846  1.00  0.00     0.029 A 
ATOM     45  N   UNL A   1      43.428  31.378  31.207  1.00  0.00    -0.354 N 
ATOM     46  N   UNL A   1      40.739  32.483  30.759  1.00  0.00    -0.248 NA
ATOM     47  C   UNL A   1      39.197  34.227  30.966  1.00  0.00     0.031 C 
ATOM     48  C   UNL A   1      44.949  32.674  32.174  1.00  0.00     0.029 A 
ATOM     49  C   UNL A   1      43.630  32.637  31.748  1.00  0.00     0.049 A 
ATOM     50  H   UNL A   1      42.578  31.057  30.827  1.00  0.00     0.167 HD
ATOM     51  C   UNL A   1      41.358  33.565  31.375  1.00  0.00     0.074 A 
ATOM     52  C   UNL A   1      40.368  34.621  31.450  1.00  0.00     0.031 C 
ATOM     53  C   UNL A   1      42.631  33.676  31.829  1.00  0.00     0.031 A 
BRANCH  40  54
ATOM     54  C   UNL A   1      46.038  28.551  31.082  1.00  0.00    -0.014 A 
ATOM     55  C   UNL A   1      47.016  28.464  30.073  1.00  0.00     0.010 A 
ATOM     56  C   UNL A   1      46.284  27.938  32.323  1.00  0.00     0.010 A 
ATOM     57  C   UNL A   1      48.178  27.714  30.273  1.00  0.00     0.020 A 
ATOM     58  C   UNL A   1      47.464  27.218  32.541  1.00  0.00     0.020 A 
ATOM     59  C   UNL A   1      48.388  27.087  31.504  1.00  0.00     0.054 A 
BRANCH  59  60
ATOM     60  S   UNL A   1      49.889  26.094  31.727  1.00  0.00     0.124 S 
ATOM     61  O   UNL A   1      50.789  27.049  32.369  1.00  0.00    -0.237 OA
ATOM     62  O   UNL A   1      49.427  25.000  32.578  1.00  0.00    -0.237 OA
ATOM     63  O   UNL A   1      50.256  25.709  30.368  1.00  0.00    -0.744 OA
ENDBRANCH  59  60
ENDBRANCH  40  54
BRANCH  41  64
ATOM     64  C   UNL A   1      37.080  32.743  29.574  1.00  0.00    -0.014 A 
ATOM     65  C   UNL A   1      36.196  32.972  30.644  1.00  0.00     0.010 A 
ATOM     66  C   UNL A   1      36.714  33.165  28.283  1.00  0.00     0.010 A 
ATOM     67  C   UNL A   1      34.973  33.613  30.428  1.00  0.00     0.020 A 
ATOM     68  C   UNL A   1      35.504  33.831  28.068  1.00  0.00     0.020 A 
ATOM     69  C   UNL A   1      34.639  34.049  29.143  1.00  0.00     0.054 A 
BRANCH  69  70
ATOM     70  S   UNL A   1      33.087  34.958  28.907  1.00  0.00     0.124 S 
ATOM     71  O   UNL A   1      33.563  36.265  28.466  1.00  0.00    -0.237 OA
ATOM     72  O   UNL A   1      32.406  34.156  27.893  1.00  0.00    -0.237 OA
ATOM     73  O   UNL A   1      32.470  34.930  30.231  1.00  0.00    -0.744 OA
ENDBRANCH  69  70
ENDBRANCH  41  64
BRANCH  53  74
ATOM     74  C   UNL A   1      43.042  34.997  32.425  1.00  0.00    -0.014 A 
ATOM     75  C   UNL A   1      43.682  35.983  31.654  1.00  0.00     0.010 A 
ATOM     76  C   UNL A   1      42.731  35.276  33.769  1.00  0.00     0.010 A 
ATOM     77  C   UNL A   1      44.031  37.211  32.224  1.00  0.00     0.020 A 
ATOM     78  C   UNL A   1      43.049  36.513  34.334  1.00  0.00     0.020 A 
ATOM     79  C   UNL A   1      43.711  37.468  33.561  1.00  0.00     0.054 A 
BRANCH  79  80
ATOM     80  S   UNL A   1      44.134  39.086  34.263  1.00  0.00     0.124 S 
ATOM     81  O   UNL A   1      42.947  39.875  33.942  1.00  0.00    -0.237 OA
ATOM     82  O   UNL A   1      44.323  38.781  35.679  1.00  0.00    -0.237 OA
ATOM     83  O   UNL A   1      45.348  39.469  33.546  1.00  0.00    -0.744 OA
ENDBRANCH  79  80
ENDBRANCH  53  74
ENDBRANCH  27  28
ENDBRANCH  19  22
ENDBRANCH  17  18
ENDBRANCH  16  17
ENDBRANCH   1  16
TORSDOF 18
ENDMDL
MODEL 2
REMARK VINA RESULT:      -8.7      4.302     11.038
REMARK SMILES COC[C@H](O)CC1(C(=O)NCCCNC(=O)c2ccc(-c3c4nc(c(-c5ccc(S(=O)(=O)[O-])cc5)c5ccc([nH]5)c(-c5ccc(S(=O)(=O)[O-])cc5)c5nc(c(-c6ccc(S(=O)(=O)[O-])cc6)c6ccc3[nH]6)C=C5)C=C4)cc2)CC1
REMARK SMILES IDX 11 1 10 2 8 3 9 4 7 6 77 7 78 8 6 9 4 10 3 11 2 12 1 13 5 14
REMARK SMILES IDX 12 16 13 17 14 18 15 19 16 21 17 22 18 23 76 24 19 25 75 26
REMARK SMILES IDX 20 27 21 28 22 29 69 30 23 31 74 32 68 33 70 34 24 35 73 36
REMARK SMILES IDX 67 37 66 38 25 40 55 41 36 42 54 43 37 44 40 45 53 46 71 47
REMARK SMILES IDX 38 48 39 49 52 51 72 52 41 53 26 54 27 55 35 56 28 57 34 58
REMARK SMILES IDX 29 59 30 60 31 61 32 62 33 63 56 64 57 65 65 66 58 67 64 68
REMARK SMILES IDX 59 69 60 70 61 71 62 72 63 73 42 74 43 75 51 76 44 77 50 78
REMARK SMILES IDX 45 79 46 80 47 81 48 82 49 83
REMARK H PARENT 10 5 5 15 14 20 70 39 40 50
REMARK Flexibility Score: inf
ROOT
ATOM      1  C   UNL A   1      33.183  25.775  25.788  1.00  0.00     0.117 C 
ENDROOT
BRANCH   1   2
ATOM      2  N   UNL A   1      32.006  25.250  25.116  1.00  0.00    -0.356 N 
ATOM      3  C   UNL A   1      31.435  25.429  23.889  1.00  0.00     0.226 C 
ATOM      4  O   UNL A   1      30.354  24.865  23.705  1.00  0.00    -0.274 OA
ATOM      5  H   UNL A   1      31.502  24.618  25.677  1.00  0.00     0.163 HD
BRANCH   3   6
ATOM      6  C   UNL A   1      32.042  26.229  22.747  1.00  0.00     0.052 C 
ATOM      7  C   UNL A   1      32.672  25.462  21.593  1.00  0.00     0.018 C 
ATOM      8  C   UNL A   1      33.547  26.248  22.532  1.00  0.00     0.018 C 
BRANCH   6   9
ATOM      9  C   UNL A   1      31.225  27.499  22.409  1.00  0.00     0.051 C 
BRANCH   9  10
ATOM     10  C   UNL A   1      30.877  28.478  23.533  1.00  0.00     0.141 C 
BRANCH  10  11
ATOM     11  C   UNL A   1      29.664  29.349  23.141  1.00  0.00     0.191 C 
BRANCH  11  12
ATOM     12  O   UNL A   1      29.701  29.731  21.758  1.00  0.00    -0.382 OA
ATOM     13  C   UNL A   1      28.575  30.499  21.350  1.00  0.00     0.195 C 
ENDBRANCH  11  12
ENDBRANCH  10  11
BRANCH  10  14
ATOM     14  O   UNL A   1      31.996  29.333  23.795  1.00  0.00    -0.391 OA
ATOM     15  H   UNL A   1      32.766  29.021  23.294  1.00  0.00     0.211 HD
ENDBRANCH  10  14
ENDBRANCH   9  10
ENDBRANCH   6   9
ENDBRANCH   3   6
ENDBRANCH   1   2
BRANCH   1  16
ATOM     16  C   UNL A   1      32.927  27.157  26.371  1.00  0.00     0.042 C 
BRANCH  16  17
ATOM     17  C   UNL A   1      34.149  28.066  26.334  1.00  0.00     0.118 C 
BRANCH  17  18
ATOM     18  N   UNL A   1      33.822  29.453  26.644  1.00  0.00    -0.352 N 
ATOM     19  C   UNL A   1      34.461  30.347  27.466  1.00  0.00     0.251 C 
ATOM     20  H   UNL A   1      33.019  29.801  26.194  1.00  0.00     0.163 HD
ATOM     21  O   UNL A   1      33.904  31.398  27.772  1.00  0.00    -0.269 OA
BRANCH  19  22
ATOM     22  C   UNL A   1      35.805  30.035  27.990  1.00  0.00     0.039 A 
ATOM     23  C   UNL A   1      35.933  29.540  29.290  1.00  0.00     0.014 A 
ATOM     24  C   UNL A   1      36.939  30.231  27.199  1.00  0.00     0.014 A 
ATOM     25  C   UNL A   1      37.193  29.176  29.767  1.00  0.00     0.010 A 
ATOM     26  C   UNL A   1      38.175  29.776  27.637  1.00  0.00     0.010 A 
ATOM     27  C   UNL A   1      38.319  29.254  28.931  1.00  0.00    -0.014 A 
BRANCH  27  28
ATOM     28  C   UNL A   1      39.656  28.800  29.385  1.00  0.00     0.031 A 
ATOM     29  C   UNL A   1      40.510  29.698  30.238  1.00  0.00     0.074 A 
ATOM     30  C   UNL A   1      40.129  27.607  28.974  1.00  0.00     0.049 A 
ATOM     31  N   UNL A   1      41.719  29.497  30.697  1.00  0.00    -0.248 NA
ATOM     32  C   UNL A   1      39.944  31.009  30.596  1.00  0.00     0.031 C 
ATOM     33  C   UNL A   1      39.412  26.661  28.116  1.00  0.00     0.029 A 
ATOM     34  N   UNL A   1      41.326  26.986  29.225  1.00  0.00    -0.354 N 
ATOM     35  C   UNL A   1      42.062  30.657  31.381  1.00  0.00     0.074 A 
ATOM     36  C   UNL A   1      40.962  31.581  31.219  1.00  0.00     0.031 C 
ATOM     37  C   UNL A   1      40.163  25.561  27.953  1.00  0.00     0.029 A 
ATOM     38  C   UNL A   1      41.433  25.743  28.650  1.00  0.00     0.049 A 
ATOM     39  H   UNL A   1      42.041  27.392  29.767  1.00  0.00     0.167 HD
ATOM     40  C   UNL A   1      43.180  30.923  32.097  1.00  0.00     0.031 A 
ATOM     41  C   UNL A   1      42.439  24.847  28.679  1.00  0.00     0.031 A 
ATOM     42  C   UNL A   1      44.275  30.001  32.247  1.00  0.00     0.049 A 
ATOM     43  C   UNL A   1      43.687  25.174  29.449  1.00  0.00     0.074 A 
ATOM     44  C   UNL A   1      45.432  30.150  32.989  1.00  0.00     0.029 A 
ATOM     45  N   UNL A   1      44.353  28.760  31.629  1.00  0.00    -0.354 N 
ATOM     46  N   UNL A   1      43.967  26.250  30.146  1.00  0.00    -0.248 NA
ATOM     47  C   UNL A   1      44.750  24.162  29.444  1.00  0.00     0.031 C 
ATOM     48  C   UNL A   1      46.238  29.028  32.770  1.00  0.00     0.029 A 
ATOM     49  C   UNL A   1      45.553  28.147  31.947  1.00  0.00     0.049 A 
ATOM     50  H   UNL A   1      43.657  28.372  31.050  1.00  0.00     0.167 HD
ATOM     51  C   UNL A   1      45.228  26.031  30.689  1.00  0.00     0.074 A 
ATOM     52  C   UNL A   1      45.650  24.717  30.246  1.00  0.00     0.031 C 
ATOM     53  C   UNL A   1      45.967  26.843  31.488  1.00  0.00     0.031 A 
BRANCH  40  54
ATOM     54  C   UNL A   1      43.275  32.283  32.746  1.00  0.00    -0.014 A 
ATOM     55  C   UNL A   1      43.014  32.458  34.118  1.00  0.00     0.010 A 
ATOM     56  C   UNL A   1      43.611  33.405  31.968  1.00  0.00     0.010 A 
ATOM     57  C   UNL A   1      43.012  33.737  34.683  1.00  0.00     0.020 A 
ATOM     58  C   UNL A   1      43.648  34.683  32.537  1.00  0.00     0.020 A 
ATOM     59  C   UNL A   1      43.319  34.842  33.884  1.00  0.00     0.054 A 
BRANCH  59  60
ATOM     60  S   UNL A   1      43.278  36.493  34.634  1.00  0.00     0.124 S 
ATOM     61  O   UNL A   1      44.347  37.178  33.910  1.00  0.00    -0.237 OA
ATOM     62  O   UNL A   1      41.924  36.949  34.331  1.00  0.00    -0.237 OA
ATOM     63  O   UNL A   1      43.546  36.240  36.046  1.00  0.00    -0.744 OA
ENDBRANCH  59  60
ENDBRANCH  40  54
BRANCH  41  64
ATOM     64  C   UNL A   1      42.276  23.537  27.991  1.00  0.00    -0.014 A 
ATOM     65  C   UNL A   1      42.834  23.335  26.717  1.00  0.00     0.010 A 
ATOM     66  C   UNL A   1      41.612  22.470  28.624  1.00  0.00     0.010 A 
ATOM     67  C   UNL A   1      42.735  22.091  26.088  1.00  0.00     0.020 A 
ATOM     68  C   UNL A   1      41.535  21.216  28.010  1.00  0.00     0.020 A 
ATOM     69  C   UNL A   1      42.095  21.036  26.744  1.00  0.00     0.054 A 
BRANCH  69  70
ATOM     70  S   UNL A   1      42.059  19.408  25.945  1.00  0.00     0.124 S 
ATOM     71  O   UNL A   1      40.641  19.247  25.643  1.00  0.00    -0.237 OA
ATOM     72  O   UNL A   1      42.934  19.606  24.792  1.00  0.00    -0.237 OA
ATOM     73  O   UNL A   1      42.587  18.511  26.970  1.00  0.00    -0.744 OA
ENDBRANCH  69  70
ENDBRANCH  41  64
BRANCH  53  74
ATOM     74  C   UNL A   1      47.299  26.322  31.962  1.00  0.00    -0.014 A 
ATOM     75  C   UNL A   1      47.410  25.543  33.127  1.00  0.00     0.010 A 
ATOM     76  C   UNL A   1      48.452  26.576  31.196  1.00  0.00     0.010 A 
ATOM     77  C   UNL A   1      48.654  25.052  33.532  1.00  0.00     0.020 A 
ATOM     78  C   UNL A   1      49.692  26.060  31.580  1.00  0.00     0.020 A 
ATOM     79  C   UNL A   1      49.788  25.313  32.755  1.00  0.00     0.054 A 
BRANCH  79  80
ATOM     80  S   UNL A   1      51.381  24.625  33.279  1.00  0.00     0.124 S 
ATOM     81  O   UNL A   1      50.980  23.361  33.891  1.00  0.00    -0.237 OA
ATOM     82  O   UNL A   1      52.110  24.510  32.019  1.00  0.00    -0.237 OA
ATOM     83  O   UNL A   1      51.904  25.627  34.205  1.00  0.00    -0.744 OA
ENDBRANCH  79  80
ENDBRANCH  53  74
ENDBRANCH  27  28
ENDBRANCH  19  22
ENDBRANCH  17  18
ENDBRANCH  16  17
ENDBRANCH   1  16
TORSDOF 18
ENDMDL
MODEL 3
REMARK VINA RESULT:      -8.6      4.702     11.272
REMARK SMILES COC[C@H](O)CC1(C(=O)NCCCNC(=O)c2ccc(-c3c4nc(c(-c5ccc(S(=O)(=O)[O-])cc5)c5ccc([nH]5)c(-c5ccc(S(=O)(=O)[O-])cc5)c5nc(c(-c6ccc(S(=O)(=O)[O-])cc6)c6ccc3[nH]6)C=C5)C=C4)cc2)CC1
REMARK SMILES IDX 11 1 10 2 8 3 9 4 7 6 77 7 78 8 6 9 4 10 3 11 2 12 1 13 5 14
REMARK SMILES IDX 12 16 13 17 14 18 15 19 16 21 17 22 18 23 76 24 19 25 75 26
REMARK SMILES IDX 20 27 21 28 22 29 69 30 23 31 74 32 68 33 70 34 24 35 73 36
REMARK SMILES IDX 67 37 66 38 25 40 55 41 36 42 54 43 37 44 40 45 53 46 71 47
REMARK SMILES IDX 38 48 39 49 52 51 72 52 41 53 26 54 27 55 35 56 28 57 34 58
REMARK SMILES IDX 29 59 30 60 31 61 32 62 33 63 56 64 57 65 65 66 58 67 64 68
REMARK SMILES IDX 59 69 60 70 61 71 62 72 63 73 42 74 43 75 51 76 44 77 50 78
REMARK SMILES IDX 45 79 46 80 47 81 48 82 49 83
REMARK H PARENT 10 5 5 15 14 20 70 39 40 50
REMARK Flexibility Score: inf
ROOT
ATOM      1  C   UNL A   1      33.308  26.710  25.844  1.00  0.00     0.117 C 
ENDROOT
BRANCH   1   2
ATOM      2  N   UNL A   1      33.199  26.939  24.413  1.00  0.00    -0.356 N 
ATOM      3  C   UNL A   1      32.167  27.160  23.547  1.00  0.00     0.226 C 
ATOM      4  O   UNL A   1      32.463  27.221  22.352  1.00  0.00    -0.274 OA
ATOM      5  H   UNL A   1      34.074  26.934  23.963  1.00  0.00     0.163 HD
BRANCH   3   6
ATOM      6  C   UNL A   1      30.714  27.363  23.947  1.00  0.00     0.052 C 
ATOM      7  C   UNL A   1      30.106  26.392  24.948  1.00  0.00     0.018 C 
ATOM      8  C   UNL A   1      29.648  26.370  23.514  1.00  0.00     0.018 C 
BRANCH   6   9
ATOM      9  C   UNL A   1      30.333  28.859  24.068  1.00  0.00     0.051 C 
BRANCH   9  10
ATOM     10  C   UNL A   1      29.590  29.532  22.912  1.00  0.00     0.141 C 
BRANCH  10  11
ATOM     11  C   UNL A   1      28.107  29.100  22.893  1.00  0.00     0.191 C 
BRANCH  11  12
ATOM     12  O   UNL A   1      27.222  30.209  23.110  1.00  0.00    -0.382 OA
ATOM     13  C   UNL A   1      27.887  31.466  23.165  1.00  0.00     0.195 C 
ENDBRANCH  11  12
ENDBRANCH  10  11
BRANCH  10  14
ATOM     14  O   UNL A   1      30.195  29.163  21.667  1.00  0.00    -0.391 OA
ATOM     15  H   UNL A   1      31.147  29.029  21.798  1.00  0.00     0.211 HD
ENDBRANCH  10  14
ENDBRANCH   9  10
ENDBRANCH   6   9
ENDBRANCH   3   6
ENDBRANCH   1   2
BRANCH   1  16
ATOM     16  C   UNL A   1      33.267  28.016  26.626  1.00  0.00     0.042 C 
BRANCH  16  17
ATOM     17  C   UNL A   1      33.999  29.158  25.934  1.00  0.00     0.118 C 
BRANCH  17  18
ATOM     18  N   UNL A   1      33.685  30.456  26.519  1.00  0.00    -0.352 N 
ATOM     19  C   UNL A   1      34.259  31.107  27.583  1.00  0.00     0.251 C 
ATOM     20  H   UNL A   1      32.946  30.940  26.085  1.00  0.00     0.163 HD
ATOM     21  O   UNL A   1      33.706  32.091  28.065  1.00  0.00    -0.269 OA
BRANCH  19  22
ATOM     22  C   UNL A   1      35.528  30.611  28.151  1.00  0.00     0.039 A 
ATOM     23  C   UNL A   1      36.730  31.204  27.758  1.00  0.00     0.014 A 
ATOM     24  C   UNL A   1      35.531  29.560  29.071  1.00  0.00     0.014 A 
ATOM     25  C   UNL A   1      37.927  30.788  28.343  1.00  0.00     0.010 A 
ATOM     26  C   UNL A   1      36.708  29.218  29.724  1.00  0.00     0.010 A 
ATOM     27  C   UNL A   1      37.921  29.819  29.360  1.00  0.00    -0.014 A 
BRANCH  27  28
ATOM     28  C   UNL A   1      39.168  29.415  30.054  1.00  0.00     0.031 A 
ATOM     29  C   UNL A   1      39.599  30.124  31.309  1.00  0.00     0.074 A 
ATOM     30  C   UNL A   1      39.948  28.457  29.517  1.00  0.00     0.049 A 
ATOM     31  N   UNL A   1      40.674  29.942  32.033  1.00  0.00    -0.248 NA
ATOM     32  C   UNL A   1      38.720  31.198  31.799  1.00  0.00     0.031 C 
ATOM     33  C   UNL A   1      39.658  27.721  28.284  1.00  0.00     0.029 A 
ATOM     34  N   UNL A   1      41.144  27.936  29.941  1.00  0.00    -0.354 N 
ATOM     35  C   UNL A   1      40.609  30.888  33.049  1.00  0.00     0.074 A 
ATOM     36  C   UNL A   1      39.425  31.683  32.810  1.00  0.00     0.031 C 
ATOM     37  C   UNL A   1      40.624  26.812  28.078  1.00  0.00     0.029 A 
ATOM     38  C   UNL A   1      41.625  26.934  29.133  1.00  0.00     0.049 A 
ATOM     39  H   UNL A   1      41.613  28.250  30.748  1.00  0.00     0.167 HD
ATOM     40  C   UNL A   1      41.446  31.066  34.099  1.00  0.00     0.031 A 
ATOM     41  C   UNL A   1      42.747  26.193  29.230  1.00  0.00     0.031 A 
ATOM     42  C   UNL A   1      42.627  30.277  34.326  1.00  0.00     0.049 A 
ATOM     43  C   UNL A   1      43.682  26.429  30.382  1.00  0.00     0.074 A 
ATOM     44  C   UNL A   1      43.517  30.341  35.384  1.00  0.00     0.029 A 
ATOM     45  N   UNL A   1      43.091  29.285  33.473  1.00  0.00    -0.354 N 
ATOM     46  N   UNL A   1      43.571  27.283  31.372  1.00  0.00    -0.248 NA
ATOM     47  C   UNL A   1      44.889  25.595  30.435  1.00  0.00     0.031 C 
ATOM     48  C   UNL A   1      44.553  29.434  35.137  1.00  0.00     0.029 A 
ATOM     49  C   UNL A   1      44.273  28.753  33.962  1.00  0.00     0.049 A 
ATOM     50  H   UNL A   1      42.646  29.002  32.641  1.00  0.00     0.167 HD
ATOM     51  C   UNL A   1      44.679  27.068  32.184  1.00  0.00     0.074 A 
ATOM     52  C   UNL A   1      45.441  25.997  31.572  1.00  0.00     0.031 C 
ATOM     53  C   UNL A   1      45.029  27.696  33.335  1.00  0.00     0.031 A 
BRANCH  40  54
ATOM     54  C   UNL A   1      41.115  32.182  35.061  1.00  0.00    -0.014 A 
ATOM     55  C   UNL A   1      41.551  33.500  34.830  1.00  0.00     0.010 A 
ATOM     56  C   UNL A   1      40.372  31.904  36.223  1.00  0.00     0.010 A 
ATOM     57  C   UNL A   1      41.318  34.501  35.777  1.00  0.00     0.020 A 
ATOM     58  C   UNL A   1      40.103  32.912  37.155  1.00  0.00     0.020 A 
ATOM     59  C   UNL A   1      40.603  34.196  36.940  1.00  0.00     0.054 A 
BRANCH  59  60
ATOM     60  S   UNL A   1      40.342  35.506  38.167  1.00  0.00     0.124 S 
ATOM     61  O   UNL A   1      39.101  35.075  38.806  1.00  0.00    -0.237 OA
ATOM     62  O   UNL A   1      41.540  35.411  38.997  1.00  0.00    -0.237 OA
ATOM     63  O   UNL A   1      40.239  36.720  37.363  1.00  0.00    -0.744 OA
ENDBRANCH  59  60
ENDBRANCH  40  54
BRANCH  41  64
ATOM     64  C   UNL A   1      43.012  25.128  28.225  1.00  0.00    -0.014 A 
ATOM     65  C   UNL A   1      43.632  25.449  27.004  1.00  0.00     0.010 A 
ATOM     66  C   UNL A   1      42.699  23.784  28.500  1.00  0.00     0.010 A 
ATOM     67  C   UNL A   1      43.936  24.447  26.079  1.00  0.00     0.020 A 
ATOM     68  C   UNL A   1      43.027  22.776  27.589  1.00  0.00     0.020 A 
ATOM     69  C   UNL A   1      43.642  23.115  26.382  1.00  0.00     0.054 A 
BRANCH  69  70
ATOM     70  S   UNL A   1      44.129  21.825  25.203  1.00  0.00     0.124 S 
ATOM     71  O   UNL A   1      43.112  20.804  25.430  1.00  0.00    -0.237 OA
ATOM     72  O   UNL A   1      44.050  22.525  23.923  1.00  0.00    -0.237 OA
ATOM     73  O   UNL A   1      45.481  21.468  25.626  1.00  0.00    -0.744 OA
ENDBRANCH  69  70
ENDBRANCH  41  64
BRANCH  53  74
ATOM     74  C   UNL A   1      46.279  27.222  34.030  1.00  0.00    -0.014 A 
ATOM     75  C   UNL A   1      46.247  26.173  34.965  1.00  0.00     0.010 A 
ATOM     76  C   UNL A   1      47.517  27.805  33.698  1.00  0.00     0.010 A 
ATOM     77  C   UNL A   1      47.425  25.736  35.578  1.00  0.00     0.020 A 
ATOM     78  C   UNL A   1      48.700  27.350  34.284  1.00  0.00     0.020 A 
ATOM     79  C   UNL A   1      48.645  26.327  35.232  1.00  0.00     0.054 A 
BRANCH  79  80
ATOM     80  S   UNL A   1      50.163  25.710  36.007  1.00  0.00     0.124 S 
ATOM     81  O   UNL A   1      50.316  24.401  35.377  1.00  0.00    -0.237 OA
ATOM     82  O   UNL A   1      51.151  26.713  35.620  1.00  0.00    -0.237 OA
ATOM     83  O   UNL A   1      49.839  25.680  37.432  1.00  0.00    -0.744 OA
ENDBRANCH  79  80
ENDBRANCH  53  74
ENDBRANCH  27  28
ENDBRANCH  19  22
ENDBRANCH  17  18
ENDBRANCH  16  17
ENDBRANCH   1  16
TORSDOF 18
ENDMDL
