MODEL 1
REMARK VINA RESULT:     -11.7      0.000      0.000
REMARK SMILES O=C(NCCCNC(=O)[C@@H]1CCC[C@@H](C(=O)N2CCN3C(=O)NC[C@@H]3C2)C1)c1ccc(-c2c3nc(c(-c4ccc(S(=O)(=O)[O-])cc4)c4ccc([nH]4)c(-c4ccc(S(=O)(=O)[O-])cc4)c4nc(c(-c5ccc(S(=O)(=O)[O-])cc5)c5ccc2[nH]5)C=C4)C=C3)cc1
REMARK SMILES IDX 4 1 3 2 1 3 2 4 28 6 29 7 87 8 30 9 86 10 31 11 32 12 33 13
REMARK SMILES IDX 80 14 34 15 85 16 79 17 81 18 35 19 84 20 78 21 77 22 36 24
REMARK SMILES IDX 66 25 47 26 65 27 48 28 51 29 64 30 82 31 49 32 50 33 63 35
REMARK SMILES IDX 83 36 52 37 37 38 38 39 46 40 39 41 45 42 40 43 41 44 42 45
REMARK SMILES IDX 43 46 44 47 67 48 68 49 76 50 69 51 75 52 70 53 71 54 72 55
REMARK SMILES IDX 73 56 74 57 53 58 54 59 62 60 55 61 61 62 56 63 57 64 58 65
REMARK SMILES IDX 59 66 60 67 5 68 6 69 7 70 8 71 9 73 10 74 11 75 27 76 12 77
REMARK SMILES IDX 14 78 13 79 15 80 16 81 17 82 18 83 26 84 19 85 25 86 20 87
REMARK SMILES IDX 24 88 21 89 23 90 22 91
REMARK H PARENT 3 5 81 23 51 34 7 72 23 92
REMARK Flexibility Score: inf
ROOT
ATOM      1  C   UNL A   1      33.918  28.512  27.232  1.00  0.00     0.118 C 
ENDROOT
BRANCH   1   2
ATOM      2  N   UNL A   1      33.814  29.912  27.634  1.00  0.00    -0.352 N 
ATOM      3  O   UNL A   1      34.288  31.730  28.872  1.00  0.00    -0.269 OA
ATOM      4  C   UNL A   1      34.675  30.673  28.382  1.00  0.00     0.251 C 
ATOM      5  H   UNL A   1      33.005  30.379  27.321  1.00  0.00     0.163 HD
BRANCH   4   6
ATOM      6  C   UNL A   1      36.064  30.218  28.580  1.00  0.00     0.039 A 
ATOM      7  C   UNL A   1      37.002  30.385  27.558  1.00  0.00     0.014 A 
ATOM      8  C   UNL A   1      36.445  29.668  29.805  1.00  0.00     0.014 A 
ATOM      9  C   UNL A   1      38.285  29.882  27.708  1.00  0.00     0.010 A 
ATOM     10  C   UNL A   1      37.767  29.259  29.993  1.00  0.00     0.010 A 
ATOM     11  C   UNL A   1      38.692  29.354  28.940  1.00  0.00    -0.014 A 
BRANCH  11  12
ATOM     12  C   UNL A   1      40.122  29.024  29.140  1.00  0.00     0.031 A 
ATOM     13  C   UNL A   1      40.680  27.697  28.720  1.00  0.00     0.074 A 
ATOM     14  C   UNL A   1      40.911  29.956  29.713  1.00  0.00     0.049 A 
ATOM     15  N   UNL A   1      41.903  27.249  28.846  1.00  0.00    -0.248 NA
ATOM     16  C   UNL A   1      39.755  26.746  28.085  1.00  0.00     0.031 C 
ATOM     17  C   UNL A   1      40.463  31.279  30.161  1.00  0.00     0.029 A 
ATOM     18  N   UNL A   1      42.249  29.944  30.010  1.00  0.00    -0.354 N 
ATOM     19  C   UNL A   1      41.890  25.959  28.334  1.00  0.00     0.074 A 
ATOM     20  C   UNL A   1      40.535  25.687  27.906  1.00  0.00     0.031 C 
ATOM     21  C   UNL A   1      41.512  31.963  30.640  1.00  0.00     0.029 A 
ATOM     22  C   UNL A   1      42.685  31.101  30.611  1.00  0.00     0.049 A 
ATOM     23  H   UNL A   1      42.839  29.182  29.811  1.00  0.00     0.167 HD
ATOM     24  C   UNL A   1      42.920  25.083  28.236  1.00  0.00     0.031 A 
ATOM     25  C   UNL A   1      43.887  31.423  31.123  1.00  0.00     0.031 A 
ATOM     26  C   UNL A   1      44.263  25.374  28.670  1.00  0.00     0.049 A 
ATOM     27  C   UNL A   1      44.994  30.413  31.043  1.00  0.00     0.074 A 
ATOM     28  C   UNL A   1      45.388  24.575  28.568  1.00  0.00     0.029 A 
ATOM     29  N   UNL A   1      44.660  26.544  29.302  1.00  0.00    -0.354 N 
ATOM     30  N   UNL A   1      44.979  29.220  30.498  1.00  0.00    -0.248 NA
ATOM     31  C   UNL A   1      46.279  30.788  31.648  1.00  0.00     0.031 C 
ATOM     32  C   UNL A   1      46.447  25.229  29.205  1.00  0.00     0.029 A 
ATOM     33  C   UNL A   1      46.001  26.469  29.637  1.00  0.00     0.049 A 
ATOM     34  H   UNL A   1      44.074  27.313  29.486  1.00  0.00     0.167 HD
ATOM     35  C   UNL A   1      46.257  28.707  30.679  1.00  0.00     0.074 A 
ATOM     36  C   UNL A   1      47.025  29.730  31.362  1.00  0.00     0.031 C 
ATOM     37  C   UNL A   1      46.749  27.497  30.318  1.00  0.00     0.031 A 
BRANCH  24  38
ATOM     38  C   UNL A   1      42.637  23.713  27.678  1.00  0.00    -0.014 A 
ATOM     39  C   UNL A   1      42.805  23.424  26.313  1.00  0.00     0.010 A 
ATOM     40  C   UNL A   1      42.271  22.673  28.554  1.00  0.00     0.010 A 
ATOM     41  C   UNL A   1      42.586  22.130  25.830  1.00  0.00     0.020 A 
ATOM     42  C   UNL A   1      42.079  21.372  28.081  1.00  0.00     0.020 A 
ATOM     43  C   UNL A   1      42.226  21.111  26.718  1.00  0.00     0.054 A 
BRANCH  43  44
ATOM     44  S   UNL A   1      41.988  19.434  26.068  1.00  0.00     0.124 S 
ATOM     45  O   UNL A   1      40.553  19.417  25.794  1.00  0.00    -0.237 OA
ATOM     46  O   UNL A   1      42.853  19.423  24.891  1.00  0.00    -0.237 OA
ATOM     47  O   UNL A   1      42.422  18.570  27.164  1.00  0.00    -0.744 OA
ENDBRANCH  43  44
ENDBRANCH  24  38
BRANCH  25  48
ATOM     48  C   UNL A   1      44.080  32.736  31.797  1.00  0.00    -0.014 A 
ATOM     49  C   UNL A   1      43.836  32.884  33.172  1.00  0.00     0.010 A 
ATOM     50  C   UNL A   1      44.523  33.849  31.057  1.00  0.00     0.010 A 
ATOM     51  C   UNL A   1      44.007  34.127  33.788  1.00  0.00     0.020 A 
ATOM     52  C   UNL A   1      44.730  35.082  31.677  1.00  0.00     0.020 A 
ATOM     53  C   UNL A   1      44.453  35.218  33.037  1.00  0.00     0.054 A 
BRANCH  53  54
ATOM     54  S   UNL A   1      44.691  36.813  33.865  1.00  0.00     0.124 S 
ATOM     55  O   UNL A   1      45.082  36.401  35.209  1.00  0.00    -0.237 OA
ATOM     56  O   UNL A   1      45.741  37.432  33.060  1.00  0.00    -0.237 OA
ATOM     57  O   UNL A   1      43.380  37.452  33.763  1.00  0.00    -0.744 OA
ENDBRANCH  53  54
ENDBRANCH  25  48
BRANCH  37  58
ATOM     58  C   UNL A   1      48.195  27.220  30.630  1.00  0.00    -0.014 A 
ATOM     59  C   UNL A   1      48.564  26.460  31.755  1.00  0.00     0.010 A 
ATOM     60  C   UNL A   1      49.193  27.669  29.746  1.00  0.00     0.010 A 
ATOM     61  C   UNL A   1      49.908  26.172  31.999  1.00  0.00     0.020 A 
ATOM     62  C   UNL A   1      50.535  27.354  29.971  1.00  0.00     0.020 A 
ATOM     63  C   UNL A   1      50.884  26.615  31.102  1.00  0.00     0.054 A 
BRANCH  63  64
ATOM     64  S   UNL A   1      52.613  26.166  31.407  1.00  0.00     0.124 S 
ATOM     65  O   UNL A   1      53.061  27.249  32.279  1.00  0.00    -0.237 OA
ATOM     66  O   UNL A   1      52.495  24.856  32.042  1.00  0.00    -0.237 OA
ATOM     67  O   UNL A   1      53.211  26.154  30.073  1.00  0.00    -0.744 OA
ENDBRANCH  63  64
ENDBRANCH  37  58
ENDBRANCH  11  12
ENDBRANCH   4   6
ENDBRANCH   1   2
BRANCH   1  68
ATOM     68  C   UNL A   1      33.408  28.296  25.812  1.00  0.00     0.042 C 
BRANCH  68  69
ATOM     69  C   UNL A   1      33.073  29.609  25.119  1.00  0.00     0.117 C 
BRANCH  69  70
ATOM     70  N   UNL A   1      31.714  29.602  24.606  1.00  0.00    -0.356 N 
ATOM     71  C   UNL A   1      30.893  28.658  24.100  1.00  0.00     0.223 C 
ATOM     72  H   UNL A   1      31.295  30.493  24.635  1.00  0.00     0.163 HD
ATOM     73  O   UNL A   1      29.845  29.091  23.599  1.00  0.00    -0.275 OA
BRANCH  71  74
ATOM     74  C   UNL A   1      31.125  27.143  24.140  1.00  0.00     0.079 C 
ATOM     75  C   UNL A   1      31.031  26.657  22.681  1.00  0.00     0.013 C 
ATOM     76  C   UNL A   1      30.235  26.283  25.030  1.00  0.00     0.027 C 
ATOM     77  C   UNL A   1      31.295  25.169  22.527  1.00  0.00     0.002 C 
ATOM     78  C   UNL A   1      30.521  24.776  24.939  1.00  0.00     0.079 C 
ATOM     79  C   UNL A   1      30.465  24.318  23.483  1.00  0.00     0.013 C 
BRANCH  78  80
ATOM     80  C   UNL A   1      31.642  24.343  25.910  1.00  0.00     0.225 C 
ATOM     81  O   UNL A   1      31.373  24.168  27.103  1.00  0.00    -0.275 OA
BRANCH  80  82
ATOM     82  N   UNL A   1      32.875  23.951  25.412  1.00  0.00    -0.339 N 
ATOM     83  C   UNL A   1      34.103  24.581  25.912  1.00  0.00     0.141 C 
ATOM     84  C   UNL A   1      32.992  22.583  24.876  1.00  0.00     0.146 C 
ATOM     85  C   UNL A   1      35.414  23.785  25.819  1.00  0.00     0.143 C 
ATOM     86  C   UNL A   1      33.949  21.727  25.699  1.00  0.00     0.125 C 
ATOM     87  N   UNL A   1      35.255  22.355  25.778  1.00  0.00    -0.317 N 
ATOM     88  C   UNL A   1      34.273  20.364  25.087  1.00  0.00     0.144 C 
ATOM     89  C   UNL A   1      36.281  21.449  25.589  1.00  0.00     0.317 C 
ATOM     90  N   UNL A   1      35.698  20.232  25.280  1.00  0.00    -0.336 N 
ATOM     91  O   UNL A   1      37.476  21.672  25.621  1.00  0.00    -0.249 OA
ATOM     92  H   UNL A   1      36.191  19.384  25.203  1.00  0.00     0.165 HD
ENDBRANCH  80  82
ENDBRANCH  78  80
ENDBRANCH  71  74
ENDBRANCH  69  70
ENDBRANCH  68  69
ENDBRANCH   1  68
TORSDOF 15
ENDMDL
MODEL 2
REMARK VINA RESULT:     -11.7      4.347      9.564
REMARK SMILES O=C(NCCCNC(=O)[C@@H]1CCC[C@@H](C(=O)N2CCN3C(=O)NC[C@@H]3C2)C1)c1ccc(-c2c3nc(c(-c4ccc(S(=O)(=O)[O-])cc4)c4ccc([nH]4)c(-c4ccc(S(=O)(=O)[O-])cc4)c4nc(c(-c5ccc(S(=O)(=O)[O-])cc5)c5ccc2[nH]5)C=C4)C=C3)cc1
REMARK SMILES IDX 4 1 3 2 1 3 2 4 28 6 29 7 87 8 30 9 86 10 31 11 32 12 33 13
REMARK SMILES IDX 80 14 34 15 85 16 79 17 81 18 35 19 84 20 78 21 77 22 36 24
REMARK SMILES IDX 66 25 47 26 65 27 48 28 51 29 64 30 82 31 49 32 50 33 63 35
REMARK SMILES IDX 83 36 52 37 37 38 38 39 46 40 39 41 45 42 40 43 41 44 42 45
REMARK SMILES IDX 43 46 44 47 67 48 68 49 76 50 69 51 75 52 70 53 71 54 72 55
REMARK SMILES IDX 73 56 74 57 53 58 54 59 62 60 55 61 61 62 56 63 57 64 58 65
REMARK SMILES IDX 59 66 60 67 5 68 6 69 7 70 8 71 9 73 10 74 11 75 27 76 12 77
REMARK SMILES IDX 14 78 13 79 15 80 16 81 17 82 18 83 26 84 19 85 25 86 20 87
REMARK SMILES IDX 24 88 21 89 23 90 22 91
REMARK H PARENT 3 5 81 23 51 34 7 72 23 92
REMARK Flexibility Score: inf
ROOT
ATOM      1  C   UNL A   1      32.880  32.853  27.445  1.00  0.00     0.118 C 
ENDROOT
BRANCH   1   2
ATOM      2  N   UNL A   1      32.706  34.256  27.811  1.00  0.00    -0.352 N 
ATOM      3  O   UNL A   1      32.716  36.030  29.195  1.00  0.00    -0.269 OA
ATOM      4  C   UNL A   1      33.205  34.949  28.884  1.00  0.00     0.251 C 
ATOM      5  H   UNL A   1      32.146  34.783  27.196  1.00  0.00     0.163 HD
BRANCH   4   6
ATOM      6  C   UNL A   1      34.337  34.390  29.647  1.00  0.00     0.039 A 
ATOM      7  C   UNL A   1      34.100  33.702  30.840  1.00  0.00     0.014 A 
ATOM      8  C   UNL A   1      35.636  34.509  29.147  1.00  0.00     0.014 A 
ATOM      9  C   UNL A   1      35.166  33.250  31.601  1.00  0.00     0.010 A 
ATOM     10  C   UNL A   1      36.701  33.960  29.864  1.00  0.00     0.010 A 
ATOM     11  C   UNL A   1      36.473  33.336  31.101  1.00  0.00    -0.014 A 
BRANCH  11  12
ATOM     12  C   UNL A   1      37.566  32.656  31.833  1.00  0.00     0.031 A 
ATOM     13  C   UNL A   1      38.055  33.169  33.155  1.00  0.00     0.074 A 
ATOM     14  C   UNL A   1      38.111  31.556  31.274  1.00  0.00     0.049 A 
ATOM     15  N   UNL A   1      39.015  32.699  33.908  1.00  0.00    -0.248 NA
ATOM     16  C   UNL A   1      37.391  34.363  33.702  1.00  0.00     0.031 C 
ATOM     17  C   UNL A   1      37.709  30.977  29.987  1.00  0.00     0.029 A 
ATOM     18  N   UNL A   1      39.109  30.724  31.711  1.00  0.00    -0.354 N 
ATOM     19  C   UNL A   1      39.092  33.551  35.002  1.00  0.00     0.074 A 
ATOM     20  C   UNL A   1      38.089  34.577  34.810  1.00  0.00     0.031 C 
ATOM     21  C   UNL A   1      38.425  29.867  29.759  1.00  0.00     0.029 A 
ATOM     22  C   UNL A   1      39.391  29.702  30.835  1.00  0.00     0.049 A 
ATOM     23  H   UNL A   1      39.576  30.847  32.568  1.00  0.00     0.167 HD
ATOM     24  C   UNL A   1      39.929  33.480  36.065  1.00  0.00     0.031 A 
ATOM     25  C   UNL A   1      40.348  28.757  30.870  1.00  0.00     0.031 A 
ATOM     26  C   UNL A   1      40.922  32.450  36.235  1.00  0.00     0.049 A 
ATOM     27  C   UNL A   1      41.291  28.735  32.037  1.00  0.00     0.074 A 
ATOM     28  C   UNL A   1      41.785  32.258  37.300  1.00  0.00     0.029 A 
ATOM     29  N   UNL A   1      41.199  31.450  35.313  1.00  0.00    -0.354 N 
ATOM     30  N   UNL A   1      41.307  29.512  33.094  1.00  0.00    -0.248 NA
ATOM     31  C   UNL A   1      42.346  27.714  32.018  1.00  0.00     0.031 C 
ATOM     32  C   UNL A   1      42.632  31.192  36.989  1.00  0.00     0.029 A 
ATOM     33  C   UNL A   1      42.250  30.668  35.764  1.00  0.00     0.049 A 
ATOM     34  H   UNL A   1      40.720  31.317  34.464  1.00  0.00     0.167 HD
ATOM     35  C   UNL A   1      42.364  29.062  33.875  1.00  0.00     0.074 A 
ATOM     36  C   UNL A   1      42.945  27.931  33.180  1.00  0.00     0.031 C 
ATOM     37  C   UNL A   1      42.816  29.546  35.058  1.00  0.00     0.031 A 
BRANCH  24  38
ATOM     38  C   UNL A   1      39.844  34.561  37.110  1.00  0.00    -0.014 A 
ATOM     39  C   UNL A   1      40.603  35.740  37.015  1.00  0.00     0.010 A 
ATOM     40  C   UNL A   1      38.925  34.426  38.169  1.00  0.00     0.010 A 
ATOM     41  C   UNL A   1      40.466  36.750  37.972  1.00  0.00     0.020 A 
ATOM     42  C   UNL A   1      38.764  35.445  39.111  1.00  0.00     0.020 A 
ATOM     43  C   UNL A   1      39.545  36.598  39.014  1.00  0.00     0.054 A 
BRANCH  43  44
ATOM     44  S   UNL A   1      39.361  37.943  40.217  1.00  0.00     0.124 S 
ATOM     45  O   UNL A   1      38.205  38.664  39.689  1.00  0.00    -0.237 OA
ATOM     46  O   UNL A   1      39.134  37.223  41.467  1.00  0.00    -0.237 OA
ATOM     47  O   UNL A   1      40.631  38.660  40.136  1.00  0.00    -0.744 OA
ENDBRANCH  43  44
ENDBRANCH  24  38
BRANCH  25  48
ATOM     48  C   UNL A   1      40.486  27.798  29.741  1.00  0.00    -0.014 A 
ATOM     49  C   UNL A   1      41.498  27.955  28.780  1.00  0.00     0.010 A 
ATOM     50  C   UNL A   1      39.601  26.709  29.630  1.00  0.00     0.010 A 
ATOM     51  C   UNL A   1      41.607  27.055  27.716  1.00  0.00     0.020 A 
ATOM     52  C   UNL A   1      39.729  25.787  28.590  1.00  0.00     0.020 A 
ATOM     53  C   UNL A   1      40.721  25.976  27.628  1.00  0.00     0.054 A 
BRANCH  53  54
ATOM     54  S   UNL A   1      40.898  24.808  26.253  1.00  0.00     0.124 S 
ATOM     55  O   UNL A   1      41.188  25.699  25.134  1.00  0.00    -0.237 OA
ATOM     56  O   UNL A   1      42.007  23.966  26.697  1.00  0.00    -0.237 OA
ATOM     57  O   UNL A   1      39.600  24.139  26.201  1.00  0.00    -0.744 OA
ENDBRANCH  53  54
ENDBRANCH  25  48
BRANCH  37  58
ATOM     58  C   UNL A   1      43.981  28.836  35.692  1.00  0.00    -0.014 A 
ATOM     59  C   UNL A   1      45.303  29.255  35.457  1.00  0.00     0.010 A 
ATOM     60  C   UNL A   1      43.744  27.780  36.590  1.00  0.00     0.010 A 
ATOM     61  C   UNL A   1      46.368  28.615  36.094  1.00  0.00     0.020 A 
ATOM     62  C   UNL A   1      44.805  27.160  37.254  1.00  0.00     0.020 A 
ATOM     63  C   UNL A   1      46.111  27.576  36.994  1.00  0.00     0.054 A 
BRANCH  63  64
ATOM     64  S   UNL A   1      47.508  26.811  37.860  1.00  0.00     0.124 S 
ATOM     65  O   UNL A   1      47.771  25.633  37.037  1.00  0.00    -0.237 OA
ATOM     66  O   UNL A   1      48.528  27.856  37.805  1.00  0.00    -0.237 OA
ATOM     67  O   UNL A   1      46.980  26.532  39.194  1.00  0.00    -0.744 OA
ENDBRANCH  63  64
ENDBRANCH  37  58
ENDBRANCH  11  12
ENDBRANCH   4   6
ENDBRANCH   1   2
BRANCH   1  68
ATOM     68  C   UNL A   1      31.615  32.273  26.824  1.00  0.00     0.042 C 
BRANCH  68  69
ATOM     69  C   UNL A   1      31.761  30.792  26.507  1.00  0.00     0.117 C 
BRANCH  69  70
ATOM     70  N   UNL A   1      33.065  30.293  26.907  1.00  0.00    -0.356 N 
ATOM     71  C   UNL A   1      33.667  29.086  26.892  1.00  0.00     0.223 C 
ATOM     72  H   UNL A   1      33.643  31.000  27.276  1.00  0.00     0.163 HD
ATOM     73  O   UNL A   1      34.748  29.032  27.496  1.00  0.00    -0.275 OA
BRANCH  71  74
ATOM     74  C   UNL A   1      33.159  27.832  26.169  1.00  0.00     0.079 C 
ATOM     75  C   UNL A   1      33.164  28.173  24.667  1.00  0.00     0.013 C 
ATOM     76  C   UNL A   1      31.808  27.248  26.562  1.00  0.00     0.027 C 
ATOM     77  C   UNL A   1      32.739  27.010  23.786  1.00  0.00     0.002 C 
ATOM     78  C   UNL A   1      31.379  26.032  25.727  1.00  0.00     0.079 C 
ATOM     79  C   UNL A   1      31.429  26.373  24.240  1.00  0.00     0.013 C 
BRANCH  78  80
ATOM     80  C   UNL A   1      31.940  24.712  26.302  1.00  0.00     0.225 C 
ATOM     81  O   UNL A   1      31.387  24.195  27.279  1.00  0.00    -0.275 OA
BRANCH  80  82
ATOM     82  N   UNL A   1      32.911  24.011  25.604  1.00  0.00    -0.339 N 
ATOM     83  C   UNL A   1      34.333  24.278  25.855  1.00  0.00     0.141 C 
ATOM     84  C   UNL A   1      32.559  22.672  25.099  1.00  0.00     0.146 C 
ATOM     85  C   UNL A   1      35.344  23.161  25.555  1.00  0.00     0.143 C 
ATOM     86  C   UNL A   1      33.384  21.576  25.765  1.00  0.00     0.125 C 
ATOM     87  N   UNL A   1      34.803  21.827  25.588  1.00  0.00    -0.317 N 
ATOM     88  C   UNL A   1      33.215  20.186  25.148  1.00  0.00     0.144 C 
ATOM     89  C   UNL A   1      35.497  20.682  25.247  1.00  0.00     0.317 C 
ATOM     90  N   UNL A   1      34.563  19.673  25.087  1.00  0.00    -0.336 N 
ATOM     91  O   UNL A   1      36.693  20.575  25.058  1.00  0.00    -0.249 OA
ATOM     92  H   UNL A   1      34.788  18.724  24.950  1.00  0.00     0.165 HD
ENDBRANCH  80  82
ENDBRANCH  78  80
ENDBRANCH  71  74
ENDBRANCH  69  70
ENDBRANCH  68  69
ENDBRANCH   1  68
TORSDOF 15
ENDMDL
MODEL 3
REMARK VINA RESULT:     -11.6      3.316      9.313
REMARK SMILES O=C(NCCCNC(=O)[C@@H]1CCC[C@@H](C(=O)N2CCN3C(=O)NC[C@@H]3C2)C1)c1ccc(-c2c3nc(c(-c4ccc(S(=O)(=O)[O-])cc4)c4ccc([nH]4)c(-c4ccc(S(=O)(=O)[O-])cc4)c4nc(c(-c5ccc(S(=O)(=O)[O-])cc5)c5ccc2[nH]5)C=C4)C=C3)cc1
REMARK SMILES IDX 4 1 3 2 1 3 2 4 28 6 29 7 87 8 30 9 86 10 31 11 32 12 33 13
REMARK SMILES IDX 80 14 34 15 85 16 79 17 81 18 35 19 84 20 78 21 77 22 36 24
REMARK SMILES IDX 66 25 47 26 65 27 48 28 51 29 64 30 82 31 49 32 50 33 63 35
REMARK SMILES IDX 83 36 52 37 37 38 38 39 46 40 39 41 45 42 40 43 41 44 42 45
REMARK SMILES IDX 43 46 44 47 67 48 68 49 76 50 69 51 75 52 70 53 71 54 72 55
REMARK SMILES IDX 73 56 74 57 53 58 54 59 62 60 55 61 61 62 56 63 57 64 58 65
REMARK SMILES IDX 59 66 60 67 5 68 6 69 7 70 8 71 9 73 10 74 11 75 27 76 12 77
REMARK SMILES IDX 14 78 13 79 15 80 16 81 17 82 18 83 26 84 19 85 25 86 20 87
REMARK SMILES IDX 24 88 21 89 23 90 22 91
REMARK H PARENT 3 5 81 23 51 34 7 72 23 92
REMARK Flexibility Score: inf
ROOT
ATOM      1  C   UNL A   1      39.309  20.344  25.710  1.00  0.00     0.118 C 
ENDROOT
BRANCH   1   2
ATOM      2  N   UNL A   1      40.313  19.314  25.963  1.00  0.00    -0.352 N 
ATOM      3  O   UNL A   1      42.386  18.441  26.015  1.00  0.00    -0.269 OA
ATOM      4  C   UNL A   1      41.672  19.434  26.109  1.00  0.00     0.251 C 
ATOM      5  H   UNL A   1      39.962  18.397  26.040  1.00  0.00     0.163 HD
BRANCH   4   6
ATOM      6  C   UNL A   1      42.259  20.757  26.391  1.00  0.00     0.039 A 
ATOM      7  C   UNL A   1      42.634  21.591  25.335  1.00  0.00     0.014 A 
ATOM      8  C   UNL A   1      42.391  21.189  27.712  1.00  0.00     0.014 A 
ATOM      9  C   UNL A   1      43.263  22.797  25.596  1.00  0.00     0.010 A 
ATOM     10  C   UNL A   1      42.928  22.451  27.973  1.00  0.00     0.010 A 
ATOM     11  C   UNL A   1      43.377  23.259  26.915  1.00  0.00    -0.014 A 
BRANCH  11  12
ATOM     12  C   UNL A   1      43.856  24.640  27.151  1.00  0.00     0.031 A 
ATOM     13  C   UNL A   1      42.909  25.739  27.530  1.00  0.00     0.074 A 
ATOM     14  C   UNL A   1      45.177  24.881  27.017  1.00  0.00     0.049 A 
ATOM     15  N   UNL A   1      43.170  27.002  27.749  1.00  0.00    -0.248 NA
ATOM     16  C   UNL A   1      41.488  25.385  27.675  1.00  0.00     0.031 C 
ATOM     17  C   UNL A   1      46.184  23.880  26.649  1.00  0.00     0.029 A 
ATOM     18  N   UNL A   1      45.903  26.032  27.180  1.00  0.00    -0.354 N 
ATOM     19  C   UNL A   1      41.948  27.599  28.030  1.00  0.00     0.074 A 
ATOM     20  C   UNL A   1      40.940  26.564  27.941  1.00  0.00     0.031 C 
ATOM     21  C   UNL A   1      47.397  24.450  26.650  1.00  0.00     0.029 A 
ATOM     22  C   UNL A   1      47.247  25.869  26.936  1.00  0.00     0.049 A 
ATOM     23  H   UNL A   1      45.501  26.890  27.447  1.00  0.00     0.167 HD
ATOM     24  C   UNL A   1      41.696  28.896  28.330  1.00  0.00     0.031 A 
ATOM     25  C   UNL A   1      48.246  26.769  26.904  1.00  0.00     0.031 A 
ATOM     26  C   UNL A   1      42.715  29.912  28.413  1.00  0.00     0.049 A 
ATOM     27  C   UNL A   1      47.927  28.207  27.194  1.00  0.00     0.074 A 
ATOM     28  C   UNL A   1      42.572  31.244  28.760  1.00  0.00     0.029 A 
ATOM     29  N   UNL A   1      44.059  29.716  28.129  1.00  0.00    -0.354 N 
ATOM     30  N   UNL A   1      46.774  28.741  27.519  1.00  0.00    -0.248 NA
ATOM     31  C   UNL A   1      49.038  29.163  27.109  1.00  0.00     0.031 C 
ATOM     32  C   UNL A   1      43.813  31.869  28.613  1.00  0.00     0.029 A 
ATOM     33  C   UNL A   1      44.747  30.913  28.248  1.00  0.00     0.049 A 
ATOM     34  H   UNL A   1      44.464  28.855  27.879  1.00  0.00     0.167 HD
ATOM     35  C   UNL A   1      47.025  30.096  27.696  1.00  0.00     0.074 A 
ATOM     36  C   UNL A   1      48.443  30.293  27.465  1.00  0.00     0.031 C 
ATOM     37  C   UNL A   1      46.159  31.089  28.014  1.00  0.00     0.031 A 
BRANCH  24  38
ATOM     38  C   UNL A   1      40.265  29.309  28.553  1.00  0.00    -0.014 A 
ATOM     39  C   UNL A   1      39.790  29.663  29.828  1.00  0.00     0.010 A 
ATOM     40  C   UNL A   1      39.399  29.421  27.448  1.00  0.00     0.010 A 
ATOM     41  C   UNL A   1      38.470  30.093  29.997  1.00  0.00     0.020 A 
ATOM     42  C   UNL A   1      38.088  29.877  27.609  1.00  0.00     0.020 A 
ATOM     43  C   UNL A   1      37.628  30.200  28.886  1.00  0.00     0.054 A 
BRANCH  43  44
ATOM     44  S   UNL A   1      35.933  30.799  29.132  1.00  0.00     0.124 S 
ATOM     45  O   UNL A   1      35.875  30.953  30.584  1.00  0.00    -0.237 OA
ATOM     46  O   UNL A   1      35.922  32.044  28.369  1.00  0.00    -0.237 OA
ATOM     47  O   UNL A   1      35.101  29.729  28.586  1.00  0.00    -0.744 OA
ENDBRANCH  43  44
ENDBRANCH  24  38
BRANCH  25  48
ATOM     48  C   UNL A   1      49.622  26.338  26.535  1.00  0.00    -0.014 A 
ATOM     49  C   UNL A   1      50.467  25.734  27.481  1.00  0.00     0.010 A 
ATOM     50  C   UNL A   1      50.089  26.522  25.220  1.00  0.00     0.010 A 
ATOM     51  C   UNL A   1      51.762  25.348  27.125  1.00  0.00     0.020 A 
ATOM     52  C   UNL A   1      51.369  26.104  24.851  1.00  0.00     0.020 A 
ATOM     53  C   UNL A   1      52.205  25.535  25.812  1.00  0.00     0.054 A 
BRANCH  53  54
ATOM     54  S   UNL A   1      53.880  25.002  25.368  1.00  0.00     0.124 S 
ATOM     55  O   UNL A   1      53.729  23.552  25.304  1.00  0.00    -0.237 OA
ATOM     56  O   UNL A   1      54.095  25.675  24.089  1.00  0.00    -0.237 OA
ATOM     57  O   UNL A   1      54.701  25.499  26.470  1.00  0.00    -0.744 OA
ENDBRANCH  53  54
ENDBRANCH  25  48
BRANCH  37  58
ATOM     58  C   UNL A   1      46.724  32.476  28.159  1.00  0.00    -0.014 A 
ATOM     59  C   UNL A   1      47.276  32.913  29.377  1.00  0.00     0.010 A 
ATOM     60  C   UNL A   1      46.762  33.329  27.042  1.00  0.00     0.010 A 
ATOM     61  C   UNL A   1      47.839  34.187  29.477  1.00  0.00     0.020 A 
ATOM     62  C   UNL A   1      47.354  34.591  27.131  1.00  0.00     0.020 A 
ATOM     63  C   UNL A   1      47.881  35.014  28.352  1.00  0.00     0.054 A 
BRANCH  63  64
ATOM     64  S   UNL A   1      48.682  36.635  28.493  1.00  0.00     0.124 S 
ATOM     65  O   UNL A   1      49.318  36.777  27.187  1.00  0.00    -0.237 OA
ATOM     66  O   UNL A   1      47.552  37.527  28.743  1.00  0.00    -0.237 OA
ATOM     67  O   UNL A   1      49.601  36.472  29.618  1.00  0.00    -0.744 OA
ENDBRANCH  63  64
ENDBRANCH  37  58
ENDBRANCH  11  12
ENDBRANCH   4   6
ENDBRANCH   1   2
BRANCH   1  68
ATOM     68  C   UNL A   1      38.092  19.777  24.990  1.00  0.00     0.042 C 
BRANCH  68  69
ATOM     69  C   UNL A   1      36.888  20.702  25.087  1.00  0.00     0.117 C 
BRANCH  69  70
ATOM     70  N   UNL A   1      37.234  21.952  25.740  1.00  0.00    -0.356 N 
ATOM     71  C   UNL A   1      36.722  23.200  25.738  1.00  0.00     0.223 C 
ATOM     72  H   UNL A   1      38.027  21.869  26.319  1.00  0.00     0.163 HD
ATOM     73  O   UNL A   1      37.422  24.054  26.302  1.00  0.00    -0.275 OA
BRANCH  71  74
ATOM     74  C   UNL A   1      35.367  23.620  25.156  1.00  0.00     0.079 C 
ATOM     75  C   UNL A   1      34.309  22.759  25.871  1.00  0.00     0.013 C 
ATOM     76  C   UNL A   1      35.157  23.551  23.648  1.00  0.00     0.027 C 
ATOM     77  C   UNL A   1      32.886  23.087  25.452  1.00  0.00     0.002 C 
ATOM     78  C   UNL A   1      33.742  23.936  23.189  1.00  0.00     0.079 C 
ATOM     79  C   UNL A   1      32.704  23.104  23.937  1.00  0.00     0.013 C 
BRANCH  78  80
ATOM     80  C   UNL A   1      33.600  25.461  22.981  1.00  0.00     0.225 C 
ATOM     81  O   UNL A   1      33.871  25.948  21.878  1.00  0.00    -0.275 OA
BRANCH  80  82
ATOM     82  N   UNL A   1      32.976  26.235  23.946  1.00  0.00    -0.339 N 
ATOM     83  C   UNL A   1      33.762  26.821  25.040  1.00  0.00     0.141 C 
ATOM     84  C   UNL A   1      31.732  26.930  23.567  1.00  0.00     0.146 C 
ATOM     85  C   UNL A   1      33.224  28.090  25.719  1.00  0.00     0.143 C 
ATOM     86  C   UNL A   1      31.892  28.446  23.599  1.00  0.00     0.125 C 
ATOM     87  N   UNL A   1      32.339  28.884  24.909  1.00  0.00    -0.317 N 
ATOM     88  C   UNL A   1      30.591  29.229  23.414  1.00  0.00     0.144 C 
ATOM     89  C   UNL A   1      31.656  30.003  25.345  1.00  0.00     0.317 C 
ATOM     90  N   UNL A   1      30.679  30.277  24.402  1.00  0.00    -0.336 N 
ATOM     91  O   UNL A   1      31.824  30.609  26.385  1.00  0.00    -0.249 OA
ATOM     92  H   UNL A   1      30.116  31.084  24.405  1.00  0.00     0.165 HD
ENDBRANCH  80  82
ENDBRANCH  78  80
ENDBRANCH  71  74
ENDBRANCH  69  70
ENDBRANCH  68  69
ENDBRANCH   1  68
TORSDOF 15
ENDMDL
