MODEL 1
REMARK VINA RESULT:     -10.0      0.000      0.000
REMARK SMILES COCc1cc(SCC(=O)NCCCNC(=O)c2ccc(-c3c4nc(c(-c5ccc(S(=O)(=O)[O-])cc5)c5ccc([nH]5)c(-c5ccc(S(=O)(=O)[O-])cc5)c5nc(c(-c6ccc(S(=O)(=O)[O-])cc6)c6ccc3[nH]6)C=C5)C=C4)cc2)nc(-c2ccncc2)n1
REMARK SMILES IDX 12 1 11 2 9 3 10 4 8 6 7 7 6 8 4 9 5 10 86 11 79 12 78 13
REMARK SMILES IDX 3 14 2 15 1 16 80 17 81 18 85 19 82 20 84 21 83 22 13 23
REMARK SMILES IDX 14 24 15 25 16 26 17 28 18 29 19 30 77 31 20 32 76 33 21 34
REMARK SMILES IDX 22 35 23 36 70 37 24 38 75 39 69 40 71 41 25 42 74 43 68 44
REMARK SMILES IDX 67 45 26 47 56 48 37 49 55 50 38 51 41 52 54 53 72 54 39 55
REMARK SMILES IDX 40 56 53 58 73 59 42 60 27 61 28 62 36 63 29 64 35 65 30 66
REMARK SMILES IDX 31 67 32 68 33 69 34 70 57 71 58 72 66 73 59 74 65 75 60 76
REMARK SMILES IDX 61 77 62 78 63 79 64 80 43 81 44 82 52 83 45 84 51 85 46 86
REMARK SMILES IDX 47 87 48 88 49 89 50 90
REMARK H PARENT 11 5 15 27 71 46 41 57
REMARK Flexibility Score: inf
ROOT
ATOM      1  C   UNL A   1      35.046  23.572  24.092  1.00  0.00     0.117 C 
ENDROOT
BRANCH   1   2
ATOM      2  N   UNL A   1      34.178  22.727  23.292  1.00  0.00    -0.355 N 
ATOM      3  C   UNL A   1      33.081  23.054  22.560  1.00  0.00     0.230 C 
ATOM      4  O   UNL A   1      32.482  22.140  21.986  1.00  0.00    -0.274 OA
ATOM      5  H   UNL A   1      34.420  21.772  23.280  1.00  0.00     0.163 HD
BRANCH   3   6
ATOM      6  C   UNL A   1      32.647  24.497  22.379  1.00  0.00     0.176 C 
BRANCH   6   7
ATOM      7  S   UNL A   1      31.163  24.979  23.308  1.00  0.00    -0.096 SA
BRANCH   7   8
ATOM      8  C   UNL A   1      31.195  26.757  23.390  1.00  0.00     0.101 A 
ATOM      9  C   UNL A   1      30.558  28.951  22.830  1.00  0.00     0.071 A 
ATOM     10  C   UNL A   1      30.528  27.600  22.534  1.00  0.00     0.062 A 
ATOM     11  N   UNL A   1      31.270  29.442  23.863  1.00  0.00    -0.231 NA
ATOM     12  C   UNL A   1      31.963  28.556  24.595  1.00  0.00     0.160 A 
ATOM     13  N   UNL A   1      31.950  27.227  24.401  1.00  0.00    -0.222 NA
BRANCH   9  14
ATOM     14  C   UNL A   1      29.731  29.921  22.016  1.00  0.00     0.215 C 
BRANCH  14  15
ATOM     15  O   UNL A   1      28.908  30.776  22.816  1.00  0.00    -0.378 OA
ATOM     16  C   UNL A   1      27.537  30.401  22.829  1.00  0.00     0.195 C 
ENDBRANCH  14  15
ENDBRANCH   9  14
BRANCH  12  17
ATOM     17  C   UNL A   1      32.837  29.087  25.639  1.00  0.00     0.022 A 
ATOM     18  C   UNL A   1      32.572  30.326  26.238  1.00  0.00     0.032 A 
ATOM     19  C   UNL A   1      33.947  28.366  26.095  1.00  0.00     0.032 A 
ATOM     20  C   UNL A   1      33.398  30.768  27.258  1.00  0.00     0.111 A 
ATOM     21  C   UNL A   1      34.724  28.899  27.109  1.00  0.00     0.111 A 
ATOM     22  N   UNL A   1      34.463  30.078  27.711  1.00  0.00    -0.265 NA
ENDBRANCH  12  17
ENDBRANCH   7   8
ENDBRANCH   6   7
ENDBRANCH   3   6
ENDBRANCH   1   2
BRANCH   1  23
ATOM     23  C   UNL A   1      35.611  22.827  25.296  1.00  0.00     0.042 C 
BRANCH  23  24
ATOM     24  C   UNL A   1      36.796  23.517  25.970  1.00  0.00     0.118 C 
BRANCH  24  25
ATOM     25  N   UNL A   1      37.990  22.683  26.013  1.00  0.00    -0.352 N 
ATOM     26  C   UNL A   1      39.271  22.993  26.392  1.00  0.00     0.251 C 
ATOM     27  H   UNL A   1      37.856  21.751  25.726  1.00  0.00     0.163 HD
ATOM     28  O   UNL A   1      40.172  22.178  26.179  1.00  0.00    -0.269 OA
BRANCH  26  29
ATOM     29  C   UNL A   1      39.588  24.291  27.028  1.00  0.00     0.039 A 
ATOM     30  C   UNL A   1      39.135  24.534  28.328  1.00  0.00     0.014 A 
ATOM     31  C   UNL A   1      40.302  25.279  26.344  1.00  0.00     0.014 A 
ATOM     32  C   UNL A   1      39.458  25.735  28.965  1.00  0.00     0.010 A 
ATOM     33  C   UNL A   1      40.685  26.444  27.007  1.00  0.00     0.010 A 
ATOM     34  C   UNL A   1      40.269  26.686  28.324  1.00  0.00    -0.014 A 
BRANCH  34  35
ATOM     35  C   UNL A   1      40.701  27.927  29.021  1.00  0.00     0.031 A 
ATOM     36  C   UNL A   1      42.048  27.997  29.688  1.00  0.00     0.074 A 
ATOM     37  C   UNL A   1      39.853  28.973  29.105  1.00  0.00     0.049 A 
ATOM     38  N   UNL A   1      42.565  28.965  30.402  1.00  0.00    -0.248 NA
ATOM     39  C   UNL A   1      42.923  26.821  29.552  1.00  0.00     0.031 C 
ATOM     40  C   UNL A   1      38.504  29.018  28.538  1.00  0.00     0.029 A 
ATOM     41  N   UNL A   1      39.996  30.197  29.712  1.00  0.00    -0.354 N 
ATOM     42  C   UNL A   1      43.818  28.514  30.804  1.00  0.00     0.074 A 
ATOM     43  C   UNL A   1      43.960  27.165  30.302  1.00  0.00     0.031 C 
ATOM     44  C   UNL A   1      37.950  30.210  28.808  1.00  0.00     0.029 A 
ATOM     45  C   UNL A   1      38.884  31.000  29.605  1.00  0.00     0.049 A 
ATOM     46  H   UNL A   1      40.817  30.473  30.180  1.00  0.00     0.167 HD
ATOM     47  C   UNL A   1      44.773  29.171  31.507  1.00  0.00     0.031 A 
ATOM     48  C   UNL A   1      38.633  32.226  30.104  1.00  0.00     0.031 A 
ATOM     49  C   UNL A   1      44.629  30.513  32.007  1.00  0.00     0.049 A 
ATOM     50  C   UNL A   1      39.700  32.925  30.905  1.00  0.00     0.074 A 
ATOM     51  C   UNL A   1      45.551  31.273  32.705  1.00  0.00     0.029 A 
ATOM     52  N   UNL A   1      43.494  31.296  31.863  1.00  0.00    -0.354 N 
ATOM     53  N   UNL A   1      40.899  32.500  31.226  1.00  0.00    -0.248 NA
ATOM     54  C   UNL A   1      39.387  34.274  31.395  1.00  0.00     0.031 C 
ATOM     55  C   UNL A   1      44.957  32.498  33.024  1.00  0.00     0.029 A 
ATOM     56  C   UNL A   1      43.687  32.525  32.472  1.00  0.00     0.049 A 
ATOM     57  H   UNL A   1      42.673  31.020  31.396  1.00  0.00     0.167 HD
ATOM     58  C   UNL A   1      41.491  33.541  31.935  1.00  0.00     0.074 A 
ATOM     59  C   UNL A   1      40.528  34.621  31.975  1.00  0.00     0.031 C 
ATOM     60  C   UNL A   1      42.722  33.595  32.501  1.00  0.00     0.031 A 
BRANCH  47  61
ATOM     61  C   UNL A   1      46.067  28.446  31.771  1.00  0.00    -0.014 A 
ATOM     62  C   UNL A   1      47.145  28.545  30.872  1.00  0.00     0.010 A 
ATOM     63  C   UNL A   1      46.233  27.704  32.955  1.00  0.00     0.010 A 
ATOM     64  C   UNL A   1      48.350  27.890  31.133  1.00  0.00     0.020 A 
ATOM     65  C   UNL A   1      47.447  27.071  33.235  1.00  0.00     0.020 A 
ATOM     66  C   UNL A   1      48.494  27.156  32.315  1.00  0.00     0.054 A 
BRANCH  66  67
ATOM     67  S   UNL A   1      50.083  26.345  32.642  1.00  0.00     0.124 S 
ATOM     68  O   UNL A   1      49.884  25.825  33.993  1.00  0.00    -0.237 OA
ATOM     69  O   UNL A   1      50.151  25.338  31.586  1.00  0.00    -0.237 OA
ATOM     70  O   UNL A   1      51.056  27.428  32.529  1.00  0.00    -0.744 OA
ENDBRANCH  66  67
ENDBRANCH  47  61
BRANCH  48  71
ATOM     71  C   UNL A   1      37.312  32.873  29.870  1.00  0.00    -0.014 A 
ATOM     72  C   UNL A   1      37.094  33.680  28.741  1.00  0.00     0.010 A 
ATOM     73  C   UNL A   1      36.259  32.685  30.787  1.00  0.00     0.010 A 
ATOM     74  C   UNL A   1      35.862  34.314  28.548  1.00  0.00     0.020 A 
ATOM     75  C   UNL A   1      35.017  33.291  30.581  1.00  0.00     0.020 A 
ATOM     76  C   UNL A   1      34.831  34.115  29.470  1.00  0.00     0.054 A 
BRANCH  76  77
ATOM     77  S   UNL A   1      33.232  34.921  29.181  1.00  0.00     0.124 S 
ATOM     78  O   UNL A   1      33.636  36.211  28.630  1.00  0.00    -0.237 OA
ATOM     79  O   UNL A   1      32.583  34.008  28.244  1.00  0.00    -0.237 OA
ATOM     80  O   UNL A   1      32.627  34.969  30.511  1.00  0.00    -0.744 OA
ENDBRANCH  76  77
ENDBRANCH  48  71
BRANCH  60  81
ATOM     81  C   UNL A   1      43.119  34.880  33.178  1.00  0.00    -0.014 A 
ATOM     82  C   UNL A   1      42.880  35.090  34.548  1.00  0.00     0.010 A 
ATOM     83  C   UNL A   1      43.792  35.873  32.441  1.00  0.00     0.010 A 
ATOM     84  C   UNL A   1      43.279  36.282  35.161  1.00  0.00     0.020 A 
ATOM     85  C   UNL A   1      44.218  37.053  33.056  1.00  0.00     0.020 A 
ATOM     86  C   UNL A   1      43.946  37.256  34.410  1.00  0.00     0.054 A 
BRANCH  86  87
ATOM     87  S   UNL A   1      44.491  38.774  35.239  1.00  0.00     0.124 S 
ATOM     88  O   UNL A   1      43.733  39.799  34.526  1.00  0.00    -0.237 OA
ATOM     89  O   UNL A   1      44.089  38.545  36.624  1.00  0.00    -0.237 OA
ATOM     90  O   UNL A   1      45.934  38.796  35.010  1.00  0.00    -0.744 OA
ENDBRANCH  86  87
ENDBRANCH  60  81
ENDBRANCH  34  35
ENDBRANCH  26  29
ENDBRANCH  24  25
ENDBRANCH  23  24
ENDBRANCH   1  23
TORSDOF 18
ENDMDL
MODEL 2
REMARK VINA RESULT:      -9.9      1.028      2.462
REMARK SMILES COCc1cc(SCC(=O)NCCCNC(=O)c2ccc(-c3c4nc(c(-c5ccc(S(=O)(=O)[O-])cc5)c5ccc([nH]5)c(-c5ccc(S(=O)(=O)[O-])cc5)c5nc(c(-c6ccc(S(=O)(=O)[O-])cc6)c6ccc3[nH]6)C=C5)C=C4)cc2)nc(-c2ccncc2)n1
REMARK SMILES IDX 12 1 11 2 9 3 10 4 8 6 7 7 6 8 4 9 5 10 86 11 79 12 78 13
REMARK SMILES IDX 3 14 2 15 1 16 80 17 81 18 85 19 82 20 84 21 83 22 13 23
REMARK SMILES IDX 14 24 15 25 16 26 17 28 18 29 19 30 77 31 20 32 76 33 21 34
REMARK SMILES IDX 22 35 23 36 70 37 24 38 75 39 69 40 71 41 25 42 74 43 68 44
REMARK SMILES IDX 67 45 26 47 56 48 37 49 55 50 38 51 41 52 54 53 72 54 39 55
REMARK SMILES IDX 40 56 53 58 73 59 42 60 27 61 28 62 36 63 29 64 35 65 30 66
REMARK SMILES IDX 31 67 32 68 33 69 34 70 57 71 58 72 66 73 59 74 65 75 60 76
REMARK SMILES IDX 61 77 62 78 63 79 64 80 43 81 44 82 52 83 45 84 51 85 46 86
REMARK SMILES IDX 47 87 48 88 49 89 50 90
REMARK H PARENT 11 5 15 27 71 46 41 57
REMARK Flexibility Score: inf
ROOT
ATOM      1  C   UNL A   1      34.927  23.679  24.122  1.00  0.00     0.117 C 
ENDROOT
BRANCH   1   2
ATOM      2  N   UNL A   1      33.938  22.946  23.352  1.00  0.00    -0.355 N 
ATOM      3  C   UNL A   1      32.776  23.378  22.796  1.00  0.00     0.230 C 
ATOM      4  O   UNL A   1      32.078  22.544  22.210  1.00  0.00    -0.274 OA
ATOM      5  H   UNL A   1      34.139  21.992  23.214  1.00  0.00     0.163 HD
BRANCH   3   6
ATOM      6  C   UNL A   1      32.380  24.842  22.817  1.00  0.00     0.176 C 
BRANCH   6   7
ATOM      7  S   UNL A   1      30.731  25.187  23.494  1.00  0.00    -0.096 SA
BRANCH   7   8
ATOM      8  C   UNL A   1      30.833  26.806  24.227  1.00  0.00     0.101 A 
ATOM      9  C   UNL A   1      31.562  28.434  25.760  1.00  0.00     0.071 A 
ATOM     10  C   UNL A   1      31.465  27.099  25.411  1.00  0.00     0.062 A 
ATOM     11  N   UNL A   1      30.998  29.409  25.022  1.00  0.00    -0.231 NA
ATOM     12  C   UNL A   1      30.325  29.026  23.927  1.00  0.00     0.160 A 
ATOM     13  N   UNL A   1      30.223  27.758  23.496  1.00  0.00    -0.222 NA
BRANCH   9  14
ATOM     14  C   UNL A   1      32.367  28.841  26.974  1.00  0.00     0.215 C 
BRANCH  14  15
ATOM     15  O   UNL A   1      33.476  29.689  26.663  1.00  0.00    -0.378 OA
ATOM     16  C   UNL A   1      34.736  29.037  26.750  1.00  0.00     0.195 C 
ENDBRANCH  14  15
ENDBRANCH   9  14
BRANCH  12  17
ATOM     17  C   UNL A   1      29.604  30.060  23.187  1.00  0.00     0.022 A 
ATOM     18  C   UNL A   1      29.288  29.888  21.833  1.00  0.00     0.032 A 
ATOM     19  C   UNL A   1      29.181  31.241  23.811  1.00  0.00     0.032 A 
ATOM     20  C   UNL A   1      28.561  30.872  21.183  1.00  0.00     0.111 A 
ATOM     21  C   UNL A   1      28.473  32.174  23.072  1.00  0.00     0.111 A 
ATOM     22  N   UNL A   1      28.140  32.007  21.775  1.00  0.00    -0.265 NA
ENDBRANCH  12  17
ENDBRANCH   7   8
ENDBRANCH   6   7
ENDBRANCH   3   6
ENDBRANCH   1   2
BRANCH   1  23
ATOM     23  C   UNL A   1      35.455  22.859  25.295  1.00  0.00     0.042 C 
BRANCH  23  24
ATOM     24  C   UNL A   1      36.630  23.496  26.035  1.00  0.00     0.118 C 
BRANCH  24  25
ATOM     25  N   UNL A   1      37.829  22.669  26.015  1.00  0.00    -0.352 N 
ATOM     26  C   UNL A   1      39.126  22.984  26.332  1.00  0.00     0.251 C 
ATOM     27  H   UNL A   1      37.687  21.737  25.730  1.00  0.00     0.163 HD
ATOM     28  O   UNL A   1      40.019  22.175  26.071  1.00  0.00    -0.269 OA
BRANCH  26  29
ATOM     29  C   UNL A   1      39.466  24.281  26.958  1.00  0.00     0.039 A 
ATOM     30  C   UNL A   1      39.027  24.538  28.259  1.00  0.00     0.014 A 
ATOM     31  C   UNL A   1      40.190  25.255  26.263  1.00  0.00     0.014 A 
ATOM     32  C   UNL A   1      39.372  25.738  28.888  1.00  0.00     0.010 A 
ATOM     33  C   UNL A   1      40.595  26.418  26.916  1.00  0.00     0.010 A 
ATOM     34  C   UNL A   1      40.193  26.673  28.235  1.00  0.00    -0.014 A 
BRANCH  34  35
ATOM     35  C   UNL A   1      40.647  27.912  28.922  1.00  0.00     0.031 A 
ATOM     36  C   UNL A   1      42.010  27.974  29.558  1.00  0.00     0.074 A 
ATOM     37  C   UNL A   1      39.808  28.963  29.024  1.00  0.00     0.049 A 
ATOM     38  N   UNL A   1      42.549  28.939  30.260  1.00  0.00    -0.248 NA
ATOM     39  C   UNL A   1      42.874  26.792  29.403  1.00  0.00     0.031 C 
ATOM     40  C   UNL A   1      38.447  29.016  28.487  1.00  0.00     0.029 A 
ATOM     41  N   UNL A   1      39.973  30.186  29.627  1.00  0.00    -0.354 N 
ATOM     42  C   UNL A   1      43.807  28.480  30.634  1.00  0.00     0.074 A 
ATOM     43  C   UNL A   1      43.930  27.130  30.129  1.00  0.00     0.031 C 
ATOM     44  C   UNL A   1      37.907  30.212  28.769  1.00  0.00     0.029 A 
ATOM     45  C   UNL A   1      38.864  30.996  29.544  1.00  0.00     0.049 A 
ATOM     46  H   UNL A   1      40.806  30.458  30.076  1.00  0.00     0.167 HD
ATOM     47  C   UNL A   1      44.782  29.130  31.315  1.00  0.00     0.031 A 
ATOM     48  C   UNL A   1      38.632  32.224  30.048  1.00  0.00     0.031 A 
ATOM     49  C   UNL A   1      44.658  30.474  31.817  1.00  0.00     0.049 A 
ATOM     50  C   UNL A   1      39.721  32.916  30.824  1.00  0.00     0.074 A 
ATOM     51  C   UNL A   1      45.601  31.228  32.494  1.00  0.00     0.029 A 
ATOM     52  N   UNL A   1      43.525  31.264  31.698  1.00  0.00    -0.354 N 
ATOM     53  N   UNL A   1      40.924  32.484  31.119  1.00  0.00    -0.248 NA
ATOM     54  C   UNL A   1      39.427  34.268  31.321  1.00  0.00     0.031 C 
ATOM     55  C   UNL A   1      45.022  32.457  32.826  1.00  0.00     0.029 A 
ATOM     56  C   UNL A   1      43.740  32.492  32.302  1.00  0.00     0.049 A 
ATOM     57  H   UNL A   1      42.692  30.993  31.250  1.00  0.00     0.167 HD
ATOM     58  C   UNL A   1      41.539  33.521  31.813  1.00  0.00     0.074 A 
ATOM     59  C   UNL A   1      40.584  34.607  31.875  1.00  0.00     0.031 C 
ATOM     60  C   UNL A   1      42.782  33.568  32.352  1.00  0.00     0.031 A 
BRANCH  47  61
ATOM     61  C   UNL A   1      46.077  28.397  31.550  1.00  0.00    -0.014 A 
ATOM     62  C   UNL A   1      47.149  28.520  30.646  1.00  0.00     0.010 A 
ATOM     63  C   UNL A   1      46.250  27.624  32.712  1.00  0.00     0.010 A 
ATOM     64  C   UNL A   1      48.355  27.856  30.882  1.00  0.00     0.020 A 
ATOM     65  C   UNL A   1      47.465  26.982  32.967  1.00  0.00     0.020 A 
ATOM     66  C   UNL A   1      48.506  27.091  32.043  1.00  0.00     0.054 A 
BRANCH  66  67
ATOM     67  S   UNL A   1      50.096  26.270  32.337  1.00  0.00     0.124 S 
ATOM     68  O   UNL A   1      50.974  26.966  31.399  1.00  0.00    -0.237 OA
ATOM     69  O   UNL A   1      50.342  26.546  33.750  1.00  0.00    -0.237 OA
ATOM     70  O   UNL A   1      49.829  24.870  32.017  1.00  0.00    -0.744 OA
ENDBRANCH  66  67
ENDBRANCH  47  61
BRANCH  48  71
ATOM     71  C   UNL A   1      37.310  32.879  29.844  1.00  0.00    -0.014 A 
ATOM     72  C   UNL A   1      37.071  33.684  28.716  1.00  0.00     0.010 A 
ATOM     73  C   UNL A   1      36.279  32.703  30.786  1.00  0.00     0.010 A 
ATOM     74  C   UNL A   1      35.839  34.325  28.551  1.00  0.00     0.020 A 
ATOM     75  C   UNL A   1      35.036  33.316  30.608  1.00  0.00     0.020 A 
ATOM     76  C   UNL A   1      34.829  34.138  29.498  1.00  0.00     0.054 A 
BRANCH  76  77
ATOM     77  S   UNL A   1      33.229  34.953  29.245  1.00  0.00     0.124 S 
ATOM     78  O   UNL A   1      32.672  34.955  30.594  1.00  0.00    -0.237 OA
ATOM     79  O   UNL A   1      33.620  36.259  28.720  1.00  0.00    -0.237 OA
ATOM     80  O   UNL A   1      32.549  34.085  28.287  1.00  0.00    -0.744 OA
ENDBRANCH  76  77
ENDBRANCH  48  71
BRANCH  60  81
ATOM     81  C   UNL A   1      43.202  34.851  33.020  1.00  0.00    -0.014 A 
ATOM     82  C   UNL A   1      43.070  35.031  34.408  1.00  0.00     0.010 A 
ATOM     83  C   UNL A   1      43.791  35.872  32.250  1.00  0.00     0.010 A 
ATOM     84  C   UNL A   1      43.489  36.222  35.009  1.00  0.00     0.020 A 
ATOM     85  C   UNL A   1      44.237  37.052  32.851  1.00  0.00     0.020 A 
ATOM     86  C   UNL A   1      44.070  37.225  34.226  1.00  0.00     0.054 A 
BRANCH  86  87
ATOM     87  S   UNL A   1      44.645  38.742  35.037  1.00  0.00     0.124 S 
ATOM     88  O   UNL A   1      46.090  38.665  34.838  1.00  0.00    -0.237 OA
ATOM     89  O   UNL A   1      43.960  39.788  34.281  1.00  0.00    -0.237 OA
ATOM     90  O   UNL A   1      44.198  38.587  36.420  1.00  0.00    -0.744 OA
ENDBRANCH  86  87
ENDBRANCH  60  81
ENDBRANCH  34  35
ENDBRANCH  26  29
ENDBRANCH  24  25
ENDBRANCH  23  24
ENDBRANCH   1  23
TORSDOF 18
ENDMDL
MODEL 3
REMARK VINA RESULT:      -9.9      4.040      9.949
REMARK SMILES COCc1cc(SCC(=O)NCCCNC(=O)c2ccc(-c3c4nc(c(-c5ccc(S(=O)(=O)[O-])cc5)c5ccc([nH]5)c(-c5ccc(S(=O)(=O)[O-])cc5)c5nc(c(-c6ccc(S(=O)(=O)[O-])cc6)c6ccc3[nH]6)C=C5)C=C4)cc2)nc(-c2ccncc2)n1
REMARK SMILES IDX 12 1 11 2 9 3 10 4 8 6 7 7 6 8 4 9 5 10 86 11 79 12 78 13
REMARK SMILES IDX 3 14 2 15 1 16 80 17 81 18 85 19 82 20 84 21 83 22 13 23
REMARK SMILES IDX 14 24 15 25 16 26 17 28 18 29 19 30 77 31 20 32 76 33 21 34
REMARK SMILES IDX 22 35 23 36 70 37 24 38 75 39 69 40 71 41 25 42 74 43 68 44
REMARK SMILES IDX 67 45 26 47 56 48 37 49 55 50 38 51 41 52 54 53 72 54 39 55
REMARK SMILES IDX 40 56 53 58 73 59 42 60 27 61 28 62 36 63 29 64 35 65 30 66
REMARK SMILES IDX 31 67 32 68 33 69 34 70 57 71 58 72 66 73 59 74 65 75 60 76
REMARK SMILES IDX 61 77 62 78 63 79 64 80 43 81 44 82 52 83 45 84 51 85 46 86
REMARK SMILES IDX 47 87 48 88 49 89 50 90
REMARK H PARENT 11 5 15 27 71 46 41 57
REMARK Flexibility Score: inf
ROOT
ATOM      1  C   UNL A   1      40.007  22.145  26.820  1.00  0.00     0.117 C 
ENDROOT
BRANCH   1   2
ATOM      2  N   UNL A   1      39.431  21.002  26.134  1.00  0.00    -0.355 N 
ATOM      3  C   UNL A   1      38.315  20.923  25.364  1.00  0.00     0.230 C 
ATOM      4  O   UNL A   1      38.009  19.816  24.911  1.00  0.00    -0.274 OA
ATOM      5  H   UNL A   1      39.924  20.156  26.245  1.00  0.00     0.163 HD
BRANCH   3   6
ATOM      6  C   UNL A   1      37.512  22.158  24.998  1.00  0.00     0.176 C 
BRANCH   6   7
ATOM      7  S   UNL A   1      36.047  22.459  26.028  1.00  0.00    -0.096 SA
BRANCH   7   8
ATOM      8  C   UNL A   1      34.685  21.693  25.175  1.00  0.00     0.101 A 
ATOM      9  C   UNL A   1      32.811  21.598  23.758  1.00  0.00     0.071 A 
ATOM     10  C   UNL A   1      33.715  22.365  24.470  1.00  0.00     0.062 A 
ATOM     11  N   UNL A   1      32.817  20.252  23.807  1.00  0.00    -0.231 NA
ATOM     12  C   UNL A   1      33.744  19.681  24.590  1.00  0.00     0.160 A 
ATOM     13  N   UNL A   1      34.685  20.351  25.276  1.00  0.00    -0.222 NA
BRANCH   9  14
ATOM     14  C   UNL A   1      31.806  22.269  22.846  1.00  0.00     0.215 C 
BRANCH  14  15
ATOM     15  O   UNL A   1      31.844  23.697  22.913  1.00  0.00    -0.378 OA
ATOM     16  C   UNL A   1      30.641  24.278  23.398  1.00  0.00     0.195 C 
ENDBRANCH  14  15
ENDBRANCH   9  14
BRANCH  12  17
ATOM     17  C   UNL A   1      33.683  18.229  24.750  1.00  0.00     0.022 A 
ATOM     18  C   UNL A   1      34.799  17.427  24.475  1.00  0.00     0.032 A 
ATOM     19  C   UNL A   1      32.522  17.595  25.210  1.00  0.00     0.032 A 
ATOM     20  C   UNL A   1      34.714  16.062  24.688  1.00  0.00     0.111 A 
ATOM     21  C   UNL A   1      32.529  16.221  25.375  1.00  0.00     0.111 A 
ATOM     22  N   UNL A   1      33.605  15.442  25.139  1.00  0.00    -0.265 NA
ENDBRANCH  12  17
ENDBRANCH   7   8
ENDBRANCH   6   7
ENDBRANCH   3   6
ENDBRANCH   1   2
BRANCH   1  23
ATOM     23  C   UNL A   1      41.511  21.988  27.020  1.00  0.00     0.042 C 
BRANCH  23  24
ATOM     24  C   UNL A   1      42.272  23.305  27.165  1.00  0.00     0.118 C 
BRANCH  24  25
ATOM     25  N   UNL A   1      42.022  24.228  26.066  1.00  0.00    -0.352 N 
ATOM     26  C   UNL A   1      41.579  25.527  26.085  1.00  0.00     0.251 C 
ATOM     27  H   UNL A   1      42.197  23.863  25.168  1.00  0.00     0.163 HD
ATOM     28  O   UNL A   1      41.264  26.067  25.023  1.00  0.00    -0.269 OA
BRANCH  26  29
ATOM     29  C   UNL A   1      41.457  26.273  27.357  1.00  0.00     0.039 A 
ATOM     30  C   UNL A   1      42.469  27.169  27.713  1.00  0.00     0.014 A 
ATOM     31  C   UNL A   1      40.369  26.077  28.212  1.00  0.00     0.014 A 
ATOM     32  C   UNL A   1      42.355  27.917  28.888  1.00  0.00     0.010 A 
ATOM     33  C   UNL A   1      40.221  26.877  29.345  1.00  0.00     0.010 A 
ATOM     34  C   UNL A   1      41.211  27.806  29.695  1.00  0.00    -0.014 A 
BRANCH  34  35
ATOM     35  C   UNL A   1      41.029  28.663  30.898  1.00  0.00     0.031 A 
ATOM     36  C   UNL A   1      39.977  29.739  30.916  1.00  0.00     0.074 A 
ATOM     37  C   UNL A   1      41.854  28.510  31.955  1.00  0.00     0.049 A 
ATOM     38  N   UNL A   1      39.722  30.626  31.844  1.00  0.00    -0.248 NA
ATOM     39  C   UNL A   1      39.110  29.844  29.731  1.00  0.00     0.031 C 
ATOM     40  C   UNL A   1      42.941  27.533  32.048  1.00  0.00     0.029 A 
ATOM     41  N   UNL A   1      41.915  29.186  33.149  1.00  0.00    -0.354 N 
ATOM     42  C   UNL A   1      38.673  31.397  31.354  1.00  0.00     0.074 A 
ATOM     43  C   UNL A   1      38.377  30.909  30.025  1.00  0.00     0.031 C 
ATOM     44  C   UNL A   1      43.549  27.660  33.238  1.00  0.00     0.029 A 
ATOM     45  C   UNL A   1      42.928  28.755  33.976  1.00  0.00     0.049 A 
ATOM     46  H   UNL A   1      41.294  29.910  33.391  1.00  0.00     0.167 HD
ATOM     47  C   UNL A   1      38.001  32.405  31.963  1.00  0.00     0.031 A 
ATOM     48  C   UNL A   1      43.325  29.199  35.184  1.00  0.00     0.031 A 
ATOM     49  C   UNL A   1      38.297  32.890  33.286  1.00  0.00     0.049 A 
ATOM     50  C   UNL A   1      42.579  30.338  35.830  1.00  0.00     0.074 A 
ATOM     51  C   UNL A   1      37.654  33.886  33.999  1.00  0.00     0.029 A 
ATOM     52  N   UNL A   1      39.318  32.416  34.094  1.00  0.00    -0.354 N 
ATOM     53  N   UNL A   1      41.555  31.016  35.370  1.00  0.00    -0.248 NA
ATOM     54  C   UNL A   1      43.033  30.758  37.162  1.00  0.00     0.031 C 
ATOM     55  C   UNL A   1      38.316  34.048  35.220  1.00  0.00     0.029 A 
ATOM     56  C   UNL A   1      39.333  33.110  35.293  1.00  0.00     0.049 A 
ATOM     57  H   UNL A   1      39.941  31.693  33.853  1.00  0.00     0.167 HD
ATOM     58  C   UNL A   1      41.226  31.927  36.369  1.00  0.00     0.074 A 
ATOM     59  C   UNL A   1      42.145  31.696  37.464  1.00  0.00     0.031 C 
ATOM     60  C   UNL A   1      40.250  32.868  36.378  1.00  0.00     0.031 A 
BRANCH  47  61
ATOM     61  C   UNL A   1      36.868  33.046  31.204  1.00  0.00    -0.014 A 
ATOM     62  C   UNL A   1      37.115  33.796  30.038  1.00  0.00     0.010 A 
ATOM     63  C   UNL A   1      35.539  32.853  31.622  1.00  0.00     0.010 A 
ATOM     64  C   UNL A   1      36.059  34.368  29.326  1.00  0.00     0.020 A 
ATOM     65  C   UNL A   1      34.477  33.399  30.895  1.00  0.00     0.020 A 
ATOM     66  C   UNL A   1      34.745  34.165  29.759  1.00  0.00     0.054 A 
BRANCH  66  67
ATOM     67  S   UNL A   1      33.393  34.893  28.793  1.00  0.00     0.124 S 
ATOM     68  O   UNL A   1      34.028  36.084  28.236  1.00  0.00    -0.237 OA
ATOM     69  O   UNL A   1      33.085  33.838  27.831  1.00  0.00    -0.237 OA
ATOM     70  O   UNL A   1      32.353  35.148  29.787  1.00  0.00    -0.744 OA
ENDBRANCH  66  67
ENDBRANCH  47  61
BRANCH  48  71
ATOM     71  C   UNL A   1      44.493  28.573  35.864  1.00  0.00    -0.014 A 
ATOM     72  C   UNL A   1      44.323  27.476  36.726  1.00  0.00     0.010 A 
ATOM     73  C   UNL A   1      45.790  29.079  35.653  1.00  0.00     0.010 A 
ATOM     74  C   UNL A   1      45.420  26.918  37.390  1.00  0.00     0.020 A 
ATOM     75  C   UNL A   1      46.893  28.503  36.289  1.00  0.00     0.020 A 
ATOM     76  C   UNL A   1      46.699  27.435  37.167  1.00  0.00     0.054 A 
BRANCH  76  77
ATOM     77  S   UNL A   1      48.112  26.674  38.013  1.00  0.00     0.124 S 
ATOM     78  O   UNL A   1      49.174  27.642  37.761  1.00  0.00    -0.237 OA
ATOM     79  O   UNL A   1      47.645  26.591  39.394  1.00  0.00    -0.237 OA
ATOM     80  O   UNL A   1      48.262  25.387  37.337  1.00  0.00    -0.744 OA
ENDBRANCH  76  77
ENDBRANCH  48  71
BRANCH  60  81
ATOM     81  C   UNL A   1      40.095  33.696  37.626  1.00  0.00    -0.014 A 
ATOM     82  C   UNL A   1      39.316  33.251  38.709  1.00  0.00     0.010 A 
ATOM     83  C   UNL A   1      40.788  34.917  37.738  1.00  0.00     0.010 A 
ATOM     84  C   UNL A   1      39.205  34.026  39.867  1.00  0.00     0.020 A 
ATOM     85  C   UNL A   1      40.704  35.681  38.905  1.00  0.00     0.020 A 
ATOM     86  C   UNL A   1      39.901  35.236  39.957  1.00  0.00     0.054 A 
BRANCH  86  87
ATOM     87  S   UNL A   1      39.776  36.202  41.487  1.00  0.00     0.124 S 
ATOM     88  O   UNL A   1      39.081  37.404  41.034  1.00  0.00    -0.237 OA
ATOM     89  O   UNL A   1      39.004  35.321  42.360  1.00  0.00    -0.237 OA
ATOM     90  O   UNL A   1      41.168  36.402  41.887  1.00  0.00    -0.744 OA
ENDBRANCH  86  87
ENDBRANCH  60  81
ENDBRANCH  34  35
ENDBRANCH  26  29
ENDBRANCH  24  25
ENDBRANCH  23  24
ENDBRANCH   1  23
TORSDOF 18
ENDMDL
