MODEL 1
REMARK VINA RESULT:     -13.1      0.000      0.000
REMARK SMILES Cc1ccc(S[C@H](CC(=O)c2ccc(C)cc2)C(=O)NCCCNC(=O)c2ccc(-c3c4nc(c(-c5ccc(S(=O)(=O)[O-])cc5)c5ccc([nH]5)c(-c5ccc(S(=O)(=O)[O-])cc5)c5nc(c(-c6ccc(S(=O)(=O)[O-])cc6)c6ccc3[nH]6)C=C5)C=C4)cc2)cc1
REMARK SMILES IDX 22 1 21 2 20 3 18 4 19 5 7 7 6 8 5 9 1 10 2 11 3 12 88 13
REMARK SMILES IDX 4 14 87 15 8 16 9 17 10 18 11 19 12 20 17 21 13 22 16 23
REMARK SMILES IDX 14 24 15 25 23 26 24 27 25 28 26 30 27 31 28 32 86 33 29 34
REMARK SMILES IDX 85 35 30 36 31 37 32 38 79 39 33 40 84 41 78 42 80 43 34 44
REMARK SMILES IDX 83 45 77 46 76 47 35 49 65 50 46 51 64 52 47 53 50 54 63 55
REMARK SMILES IDX 81 56 48 57 49 58 62 60 82 61 51 62 36 63 37 64 45 65 38 66
REMARK SMILES IDX 44 67 39 68 40 69 41 70 42 71 43 72 66 73 67 74 75 75 68 76
REMARK SMILES IDX 74 77 69 78 70 79 71 80 72 81 73 82 52 83 53 84 61 85 54 86
REMARK SMILES IDX 60 87 55 88 56 89 57 90 58 91 59 92
REMARK H PARENT 20 6 24 29 80 48 50 59
REMARK Flexibility Score: inf
ROOT
ATOM      1  C   UNL A   1      32.984  29.625  27.196  1.00  0.00     0.042 C 
ENDROOT
BRANCH   1   2
ATOM      2  C   UNL A   1      32.347  28.247  27.107  1.00  0.00     0.117 C 
BRANCH   2   3
ATOM      3  N   UNL A   1      31.366  28.157  26.026  1.00  0.00    -0.355 N 
ATOM      4  C   UNL A   1      31.056  27.162  25.146  1.00  0.00     0.233 C 
ATOM      5  O   UNL A   1      30.089  27.355  24.399  1.00  0.00    -0.274 OA
ATOM      6  H   UNL A   1      30.825  28.972  25.912  1.00  0.00     0.163 HD
BRANCH   4   7
ATOM      7  C   UNL A   1      31.894  25.878  24.975  1.00  0.00     0.148 C 
BRANCH   7   8
ATOM      8  S   UNL A   1      31.478  24.708  26.353  1.00  0.00    -0.112 SA
BRANCH   8   9
ATOM      9  C   UNL A   1      32.250  23.130  26.072  1.00  0.00     0.008 A 
ATOM     10  C   UNL A   1      34.239  19.483  24.879  1.00  0.00     0.044 C 
ATOM     11  C   UNL A   1      33.473  20.693  25.317  1.00  0.00    -0.051 A 
ATOM     12  C   UNL A   1      33.695  21.243  26.580  1.00  0.00     0.004 A 
ATOM     13  C   UNL A   1      32.580  21.331  24.456  1.00  0.00     0.004 A 
ATOM     14  C   UNL A   1      33.066  22.434  26.955  1.00  0.00     0.015 A 
ATOM     15  C   UNL A   1      31.972  22.531  24.835  1.00  0.00     0.015 A 
ENDBRANCH   8   9
ENDBRANCH   7   8
BRANCH   7  16
ATOM     16  C   UNL A   1      33.272  26.230  24.413  1.00  0.00     0.106 C 
BRANCH  16  17
ATOM     17  C   UNL A   1      34.019  25.282  23.479  1.00  0.00     0.164 C 
ATOM     18  O   UNL A   1      33.918  25.389  22.255  1.00  0.00    -0.294 OA
BRANCH  17  19
ATOM     19  C   UNL A   1      35.053  24.356  23.980  1.00  0.00     0.018 A 
ATOM     20  C   UNL A   1      35.549  24.557  25.273  1.00  0.00     0.012 A 
ATOM     21  C   UNL A   1      35.560  23.327  23.190  1.00  0.00     0.012 A 
ATOM     22  C   UNL A   1      36.468  23.656  25.814  1.00  0.00     0.004 A 
ATOM     23  C   UNL A   1      36.464  22.416  23.741  1.00  0.00     0.004 A 
ATOM     24  C   UNL A   1      36.893  22.550  25.068  1.00  0.00    -0.051 A 
ATOM     25  C   UNL A   1      37.808  21.531  25.676  1.00  0.00     0.044 C 
ENDBRANCH  17  19
ENDBRANCH  16  17
ENDBRANCH   7  16
ENDBRANCH   4   7
ENDBRANCH   2   3
ENDBRANCH   1   2
BRANCH   1  26
ATOM     26  C   UNL A   1      34.482  29.593  26.951  1.00  0.00     0.118 C 
BRANCH  26  27
ATOM     27  N   UNL A   1      35.153  30.809  27.386  1.00  0.00    -0.352 N 
ATOM     28  C   UNL A   1      36.344  30.902  28.111  1.00  0.00     0.251 C 
ATOM     29  H   UNL A   1      34.721  31.660  27.142  1.00  0.00     0.163 HD
ATOM     30  O   UNL A   1      36.712  31.891  28.665  1.00  0.00    -0.269 OA
BRANCH  28  31
ATOM     31  C   UNL A   1      37.206  29.698  28.019  1.00  0.00     0.039 A 
ATOM     32  C   UNL A   1      37.265  28.901  29.166  1.00  0.00     0.014 A 
ATOM     33  C   UNL A   1      38.180  29.638  27.030  1.00  0.00     0.014 A 
ATOM     34  C   UNL A   1      38.417  28.167  29.419  1.00  0.00     0.010 A 
ATOM     35  C   UNL A   1      39.362  28.996  27.336  1.00  0.00     0.010 A 
ATOM     36  C   UNL A   1      39.495  28.300  28.548  1.00  0.00    -0.014 A 
BRANCH  36  37
ATOM     37  C   UNL A   1      40.822  27.769  28.820  1.00  0.00     0.031 A 
ATOM     38  C   UNL A   1      41.109  26.363  28.464  1.00  0.00     0.074 A 
ATOM     39  C   UNL A   1      41.800  28.543  29.338  1.00  0.00     0.049 A 
ATOM     40  N   UNL A   1      42.095  25.677  28.931  1.00  0.00    -0.248 NA
ATOM     41  C   UNL A   1      40.248  25.594  27.570  1.00  0.00     0.031 C 
ATOM     42  C   UNL A   1      43.233  28.256  29.369  1.00  0.00     0.029 A 
ATOM     43  N   UNL A   1      41.691  29.679  30.112  1.00  0.00    -0.354 N 
ATOM     44  C   UNL A   1      42.187  24.530  28.180  1.00  0.00     0.074 A 
ATOM     45  C   UNL A   1      40.971  24.487  27.403  1.00  0.00     0.031 C 
ATOM     46  C   UNL A   1      43.811  29.028  30.304  1.00  0.00     0.029 A 
ATOM     47  C   UNL A   1      42.750  29.712  31.021  1.00  0.00     0.049 A 
ATOM     48  H   UNL A   1      40.982  30.359  30.036  1.00  0.00     0.167 HD
ATOM     49  C   UNL A   1      43.346  23.815  28.192  1.00  0.00     0.031 A 
ATOM     50  C   UNL A   1      42.536  29.596  32.368  1.00  0.00     0.031 A 
ATOM     51  C   UNL A   1      44.295  24.333  29.180  1.00  0.00     0.049 A 
ATOM     52  C   UNL A   1      43.127  28.337  32.992  1.00  0.00     0.074 A 
ATOM     53  C   UNL A   1      45.453  25.091  29.111  1.00  0.00     0.029 A 
ATOM     54  N   UNL A   1      43.920  24.337  30.517  1.00  0.00    -0.354 N 
ATOM     55  N   UNL A   1      43.705  27.370  32.333  1.00  0.00    -0.248 NA
ATOM     56  C   UNL A   1      43.041  28.044  34.420  1.00  0.00     0.031 C 
ATOM     57  C   UNL A   1      45.755  25.568  30.421  1.00  0.00     0.029 A 
ATOM     58  C   UNL A   1      44.795  25.080  31.289  1.00  0.00     0.049 A 
ATOM     59  H   UNL A   1      43.130  23.869  30.873  1.00  0.00     0.167 HD
ATOM     60  C   UNL A   1      44.017  26.334  33.181  1.00  0.00     0.074 A 
ATOM     61  C   UNL A   1      43.581  26.813  34.481  1.00  0.00     0.031 C 
ATOM     62  C   UNL A   1      44.573  25.163  32.732  1.00  0.00     0.031 A 
BRANCH  49  63
ATOM     63  C   UNL A   1      43.685  22.833  27.093  1.00  0.00    -0.014 A 
ATOM     64  C   UNL A   1      42.831  21.742  26.838  1.00  0.00     0.010 A 
ATOM     65  C   UNL A   1      44.869  22.884  26.331  1.00  0.00     0.010 A 
ATOM     66  C   UNL A   1      43.190  20.707  25.959  1.00  0.00     0.020 A 
ATOM     67  C   UNL A   1      45.265  21.835  25.488  1.00  0.00     0.020 A 
ATOM     68  C   UNL A   1      44.424  20.743  25.314  1.00  0.00     0.054 A 
BRANCH  68  69
ATOM     69  S   UNL A   1      44.919  19.355  24.260  1.00  0.00     0.124 S 
ATOM     70  O   UNL A   1      44.436  19.766  22.943  1.00  0.00    -0.237 OA
ATOM     71  O   UNL A   1      46.369  19.341  24.423  1.00  0.00    -0.237 OA
ATOM     72  O   UNL A   1      44.216  18.211  24.841  1.00  0.00    -0.744 OA
ENDBRANCH  68  69
ENDBRANCH  49  63
BRANCH  50  73
ATOM     73  C   UNL A   1      41.291  30.288  32.824  1.00  0.00    -0.014 A 
ATOM     74  C   UNL A   1      40.185  29.473  33.155  1.00  0.00     0.010 A 
ATOM     75  C   UNL A   1      41.341  31.598  33.333  1.00  0.00     0.010 A 
ATOM     76  C   UNL A   1      39.267  29.880  34.126  1.00  0.00     0.020 A 
ATOM     77  C   UNL A   1      40.409  32.013  34.298  1.00  0.00     0.020 A 
ATOM     78  C   UNL A   1      39.428  31.120  34.742  1.00  0.00     0.054 A 
BRANCH  78  79
ATOM     79  S   UNL A   1      38.477  31.449  36.258  1.00  0.00     0.124 S 
ATOM     80  O   UNL A   1      37.401  32.305  35.775  1.00  0.00    -0.237 OA
ATOM     81  O   UNL A   1      38.074  30.100  36.664  1.00  0.00    -0.237 OA
ATOM     82  O   UNL A   1      39.449  32.093  37.135  1.00  0.00    -0.744 OA
ENDBRANCH  78  79
ENDBRANCH  50  73
BRANCH  62  83
ATOM     83  C   UNL A   1      44.931  23.937  33.563  1.00  0.00    -0.014 A 
ATOM     84  C   UNL A   1      44.058  22.887  33.878  1.00  0.00     0.010 A 
ATOM     85  C   UNL A   1      46.233  23.846  34.126  1.00  0.00     0.010 A 
ATOM     86  C   UNL A   1      44.483  21.771  34.623  1.00  0.00     0.020 A 
ATOM     87  C   UNL A   1      46.667  22.751  34.879  1.00  0.00     0.020 A 
ATOM     88  C   UNL A   1      45.789  21.705  35.108  1.00  0.00     0.054 A 
BRANCH  88  89
ATOM     89  S   UNL A   1      46.310  20.252  36.051  1.00  0.00     0.124 S 
ATOM     90  O   UNL A   1      45.585  19.173  35.382  1.00  0.00    -0.237 OA
ATOM     91  O   UNL A   1      47.756  20.255  35.851  1.00  0.00    -0.237 OA
ATOM     92  O   UNL A   1      45.872  20.541  37.415  1.00  0.00    -0.744 OA
ENDBRANCH  88  89
ENDBRANCH  62  83
ENDBRANCH  36  37
ENDBRANCH  28  31
ENDBRANCH  26  27
ENDBRANCH   1  26
TORSDOF 18
ENDMDL
MODEL 2
REMARK VINA RESULT:     -13.1      0.763      2.038
REMARK SMILES Cc1ccc(S[C@H](CC(=O)c2ccc(C)cc2)C(=O)NCCCNC(=O)c2ccc(-c3c4nc(c(-c5ccc(S(=O)(=O)[O-])cc5)c5ccc([nH]5)c(-c5ccc(S(=O)(=O)[O-])cc5)c5nc(c(-c6ccc(S(=O)(=O)[O-])cc6)c6ccc3[nH]6)C=C5)C=C4)cc2)cc1
REMARK SMILES IDX 22 1 21 2 20 3 18 4 19 5 7 7 6 8 5 9 1 10 2 11 3 12 88 13
REMARK SMILES IDX 4 14 87 15 8 16 9 17 10 18 11 19 12 20 17 21 13 22 16 23
REMARK SMILES IDX 14 24 15 25 23 26 24 27 25 28 26 30 27 31 28 32 86 33 29 34
REMARK SMILES IDX 85 35 30 36 31 37 32 38 79 39 33 40 84 41 78 42 80 43 34 44
REMARK SMILES IDX 83 45 77 46 76 47 35 49 65 50 46 51 64 52 47 53 50 54 63 55
REMARK SMILES IDX 81 56 48 57 49 58 62 60 82 61 51 62 36 63 37 64 45 65 38 66
REMARK SMILES IDX 44 67 39 68 40 69 41 70 42 71 43 72 66 73 67 74 75 75 68 76
REMARK SMILES IDX 74 77 69 78 70 79 71 80 72 81 73 82 52 83 53 84 61 85 54 86
REMARK SMILES IDX 60 87 55 88 56 89 57 90 58 91 59 92
REMARK H PARENT 20 6 24 29 80 48 50 59
REMARK Flexibility Score: inf
ROOT
ATOM      1  C   UNL A   1      33.047  29.765  27.253  1.00  0.00     0.042 C 
ENDROOT
BRANCH   1   2
ATOM      2  C   UNL A   1      32.377  28.399  27.246  1.00  0.00     0.117 C 
BRANCH   2   3
ATOM      3  N   UNL A   1      31.458  28.237  26.121  1.00  0.00    -0.355 N 
ATOM      4  C   UNL A   1      31.188  27.183  25.299  1.00  0.00     0.233 C 
ATOM      5  O   UNL A   1      30.266  27.327  24.485  1.00  0.00    -0.274 OA
ATOM      6  H   UNL A   1      30.932  29.045  25.917  1.00  0.00     0.163 HD
BRANCH   4   7
ATOM      7  C   UNL A   1      32.021  25.885  25.269  1.00  0.00     0.148 C 
BRANCH   7   8
ATOM      8  S   UNL A   1      33.408  26.095  24.054  1.00  0.00    -0.112 SA
BRANCH   8   9
ATOM      9  C   UNL A   1      34.534  24.723  24.165  1.00  0.00     0.008 A 
ATOM     10  C   UNL A   1      37.058  21.301  24.939  1.00  0.00     0.044 C 
ATOM     11  C   UNL A   1      36.264  22.538  24.651  1.00  0.00    -0.051 A 
ATOM     12  C   UNL A   1      35.661  22.709  23.405  1.00  0.00     0.004 A 
ATOM     13  C   UNL A   1      36.053  23.504  25.635  1.00  0.00     0.004 A 
ATOM     14  C   UNL A   1      34.829  23.806  23.164  1.00  0.00     0.015 A 
ATOM     15  C   UNL A   1      35.204  24.586  25.389  1.00  0.00     0.015 A 
ENDBRANCH   8   9
ENDBRANCH   7   8
BRANCH   7  16
ATOM     16  C   UNL A   1      31.104  24.677  25.461  1.00  0.00     0.106 C 
BRANCH  16  17
ATOM     17  C   UNL A   1      31.510  23.498  26.342  1.00  0.00     0.164 C 
ATOM     18  O   UNL A   1      31.109  23.409  27.504  1.00  0.00    -0.294 OA
BRANCH  17  19
ATOM     19  C   UNL A   1      32.202  22.319  25.787  1.00  0.00     0.018 A 
ATOM     20  C   UNL A   1      33.064  21.602  26.625  1.00  0.00     0.012 A 
ATOM     21  C   UNL A   1      32.042  21.933  24.458  1.00  0.00     0.012 A 
ATOM     22  C   UNL A   1      33.674  20.435  26.164  1.00  0.00     0.004 A 
ATOM     23  C   UNL A   1      32.639  20.754  24.005  1.00  0.00     0.004 A 
ATOM     24  C   UNL A   1      33.424  19.976  24.865  1.00  0.00    -0.051 A 
ATOM     25  C   UNL A   1      34.003  18.676  24.395  1.00  0.00     0.044 C 
ENDBRANCH  17  19
ENDBRANCH  16  17
ENDBRANCH   7  16
ENDBRANCH   4   7
ENDBRANCH   2   3
ENDBRANCH   1   2
BRANCH   1  26
ATOM     26  C   UNL A   1      34.550  29.680  27.055  1.00  0.00     0.118 C 
BRANCH  26  27
ATOM     27  N   UNL A   1      35.243  30.901  27.439  1.00  0.00    -0.352 N 
ATOM     28  C   UNL A   1      36.447  31.002  28.140  1.00  0.00     0.251 C 
ATOM     29  H   UNL A   1      34.816  31.748  27.176  1.00  0.00     0.163 HD
ATOM     30  O   UNL A   1      36.835  32.003  28.656  1.00  0.00    -0.269 OA
BRANCH  28  31
ATOM     31  C   UNL A   1      37.293  29.786  28.072  1.00  0.00     0.039 A 
ATOM     32  C   UNL A   1      37.373  29.031  29.247  1.00  0.00     0.014 A 
ATOM     33  C   UNL A   1      38.242  29.677  27.062  1.00  0.00     0.014 A 
ATOM     34  C   UNL A   1      38.522  28.293  29.499  1.00  0.00     0.010 A 
ATOM     35  C   UNL A   1      39.424  29.033  27.363  1.00  0.00     0.010 A 
ATOM     36  C   UNL A   1      39.579  28.381  28.597  1.00  0.00    -0.014 A 
BRANCH  36  37
ATOM     37  C   UNL A   1      40.907  27.845  28.855  1.00  0.00     0.031 A 
ATOM     38  C   UNL A   1      41.182  26.434  28.508  1.00  0.00     0.074 A 
ATOM     39  C   UNL A   1      41.896  28.618  29.353  1.00  0.00     0.049 A 
ATOM     40  N   UNL A   1      42.170  25.747  28.968  1.00  0.00    -0.248 NA
ATOM     41  C   UNL A   1      40.304  25.663  27.633  1.00  0.00     0.031 C 
ATOM     42  C   UNL A   1      43.328  28.324  29.367  1.00  0.00     0.029 A 
ATOM     43  N   UNL A   1      41.804  29.762  30.118  1.00  0.00    -0.354 N 
ATOM     44  C   UNL A   1      42.245  24.593  28.228  1.00  0.00     0.074 A 
ATOM     45  C   UNL A   1      41.019  24.549  27.467  1.00  0.00     0.031 C 
ATOM     46  C   UNL A   1      43.924  29.101  30.287  1.00  0.00     0.029 A 
ATOM     47  C   UNL A   1      42.876  29.797  31.011  1.00  0.00     0.049 A 
ATOM     48  H   UNL A   1      41.098  30.445  30.044  1.00  0.00     0.167 HD
ATOM     49  C   UNL A   1      43.400  23.871  28.230  1.00  0.00     0.031 A 
ATOM     50  C   UNL A   1      42.680  29.696  32.363  1.00  0.00     0.031 A 
ATOM     51  C   UNL A   1      44.366  24.393  29.200  1.00  0.00     0.049 A 
ATOM     52  C   UNL A   1      43.272  28.439  32.990  1.00  0.00     0.074 A 
ATOM     53  C   UNL A   1      45.526  25.144  29.108  1.00  0.00     0.029 A 
ATOM     54  N   UNL A   1      44.009  24.411  30.542  1.00  0.00    -0.354 N 
ATOM     55  N   UNL A   1      43.836  27.462  32.332  1.00  0.00    -0.248 NA
ATOM     56  C   UNL A   1      43.204  28.160  34.422  1.00  0.00     0.031 C 
ATOM     57  C   UNL A   1      45.849  25.631  30.409  1.00  0.00     0.029 A 
ATOM     58  C   UNL A   1      44.899  25.157  31.295  1.00  0.00     0.049 A 
ATOM     59  H   UNL A   1      43.221  23.952  30.913  1.00  0.00     0.167 HD
ATOM     60  C   UNL A   1      44.154  26.433  33.186  1.00  0.00     0.074 A 
ATOM     61  C   UNL A   1      43.738  26.927  34.487  1.00  0.00     0.031 C 
ATOM     62  C   UNL A   1      44.697  25.255  32.740  1.00  0.00     0.031 A 
BRANCH  49  63
ATOM     63  C   UNL A   1      43.719  22.877  27.136  1.00  0.00    -0.014 A 
ATOM     64  C   UNL A   1      42.846  21.799  26.890  1.00  0.00     0.010 A 
ATOM     65  C   UNL A   1      44.900  22.904  26.369  1.00  0.00     0.010 A 
ATOM     66  C   UNL A   1      43.184  20.753  26.017  1.00  0.00     0.020 A 
ATOM     67  C   UNL A   1      45.276  21.843  25.532  1.00  0.00     0.020 A 
ATOM     68  C   UNL A   1      44.416  20.765  25.366  1.00  0.00     0.054 A 
BRANCH  68  69
ATOM     69  S   UNL A   1      44.883  19.362  24.319  1.00  0.00     0.124 S 
ATOM     70  O   UNL A   1      44.140  18.255  24.917  1.00  0.00    -0.237 OA
ATOM     71  O   UNL A   1      44.424  19.790  23.002  1.00  0.00    -0.237 OA
ATOM     72  O   UNL A   1      46.335  19.281  24.475  1.00  0.00    -0.744 OA
ENDBRANCH  68  69
ENDBRANCH  49  63
BRANCH  50  73
ATOM     73  C   UNL A   1      41.445  30.399  32.829  1.00  0.00    -0.014 A 
ATOM     74  C   UNL A   1      40.302  29.604  33.068  1.00  0.00     0.010 A 
ATOM     75  C   UNL A   1      41.524  31.667  33.431  1.00  0.00     0.010 A 
ATOM     76  C   UNL A   1      39.367  29.975  34.038  1.00  0.00     0.020 A 
ATOM     77  C   UNL A   1      40.576  32.048  34.394  1.00  0.00     0.020 A 
ATOM     78  C   UNL A   1      39.551  31.163  34.744  1.00  0.00     0.054 A 
BRANCH  78  79
ATOM     79  S   UNL A   1      38.564  31.419  36.251  1.00  0.00     0.124 S 
ATOM     80  O   UNL A   1      38.167  30.060  36.602  1.00  0.00    -0.237 OA
ATOM     81  O   UNL A   1      39.536  32.043  37.151  1.00  0.00    -0.237 OA
ATOM     82  O   UNL A   1      37.485  32.294  35.804  1.00  0.00    -0.744 OA
ENDBRANCH  78  79
ENDBRANCH  50  73
BRANCH  62  83
ATOM     83  C   UNL A   1      45.060  24.035  33.578  1.00  0.00    -0.014 A 
ATOM     84  C   UNL A   1      44.227  22.929  33.805  1.00  0.00     0.010 A 
ATOM     85  C   UNL A   1      46.316  24.007  34.242  1.00  0.00     0.010 A 
ATOM     86  C   UNL A   1      44.658  21.825  34.563  1.00  0.00     0.020 A 
ATOM     87  C   UNL A   1      46.753  22.923  35.010  1.00  0.00     0.020 A 
ATOM     88  C   UNL A   1      45.923  21.824  35.151  1.00  0.00     0.054 A 
BRANCH  88  89
ATOM     89  S   UNL A   1      46.451  20.384  36.109  1.00  0.00     0.124 S 
ATOM     90  O   UNL A   1      46.492  20.916  37.470  1.00  0.00    -0.237 OA
ATOM     91  O   UNL A   1      45.382  19.425  35.843  1.00  0.00    -0.237 OA
ATOM     92  O   UNL A   1      47.750  20.038  35.538  1.00  0.00    -0.744 OA
ENDBRANCH  88  89
ENDBRANCH  62  83
ENDBRANCH  36  37
ENDBRANCH  28  31
ENDBRANCH  26  27
ENDBRANCH   1  26
TORSDOF 18
ENDMDL
MODEL 3
REMARK VINA RESULT:     -12.4      1.285      2.937
REMARK SMILES Cc1ccc(S[C@H](CC(=O)c2ccc(C)cc2)C(=O)NCCCNC(=O)c2ccc(-c3c4nc(c(-c5ccc(S(=O)(=O)[O-])cc5)c5ccc([nH]5)c(-c5ccc(S(=O)(=O)[O-])cc5)c5nc(c(-c6ccc(S(=O)(=O)[O-])cc6)c6ccc3[nH]6)C=C5)C=C4)cc2)cc1
REMARK SMILES IDX 22 1 21 2 20 3 18 4 19 5 7 7 6 8 5 9 1 10 2 11 3 12 88 13
REMARK SMILES IDX 4 14 87 15 8 16 9 17 10 18 11 19 12 20 17 21 13 22 16 23
REMARK SMILES IDX 14 24 15 25 23 26 24 27 25 28 26 30 27 31 28 32 86 33 29 34
REMARK SMILES IDX 85 35 30 36 31 37 32 38 79 39 33 40 84 41 78 42 80 43 34 44
REMARK SMILES IDX 83 45 77 46 76 47 35 49 65 50 46 51 64 52 47 53 50 54 63 55
REMARK SMILES IDX 81 56 48 57 49 58 62 60 82 61 51 62 36 63 37 64 45 65 38 66
REMARK SMILES IDX 44 67 39 68 40 69 41 70 42 71 43 72 66 73 67 74 75 75 68 76
REMARK SMILES IDX 74 77 69 78 70 79 71 80 72 81 73 82 52 83 53 84 61 85 54 86
REMARK SMILES IDX 60 87 55 88 56 89 57 90 58 91 59 92
REMARK H PARENT 20 6 24 29 80 48 50 59
REMARK Flexibility Score: inf
ROOT
ATOM      1  C   UNL A   1      33.206  30.074  26.379  1.00  0.00     0.042 C 
ENDROOT
BRANCH   1   2
ATOM      2  C   UNL A   1      32.811  28.929  25.459  1.00  0.00     0.117 C 
BRANCH   2   3
ATOM      3  N   UNL A   1      32.180  27.827  26.184  1.00  0.00    -0.355 N 
ATOM      4  C   UNL A   1      32.040  26.500  25.900  1.00  0.00     0.233 C 
ATOM      5  O   UNL A   1      31.534  25.789  26.777  1.00  0.00    -0.274 OA
ATOM      6  H   UNL A   1      31.780  28.093  27.043  1.00  0.00     0.163 HD
BRANCH   4   7
ATOM      7  C   UNL A   1      32.384  25.876  24.531  1.00  0.00     0.148 C 
BRANCH   7   8
ATOM      8  S   UNL A   1      30.804  25.474  23.646  1.00  0.00    -0.112 SA
BRANCH   8   9
ATOM      9  C   UNL A   1      29.916  26.967  23.267  1.00  0.00     0.008 A 
ATOM     10  C   UNL A   1      28.011  30.579  21.850  1.00  0.00     0.044 C 
ATOM     11  C   UNL A   1      28.701  29.378  22.419  1.00  0.00    -0.051 A 
ATOM     12  C   UNL A   1      27.974  28.422  23.127  1.00  0.00     0.004 A 
ATOM     13  C   UNL A   1      30.060  29.156  22.195  1.00  0.00     0.004 A 
ATOM     14  C   UNL A   1      28.588  27.245  23.566  1.00  0.00     0.015 A 
ATOM     15  C   UNL A   1      30.658  27.967  22.622  1.00  0.00     0.015 A 
ENDBRANCH   8   9
ENDBRANCH   7   8
BRANCH   7  16
ATOM     16  C   UNL A   1      33.646  25.022  24.655  1.00  0.00     0.106 C 
BRANCH  16  17
ATOM     17  C   UNL A   1      33.962  23.916  23.652  1.00  0.00     0.164 C 
ATOM     18  O   UNL A   1      34.555  24.165  22.600  1.00  0.00    -0.294 OA
BRANCH  17  19
ATOM     19  C   UNL A   1      33.781  22.490  23.988  1.00  0.00     0.018 A 
ATOM     20  C   UNL A   1      32.594  21.863  23.590  1.00  0.00     0.012 A 
ATOM     21  C   UNL A   1      34.736  21.780  24.711  1.00  0.00     0.012 A 
ATOM     22  C   UNL A   1      32.418  20.497  23.816  1.00  0.00     0.004 A 
ATOM     23  C   UNL A   1      34.565  20.409  24.919  1.00  0.00     0.004 A 
ATOM     24  C   UNL A   1      33.426  19.750  24.437  1.00  0.00    -0.051 A 
ATOM     25  C   UNL A   1      33.282  18.268  24.601  1.00  0.00     0.044 C 
ENDBRANCH  17  19
ENDBRANCH  16  17
ENDBRANCH   7  16
ENDBRANCH   4   7
ENDBRANCH   2   3
ENDBRANCH   1   2
BRANCH   1  26
ATOM     26  C   UNL A   1      34.482  29.791  27.150  1.00  0.00     0.118 C 
BRANCH  26  27
ATOM     27  N   UNL A   1      35.204  31.000  27.518  1.00  0.00    -0.352 N 
ATOM     28  C   UNL A   1      36.418  31.083  28.204  1.00  0.00     0.251 C 
ATOM     29  H   UNL A   1      34.791  31.854  27.254  1.00  0.00     0.163 HD
ATOM     30  O   UNL A   1      36.832  32.079  28.709  1.00  0.00    -0.269 OA
BRANCH  28  31
ATOM     31  C   UNL A   1      37.240  29.850  28.133  1.00  0.00     0.039 A 
ATOM     32  C   UNL A   1      37.328  29.106  29.315  1.00  0.00     0.014 A 
ATOM     33  C   UNL A   1      38.166  29.712  27.107  1.00  0.00     0.014 A 
ATOM     34  C   UNL A   1      38.468  28.350  29.553  1.00  0.00     0.010 A 
ATOM     35  C   UNL A   1      39.342  29.049  27.392  1.00  0.00     0.010 A 
ATOM     36  C   UNL A   1      39.509  28.408  28.630  1.00  0.00    -0.014 A 
BRANCH  36  37
ATOM     37  C   UNL A   1      40.831  27.849  28.870  1.00  0.00     0.031 A 
ATOM     38  C   UNL A   1      41.072  26.429  28.533  1.00  0.00     0.074 A 
ATOM     39  C   UNL A   1      41.844  28.609  29.339  1.00  0.00     0.049 A 
ATOM     40  N   UNL A   1      42.055  25.729  28.982  1.00  0.00    -0.248 NA
ATOM     41  C   UNL A   1      40.163  25.665  27.684  1.00  0.00     0.031 C 
ATOM     42  C   UNL A   1      43.270  28.287  29.330  1.00  0.00     0.029 A 
ATOM     43  N   UNL A   1      41.788  29.763  30.093  1.00  0.00    -0.354 N 
ATOM     44  C   UNL A   1      42.094  24.565  28.253  1.00  0.00     0.074 A 
ATOM     45  C   UNL A   1      40.853  24.537  27.516  1.00  0.00     0.031 C 
ATOM     46  C   UNL A   1      43.897  29.063  30.229  1.00  0.00     0.029 A 
ATOM     47  C   UNL A   1      42.877  29.787  30.966  1.00  0.00     0.049 A 
ATOM     48  H   UNL A   1      41.094  30.458  30.025  1.00  0.00     0.167 HD
ATOM     49  C   UNL A   1      43.236  23.822  28.241  1.00  0.00     0.031 A 
ATOM     50  C   UNL A   1      42.705  29.703  32.322  1.00  0.00     0.031 A 
ATOM     51  C   UNL A   1      44.229  24.335  29.187  1.00  0.00     0.049 A 
ATOM     52  C   UNL A   1      43.285  28.443  32.952  1.00  0.00     0.074 A 
ATOM     53  C   UNL A   1      45.402  25.063  29.065  1.00  0.00     0.029 A 
ATOM     54  N   UNL A   1      43.898  24.375  30.536  1.00  0.00    -0.354 N 
ATOM     55  N   UNL A   1      43.818  27.448  32.294  1.00  0.00    -0.248 NA
ATOM     56  C   UNL A   1      43.240  28.180  34.388  1.00  0.00     0.031 C 
ATOM     57  C   UNL A   1      45.759  25.558  30.354  1.00  0.00     0.029 A 
ATOM     58  C   UNL A   1      44.817  25.112  31.263  1.00  0.00     0.049 A 
ATOM     59  H   UNL A   1      43.110  23.935  30.926  1.00  0.00     0.167 HD
ATOM     60  C   UNL A   1      44.133  26.422  33.153  1.00  0.00     0.074 A 
ATOM     61  C   UNL A   1      43.751  26.938  34.456  1.00  0.00     0.031 C 
ATOM     62  C   UNL A   1      44.645  25.229  32.710  1.00  0.00     0.031 A 
BRANCH  49  63
ATOM     63  C   UNL A   1      43.514  22.809  27.153  1.00  0.00    -0.014 A 
ATOM     64  C   UNL A   1      42.757  21.624  27.086  1.00  0.00     0.010 A 
ATOM     65  C   UNL A   1      44.559  22.931  26.216  1.00  0.00     0.010 A 
ATOM     66  C   UNL A   1      43.093  20.576  26.214  1.00  0.00     0.020 A 
ATOM     67  C   UNL A   1      44.939  21.874  25.375  1.00  0.00     0.020 A 
ATOM     68  C   UNL A   1      44.207  20.694  25.385  1.00  0.00     0.054 A 
BRANCH  68  69
ATOM     69  S   UNL A   1      44.689  19.298  24.336  1.00  0.00     0.124 S 
ATOM     70  O   UNL A   1      44.423  19.801  22.991  1.00  0.00    -0.237 OA
ATOM     71  O   UNL A   1      46.097  19.125  24.677  1.00  0.00    -0.237 OA
ATOM     72  O   UNL A   1      43.806  18.216  24.772  1.00  0.00    -0.744 OA
ENDBRANCH  68  69
ENDBRANCH  49  63
BRANCH  50  73
ATOM     73  C   UNL A   1      41.493  30.435  32.803  1.00  0.00    -0.014 A 
ATOM     74  C   UNL A   1      40.304  29.687  32.948  1.00  0.00     0.010 A 
ATOM     75  C   UNL A   1      41.617  31.649  33.501  1.00  0.00     0.010 A 
ATOM     76  C   UNL A   1      39.357  30.034  33.915  1.00  0.00     0.020 A 
ATOM     77  C   UNL A   1      40.658  32.008  34.463  1.00  0.00     0.020 A 
ATOM     78  C   UNL A   1      39.578  31.155  34.714  1.00  0.00     0.054 A 
BRANCH  78  79
ATOM     79  S   UNL A   1      38.555  31.352  36.206  1.00  0.00     0.124 S 
ATOM     80  O   UNL A   1      39.438  32.096  37.097  1.00  0.00    -0.237 OA
ATOM     81  O   UNL A   1      37.405  32.098  35.692  1.00  0.00    -0.237 OA
ATOM     82  O   UNL A   1      38.271  29.977  36.606  1.00  0.00    -0.744 OA
ENDBRANCH  78  79
ENDBRANCH  50  73
BRANCH  62  83
ATOM     83  C   UNL A   1      45.001  24.011  33.555  1.00  0.00    -0.014 A 
ATOM     84  C   UNL A   1      44.178  22.894  33.755  1.00  0.00     0.010 A 
ATOM     85  C   UNL A   1      46.238  23.999  34.254  1.00  0.00     0.010 A 
ATOM     86  C   UNL A   1      44.601  21.793  34.522  1.00  0.00     0.020 A 
ATOM     87  C   UNL A   1      46.667  22.919  35.031  1.00  0.00     0.020 A 
ATOM     88  C   UNL A   1      45.849  21.808  35.145  1.00  0.00     0.054 A 
BRANCH  88  89
ATOM     89  S   UNL A   1      46.370  20.372  36.115  1.00  0.00     0.124 S 
ATOM     90  O   UNL A   1      46.223  20.855  37.486  1.00  0.00    -0.237 OA
ATOM     91  O   UNL A   1      45.408  19.354  35.701  1.00  0.00    -0.237 OA
ATOM     92  O   UNL A   1      47.746  20.136  35.683  1.00  0.00    -0.744 OA
ENDBRANCH  88  89
ENDBRANCH  62  83
ENDBRANCH  36  37
ENDBRANCH  28  31
ENDBRANCH  26  27
ENDBRANCH   1  26
TORSDOF 18
ENDMDL
