MODEL 1
REMARK VINA RESULT:     -12.2      0.000      0.000
REMARK SMILES O=C(CCN1C(=O)/C(=C2/C(=O)N(Cc3ccccc3)c3ccccc32)SC1=S)NCCCNC(=O)c1ccc(-c2c3nc(c(-c4ccc(S(=O)(=O)[O-])cc4)c4ccc([nH]4)c(-c4ccc(S(=O)(=O)[O-])cc4)c4nc(c(-c5ccc(S(=O)(=O)[O-])cc5)c5ccc2[nH]5)C=C4)C=C3)cc1
REMARK SMILES IDX 30 1 29 2 1 3 2 4 3 6 4 7 5 8 6 9 27 10 7 11 8 12 26 13
REMARK SMILES IDX 28 14 9 15 10 16 25 17 11 18 12 19 20 20 24 21 21 22 23 23
REMARK SMILES IDX 22 24 13 25 14 26 15 27 19 28 16 29 18 30 17 31 31 32 32 33
REMARK SMILES IDX 33 34 34 35 35 37 36 38 37 39 95 40 38 41 94 42 39 43 40 44
REMARK SMILES IDX 41 45 88 46 42 47 93 48 87 49 89 50 43 51 92 52 86 53 85 54
REMARK SMILES IDX 44 56 74 57 55 58 73 59 56 60 59 61 72 62 90 63 57 64 58 65
REMARK SMILES IDX 71 67 91 68 60 69 45 70 46 71 54 72 47 73 53 74 48 75 49 76
REMARK SMILES IDX 50 77 51 78 52 79 75 80 76 81 84 82 77 83 83 84 78 85 79 86
REMARK SMILES IDX 80 87 81 88 82 89 61 90 62 91 70 92 63 93 69 94 64 95 65 96
REMARK SMILES IDX 66 97 67 98 68 99
REMARK H PARENT 29 5 33 36 89 55 59 66
REMARK Flexibility Score: inf
ROOT
ATOM      1  C   UNL A   1      33.475  31.203  27.616  1.00  0.00     0.117 C 
ENDROOT
BRANCH   1   2
ATOM      2  N   UNL A   1      32.710  29.972  27.595  1.00  0.00    -0.356 N 
ATOM      3  O   UNL A   1      31.445  30.445  25.731  1.00  0.00    -0.275 OA
ATOM      4  C   UNL A   1      31.812  29.667  26.604  1.00  0.00     0.221 C 
ATOM      5  H   UNL A   1      32.841  29.325  28.326  1.00  0.00     0.163 HD
BRANCH   4   6
ATOM      6  C   UNL A   1      31.345  28.225  26.650  1.00  0.00     0.122 C 
BRANCH   6   7
ATOM      7  C   UNL A   1      30.668  27.826  25.343  1.00  0.00     0.137 C 
BRANCH   7   8
ATOM      8  N   UNL A   1      31.471  27.032  24.396  1.00  0.00    -0.292 N 
ATOM      9  C   UNL A   1      31.741  25.717  24.683  1.00  0.00     0.267 C 
ATOM     10  C   UNL A   1      32.051  27.486  23.235  1.00  0.00     0.148 C 
ATOM     11  O   UNL A   1      30.990  24.973  25.292  1.00  0.00    -0.268 OA
ATOM     12  C   UNL A   1      32.984  25.267  24.022  1.00  0.00     0.093 C 
ATOM     13  S   UNL A   1      33.216  26.288  22.652  1.00  0.00    -0.053 SA
ATOM     14  S   UNL A   1      31.766  28.931  22.456  1.00  0.00    -0.052 S 
ATOM     15  C   UNL A   1      33.751  24.270  24.492  1.00  0.00     0.069 C 
ATOM     16  C   UNL A   1      34.959  23.701  23.787  1.00  0.00     0.260 C 
ATOM     17  C   UNL A   1      33.574  23.464  25.720  1.00  0.00     0.012 A 
ATOM     18  O   UNL A   1      35.529  24.162  22.812  1.00  0.00    -0.269 OA
ATOM     19  N   UNL A   1      35.297  22.554  24.507  1.00  0.00    -0.303 N 
ATOM     20  C   UNL A   1      34.442  22.378  25.609  1.00  0.00     0.052 A 
ATOM     21  C   UNL A   1      32.845  23.631  26.890  1.00  0.00     0.011 A 
ATOM     22  C   UNL A   1      34.441  21.351  26.540  1.00  0.00     0.027 A 
ATOM     23  C   UNL A   1      32.875  22.631  27.867  1.00  0.00     0.001 A 
ATOM     24  C   UNL A   1      33.645  21.482  27.678  1.00  0.00     0.002 A 
BRANCH  19  25
ATOM     25  C   UNL A   1      36.483  21.762  24.250  1.00  0.00     0.161 C 
BRANCH  25  26
ATOM     26  C   UNL A   1      37.646  22.119  25.162  1.00  0.00    -0.028 A 
ATOM     27  C   UNL A   1      38.598  21.160  25.548  1.00  0.00     0.005 A 
ATOM     28  C   UNL A   1      37.789  23.423  25.657  1.00  0.00     0.005 A 
ATOM     29  C   UNL A   1      39.643  21.483  26.415  1.00  0.00     0.000 A 
ATOM     30  C   UNL A   1      38.851  23.754  26.506  1.00  0.00     0.000 A 
ATOM     31  C   UNL A   1      39.773  22.782  26.891  1.00  0.00     0.000 A 
ENDBRANCH  25  26
ENDBRANCH  19  25
ENDBRANCH   7   8
ENDBRANCH   6   7
ENDBRANCH   4   6
ENDBRANCH   1   2
BRANCH   1  32
ATOM     32  C   UNL A   1      34.975  30.956  27.534  1.00  0.00     0.042 C 
BRANCH  32  33
ATOM     33  C   UNL A   1      35.799  31.438  28.725  1.00  0.00     0.118 C 
BRANCH  33  34
ATOM     34  N   UNL A   1      35.694  30.621  29.924  1.00  0.00    -0.352 N 
ATOM     35  C   UNL A   1      36.678  29.857  30.523  1.00  0.00     0.251 C 
ATOM     36  H   UNL A   1      34.813  30.612  30.364  1.00  0.00     0.163 HD
ATOM     37  O   UNL A   1      36.419  29.165  31.504  1.00  0.00    -0.269 OA
BRANCH  35  38
ATOM     38  C   UNL A   1      38.044  29.838  29.938  1.00  0.00     0.039 A 
ATOM     39  C   UNL A   1      38.235  29.576  28.581  1.00  0.00     0.014 A 
ATOM     40  C   UNL A   1      39.151  30.008  30.775  1.00  0.00     0.014 A 
ATOM     41  C   UNL A   1      39.511  29.276  28.109  1.00  0.00     0.010 A 
ATOM     42  C   UNL A   1      40.442  29.800  30.274  1.00  0.00     0.010 A 
ATOM     43  C   UNL A   1      40.631  29.364  28.953  1.00  0.00    -0.014 A 
BRANCH  43  44
ATOM     44  C   UNL A   1      41.976  28.971  28.438  1.00  0.00     0.031 A 
ATOM     45  C   UNL A   1      43.120  29.958  28.423  1.00  0.00     0.074 A 
ATOM     46  C   UNL A   1      42.194  27.700  28.045  1.00  0.00     0.049 A 
ATOM     47  N   UNL A   1      44.361  29.771  28.051  1.00  0.00    -0.248 NA
ATOM     48  C   UNL A   1      42.841  31.327  28.885  1.00  0.00     0.031 C 
ATOM     49  C   UNL A   1      41.184  26.641  28.033  1.00  0.00     0.029 A 
ATOM     50  N   UNL A   1      43.337  27.072  27.613  1.00  0.00    -0.354 N 
ATOM     51  C   UNL A   1      45.004  30.992  28.219  1.00  0.00     0.074 A 
ATOM     52  C   UNL A   1      44.009  31.928  28.694  1.00  0.00     0.031 C 
ATOM     53  C   UNL A   1      41.763  25.484  27.679  1.00  0.00     0.029 A 
ATOM     54  C   UNL A   1      43.169  25.728  27.367  1.00  0.00     0.049 A 
ATOM     55  H   UNL A   1      44.195  27.538  27.490  1.00  0.00     0.167 HD
ATOM     56  C   UNL A   1      46.307  31.304  28.017  1.00  0.00     0.031 A 
ATOM     57  C   UNL A   1      44.035  24.790  26.932  1.00  0.00     0.031 A 
ATOM     58  C   UNL A   1      47.303  30.368  27.562  1.00  0.00     0.049 A 
ATOM     59  C   UNL A   1      45.462  25.172  26.661  1.00  0.00     0.074 A 
ATOM     60  C   UNL A   1      48.653  30.594  27.350  1.00  0.00     0.029 A 
ATOM     61  N   UNL A   1      47.070  29.036  27.256  1.00  0.00    -0.354 N 
ATOM     62  N   UNL A   1      46.047  26.332  26.836  1.00  0.00    -0.248 NA
ATOM     63  C   UNL A   1      46.347  24.124  26.132  1.00  0.00     0.031 C 
ATOM     64  C   UNL A   1      49.220  29.420  26.852  1.00  0.00     0.029 A 
ATOM     65  C   UNL A   1      48.244  28.438  26.826  1.00  0.00     0.049 A 
ATOM     66  H   UNL A   1      46.199  28.582  27.333  1.00  0.00     0.167 HD
ATOM     67  C   UNL A   1      47.371  26.151  26.450  1.00  0.00     0.074 A 
ATOM     68  C   UNL A   1      47.507  24.765  26.052  1.00  0.00     0.031 C 
ATOM     69  C   UNL A   1      48.377  27.058  26.426  1.00  0.00     0.031 A 
BRANCH  56  70
ATOM     70  C   UNL A   1      46.761  32.718  28.286  1.00  0.00    -0.014 A 
ATOM     71  C   UNL A   1      46.851  33.637  27.223  1.00  0.00     0.010 A 
ATOM     72  C   UNL A   1      47.225  33.100  29.557  1.00  0.00     0.010 A 
ATOM     73  C   UNL A   1      47.427  34.897  27.416  1.00  0.00     0.020 A 
ATOM     74  C   UNL A   1      47.776  34.368  29.762  1.00  0.00     0.020 A 
ATOM     75  C   UNL A   1      47.897  35.249  28.683  1.00  0.00     0.054 A 
BRANCH  75  76
ATOM     76  S   UNL A   1      48.670  36.876  28.910  1.00  0.00     0.124 S 
ATOM     77  O   UNL A   1      47.942  37.700  27.952  1.00  0.00    -0.237 OA
ATOM     78  O   UNL A   1      48.406  37.160  30.319  1.00  0.00    -0.237 OA
ATOM     79  O   UNL A   1      50.075  36.634  28.587  1.00  0.00    -0.744 OA
ENDBRANCH  75  76
ENDBRANCH  56  70
BRANCH  57  80
ATOM     80  C   UNL A   1      43.554  23.391  26.754  1.00  0.00    -0.014 A 
ATOM     81  C   UNL A   1      43.292  22.581  27.876  1.00  0.00     0.010 A 
ATOM     82  C   UNL A   1      43.448  22.832  25.468  1.00  0.00     0.010 A 
ATOM     83  C   UNL A   1      43.004  21.223  27.719  1.00  0.00     0.020 A 
ATOM     84  C   UNL A   1      43.126  21.480  25.307  1.00  0.00     0.020 A 
ATOM     85  C   UNL A   1      42.940  20.678  26.435  1.00  0.00     0.054 A 
BRANCH  85  86
ATOM     86  S   UNL A   1      42.633  18.899  26.260  1.00  0.00     0.124 S 
ATOM     87  O   UNL A   1      41.327  18.885  25.605  1.00  0.00    -0.237 OA
ATOM     88  O   UNL A   1      43.755  18.461  25.435  1.00  0.00    -0.237 OA
ATOM     89  O   UNL A   1      42.649  18.413  27.637  1.00  0.00    -0.744 OA
ENDBRANCH  85  86
ENDBRANCH  57  80
BRANCH  69  90
ATOM     90  C   UNL A   1      49.735  26.611  25.948  1.00  0.00    -0.014 A 
ATOM     91  C   UNL A   1      50.628  26.003  26.852  1.00  0.00     0.010 A 
ATOM     92  C   UNL A   1      50.181  26.922  24.652  1.00  0.00     0.010 A 
ATOM     93  C   UNL A   1      51.952  25.755  26.484  1.00  0.00     0.020 A 
ATOM     94  C   UNL A   1      51.497  26.648  24.270  1.00  0.00     0.020 A 
ATOM     95  C   UNL A   1      52.382  26.093  25.198  1.00  0.00     0.054 A 
BRANCH  95  96
ATOM     96  S   UNL A   1      54.119  25.811  24.755  1.00  0.00     0.124 S 
ATOM     97  O   UNL A   1      54.820  26.696  25.681  1.00  0.00    -0.237 OA
ATOM     98  O   UNL A   1      54.285  24.381  25.002  1.00  0.00    -0.237 OA
ATOM     99  O   UNL A   1      54.182  26.203  23.348  1.00  0.00    -0.744 OA
ENDBRANCH  95  96
ENDBRANCH  69  90
ENDBRANCH  43  44
ENDBRANCH  35  38
ENDBRANCH  33  34
ENDBRANCH  32  33
ENDBRANCH   1  32
TORSDOF 17
ENDMDL
MODEL 2
REMARK VINA RESULT:     -11.7      1.650      8.137
REMARK SMILES O=C(CCN1C(=O)/C(=C2/C(=O)N(Cc3ccccc3)c3ccccc32)SC1=S)NCCCNC(=O)c1ccc(-c2c3nc(c(-c4ccc(S(=O)(=O)[O-])cc4)c4ccc([nH]4)c(-c4ccc(S(=O)(=O)[O-])cc4)c4nc(c(-c5ccc(S(=O)(=O)[O-])cc5)c5ccc2[nH]5)C=C4)C=C3)cc1
REMARK SMILES IDX 30 1 29 2 1 3 2 4 3 6 4 7 5 8 6 9 27 10 7 11 8 12 26 13
REMARK SMILES IDX 28 14 9 15 10 16 25 17 11 18 12 19 20 20 24 21 21 22 23 23
REMARK SMILES IDX 22 24 13 25 14 26 15 27 19 28 16 29 18 30 17 31 31 32 32 33
REMARK SMILES IDX 33 34 34 35 35 37 36 38 37 39 95 40 38 41 94 42 39 43 40 44
REMARK SMILES IDX 41 45 88 46 42 47 93 48 87 49 89 50 43 51 92 52 86 53 85 54
REMARK SMILES IDX 44 56 74 57 55 58 73 59 56 60 59 61 72 62 90 63 57 64 58 65
REMARK SMILES IDX 71 67 91 68 60 69 45 70 46 71 54 72 47 73 53 74 48 75 49 76
REMARK SMILES IDX 50 77 51 78 52 79 75 80 76 81 84 82 77 83 83 84 78 85 79 86
REMARK SMILES IDX 80 87 81 88 82 89 61 90 62 91 70 92 63 93 69 94 64 95 65 96
REMARK SMILES IDX 66 97 67 98 68 99
REMARK H PARENT 29 5 33 36 89 55 59 66
REMARK Flexibility Score: inf
ROOT
ATOM      1  C   UNL A   1      34.208  29.509  27.110  1.00  0.00     0.117 C 
ENDROOT
BRANCH   1   2
ATOM      2  N   UNL A   1      34.036  29.231  25.698  1.00  0.00    -0.356 N 
ATOM      3  O   UNL A   1      31.747  29.467  25.631  1.00  0.00    -0.275 OA
ATOM      4  C   UNL A   1      32.822  29.311  25.063  1.00  0.00     0.221 C 
ATOM      5  H   UNL A   1      34.826  28.973  25.170  1.00  0.00     0.163 HD
BRANCH   4   6
ATOM      6  C   UNL A   1      32.937  29.246  23.553  1.00  0.00     0.122 C 
BRANCH   6   7
ATOM      7  C   UNL A   1      33.053  27.802  23.073  1.00  0.00     0.137 C 
BRANCH   7   8
ATOM      8  N   UNL A   1      32.389  26.776  23.895  1.00  0.00    -0.292 N 
ATOM      9  C   UNL A   1      33.156  25.891  24.612  1.00  0.00     0.267 C 
ATOM     10  C   UNL A   1      31.035  26.555  23.992  1.00  0.00     0.148 C 
ATOM     11  O   UNL A   1      34.241  26.154  25.102  1.00  0.00    -0.268 OA
ATOM     12  C   UNL A   1      32.430  24.626  24.856  1.00  0.00     0.093 C 
ATOM     13  S   UNL A   1      30.747  24.996  24.777  1.00  0.00    -0.053 SA
ATOM     14  S   UNL A   1      29.805  27.545  23.459  1.00  0.00    -0.052 S 
ATOM     15  C   UNL A   1      33.045  23.448  25.051  1.00  0.00     0.069 C 
ATOM     16  C   UNL A   1      32.349  22.160  25.422  1.00  0.00     0.260 C 
ATOM     17  C   UNL A   1      34.491  23.143  25.030  1.00  0.00     0.012 A 
ATOM     18  O   UNL A   1      31.149  21.941  25.413  1.00  0.00    -0.269 OA
ATOM     19  N   UNL A   1      33.374  21.271  25.747  1.00  0.00    -0.303 N 
ATOM     20  C   UNL A   1      34.635  21.869  25.578  1.00  0.00     0.052 A 
ATOM     21  C   UNL A   1      35.610  23.791  24.522  1.00  0.00     0.011 A 
ATOM     22  C   UNL A   1      35.885  21.321  25.821  1.00  0.00     0.027 A 
ATOM     23  C   UNL A   1      36.875  23.226  24.707  1.00  0.00     0.001 A 
ATOM     24  C   UNL A   1      37.014  22.012  25.382  1.00  0.00     0.002 A 
BRANCH  19  25
ATOM     25  C   UNL A   1      33.161  19.868  26.040  1.00  0.00     0.161 C 
BRANCH  25  26
ATOM     26  C   UNL A   1      33.251  18.981  24.808  1.00  0.00    -0.028 A 
ATOM     27  C   UNL A   1      32.339  19.105  23.746  1.00  0.00     0.005 A 
ATOM     28  C   UNL A   1      34.246  17.999  24.710  1.00  0.00     0.005 A 
ATOM     29  C   UNL A   1      32.403  18.264  22.634  1.00  0.00     0.000 A 
ATOM     30  C   UNL A   1      34.326  17.172  23.584  1.00  0.00     0.000 A 
ATOM     31  C   UNL A   1      33.400  17.300  22.550  1.00  0.00     0.000 A 
ENDBRANCH  25  26
ENDBRANCH  19  25
ENDBRANCH   7   8
ENDBRANCH   6   7
ENDBRANCH   4   6
ENDBRANCH   1   2
BRANCH   1  32
ATOM     32  C   UNL A   1      35.634  29.918  27.451  1.00  0.00     0.042 C 
BRANCH  32  33
ATOM     33  C   UNL A   1      36.251  29.241  28.671  1.00  0.00     0.118 C 
BRANCH  33  34
ATOM     34  N   UNL A   1      36.016  29.913  29.941  1.00  0.00    -0.352 N 
ATOM     35  C   UNL A   1      36.952  30.413  30.827  1.00  0.00     0.251 C 
ATOM     36  H   UNL A   1      35.073  30.025  30.200  1.00  0.00     0.163 HD
ATOM     37  O   UNL A   1      36.598  30.901  31.897  1.00  0.00    -0.269 OA
BRANCH  35  38
ATOM     38  C   UNL A   1      38.397  30.309  30.497  1.00  0.00     0.039 A 
ATOM     39  C   UNL A   1      38.890  30.806  29.289  1.00  0.00     0.014 A 
ATOM     40  C   UNL A   1      39.253  29.635  31.372  1.00  0.00     0.014 A 
ATOM     41  C   UNL A   1      40.169  30.448  28.868  1.00  0.00     0.010 A 
ATOM     42  C   UNL A   1      40.571  29.359  30.984  1.00  0.00     0.010 A 
ATOM     43  C   UNL A   1      41.022  29.703  29.700  1.00  0.00    -0.014 A 
BRANCH  43  44
ATOM     44  C   UNL A   1      42.359  29.277  29.194  1.00  0.00     0.031 A 
ATOM     45  C   UNL A   1      42.584  27.873  28.682  1.00  0.00     0.074 A 
ATOM     46  C   UNL A   1      43.364  30.174  29.128  1.00  0.00     0.049 A 
ATOM     47  N   UNL A   1      43.669  27.350  28.169  1.00  0.00    -0.248 NA
ATOM     48  C   UNL A   1      41.451  26.936  28.752  1.00  0.00     0.031 C 
ATOM     49  C   UNL A   1      43.274  31.568  29.564  1.00  0.00     0.029 A 
ATOM     50  N   UNL A   1      44.643  30.062  28.639  1.00  0.00    -0.354 N 
ATOM     51  C   UNL A   1      43.356  26.029  27.868  1.00  0.00     0.074 A 
ATOM     52  C   UNL A   1      41.989  25.815  28.289  1.00  0.00     0.031 C 
ATOM     53  C   UNL A   1      44.419  32.197  29.266  1.00  0.00     0.029 A 
ATOM     54  C   UNL A   1      45.356  31.238  28.684  1.00  0.00     0.049 A 
ATOM     55  H   UNL A   1      45.016  29.220  28.291  1.00  0.00     0.167 HD
ATOM     56  C   UNL A   1      44.128  25.084  27.278  1.00  0.00     0.031 A 
ATOM     57  C   UNL A   1      46.620  31.526  28.312  1.00  0.00     0.031 A 
ATOM     58  C   UNL A   1      45.484  25.302  26.841  1.00  0.00     0.049 A 
ATOM     59  C   UNL A   1      47.475  30.447  27.711  1.00  0.00     0.074 A 
ATOM     60  C   UNL A   1      46.333  24.405  26.213  1.00  0.00     0.029 A 
ATOM     61  N   UNL A   1      46.187  26.490  26.974  1.00  0.00    -0.354 N 
ATOM     62  N   UNL A   1      47.154  29.208  27.429  1.00  0.00    -0.248 NA
ATOM     63  C   UNL A   1      48.863  30.800  27.378  1.00  0.00     0.031 C 
ATOM     64  C   UNL A   1      47.569  25.027  26.030  1.00  0.00     0.029 A 
ATOM     65  C   UNL A   1      47.469  26.337  26.471  1.00  0.00     0.049 A 
ATOM     66  H   UNL A   1      45.829  27.318  27.369  1.00  0.00     0.167 HD
ATOM     67  C   UNL A   1      48.295  28.637  26.876  1.00  0.00     0.074 A 
ATOM     68  C   UNL A   1      49.308  29.671  26.843  1.00  0.00     0.031 C 
ATOM     69  C   UNL A   1      48.480  27.366  26.442  1.00  0.00     0.031 A 
BRANCH  56  70
ATOM     70  C   UNL A   1      43.543  23.711  27.052  1.00  0.00    -0.014 A 
ATOM     71  C   UNL A   1      43.088  23.348  25.771  1.00  0.00     0.010 A 
ATOM     72  C   UNL A   1      43.320  22.834  28.128  1.00  0.00     0.010 A 
ATOM     73  C   UNL A   1      42.391  22.151  25.574  1.00  0.00     0.020 A 
ATOM     74  C   UNL A   1      42.649  21.623  27.932  1.00  0.00     0.020 A 
ATOM     75  C   UNL A   1      42.166  21.302  26.660  1.00  0.00     0.054 A 
BRANCH  75  76
ATOM     76  S   UNL A   1      41.234  19.768  26.394  1.00  0.00     0.124 S 
ATOM     77  O   UNL A   1      39.914  20.268  26.027  1.00  0.00    -0.237 OA
ATOM     78  O   UNL A   1      41.985  19.119  25.321  1.00  0.00    -0.237 OA
ATOM     79  O   UNL A   1      41.310  19.093  27.688  1.00  0.00    -0.744 OA
ENDBRANCH  75  76
ENDBRANCH  56  70
BRANCH  57  80
ATOM     80  C   UNL A   1      47.125  32.916  28.487  1.00  0.00    -0.014 A 
ATOM     81  C   UNL A   1      47.704  33.314  29.708  1.00  0.00     0.010 A 
ATOM     82  C   UNL A   1      46.945  33.874  27.473  1.00  0.00     0.010 A 
ATOM     83  C   UNL A   1      48.026  34.653  29.939  1.00  0.00     0.020 A 
ATOM     84  C   UNL A   1      47.298  35.211  27.689  1.00  0.00     0.020 A 
ATOM     85  C   UNL A   1      47.804  35.596  28.932  1.00  0.00     0.054 A 
BRANCH  85  86
ATOM     86  S   UNL A   1      48.165  37.340  29.280  1.00  0.00     0.124 S 
ATOM     87  O   UNL A   1      47.138  38.019  28.493  1.00  0.00    -0.237 OA
ATOM     88  O   UNL A   1      48.000  37.417  30.729  1.00  0.00    -0.237 OA
ATOM     89  O   UNL A   1      49.534  37.507  28.801  1.00  0.00    -0.744 OA
ENDBRANCH  85  86
ENDBRANCH  57  80
BRANCH  69  90
ATOM     90  C   UNL A   1      49.830  26.987  25.889  1.00  0.00    -0.014 A 
ATOM     91  C   UNL A   1      50.825  26.490  26.753  1.00  0.00     0.010 A 
ATOM     92  C   UNL A   1      50.160  27.257  24.550  1.00  0.00     0.010 A 
ATOM     93  C   UNL A   1      52.134  26.313  26.302  1.00  0.00     0.020 A 
ATOM     94  C   UNL A   1      51.463  27.053  24.086  1.00  0.00     0.020 A 
ATOM     95  C   UNL A   1      52.448  26.610  24.973  1.00  0.00     0.054 A 
BRANCH  95  96
ATOM     96  S   UNL A   1      54.166  26.422  24.417  1.00  0.00     0.124 S 
ATOM     97  O   UNL A   1      54.811  27.588  25.015  1.00  0.00    -0.237 OA
ATOM     98  O   UNL A   1      54.547  25.131  24.983  1.00  0.00    -0.237 OA
ATOM     99  O   UNL A   1      54.059  26.447  22.959  1.00  0.00    -0.744 OA
ENDBRANCH  95  96
ENDBRANCH  69  90
ENDBRANCH  43  44
ENDBRANCH  35  38
ENDBRANCH  33  34
ENDBRANCH  32  33
ENDBRANCH   1  32
TORSDOF 17
ENDMDL
MODEL 3
REMARK VINA RESULT:     -11.6      1.994      3.030
REMARK SMILES O=C(CCN1C(=O)/C(=C2/C(=O)N(Cc3ccccc3)c3ccccc32)SC1=S)NCCCNC(=O)c1ccc(-c2c3nc(c(-c4ccc(S(=O)(=O)[O-])cc4)c4ccc([nH]4)c(-c4ccc(S(=O)(=O)[O-])cc4)c4nc(c(-c5ccc(S(=O)(=O)[O-])cc5)c5ccc2[nH]5)C=C4)C=C3)cc1
REMARK SMILES IDX 30 1 29 2 1 3 2 4 3 6 4 7 5 8 6 9 27 10 7 11 8 12 26 13
REMARK SMILES IDX 28 14 9 15 10 16 25 17 11 18 12 19 20 20 24 21 21 22 23 23
REMARK SMILES IDX 22 24 13 25 14 26 15 27 19 28 16 29 18 30 17 31 31 32 32 33
REMARK SMILES IDX 33 34 34 35 35 37 36 38 37 39 95 40 38 41 94 42 39 43 40 44
REMARK SMILES IDX 41 45 88 46 42 47 93 48 87 49 89 50 43 51 92 52 86 53 85 54
REMARK SMILES IDX 44 56 74 57 55 58 73 59 56 60 59 61 72 62 90 63 57 64 58 65
REMARK SMILES IDX 71 67 91 68 60 69 45 70 46 71 54 72 47 73 53 74 48 75 49 76
REMARK SMILES IDX 50 77 51 78 52 79 75 80 76 81 84 82 77 83 83 84 78 85 79 86
REMARK SMILES IDX 80 87 81 88 82 89 61 90 62 91 70 92 63 93 69 94 64 95 65 96
REMARK SMILES IDX 66 97 67 98 68 99
REMARK H PARENT 29 5 33 36 89 55 59 66
REMARK Flexibility Score: inf
ROOT
ATOM      1  C   UNL A   1      33.916  30.596  26.995  1.00  0.00     0.117 C 
ENDROOT
BRANCH   1   2
ATOM      2  N   UNL A   1      33.638  30.085  25.668  1.00  0.00    -0.356 N 
ATOM      3  O   UNL A   1      31.706  28.948  26.191  1.00  0.00    -0.275 OA
ATOM      4  C   UNL A   1      32.510  29.366  25.365  1.00  0.00     0.221 C 
ATOM      5  H   UNL A   1      34.290  30.262  24.951  1.00  0.00     0.163 HD
BRANCH   4   6
ATOM      6  C   UNL A   1      32.309  29.179  23.874  1.00  0.00     0.122 C 
BRANCH   6   7
ATOM      7  C   UNL A   1      32.653  27.755  23.449  1.00  0.00     0.137 C 
BRANCH   7   8
ATOM      8  N   UNL A   1      32.043  26.664  24.230  1.00  0.00    -0.292 N 
ATOM      9  C   UNL A   1      32.856  25.785  24.901  1.00  0.00     0.267 C 
ATOM     10  C   UNL A   1      30.702  26.379  24.328  1.00  0.00     0.148 C 
ATOM     11  O   UNL A   1      33.934  26.075  25.394  1.00  0.00    -0.268 OA
ATOM     12  C   UNL A   1      32.190  24.479  25.096  1.00  0.00     0.093 C 
ATOM     13  S   UNL A   1      30.492  24.776  25.046  1.00  0.00    -0.053 SA
ATOM     14  S   UNL A   1      29.424  27.335  23.849  1.00  0.00    -0.052 S 
ATOM     15  C   UNL A   1      32.858  23.323  25.234  1.00  0.00     0.069 C 
ATOM     16  C   UNL A   1      32.224  21.990  25.554  1.00  0.00     0.260 C 
ATOM     17  C   UNL A   1      34.317  23.084  25.188  1.00  0.00     0.012 A 
ATOM     18  O   UNL A   1      31.035  21.717  25.545  1.00  0.00    -0.269 OA
ATOM     19  N   UNL A   1      33.292  21.135  25.832  1.00  0.00    -0.303 N 
ATOM     20  C   UNL A   1      34.523  21.795  25.679  1.00  0.00     0.052 A 
ATOM     21  C   UNL A   1      35.401  23.803  24.700  1.00  0.00     0.011 A 
ATOM     22  C   UNL A   1      35.799  21.294  25.888  1.00  0.00     0.027 A 
ATOM     23  C   UNL A   1      36.692  23.288  24.850  1.00  0.00     0.001 A 
ATOM     24  C   UNL A   1      36.891  22.054  25.470  1.00  0.00     0.002 A 
BRANCH  19  25
ATOM     25  C   UNL A   1      33.144  19.712  26.065  1.00  0.00     0.161 C 
BRANCH  25  26
ATOM     26  C   UNL A   1      33.223  18.888  24.790  1.00  0.00    -0.028 A 
ATOM     27  C   UNL A   1      32.381  19.145  23.695  1.00  0.00     0.005 A 
ATOM     28  C   UNL A   1      34.136  17.829  24.682  1.00  0.00     0.005 A 
ATOM     29  C   UNL A   1      32.431  18.363  22.540  1.00  0.00     0.000 A 
ATOM     30  C   UNL A   1      34.205  17.060  23.515  1.00  0.00     0.000 A 
ATOM     31  C   UNL A   1      33.347  17.322  22.448  1.00  0.00     0.000 A 
ENDBRANCH  25  26
ENDBRANCH  19  25
ENDBRANCH   7   8
ENDBRANCH   6   7
ENDBRANCH   4   6
ENDBRANCH   1   2
BRANCH   1  32
ATOM     32  C   UNL A   1      35.390  30.491  27.362  1.00  0.00     0.042 C 
BRANCH  32  33
ATOM     33  C   UNL A   1      35.810  29.216  28.088  1.00  0.00     0.118 C 
BRANCH  33  34
ATOM     34  N   UNL A   1      35.917  29.332  29.535  1.00  0.00    -0.352 N 
ATOM     35  C   UNL A   1      37.035  29.135  30.325  1.00  0.00     0.251 C 
ATOM     36  H   UNL A   1      35.091  29.581  30.010  1.00  0.00     0.163 HD
ATOM     37  O   UNL A   1      36.953  29.207  31.548  1.00  0.00    -0.269 OA
BRANCH  35  38
ATOM     38  C   UNL A   1      38.328  28.783  29.684  1.00  0.00     0.039 A 
ATOM     39  C   UNL A   1      39.237  27.942  30.326  1.00  0.00     0.014 A 
ATOM     40  C   UNL A   1      38.666  29.367  28.459  1.00  0.00     0.014 A 
ATOM     41  C   UNL A   1      40.546  27.855  29.857  1.00  0.00     0.010 A 
ATOM     42  C   UNL A   1      39.957  29.198  27.940  1.00  0.00     0.010 A 
ATOM     43  C   UNL A   1      40.931  28.497  28.668  1.00  0.00    -0.014 A 
BRANCH  43  44
ATOM     44  C   UNL A   1      42.356  28.443  28.227  1.00  0.00     0.031 A 
ATOM     45  C   UNL A   1      43.307  29.576  28.533  1.00  0.00     0.074 A 
ATOM     46  C   UNL A   1      42.821  27.338  27.609  1.00  0.00     0.049 A 
ATOM     47  N   UNL A   1      44.585  29.673  28.262  1.00  0.00    -0.248 NA
ATOM     48  C   UNL A   1      42.760  30.751  29.232  1.00  0.00     0.031 C 
ATOM     49  C   UNL A   1      42.016  26.162  27.278  1.00  0.00     0.029 A 
ATOM     50  N   UNL A   1      44.084  27.007  27.181  1.00  0.00    -0.354 N 
ATOM     51  C   UNL A   1      44.989  30.914  28.742  1.00  0.00     0.074 A 
ATOM     52  C   UNL A   1      43.814  31.555  29.290  1.00  0.00     0.031 C 
ATOM     53  C   UNL A   1      42.813  25.216  26.759  1.00  0.00     0.029 A 
ATOM     54  C   UNL A   1      44.172  25.740  26.651  1.00  0.00     0.049 A 
ATOM     55  H   UNL A   1      44.852  27.618  27.245  1.00  0.00     0.167 HD
ATOM     56  C   UNL A   1      46.228  31.463  28.744  1.00  0.00     0.031 A 
ATOM     57  C   UNL A   1      45.217  25.067  26.128  1.00  0.00     0.031 A 
ATOM     58  C   UNL A   1      47.402  30.817  28.215  1.00  0.00     0.049 A 
ATOM     59  C   UNL A   1      46.570  25.719  26.090  1.00  0.00     0.074 A 
ATOM     60  C   UNL A   1      48.703  31.293  28.196  1.00  0.00     0.029 A 
ATOM     61  N   UNL A   1      47.428  29.564  27.622  1.00  0.00    -0.354 N 
ATOM     62  N   UNL A   1      46.929  26.890  26.558  1.00  0.00    -0.248 NA
ATOM     63  C   UNL A   1      47.660  24.964  25.455  1.00  0.00     0.031 C 
ATOM     64  C   UNL A   1      49.500  30.361  27.532  1.00  0.00     0.029 A 
ATOM     65  C   UNL A   1      48.716  29.267  27.206  1.00  0.00     0.049 A 
ATOM     66  H   UNL A   1      46.647  28.973  27.514  1.00  0.00     0.167 HD
ATOM     67  C   UNL A   1      48.287  27.008  26.284  1.00  0.00     0.074 A 
ATOM     68  C   UNL A   1      48.691  25.781  25.629  1.00  0.00     0.031 C 
ATOM     69  C   UNL A   1      49.117  28.046  26.549  1.00  0.00     0.031 A 
BRANCH  56  70
ATOM     70  C   UNL A   1      46.406  32.838  29.340  1.00  0.00    -0.014 A 
ATOM     71  C   UNL A   1      46.624  32.977  30.724  1.00  0.00     0.010 A 
ATOM     72  C   UNL A   1      46.226  33.994  28.560  1.00  0.00     0.010 A 
ATOM     73  C   UNL A   1      46.624  34.241  31.323  1.00  0.00     0.020 A 
ATOM     74  C   UNL A   1      46.253  35.261  29.150  1.00  0.00     0.020 A 
ATOM     75  C   UNL A   1      46.427  35.375  30.532  1.00  0.00     0.054 A 
BRANCH  75  76
ATOM     76  S   UNL A   1      46.398  37.005  31.329  1.00  0.00     0.124 S 
ATOM     77  O   UNL A   1      45.481  37.751  30.475  1.00  0.00    -0.237 OA
ATOM     78  O   UNL A   1      45.905  36.696  32.670  1.00  0.00    -0.237 OA
ATOM     79  O   UNL A   1      47.794  37.436  31.275  1.00  0.00    -0.744 OA
ENDBRANCH  75  76
ENDBRANCH  56  70
BRANCH  57  80
ATOM     80  C   UNL A   1      45.003  23.683  25.620  1.00  0.00    -0.014 A 
ATOM     81  C   UNL A   1      45.038  22.587  26.504  1.00  0.00     0.010 A 
ATOM     82  C   UNL A   1      44.860  23.443  24.241  1.00  0.00     0.010 A 
ATOM     83  C   UNL A   1      45.006  21.280  26.016  1.00  0.00     0.020 A 
ATOM     84  C   UNL A   1      44.794  22.134  23.752  1.00  0.00     0.020 A 
ATOM     85  C   UNL A   1      44.902  21.062  24.641  1.00  0.00     0.054 A 
BRANCH  85  86
ATOM     86  S   UNL A   1      44.933  19.355  24.026  1.00  0.00     0.124 S 
ATOM     87  O   UNL A   1      46.360  19.046  24.079  1.00  0.00    -0.237 OA
ATOM     88  O   UNL A   1      44.100  18.651  24.996  1.00  0.00    -0.237 OA
ATOM     89  O   UNL A   1      44.366  19.466  22.684  1.00  0.00    -0.744 OA
ENDBRANCH  85  86
ENDBRANCH  57  80
BRANCH  69  90
ATOM     90  C   UNL A   1      50.562  27.932  26.136  1.00  0.00    -0.014 A 
ATOM     91  C   UNL A   1      50.963  28.385  24.864  1.00  0.00     0.010 A 
ATOM     92  C   UNL A   1      51.490  27.249  26.942  1.00  0.00     0.010 A 
ATOM     93  C   UNL A   1      52.248  28.119  24.387  1.00  0.00     0.020 A 
ATOM     94  C   UNL A   1      52.786  27.007  26.479  1.00  0.00     0.020 A 
ATOM     95  C   UNL A   1      53.148  27.418  25.194  1.00  0.00     0.054 A 
BRANCH  95  96
ATOM     96  S   UNL A   1      54.797  27.037  24.539  1.00  0.00     0.124 S 
ATOM     97  O   UNL A   1      55.259  28.347  24.089  1.00  0.00    -0.237 OA
ATOM     98  O   UNL A   1      55.487  26.491  25.704  1.00  0.00    -0.237 OA
ATOM     99  O   UNL A   1      54.527  26.071  23.474  1.00  0.00    -0.744 OA
ENDBRANCH  95  96
ENDBRANCH  69  90
ENDBRANCH  43  44
ENDBRANCH  35  38
ENDBRANCH  33  34
ENDBRANCH  32  33
ENDBRANCH   1  32
TORSDOF 17
ENDMDL
