MODEL 1
REMARK VINA RESULT:     -11.0      0.000      0.000
REMARK SMILES O=C(NCCCNC(=O)c1cnn2c(C(F)(F)F)ccnc12)c1ccc(-c2c3nc(c(-c4ccc(S(=O)(=O)[O-])cc4)c4ccc([nH]4)c(-c4ccc(S(=O)(=O)[O-])cc4)c4nc(c(-c5ccc(S(=O)(=O)[O-])cc5)c5ccc2[nH]5)C=C4)C=C3)cc1
REMARK SMILES IDX 4 1 3 2 1 3 2 4 23 6 24 7 82 8 25 9 81 10 26 11 27 12 28 13
REMARK SMILES IDX 75 14 29 15 80 16 74 17 76 18 30 19 79 20 73 21 72 22 31 24
REMARK SMILES IDX 61 25 42 26 60 27 43 28 46 29 59 30 77 31 44 32 45 33 58 35
REMARK SMILES IDX 78 36 47 37 32 38 33 39 41 40 34 41 40 42 35 43 36 44 37 45
REMARK SMILES IDX 38 46 39 47 62 48 63 49 71 50 64 51 70 52 65 53 66 54 67 55
REMARK SMILES IDX 68 56 69 57 48 58 49 59 57 60 50 61 56 62 51 63 52 64 53 65
REMARK SMILES IDX 54 66 55 67 5 68 6 69 7 70 8 71 9 73 10 74 11 75 22 76 12 77
REMARK SMILES IDX 13 78 21 79 14 80 20 81 19 82 15 83 16 84 17 85 18 86
REMARK H PARENT 3 5 76 23 46 34 7 72
REMARK Flexibility Score: inf
ROOT
ATOM      1  C   UNL A   1      34.309  33.742  28.059  1.00  0.00     0.118 C 
ENDROOT
BRANCH   1   2
ATOM      2  N   UNL A   1      33.745  32.472  27.626  1.00  0.00    -0.352 N 
ATOM      3  O   UNL A   1      33.650  30.323  27.005  1.00  0.00    -0.269 OA
ATOM      4  C   UNL A   1      34.271  31.204  27.597  1.00  0.00     0.251 C 
ATOM      5  H   UNL A   1      32.820  32.533  27.295  1.00  0.00     0.163 HD
BRANCH   4   6
ATOM      6  C   UNL A   1      35.567  30.876  28.239  1.00  0.00     0.039 A 
ATOM      7  C   UNL A   1      36.665  31.735  28.172  1.00  0.00     0.014 A 
ATOM      8  C   UNL A   1      35.658  29.703  29.003  1.00  0.00     0.014 A 
ATOM      9  C   UNL A   1      37.879  31.364  28.751  1.00  0.00     0.010 A 
ATOM     10  C   UNL A   1      36.858  29.362  29.637  1.00  0.00     0.010 A 
ATOM     11  C   UNL A   1      37.992  30.171  29.484  1.00  0.00    -0.014 A 
BRANCH  11  12
ATOM     12  C   UNL A   1      39.299  29.809  30.090  1.00  0.00     0.031 A 
ATOM     13  C   UNL A   1      39.742  30.409  31.396  1.00  0.00     0.074 A 
ATOM     14  C   UNL A   1      40.072  28.882  29.490  1.00  0.00     0.049 A 
ATOM     15  N   UNL A   1      40.789  30.111  32.123  1.00  0.00    -0.248 NA
ATOM     16  C   UNL A   1      38.909  31.484  31.954  1.00  0.00     0.031 C 
ATOM     17  C   UNL A   1      39.782  28.242  28.205  1.00  0.00     0.029 A 
ATOM     18  N   UNL A   1      41.236  28.287  29.906  1.00  0.00    -0.354 N 
ATOM     19  C   UNL A   1      40.762  30.982  33.205  1.00  0.00     0.074 A 
ATOM     20  C   UNL A   1      39.592  31.820  33.040  1.00  0.00     0.031 C 
ATOM     21  C   UNL A   1      40.700  27.289  27.975  1.00  0.00     0.029 A 
ATOM     22  C   UNL A   1      41.648  27.265  29.085  1.00  0.00     0.049 A 
ATOM     23  H   UNL A   1      41.727  28.565  30.712  1.00  0.00     0.167 HD
ATOM     24  C   UNL A   1      41.626  31.080  34.243  1.00  0.00     0.031 A 
ATOM     25  C   UNL A   1      42.654  26.381  29.223  1.00  0.00     0.031 A 
ATOM     26  C   UNL A   1      42.770  30.233  34.442  1.00  0.00     0.049 A 
ATOM     27  C   UNL A   1      43.539  26.437  30.431  1.00  0.00     0.074 A 
ATOM     28  C   UNL A   1      43.693  30.254  35.476  1.00  0.00     0.029 A 
ATOM     29  N   UNL A   1      43.139  29.200  33.597  1.00  0.00    -0.354 N 
ATOM     30  N   UNL A   1      43.486  27.262  31.448  1.00  0.00    -0.248 NA
ATOM     31  C   UNL A   1      44.616  25.440  30.509  1.00  0.00     0.031 C 
ATOM     32  C   UNL A   1      44.620  29.227  35.255  1.00  0.00     0.029 A 
ATOM     33  C   UNL A   1      44.270  28.569  34.086  1.00  0.00     0.049 A 
ATOM     34  H   UNL A   1      42.667  28.951  32.771  1.00  0.00     0.167 HD
ATOM     35  C   UNL A   1      44.528  26.887  32.287  1.00  0.00     0.074 A 
ATOM     36  C   UNL A   1      45.183  25.752  31.667  1.00  0.00     0.031 C 
ATOM     37  C   UNL A   1      44.910  27.442  33.462  1.00  0.00     0.031 A 
BRANCH  24  38
ATOM     38  C   UNL A   1      41.358  32.171  35.238  1.00  0.00    -0.014 A 
ATOM     39  C   UNL A   1      40.489  31.955  36.322  1.00  0.00     0.010 A 
ATOM     40  C   UNL A   1      41.960  33.430  35.072  1.00  0.00     0.010 A 
ATOM     41  C   UNL A   1      40.192  32.998  37.203  1.00  0.00     0.020 A 
ATOM     42  C   UNL A   1      41.670  34.473  35.955  1.00  0.00     0.020 A 
ATOM     43  C   UNL A   1      40.770  34.256  37.002  1.00  0.00     0.054 A 
BRANCH  43  44
ATOM     44  S   UNL A   1      40.361  35.621  38.126  1.00  0.00     0.124 S 
ATOM     45  O   UNL A   1      40.024  36.688  37.189  1.00  0.00    -0.237 OA
ATOM     46  O   UNL A   1      39.241  35.091  38.902  1.00  0.00    -0.237 OA
ATOM     47  O   UNL A   1      41.597  35.816  38.880  1.00  0.00    -0.744 OA
ENDBRANCH  43  44
ENDBRANCH  24  38
BRANCH  25  48
ATOM     48  C   UNL A   1      42.824  25.319  28.204  1.00  0.00    -0.014 A 
ATOM     49  C   UNL A   1      43.647  25.548  27.088  1.00  0.00     0.010 A 
ATOM     50  C   UNL A   1      42.224  24.061  28.376  1.00  0.00     0.010 A 
ATOM     51  C   UNL A   1      43.879  24.529  26.161  1.00  0.00     0.020 A 
ATOM     52  C   UNL A   1      42.459  23.038  27.455  1.00  0.00     0.020 A 
ATOM     53  C   UNL A   1      43.284  23.280  26.351  1.00  0.00     0.054 A 
BRANCH  53  54
ATOM     54  S   UNL A   1      43.660  21.922  25.207  1.00  0.00     0.124 S 
ATOM     55  O   UNL A   1      42.548  21.008  25.447  1.00  0.00    -0.237 OA
ATOM     56  O   UNL A   1      43.668  22.578  23.902  1.00  0.00    -0.237 OA
ATOM     57  O   UNL A   1      44.968  21.460  25.668  1.00  0.00    -0.744 OA
ENDBRANCH  53  54
ENDBRANCH  25  48
BRANCH  37  58
ATOM     58  C   UNL A   1      46.096  26.830  34.146  1.00  0.00    -0.014 A 
ATOM     59  C   UNL A   1      47.393  27.297  33.868  1.00  0.00     0.010 A 
ATOM     60  C   UNL A   1      45.917  25.795  35.079  1.00  0.00     0.010 A 
ATOM     61  C   UNL A   1      48.499  26.722  34.498  1.00  0.00     0.020 A 
ATOM     62  C   UNL A   1      47.022  25.221  35.715  1.00  0.00     0.020 A 
ATOM     63  C   UNL A   1      48.306  25.680  35.409  1.00  0.00     0.054 A 
BRANCH  63  64
ATOM     64  S   UNL A   1      49.741  24.949  36.248  1.00  0.00     0.124 S 
ATOM     65  O   UNL A   1      49.110  23.960  37.118  1.00  0.00    -0.237 OA
ATOM     66  O   UNL A   1      50.531  24.403  35.147  1.00  0.00    -0.237 OA
ATOM     67  O   UNL A   1      50.346  26.090  36.931  1.00  0.00    -0.744 OA
ENDBRANCH  63  64
ENDBRANCH  37  58
ENDBRANCH  11  12
ENDBRANCH   4   6
ENDBRANCH   1   2
BRANCH   1  68
ATOM     68  C   UNL A   1      33.244  34.769  28.441  1.00  0.00     0.042 C 
BRANCH  68  69
ATOM     69  C   UNL A   1      33.704  35.834  29.434  1.00  0.00     0.118 C 
BRANCH  69  70
ATOM     70  N   UNL A   1      32.627  36.304  30.290  1.00  0.00    -0.352 N 
ATOM     71  C   UNL A   1      32.423  36.151  31.637  1.00  0.00     0.256 C 
ATOM     72  H   UNL A   1      31.928  36.818  29.824  1.00  0.00     0.163 HD
ATOM     73  O   UNL A   1      31.319  36.453  32.088  1.00  0.00    -0.269 OA
BRANCH  71  74
ATOM     74  C   UNL A   1      33.447  35.600  32.495  1.00  0.00     0.104 A 
ATOM     75  C   UNL A   1      34.083  36.277  33.553  1.00  0.00     0.151 A 
ATOM     76  C   UNL A   1      34.123  34.396  32.409  1.00  0.00     0.168 A 
ATOM     77  N   UNL A   1      35.027  35.552  34.152  1.00  0.00    -0.174 NA
ATOM     78  N   UNL A   1      35.055  34.387  33.464  1.00  0.00    -0.209 N 
ATOM     79  N   UNL A   1      34.028  33.349  31.530  1.00  0.00    -0.236 NA
ATOM     80  C   UNL A   1      35.868  33.279  33.684  1.00  0.00     0.150 A 
ATOM     81  C   UNL A   1      34.792  32.328  31.764  1.00  0.00     0.116 A 
ATOM     82  C   UNL A   1      35.768  32.209  32.873  1.00  0.00     0.053 A 
BRANCH  80  83
ATOM     83  C   UNL A   1      36.810  33.360  34.823  1.00  0.00     0.433 C 
ATOM     84  F   UNL A   1      36.229  33.831  35.954  1.00  0.00    -0.165 F 
ATOM     85  F   UNL A   1      37.397  32.175  35.117  1.00  0.00    -0.165 F 
ATOM     86  F   UNL A   1      37.832  34.223  34.552  1.00  0.00    -0.165 F 
ENDBRANCH  80  83
ENDBRANCH  71  74
ENDBRANCH  69  70
ENDBRANCH  68  69
ENDBRANCH   1  68
TORSDOF 14
ENDMDL
MODEL 2
REMARK VINA RESULT:     -10.6      5.094     11.439
REMARK SMILES O=C(NCCCNC(=O)c1cnn2c(C(F)(F)F)ccnc12)c1ccc(-c2c3nc(c(-c4ccc(S(=O)(=O)[O-])cc4)c4ccc([nH]4)c(-c4ccc(S(=O)(=O)[O-])cc4)c4nc(c(-c5ccc(S(=O)(=O)[O-])cc5)c5ccc2[nH]5)C=C4)C=C3)cc1
REMARK SMILES IDX 4 1 3 2 1 3 2 4 23 6 24 7 82 8 25 9 81 10 26 11 27 12 28 13
REMARK SMILES IDX 75 14 29 15 80 16 74 17 76 18 30 19 79 20 73 21 72 22 31 24
REMARK SMILES IDX 61 25 42 26 60 27 43 28 46 29 59 30 77 31 44 32 45 33 58 35
REMARK SMILES IDX 78 36 47 37 32 38 33 39 41 40 34 41 40 42 35 43 36 44 37 45
REMARK SMILES IDX 38 46 39 47 62 48 63 49 71 50 64 51 70 52 65 53 66 54 67 55
REMARK SMILES IDX 68 56 69 57 48 58 49 59 57 60 50 61 56 62 51 63 52 64 53 65
REMARK SMILES IDX 54 66 55 67 5 68 6 69 7 70 8 71 9 73 10 74 11 75 22 76 12 77
REMARK SMILES IDX 13 78 21 79 14 80 20 81 19 82 15 83 16 84 17 85 18 86
REMARK H PARENT 3 5 76 23 46 34 7 72
REMARK Flexibility Score: inf
ROOT
ATOM      1  C   UNL A   1      40.176  23.098  27.063  1.00  0.00     0.118 C 
ENDROOT
BRANCH   1   2
ATOM      2  N   UNL A   1      40.901  23.945  26.126  1.00  0.00    -0.352 N 
ATOM      3  O   UNL A   1      41.679  25.803  25.148  1.00  0.00    -0.269 OA
ATOM      4  C   UNL A   1      41.216  25.281  26.161  1.00  0.00     0.251 C 
ATOM      5  H   UNL A   1      41.223  23.475  25.323  1.00  0.00     0.163 HD
BRANCH   4   6
ATOM      6  C   UNL A   1      40.999  26.108  27.372  1.00  0.00     0.039 A 
ATOM      7  C   UNL A   1      39.996  25.816  28.298  1.00  0.00     0.014 A 
ATOM      8  C   UNL A   1      41.885  27.165  27.629  1.00  0.00     0.014 A 
ATOM      9  C   UNL A   1      39.796  26.650  29.398  1.00  0.00     0.010 A 
ATOM     10  C   UNL A   1      41.724  27.963  28.767  1.00  0.00     0.010 A 
ATOM     11  C   UNL A   1      40.654  27.736  29.644  1.00  0.00    -0.014 A 
BRANCH  11  12
ATOM     12  C   UNL A   1      40.413  28.600  30.828  1.00  0.00     0.031 A 
ATOM     13  C   UNL A   1      41.338  28.566  32.013  1.00  0.00     0.074 A 
ATOM     14  C   UNL A   1      39.388  29.473  30.812  1.00  0.00     0.049 A 
ATOM     15  N   UNL A   1      41.347  29.339  33.069  1.00  0.00    -0.248 NA
ATOM     16  C   UNL A   1      42.380  27.528  32.019  1.00  0.00     0.031 C 
ATOM     17  C   UNL A   1      38.394  29.592  29.742  1.00  0.00     0.029 A 
ATOM     18  N   UNL A   1      39.038  30.456  31.704  1.00  0.00    -0.354 N 
ATOM     19  C   UNL A   1      42.369  28.863  33.881  1.00  0.00     0.074 A 
ATOM     20  C   UNL A   1      42.960  27.733  33.194  1.00  0.00     0.031 C 
ATOM     21  C   UNL A   1      37.595  30.639  30.002  1.00  0.00     0.029 A 
ATOM     22  C   UNL A   1      38.009  31.252  31.261  1.00  0.00     0.049 A 
ATOM     23  H   UNL A   1      39.481  30.578  32.575  1.00  0.00     0.167 HD
ATOM     24  C   UNL A   1      42.783  29.319  35.088  1.00  0.00     0.031 A 
ATOM     25  C   UNL A   1      37.479  32.372  31.788  1.00  0.00     0.031 A 
ATOM     26  C   UNL A   1      42.234  30.461  35.767  1.00  0.00     0.049 A 
ATOM     27  C   UNL A   1      38.019  32.923  33.072  1.00  0.00     0.074 A 
ATOM     28  C   UNL A   1      42.604  31.002  36.987  1.00  0.00     0.029 A 
ATOM     29  N   UNL A   1      41.207  31.249  35.274  1.00  0.00    -0.354 N 
ATOM     30  N   UNL A   1      38.995  32.463  33.816  1.00  0.00    -0.248 NA
ATOM     31  C   UNL A   1      37.387  34.147  33.584  1.00  0.00     0.031 C 
ATOM     32  C   UNL A   1      41.798  32.123  37.231  1.00  0.00     0.029 A 
ATOM     33  C   UNL A   1      40.933  32.277  36.160  1.00  0.00     0.049 A 
ATOM     34  H   UNL A   1      40.741  31.100  34.421  1.00  0.00     0.167 HD
ATOM     35  C   UNL A   1      39.091  33.339  34.890  1.00  0.00     0.074 A 
ATOM     36  C   UNL A   1      38.086  34.365  34.691  1.00  0.00     0.031 C 
ATOM     37  C   UNL A   1      39.933  33.289  35.950  1.00  0.00     0.031 A 
BRANCH  24  38
ATOM     38  C   UNL A   1      43.888  28.551  35.751  1.00  0.00    -0.014 A 
ATOM     39  C   UNL A   1      43.601  27.483  36.618  1.00  0.00     0.010 A 
ATOM     40  C   UNL A   1      45.226  28.920  35.525  1.00  0.00     0.010 A 
ATOM     41  C   UNL A   1      44.635  26.821  37.285  1.00  0.00     0.020 A 
ATOM     42  C   UNL A   1      46.263  28.256  36.184  1.00  0.00     0.020 A 
ATOM     43  C   UNL A   1      45.959  27.225  37.078  1.00  0.00     0.054 A 
BRANCH  43  44
ATOM     44  S   UNL A   1      47.301  26.387  37.966  1.00  0.00     0.124 S 
ATOM     45  O   UNL A   1      48.474  27.115  37.489  1.00  0.00    -0.237 OA
ATOM     46  O   UNL A   1      46.959  26.603  39.370  1.00  0.00    -0.237 OA
ATOM     47  O   UNL A   1      47.194  25.004  37.509  1.00  0.00    -0.744 OA
ENDBRANCH  43  44
ENDBRANCH  24  38
BRANCH  25  48
ATOM     48  C   UNL A   1      36.411  33.080  31.045  1.00  0.00    -0.014 A 
ATOM     49  C   UNL A   1      35.101  33.098  31.555  1.00  0.00     0.010 A 
ATOM     50  C   UNL A   1      36.707  33.791  29.871  1.00  0.00     0.010 A 
ATOM     51  C   UNL A   1      34.101  33.827  30.907  1.00  0.00     0.020 A 
ATOM     52  C   UNL A   1      35.711  34.526  29.224  1.00  0.00     0.020 A 
ATOM     53  C   UNL A   1      34.414  34.538  29.746  1.00  0.00     0.054 A 
BRANCH  53  54
ATOM     54  S   UNL A   1      33.146  35.569  28.954  1.00  0.00     0.124 S 
ATOM     55  O   UNL A   1      32.452  36.132  30.107  1.00  0.00    -0.237 OA
ATOM     56  O   UNL A   1      33.931  36.515  28.164  1.00  0.00    -0.237 OA
ATOM     57  O   UNL A   1      32.384  34.600  28.168  1.00  0.00    -0.744 OA
ENDBRANCH  53  54
ENDBRANCH  25  48
BRANCH  37  58
ATOM     58  C   UNL A   1      39.794  34.374  36.976  1.00  0.00    -0.014 A 
ATOM     59  C   UNL A   1      39.002  34.170  38.119  1.00  0.00     0.010 A 
ATOM     60  C   UNL A   1      40.466  35.596  36.807  1.00  0.00     0.010 A 
ATOM     61  C   UNL A   1      38.865  35.183  39.071  1.00  0.00     0.020 A 
ATOM     62  C   UNL A   1      40.335  36.610  37.761  1.00  0.00     0.020 A 
ATOM     63  C   UNL A   1      39.524  36.400  38.880  1.00  0.00     0.054 A 
BRANCH  63  64
ATOM     64  S   UNL A   1      39.368  37.708  40.130  1.00  0.00     0.124 S 
ATOM     65  O   UNL A   1      39.172  36.934  41.353  1.00  0.00    -0.237 OA
ATOM     66  O   UNL A   1      40.641  38.417  40.034  1.00  0.00    -0.237 OA
ATOM     67  O   UNL A   1      38.205  38.467  39.675  1.00  0.00    -0.744 OA
ENDBRANCH  63  64
ENDBRANCH  37  58
ENDBRANCH  11  12
ENDBRANCH   4   6
ENDBRANCH   1   2
BRANCH   1  68
ATOM     68  C   UNL A   1      39.262  22.089  26.370  1.00  0.00     0.042 C 
BRANCH  68  69
ATOM     69  C   UNL A   1      37.888  22.629  25.976  1.00  0.00     0.118 C 
BRANCH  69  70
ATOM     70  N   UNL A   1      37.769  22.868  24.548  1.00  0.00    -0.352 N 
ATOM     71  C   UNL A   1      36.661  23.039  23.758  1.00  0.00     0.256 C 
ATOM     72  H   UNL A   1      38.627  22.914  24.067  1.00  0.00     0.163 HD
ATOM     73  O   UNL A   1      36.816  23.004  22.538  1.00  0.00    -0.269 OA
BRANCH  71  74
ATOM     74  C   UNL A   1      35.346  23.199  24.333  1.00  0.00     0.104 A 
ATOM     75  C   UNL A   1      34.837  24.381  24.904  1.00  0.00     0.151 A 
ATOM     76  C   UNL A   1      34.367  22.253  24.585  1.00  0.00     0.168 A 
ATOM     77  N   UNL A   1      33.611  24.240  25.407  1.00  0.00    -0.174 NA
ATOM     78  N   UNL A   1      33.305  22.937  25.207  1.00  0.00    -0.209 N 
ATOM     79  N   UNL A   1      34.310  20.904  24.352  1.00  0.00    -0.236 NA
ATOM     80  C   UNL A   1      32.133  22.267  25.548  1.00  0.00     0.150 A 
ATOM     81  C   UNL A   1      33.205  20.309  24.673  1.00  0.00     0.116 A 
ATOM     82  C   UNL A   1      32.018  20.952  25.289  1.00  0.00     0.053 A 
BRANCH  80  83
ATOM     83  C   UNL A   1      31.070  23.073  26.191  1.00  0.00     0.433 C 
ATOM     84  F   UNL A   1      29.978  22.337  26.519  1.00  0.00    -0.165 F 
ATOM     85  F   UNL A   1      31.488  23.718  27.306  1.00  0.00    -0.165 F 
ATOM     86  F   UNL A   1      30.614  24.045  25.349  1.00  0.00    -0.165 F 
ENDBRANCH  80  83
ENDBRANCH  71  74
ENDBRANCH  69  70
ENDBRANCH  68  69
ENDBRANCH   1  68
TORSDOF 14
ENDMDL
MODEL 3
REMARK VINA RESULT:     -10.6      5.777     12.945
REMARK SMILES O=C(NCCCNC(=O)c1cnn2c(C(F)(F)F)ccnc12)c1ccc(-c2c3nc(c(-c4ccc(S(=O)(=O)[O-])cc4)c4ccc([nH]4)c(-c4ccc(S(=O)(=O)[O-])cc4)c4nc(c(-c5ccc(S(=O)(=O)[O-])cc5)c5ccc2[nH]5)C=C4)C=C3)cc1
REMARK SMILES IDX 4 1 3 2 1 3 2 4 23 6 24 7 82 8 25 9 81 10 26 11 27 12 28 13
REMARK SMILES IDX 75 14 29 15 80 16 74 17 76 18 30 19 79 20 73 21 72 22 31 24
REMARK SMILES IDX 61 25 42 26 60 27 43 28 46 29 59 30 77 31 44 32 45 33 58 35
REMARK SMILES IDX 78 36 47 37 32 38 33 39 41 40 34 41 40 42 35 43 36 44 37 45
REMARK SMILES IDX 38 46 39 47 62 48 63 49 71 50 64 51 70 52 65 53 66 54 67 55
REMARK SMILES IDX 68 56 69 57 48 58 49 59 57 60 50 61 56 62 51 63 52 64 53 65
REMARK SMILES IDX 54 66 55 67 5 68 6 69 7 70 8 71 9 73 10 74 11 75 22 76 12 77
REMARK SMILES IDX 13 78 21 79 14 80 20 81 19 82 15 83 16 84 17 85 18 86
REMARK H PARENT 3 5 76 23 46 34 7 72
REMARK Flexibility Score: inf
ROOT
ATOM      1  C   UNL A   1      40.304  21.296  27.082  1.00  0.00     0.118 C 
ENDROOT
BRANCH   1   2
ATOM      2  N   UNL A   1      39.146  21.742  26.321  1.00  0.00    -0.352 N 
ATOM      3  O   UNL A   1      37.467  23.056  25.636  1.00  0.00    -0.269 OA
ATOM      4  C   UNL A   1      38.558  22.978  26.198  1.00  0.00     0.251 C 
ATOM      5  H   UNL A   1      38.705  21.032  25.802  1.00  0.00     0.163 HD
BRANCH   4   6
ATOM      6  C   UNL A   1      39.191  24.206  26.735  1.00  0.00     0.039 A 
ATOM      7  C   UNL A   1      39.827  25.134  25.908  1.00  0.00     0.014 A 
ATOM      8  C   UNL A   1      39.072  24.475  28.106  1.00  0.00     0.014 A 
ATOM      9  C   UNL A   1      40.451  26.252  26.462  1.00  0.00     0.010 A 
ATOM     10  C   UNL A   1      39.644  25.630  28.653  1.00  0.00     0.010 A 
ATOM     11  C   UNL A   1      40.373  26.510  27.841  1.00  0.00    -0.014 A 
BRANCH  11  12
ATOM     12  C   UNL A   1      41.047  27.712  28.396  1.00  0.00     0.031 A 
ATOM     13  C   UNL A   1      42.522  27.933  28.203  1.00  0.00     0.074 A 
ATOM     14  C   UNL A   1      40.313  28.649  29.028  1.00  0.00     0.049 A 
ATOM     15  N   UNL A   1      43.242  28.982  28.510  1.00  0.00    -0.248 NA
ATOM     16  C   UNL A   1      43.288  26.835  27.594  1.00  0.00     0.031 C 
ATOM     17  C   UNL A   1      38.879  28.550  29.314  1.00  0.00     0.029 A 
ATOM     18  N   UNL A   1      40.665  29.887  29.504  1.00  0.00    -0.354 N 
ATOM     19  C   UNL A   1      44.549  28.661  28.166  1.00  0.00     0.074 A 
ATOM     20  C   UNL A   1      44.523  27.318  27.624  1.00  0.00     0.031 C 
ATOM     21  C   UNL A   1      38.460  29.710  29.845  1.00  0.00     0.029 A 
ATOM     22  C   UNL A   1      39.595  30.623  29.951  1.00  0.00     0.049 A 
ATOM     23  H   UNL A   1      41.593  30.215  29.523  1.00  0.00     0.167 HD
ATOM     24  C   UNL A   1      45.671  29.409  28.287  1.00  0.00     0.031 A 
ATOM     25  C   UNL A   1      39.523  31.901  30.367  1.00  0.00     0.031 A 
ATOM     26  C   UNL A   1      45.710  30.757  28.786  1.00  0.00     0.049 A 
ATOM     27  C   UNL A   1      40.757  32.749  30.396  1.00  0.00     0.074 A 
ATOM     28  C   UNL A   1      46.804  31.595  28.930  1.00  0.00     0.029 A 
ATOM     29  N   UNL A   1      44.601  31.470  29.210  1.00  0.00    -0.354 N 
ATOM     30  N   UNL A   1      41.980  32.428  30.053  1.00  0.00    -0.248 NA
ATOM     31  C   UNL A   1      40.598  34.133  30.864  1.00  0.00     0.031 C 
ATOM     32  C   UNL A   1      46.352  32.820  29.439  1.00  0.00     0.029 A 
ATOM     33  C   UNL A   1      44.979  32.741  29.609  1.00  0.00     0.049 A 
ATOM     34  H   UNL A   1      43.680  31.124  29.227  1.00  0.00     0.167 HD
ATOM     35  C   UNL A   1      42.741  33.570  30.270  1.00  0.00     0.074 A 
ATOM     36  C   UNL A   1      41.838  34.594  30.757  1.00  0.00     0.031 C 
ATOM     37  C   UNL A   1      44.072  33.748  30.089  1.00  0.00     0.031 A 
BRANCH  24  38
ATOM     38  C   UNL A   1      46.959  28.759  27.875  1.00  0.00    -0.014 A 
ATOM     39  C   UNL A   1      47.433  28.876  26.557  1.00  0.00     0.010 A 
ATOM     40  C   UNL A   1      47.687  28.001  28.809  1.00  0.00     0.010 A 
ATOM     41  C   UNL A   1      48.596  28.208  26.166  1.00  0.00     0.020 A 
ATOM     42  C   UNL A   1      48.855  27.338  28.423  1.00  0.00     0.020 A 
ATOM     43  C   UNL A   1      49.289  27.428  27.098  1.00  0.00     0.054 A 
BRANCH  43  44
ATOM     44  S   UNL A   1      50.783  26.535  26.585  1.00  0.00     0.124 S 
ATOM     45  O   UNL A   1      50.922  25.548  27.653  1.00  0.00    -0.237 OA
ATOM     46  O   UNL A   1      50.418  25.995  25.277  1.00  0.00    -0.237 OA
ATOM     47  O   UNL A   1      51.806  27.578  26.559  1.00  0.00    -0.744 OA
ENDBRANCH  43  44
ENDBRANCH  24  38
BRANCH  25  48
ATOM     48  C   UNL A   1      38.201  32.468  30.725  1.00  0.00    -0.014 A 
ATOM     49  C   UNL A   1      37.731  32.361  32.046  1.00  0.00     0.010 A 
ATOM     50  C   UNL A   1      37.444  33.170  29.775  1.00  0.00     0.010 A 
ATOM     51  C   UNL A   1      36.523  32.958  32.415  1.00  0.00     0.020 A 
ATOM     52  C   UNL A   1      36.240  33.775  30.142  1.00  0.00     0.020 A 
ATOM     53  C   UNL A   1      35.786  33.663  31.461  1.00  0.00     0.054 A 
BRANCH  53  54
ATOM     54  S   UNL A   1      34.269  34.527  31.956  1.00  0.00     0.124 S 
ATOM     55  O   UNL A   1      33.568  34.660  30.684  1.00  0.00    -0.237 OA
ATOM     56  O   UNL A   1      33.663  33.611  32.920  1.00  0.00    -0.237 OA
ATOM     57  O   UNL A   1      34.776  35.772  32.531  1.00  0.00    -0.744 OA
ENDBRANCH  53  54
ENDBRANCH  25  48
BRANCH  37  58
ATOM     58  C   UNL A   1      44.626  35.100  30.428  1.00  0.00    -0.014 A 
ATOM     59  C   UNL A   1      45.107  35.364  31.722  1.00  0.00     0.010 A 
ATOM     60  C   UNL A   1      44.681  36.106  29.449  1.00  0.00     0.010 A 
ATOM     61  C   UNL A   1      45.616  36.626  32.040  1.00  0.00     0.020 A 
ATOM     62  C   UNL A   1      45.195  37.368  29.763  1.00  0.00     0.020 A 
ATOM     63  C   UNL A   1      45.646  37.622  31.061  1.00  0.00     0.054 A 
BRANCH  63  64
ATOM     64  S   UNL A   1      46.331  39.254  31.467  1.00  0.00     0.124 S 
ATOM     65  O   UNL A   1      46.015  40.021  30.265  1.00  0.00    -0.237 OA
ATOM     66  O   UNL A   1      45.592  39.638  32.668  1.00  0.00    -0.237 OA
ATOM     67  O   UNL A   1      47.749  38.977  31.680  1.00  0.00    -0.744 OA
ENDBRANCH  63  64
ENDBRANCH  37  58
ENDBRANCH  11  12
ENDBRANCH   4   6
ENDBRANCH   1   2
BRANCH   1  68
ATOM     68  C   UNL A   1      40.877  19.974  26.574  1.00  0.00     0.042 C 
BRANCH  68  69
ATOM     69  C   UNL A   1      42.362  19.762  26.867  1.00  0.00     0.118 C 
BRANCH  69  70
ATOM     70  N   UNL A   1      43.011  18.916  25.880  1.00  0.00    -0.352 N 
ATOM     71  C   UNL A   1      44.005  19.196  24.976  1.00  0.00     0.256 C 
ATOM     72  H   UNL A   1      42.684  17.988  25.855  1.00  0.00     0.163 HD
ATOM     73  O   UNL A   1      44.229  18.367  24.095  1.00  0.00    -0.269 OA
BRANCH  71  74
ATOM     74  C   UNL A   1      44.728  20.445  25.018  1.00  0.00     0.104 A 
ATOM     75  C   UNL A   1      46.115  20.585  25.221  1.00  0.00     0.151 A 
ATOM     76  C   UNL A   1      44.255  21.746  25.014  1.00  0.00     0.168 A 
ATOM     77  N   UNL A   1      46.517  21.855  25.264  1.00  0.00    -0.174 NA
ATOM     78  N   UNL A   1      45.383  22.580  25.126  1.00  0.00    -0.209 N 
ATOM     79  N   UNL A   1      42.987  22.262  24.940  1.00  0.00    -0.236 NA
ATOM     80  C   UNL A   1      45.246  23.966  25.102  1.00  0.00     0.150 A 
ATOM     81  C   UNL A   1      42.891  23.555  24.913  1.00  0.00     0.116 A 
ATOM     82  C   UNL A   1      44.022  24.512  24.979  1.00  0.00     0.053 A 
BRANCH  80  83
ATOM     83  C   UNL A   1      46.491  24.759  25.219  1.00  0.00     0.433 C 
ATOM     84  F   UNL A   1      47.069  24.652  26.442  1.00  0.00    -0.165 F 
ATOM     85  F   UNL A   1      47.420  24.436  24.288  1.00  0.00    -0.165 F 
ATOM     86  F   UNL A   1      46.241  26.089  25.049  1.00  0.00    -0.165 F 
ENDBRANCH  80  83
ENDBRANCH  71  74
ENDBRANCH  69  70
ENDBRANCH  68  69
ENDBRANCH   1  68
TORSDOF 14
ENDMDL
