MODEL 1
REMARK VINA RESULT:      -9.3      0.000      0.000
REMARK SMILES Cc1c(CC(=O)N[C@H](CO)C(=O)NCCCNC(=O)c2ccc(-c3c4nc(c(-c5ccc(S(=O)(=O)[O-])cc5)c5ccc([nH]5)c(-c5ccc(S(=O)(=O)[O-])cc5)c5nc(c(-c6ccc(S(=O)(=O)[O-])cc6)c6ccc3[nH]6)C=C5)C=C4)cc2)cc(-c2ccc(S(C)(=O)=O)cc2)n1-c1cccc(F)c1
REMARK SMILES IDX 14 1 13 2 11 3 12 4 8 6 7 7 5 8 6 9 4 11 3 12 1 13 2 14
REMARK SMILES IDX 92 15 80 16 81 17 93 18 94 19 99 20 95 21 97 22 96 23 98 24
REMARK SMILES IDX 82 25 83 26 91 27 84 28 90 29 85 30 86 31 87 32 88 33 89 34
REMARK SMILES IDX 9 35 10 36 15 38 16 39 17 40 18 41 19 43 20 44 21 45 79 46
REMARK SMILES IDX 22 47 78 48 23 49 24 50 25 51 72 52 26 53 77 54 71 55 73 56
REMARK SMILES IDX 27 57 76 58 70 59 69 60 28 62 58 63 39 64 57 65 40 66 43 67
REMARK SMILES IDX 56 68 74 69 41 70 42 71 55 73 75 74 44 75 29 76 30 77 38 78
REMARK SMILES IDX 31 79 37 80 32 81 33 82 34 83 35 84 36 85 59 86 60 87 68 88
REMARK SMILES IDX 61 89 67 90 62 91 63 92 64 93 65 94 66 95 45 96 46 97 54 98
REMARK SMILES IDX 47 99 53 100 48 101 49 102 50 103 51 104 52 105
REMARK H PARENT 13 5 7 10 10 37 17 42 73 61 43 72
REMARK Flexibility Score: inf
ROOT
ATOM      1  C   UNL A   1      34.451  33.981  33.719  1.00  0.00     0.117 C 
ENDROOT
BRANCH   1   2
ATOM      2  N   UNL A   1      34.472  35.434  33.712  1.00  0.00    -0.354 N 
ATOM      3  C   UNL A   1      33.930  36.365  32.884  1.00  0.00     0.244 C 
ATOM      4  O   UNL A   1      34.292  37.535  33.057  1.00  0.00    -0.273 OA
ATOM      5  H   UNL A   1      34.982  35.822  34.459  1.00  0.00     0.163 HD
BRANCH   3   6
ATOM      6  C   UNL A   1      32.962  36.031  31.735  1.00  0.00     0.197 C 
BRANCH   6   7
ATOM      7  N   UNL A   1      33.210  36.833  30.535  1.00  0.00    -0.342 N 
ATOM      8  C   UNL A   1      33.423  36.419  29.252  1.00  0.00     0.225 C 
ATOM      9  O   UNL A   1      33.678  37.275  28.398  1.00  0.00    -0.275 OA
ATOM     10  H   UNL A   1      33.224  37.808  30.673  1.00  0.00     0.164 HD
BRANCH   8  11
ATOM     11  C   UNL A   1      33.322  34.946  28.870  1.00  0.00     0.137 C 
BRANCH  11  12
ATOM     12  C   UNL A   1      34.569  34.160  29.157  1.00  0.00    -0.017 A 
ATOM     13  C   UNL A   1      33.789  31.795  28.464  1.00  0.00     0.065 C 
ATOM     14  C   UNL A   1      34.788  32.808  28.927  1.00  0.00     0.024 A 
ATOM     15  N   UNL A   1      36.105  32.510  29.265  1.00  0.00    -0.313 N 
ATOM     16  C   UNL A   1      35.754  34.666  29.752  1.00  0.00     0.033 A 
ATOM     17  C   UNL A   1      36.711  33.667  29.761  1.00  0.00     0.053 A 
BRANCH  15  18
ATOM     18  C   UNL A   1      36.740  31.243  29.133  1.00  0.00     0.049 A 
ATOM     19  C   UNL A   1      36.619  30.295  30.160  1.00  0.00     0.027 A 
ATOM     20  C   UNL A   1      37.548  30.984  28.023  1.00  0.00     0.065 A 
ATOM     21  C   UNL A   1      37.326  29.094  30.087  1.00  0.00     0.005 A 
ATOM     22  C   UNL A   1      38.253  29.786  27.974  1.00  0.00     0.125 A 
ATOM     23  C   UNL A   1      38.152  28.844  28.994  1.00  0.00     0.039 A 
ATOM     24  F   UNL A   1      39.062  29.542  26.936  1.00  0.00    -0.207 F 
ENDBRANCH  15  18
BRANCH  17  25
ATOM     25  C   UNL A   1      38.130  33.789  30.131  1.00  0.00    -0.001 A 
ATOM     26  C   UNL A   1      39.001  34.617  29.405  1.00  0.00     0.011 A 
ATOM     27  C   UNL A   1      38.635  33.055  31.211  1.00  0.00     0.011 A 
ATOM     28  C   UNL A   1      40.368  34.651  29.699  1.00  0.00     0.021 A 
ATOM     29  C   UNL A   1      39.998  33.088  31.517  1.00  0.00     0.021 A 
ATOM     30  C   UNL A   1      40.861  33.864  30.741  1.00  0.00     0.067 A 
BRANCH  30  31
ATOM     31  S   UNL A   1      42.605  33.877  31.085  1.00  0.00     0.175 S 
ATOM     32  C   UNL A   1      43.173  35.407  30.390  1.00  0.00     0.163 C 
ATOM     33  O   UNL A   1      42.767  33.931  32.511  1.00  0.00    -0.224 OA
ATOM     34  O   UNL A   1      43.211  32.804  30.294  1.00  0.00    -0.224 OA
ENDBRANCH  30  31
ENDBRANCH  17  25
ENDBRANCH  11  12
ENDBRANCH   8  11
ENDBRANCH   6   7
BRANCH   6  35
ATOM     35  C   UNL A   1      31.510  36.017  32.233  1.00  0.00     0.191 C 
BRANCH  35  36
ATOM     36  O   UNL A   1      31.379  36.596  33.530  1.00  0.00    -0.394 OA
ATOM     37  H   UNL A   1      32.223  36.524  34.003  1.00  0.00     0.210 HD
ENDBRANCH  35  36
ENDBRANCH   6  35
ENDBRANCH   3   6
ENDBRANCH   1   2
BRANCH   1  38
ATOM     38  C   UNL A   1      35.822  33.345  34.018  1.00  0.00     0.042 C 
BRANCH  38  39
ATOM     39  C   UNL A   1      36.756  34.103  34.988  1.00  0.00     0.118 C 
BRANCH  39  40
ATOM     40  N   UNL A   1      37.041  33.393  36.215  1.00  0.00    -0.352 N 
ATOM     41  C   UNL A   1      37.997  32.422  36.461  1.00  0.00     0.251 C 
ATOM     42  H   UNL A   1      36.475  33.634  36.984  1.00  0.00     0.163 HD
ATOM     43  O   UNL A   1      37.969  31.893  37.573  1.00  0.00    -0.269 OA
BRANCH  41  44
ATOM     44  C   UNL A   1      38.921  31.886  35.393  1.00  0.00     0.039 A 
ATOM     45  C   UNL A   1      38.387  30.933  34.546  1.00  0.00     0.014 A 
ATOM     46  C   UNL A   1      40.309  32.099  35.276  1.00  0.00     0.014 A 
ATOM     47  C   UNL A   1      39.203  30.278  33.582  1.00  0.00     0.010 A 
ATOM     48  C   UNL A   1      41.161  31.338  34.345  1.00  0.00     0.010 A 
ATOM     49  C   UNL A   1      40.641  30.375  33.459  1.00  0.00    -0.014 A 
BRANCH  49  50
ATOM     50  C   UNL A   1      41.378  29.121  32.692  1.00  0.00     0.031 A 
ATOM     51  C   UNL A   1      42.113  28.472  33.813  1.00  0.00     0.074 A 
ATOM     52  C   UNL A   1      41.740  28.554  31.463  1.00  0.00     0.049 A 
ATOM     53  N   UNL A   1      42.973  29.205  34.457  1.00  0.00    -0.248 NA
ATOM     54  C   UNL A   1      41.668  27.276  34.528  1.00  0.00     0.031 C 
ATOM     55  C   UNL A   1      41.575  29.104  30.107  1.00  0.00     0.029 A 
ATOM     56  N   UNL A   1      42.381  27.310  31.124  1.00  0.00    -0.354 N 
ATOM     57  C   UNL A   1      43.367  28.494  35.556  1.00  0.00     0.074 A 
ATOM     58  C   UNL A   1      42.393  27.410  35.648  1.00  0.00     0.031 C 
ATOM     59  C   UNL A   1      41.910  28.195  29.138  1.00  0.00     0.029 A 
ATOM     60  C   UNL A   1      42.400  26.944  29.720  1.00  0.00     0.049 A 
ATOM     61  H   UNL A   1      42.785  26.733  31.812  1.00  0.00     0.167 HD
ATOM     62  C   UNL A   1      44.711  28.467  35.779  1.00  0.00     0.031 A 
ATOM     63  C   UNL A   1      42.857  25.788  29.075  1.00  0.00     0.031 A 
ATOM     64  C   UNL A   1      45.276  27.245  35.262  1.00  0.00     0.049 A 
ATOM     65  C   UNL A   1      43.970  25.323  29.914  1.00  0.00     0.074 A 
ATOM     66  C   UNL A   1      44.887  25.922  35.348  1.00  0.00     0.029 A 
ATOM     67  N   UNL A   1      46.060  27.357  34.132  1.00  0.00    -0.354 N 
ATOM     68  N   UNL A   1      45.123  25.920  29.907  1.00  0.00    -0.248 NA
ATOM     69  C   UNL A   1      43.891  24.104  30.710  1.00  0.00     0.031 C 
ATOM     70  C   UNL A   1      45.006  25.428  34.031  1.00  0.00     0.029 A 
ATOM     71  C   UNL A   1      45.812  26.286  33.295  1.00  0.00     0.049 A 
ATOM     72  H   UNL A   1      46.698  28.086  33.951  1.00  0.00     0.167 HD
ATOM     73  C   UNL A   1      45.709  25.470  31.050  1.00  0.00     0.074 A 
ATOM     74  C   UNL A   1      45.061  24.205  31.343  1.00  0.00     0.031 C 
ATOM     75  C   UNL A   1      46.203  26.398  31.906  1.00  0.00     0.031 A 
BRANCH  62  76
ATOM     76  C   UNL A   1      45.385  29.821  35.676  1.00  0.00    -0.014 A 
ATOM     77  C   UNL A   1      45.103  30.801  36.636  1.00  0.00     0.010 A 
ATOM     78  C   UNL A   1      46.200  30.185  34.576  1.00  0.00     0.010 A 
ATOM     79  C   UNL A   1      45.571  32.114  36.471  1.00  0.00     0.020 A 
ATOM     80  C   UNL A   1      46.638  31.498  34.386  1.00  0.00     0.020 A 
ATOM     81  C   UNL A   1      46.316  32.460  35.336  1.00  0.00     0.054 A 
BRANCH  81  82
ATOM     82  S   UNL A   1      46.792  34.194  35.092  1.00  0.00     0.124 S 
ATOM     83  O   UNL A   1      45.509  34.892  35.169  1.00  0.00    -0.237 OA
ATOM     84  O   UNL A   1      47.689  34.429  36.218  1.00  0.00    -0.237 OA
ATOM     85  O   UNL A   1      47.411  34.211  33.768  1.00  0.00    -0.744 OA
ENDBRANCH  81  82
ENDBRANCH  62  76
BRANCH  63  86
ATOM     86  C   UNL A   1      42.860  24.929  27.754  1.00  0.00    -0.014 A 
ATOM     87  C   UNL A   1      43.748  25.280  26.671  1.00  0.00     0.010 A 
ATOM     88  C   UNL A   1      42.395  23.604  27.689  1.00  0.00     0.010 A 
ATOM     89  C   UNL A   1      44.252  24.360  25.712  1.00  0.00     0.020 A 
ATOM     90  C   UNL A   1      42.870  22.674  26.702  1.00  0.00     0.020 A 
ATOM     91  C   UNL A   1      43.835  23.040  25.755  1.00  0.00     0.054 A 
BRANCH  91  92
ATOM     92  S   UNL A   1      44.671  21.803  24.680  1.00  0.00     0.124 S 
ATOM     93  O   UNL A   1      46.031  21.765  25.213  1.00  0.00    -0.237 OA
ATOM     94  O   UNL A   1      43.879  20.595  24.904  1.00  0.00    -0.237 OA
ATOM     95  O   UNL A   1      44.546  22.372  23.340  1.00  0.00    -0.744 OA
ENDBRANCH  91  92
ENDBRANCH  63  86
BRANCH  75  96
ATOM     96  C   UNL A   1      46.961  27.580  31.324  1.00  0.00    -0.014 A 
ATOM     97  C   UNL A   1      48.333  27.596  30.983  1.00  0.00     0.010 A 
ATOM     98  C   UNL A   1      46.241  28.775  31.149  1.00  0.00     0.010 A 
ATOM     99  C   UNL A   1      48.968  28.774  30.555  1.00  0.00     0.020 A 
ATOM    100  C   UNL A   1      46.856  29.941  30.679  1.00  0.00     0.020 A 
ATOM    101  C   UNL A   1      48.225  29.944  30.420  1.00  0.00     0.054 A 
BRANCH 101 102
ATOM    102  S   UNL A   1      49.063  31.480  29.941  1.00  0.00     0.124 S 
ATOM    103  O   UNL A   1      48.199  32.499  30.536  1.00  0.00    -0.237 OA
ATOM    104  O   UNL A   1      50.377  31.342  30.558  1.00  0.00    -0.237 OA
ATOM    105  O   UNL A   1      49.044  31.443  28.480  1.00  0.00    -0.744 OA
ENDBRANCH 101 102
ENDBRANCH  75  96
ENDBRANCH  49  50
ENDBRANCH  41  44
ENDBRANCH  39  40
ENDBRANCH  38  39
ENDBRANCH   1  38
TORSDOF 21
ENDMDL
MODEL 2
REMARK VINA RESULT:      -9.0      7.277     12.489
REMARK SMILES Cc1c(CC(=O)N[C@H](CO)C(=O)NCCCNC(=O)c2ccc(-c3c4nc(c(-c5ccc(S(=O)(=O)[O-])cc5)c5ccc([nH]5)c(-c5ccc(S(=O)(=O)[O-])cc5)c5nc(c(-c6ccc(S(=O)(=O)[O-])cc6)c6ccc3[nH]6)C=C5)C=C4)cc2)cc(-c2ccc(S(C)(=O)=O)cc2)n1-c1cccc(F)c1
REMARK SMILES IDX 14 1 13 2 11 3 12 4 8 6 7 7 5 8 6 9 4 11 3 12 1 13 2 14
REMARK SMILES IDX 92 15 80 16 81 17 93 18 94 19 99 20 95 21 97 22 96 23 98 24
REMARK SMILES IDX 82 25 83 26 91 27 84 28 90 29 85 30 86 31 87 32 88 33 89 34
REMARK SMILES IDX 9 35 10 36 15 38 16 39 17 40 18 41 19 43 20 44 21 45 79 46
REMARK SMILES IDX 22 47 78 48 23 49 24 50 25 51 72 52 26 53 77 54 71 55 73 56
REMARK SMILES IDX 27 57 76 58 70 59 69 60 28 62 58 63 39 64 57 65 40 66 43 67
REMARK SMILES IDX 56 68 74 69 41 70 42 71 55 73 75 74 44 75 29 76 30 77 38 78
REMARK SMILES IDX 31 79 37 80 32 81 33 82 34 83 35 84 36 85 59 86 60 87 68 88
REMARK SMILES IDX 61 89 67 90 62 91 63 92 64 93 65 94 66 95 45 96 46 97 54 98
REMARK SMILES IDX 47 99 53 100 48 101 49 102 50 103 51 104 52 105
REMARK H PARENT 13 5 7 10 10 37 17 42 73 61 43 72
REMARK Flexibility Score: inf
ROOT
ATOM      1  C   UNL A   1      39.154  31.630  30.388  1.00  0.00     0.117 C 
ENDROOT
BRANCH   1   2
ATOM      2  N   UNL A   1      38.146  31.385  31.406  1.00  0.00    -0.354 N 
ATOM      3  C   UNL A   1      36.814  31.641  31.472  1.00  0.00     0.244 C 
ATOM      4  O   UNL A   1      36.272  31.469  32.571  1.00  0.00    -0.273 OA
ATOM      5  H   UNL A   1      38.502  30.944  32.212  1.00  0.00     0.163 HD
BRANCH   3   6
ATOM      6  C   UNL A   1      35.985  32.179  30.292  1.00  0.00     0.197 C 
BRANCH   6   7
ATOM      7  N   UNL A   1      36.394  31.608  29.006  1.00  0.00    -0.342 N 
ATOM      8  C   UNL A   1      35.625  31.032  28.037  1.00  0.00     0.225 C 
ATOM      9  O   UNL A   1      36.193  30.555  27.049  1.00  0.00    -0.275 OA
ATOM     10  H   UNL A   1      37.359  31.645  28.814  1.00  0.00     0.164 HD
BRANCH   8  11
ATOM     11  C   UNL A   1      34.104  31.003  28.149  1.00  0.00     0.137 C 
BRANCH  11  12
ATOM     12  C   UNL A   1      33.459  29.926  27.325  1.00  0.00    -0.017 A 
ATOM     13  C   UNL A   1      31.562  31.281  26.206  1.00  0.00     0.065 C 
ATOM     14  C   UNL A   1      32.395  30.061  26.441  1.00  0.00     0.024 A 
ATOM     15  N   UNL A   1      32.167  28.830  25.833  1.00  0.00    -0.313 N 
ATOM     16  C   UNL A   1      33.810  28.551  27.328  1.00  0.00     0.033 A 
ATOM     17  C   UNL A   1      33.057  27.896  26.370  1.00  0.00     0.053 A 
BRANCH  15  18
ATOM     18  C   UNL A   1      31.195  28.555  24.831  1.00  0.00     0.049 A 
ATOM     19  C   UNL A   1      30.341  27.452  24.976  1.00  0.00     0.027 A 
ATOM     20  C   UNL A   1      31.154  29.333  23.671  1.00  0.00     0.065 A 
ATOM     21  C   UNL A   1      29.460  27.113  23.949  1.00  0.00     0.005 A 
ATOM     22  C   UNL A   1      30.276  28.973  22.654  1.00  0.00     0.125 A 
ATOM     23  C   UNL A   1      29.435  27.871  22.781  1.00  0.00     0.039 A 
ATOM     24  F   UNL A   1      30.255  29.686  21.521  1.00  0.00    -0.207 F 
ENDBRANCH  15  18
BRANCH  17  25
ATOM     25  C   UNL A   1      33.202  26.504  25.915  1.00  0.00    -0.001 A 
ATOM     26  C   UNL A   1      34.096  26.166  24.886  1.00  0.00     0.011 A 
ATOM     27  C   UNL A   1      32.424  25.496  26.497  1.00  0.00     0.011 A 
ATOM     28  C   UNL A   1      34.156  24.859  24.391  1.00  0.00     0.021 A 
ATOM     29  C   UNL A   1      32.482  24.186  26.013  1.00  0.00     0.021 A 
ATOM     30  C   UNL A   1      33.327  23.881  24.944  1.00  0.00     0.067 A 
BRANCH  30  31
ATOM     31  S   UNL A   1      33.374  22.232  24.282  1.00  0.00     0.175 S 
ATOM     32  C   UNL A   1      32.913  22.435  22.581  1.00  0.00     0.163 C 
ATOM     33  O   UNL A   1      34.736  21.780  24.339  1.00  0.00    -0.224 OA
ATOM     34  O   UNL A   1      32.297  21.476  24.924  1.00  0.00    -0.224 OA
ENDBRANCH  30  31
ENDBRANCH  17  25
ENDBRANCH  11  12
ENDBRANCH   8  11
ENDBRANCH   6   7
BRANCH   6  35
ATOM     35  C   UNL A   1      35.902  33.711  30.339  1.00  0.00     0.191 C 
BRANCH  35  36
ATOM     36  O   UNL A   1      36.841  34.329  29.461  1.00  0.00    -0.394 OA
ATOM     37  H   UNL A   1      36.748  33.953  28.571  1.00  0.00     0.210 HD
ENDBRANCH  35  36
ENDBRANCH   6  35
ENDBRANCH   3   6
ENDBRANCH   1   2
BRANCH   1  38
ATOM     38  C   UNL A   1      40.408  30.748  30.535  1.00  0.00     0.042 C 
BRANCH  38  39
ATOM     39  C   UNL A   1      41.331  31.027  31.744  1.00  0.00     0.118 C 
BRANCH  39  40
ATOM     40  N   UNL A   1      42.734  30.790  31.487  1.00  0.00    -0.352 N 
ATOM     41  C   UNL A   1      43.665  31.623  30.892  1.00  0.00     0.251 C 
ATOM     42  H   UNL A   1      43.074  29.913  31.778  1.00  0.00     0.163 HD
ATOM     43  O   UNL A   1      44.782  31.144  30.693  1.00  0.00    -0.269 OA
BRANCH  41  44
ATOM     44  C   UNL A   1      43.317  32.984  30.335  1.00  0.00     0.039 A 
ATOM     45  C   UNL A   1      43.547  33.168  28.985  1.00  0.00     0.014 A 
ATOM     46  C   UNL A   1      42.968  34.141  31.060  1.00  0.00     0.014 A 
ATOM     47  C   UNL A   1      43.365  34.445  28.383  1.00  0.00     0.010 A 
ATOM     48  C   UNL A   1      42.886  35.478  30.444  1.00  0.00     0.010 A 
ATOM     49  C   UNL A   1      43.096  35.691  29.068  1.00  0.00    -0.014 A 
BRANCH  49  50
ATOM     50  C   UNL A   1      43.505  37.058  28.250  1.00  0.00     0.031 A 
ATOM     51  C   UNL A   1      44.965  37.151  28.529  1.00  0.00     0.074 A 
ATOM     52  C   UNL A   1      43.046  38.210  27.599  1.00  0.00     0.049 A 
ATOM     53  N   UNL A   1      45.323  37.221  29.777  1.00  0.00    -0.248 NA
ATOM     54  C   UNL A   1      46.024  36.739  27.608  1.00  0.00     0.031 C 
ATOM     55  C   UNL A   1      41.668  38.716  27.476  1.00  0.00     0.029 A 
ATOM     56  N   UNL A   1      43.733  39.252  26.879  1.00  0.00    -0.354 N 
ATOM     57  C   UNL A   1      46.683  37.085  29.815  1.00  0.00     0.074 A 
ATOM     58  C   UNL A   1      47.031  36.601  28.481  1.00  0.00     0.031 C 
ATOM     59  C   UNL A   1      41.589  39.795  26.636  1.00  0.00     0.029 A 
ATOM     60  C   UNL A   1      42.909  40.188  26.138  1.00  0.00     0.049 A 
ATOM     61  H   UNL A   1      44.714  39.325  26.889  1.00  0.00     0.167 HD
ATOM     62  C   UNL A   1      47.335  37.986  30.602  1.00  0.00     0.031 A 
ATOM     63  C   UNL A   1      43.253  41.242  25.283  1.00  0.00     0.031 A 
ATOM     64  C   UNL A   1      47.850  39.067  29.799  1.00  0.00     0.049 A 
ATOM     65  C   UNL A   1      44.532  41.735  25.815  1.00  0.00     0.074 A 
ATOM     66  C   UNL A   1      48.536  39.100  28.599  1.00  0.00     0.029 A 
ATOM     67  N   UNL A   1      47.224  40.290  29.933  1.00  0.00    -0.354 N 
ATOM     68  N   UNL A   1      44.588  42.446  26.900  1.00  0.00    -0.248 NA
ATOM     69  C   UNL A   1      45.792  41.561  25.103  1.00  0.00     0.031 C 
ATOM     70  C   UNL A   1      47.885  40.099  27.843  1.00  0.00     0.029 A 
ATOM     71  C   UNL A   1      47.130  40.894  28.694  1.00  0.00     0.049 A 
ATOM     72  H   UNL A   1      46.895  40.671  30.780  1.00  0.00     0.167 HD
ATOM     73  C   UNL A   1      45.899  42.356  27.258  1.00  0.00     0.074 A 
ATOM     74  C   UNL A   1      46.613  42.055  26.031  1.00  0.00     0.031 C 
ATOM     75  C   UNL A   1      46.174  41.967  28.527  1.00  0.00     0.031 A 
BRANCH  62  76
ATOM     76  C   UNL A   1      46.719  38.171  31.975  1.00  0.00    -0.014 A 
ATOM     77  C   UNL A   1      46.989  37.232  32.978  1.00  0.00     0.010 A 
ATOM     78  C   UNL A   1      45.779  39.191  32.257  1.00  0.00     0.010 A 
ATOM     79  C   UNL A   1      46.298  37.277  34.199  1.00  0.00     0.020 A 
ATOM     80  C   UNL A   1      45.061  39.221  33.455  1.00  0.00     0.020 A 
ATOM     81  C   UNL A   1      45.323  38.258  34.422  1.00  0.00     0.054 A 
BRANCH  81  82
ATOM     82  S   UNL A   1      44.359  38.207  35.959  1.00  0.00     0.124 S 
ATOM     83  O   UNL A   1      43.114  37.568  35.535  1.00  0.00    -0.237 OA
ATOM     84  O   UNL A   1      45.204  37.393  36.827  1.00  0.00    -0.237 OA
ATOM     85  O   UNL A   1      44.218  39.611  36.339  1.00  0.00    -0.744 OA
ENDBRANCH  81  82
ENDBRANCH  62  76
BRANCH  63  86
ATOM     86  C   UNL A   1      42.768  42.259  24.182  1.00  0.00    -0.014 A 
ATOM     87  C   UNL A   1      43.729  43.092  23.499  1.00  0.00     0.010 A 
ATOM     88  C   UNL A   1      41.547  42.136  23.495  1.00  0.00     0.010 A 
ATOM     89  C   UNL A   1      43.556  43.615  22.190  1.00  0.00     0.020 A 
ATOM     90  C   UNL A   1      41.348  42.691  22.184  1.00  0.00     0.020 A 
ATOM     91  C   UNL A   1      42.369  43.379  21.517  1.00  0.00     0.054 A 
BRANCH  91  92
ATOM     92  S   UNL A   1      42.242  43.838  19.740  1.00  0.00     0.124 S 
ATOM     93  O   UNL A   1      43.405  44.697  19.534  1.00  0.00    -0.237 OA
ATOM     94  O   UNL A   1      42.297  42.540  19.068  1.00  0.00    -0.237 OA
ATOM     95  O   UNL A   1      40.949  44.514  19.651  1.00  0.00    -0.744 OA
ENDBRANCH  91  92
ENDBRANCH  63  86
BRANCH  75  96
ATOM     96  C   UNL A   1      45.331  42.545  29.653  1.00  0.00    -0.014 A 
ATOM     97  C   UNL A   1      45.498  43.819  30.242  1.00  0.00     0.010 A 
ATOM     98  C   UNL A   1      44.323  41.719  30.182  1.00  0.00     0.010 A 
ATOM     99  C   UNL A   1      44.739  44.218  31.355  1.00  0.00     0.020 A 
ATOM    100  C   UNL A   1      43.531  42.127  31.260  1.00  0.00     0.020 A 
ATOM    101  C   UNL A   1      43.767  43.360  31.865  1.00  0.00     0.054 A 
BRANCH 101 102
ATOM    102  S   UNL A   1      42.842  43.846  33.347  1.00  0.00     0.124 S 
ATOM    103  O   UNL A   1      42.095  42.626  33.657  1.00  0.00    -0.237 OA
ATOM    104  O   UNL A   1      43.897  44.185  34.296  1.00  0.00    -0.237 OA
ATOM    105  O   UNL A   1      42.020  44.964  32.890  1.00  0.00    -0.744 OA
ENDBRANCH 101 102
ENDBRANCH  75  96
ENDBRANCH  49  50
ENDBRANCH  41  44
ENDBRANCH  39  40
ENDBRANCH  38  39
ENDBRANCH   1  38
TORSDOF 21
ENDMDL
MODEL 3
REMARK VINA RESULT:      -8.8      6.446     11.315
REMARK SMILES Cc1c(CC(=O)N[C@H](CO)C(=O)NCCCNC(=O)c2ccc(-c3c4nc(c(-c5ccc(S(=O)(=O)[O-])cc5)c5ccc([nH]5)c(-c5ccc(S(=O)(=O)[O-])cc5)c5nc(c(-c6ccc(S(=O)(=O)[O-])cc6)c6ccc3[nH]6)C=C5)C=C4)cc2)cc(-c2ccc(S(C)(=O)=O)cc2)n1-c1cccc(F)c1
REMARK SMILES IDX 14 1 13 2 11 3 12 4 8 6 7 7 5 8 6 9 4 11 3 12 1 13 2 14
REMARK SMILES IDX 92 15 80 16 81 17 93 18 94 19 99 20 95 21 97 22 96 23 98 24
REMARK SMILES IDX 82 25 83 26 91 27 84 28 90 29 85 30 86 31 87 32 88 33 89 34
REMARK SMILES IDX 9 35 10 36 15 38 16 39 17 40 18 41 19 43 20 44 21 45 79 46
REMARK SMILES IDX 22 47 78 48 23 49 24 50 25 51 72 52 26 53 77 54 71 55 73 56
REMARK SMILES IDX 27 57 76 58 70 59 69 60 28 62 58 63 39 64 57 65 40 66 43 67
REMARK SMILES IDX 56 68 74 69 41 70 42 71 55 73 75 74 44 75 29 76 30 77 38 78
REMARK SMILES IDX 31 79 37 80 32 81 33 82 34 83 35 84 36 85 59 86 60 87 68 88
REMARK SMILES IDX 61 89 67 90 62 91 63 92 64 93 65 94 66 95 45 96 46 97 54 98
REMARK SMILES IDX 47 99 53 100 48 101 49 102 50 103 51 104 52 105
REMARK H PARENT 13 5 7 10 10 37 17 42 73 61 43 72
REMARK Flexibility Score: inf
ROOT
ATOM      1  C   UNL A   1      37.692  22.543  25.675  1.00  0.00     0.117 C 
ENDROOT
BRANCH   1   2
ATOM      2  N   UNL A   1      36.666  23.334  25.016  1.00  0.00    -0.354 N 
ATOM      3  C   UNL A   1      35.539  23.005  24.331  1.00  0.00     0.244 C 
ATOM      4  O   UNL A   1      34.971  23.925  23.731  1.00  0.00    -0.273 OA
ATOM      5  H   UNL A   1      36.817  24.304  25.080  1.00  0.00     0.163 HD
BRANCH   3   6
ATOM      6  C   UNL A   1      34.992  21.571  24.219  1.00  0.00     0.197 C 
BRANCH   6   7
ATOM      7  N   UNL A   1      33.947  21.442  23.200  1.00  0.00    -0.342 N 
ATOM      8  C   UNL A   1      32.593  21.527  23.341  1.00  0.00     0.225 C 
ATOM      9  O   UNL A   1      31.890  21.321  22.346  1.00  0.00    -0.275 OA
ATOM     10  H   UNL A   1      34.268  21.272  22.285  1.00  0.00     0.164 HD
BRANCH   8  11
ATOM     11  C   UNL A   1      31.959  21.894  24.678  1.00  0.00     0.137 C 
BRANCH  11  12
ATOM     12  C   UNL A   1      31.679  23.361  24.832  1.00  0.00    -0.017 A 
ATOM     13  C   UNL A   1      33.207  23.910  26.844  1.00  0.00     0.065 C 
ATOM     14  C   UNL A   1      32.263  24.243  25.732  1.00  0.00     0.024 A 
ATOM     15  N   UNL A   1      31.772  25.521  25.480  1.00  0.00    -0.313 N 
ATOM     16  C   UNL A   1      30.729  24.110  24.090  1.00  0.00     0.033 A 
ATOM     17  C   UNL A   1      30.832  25.442  24.449  1.00  0.00     0.053 A 
BRANCH  15  18
ATOM     18  C   UNL A   1      32.153  26.715  26.153  1.00  0.00     0.049 A 
ATOM     19  C   UNL A   1      31.232  27.368  26.985  1.00  0.00     0.027 A 
ATOM     20  C   UNL A   1      33.411  27.275  25.915  1.00  0.00     0.065 A 
ATOM     21  C   UNL A   1      31.561  28.596  27.562  1.00  0.00     0.005 A 
ATOM     22  C   UNL A   1      33.717  28.504  26.490  1.00  0.00     0.125 A 
ATOM     23  C   UNL A   1      32.804  29.168  27.305  1.00  0.00     0.039 A 
ATOM     24  F   UNL A   1      34.903  29.071  26.238  1.00  0.00    -0.207 F 
ENDBRANCH  15  18
BRANCH  17  25
ATOM     25  C   UNL A   1      30.162  26.593  23.823  1.00  0.00    -0.001 A 
ATOM     26  C   UNL A   1      30.889  27.553  23.101  1.00  0.00     0.011 A 
ATOM     27  C   UNL A   1      28.778  26.754  23.963  1.00  0.00     0.011 A 
ATOM     28  C   UNL A   1      30.261  28.695  22.595  1.00  0.00     0.021 A 
ATOM     29  C   UNL A   1      28.141  27.889  23.454  1.00  0.00     0.021 A 
ATOM     30  C   UNL A   1      28.891  28.867  22.798  1.00  0.00     0.067 A 
BRANCH  30  31
ATOM     31  S   UNL A   1      28.104  30.341  22.192  1.00  0.00     0.175 S 
ATOM     32  C   UNL A   1      29.288  31.624  22.506  1.00  0.00     0.163 C 
ATOM     33  O   UNL A   1      27.948  30.197  20.771  1.00  0.00    -0.224 OA
ATOM     34  O   UNL A   1      26.954  30.607  23.058  1.00  0.00    -0.224 OA
ENDBRANCH  30  31
ENDBRANCH  17  25
ENDBRANCH  11  12
ENDBRANCH   8  11
ENDBRANCH   6   7
BRANCH   6  35
ATOM     35  C   UNL A   1      34.636  21.015  25.605  1.00  0.00     0.191 C 
BRANCH  35  36
ATOM     36  O   UNL A   1      34.398  19.609  25.577  1.00  0.00    -0.394 OA
ATOM     37  H   UNL A   1      33.881  19.353  26.357  1.00  0.00     0.210 HD
ENDBRANCH  35  36
ENDBRANCH   6  35
ENDBRANCH   3   6
ENDBRANCH   1   2
BRANCH   1  38
ATOM     38  C   UNL A   1      38.507  23.333  26.717  1.00  0.00     0.042 C 
BRANCH  38  39
ATOM     39  C   UNL A   1      40.047  23.240  26.627  1.00  0.00     0.118 C 
BRANCH  39  40
ATOM     40  N   UNL A   1      40.557  21.888  26.554  1.00  0.00    -0.352 N 
ATOM     41  C   UNL A   1      41.824  21.451  26.206  1.00  0.00     0.251 C 
ATOM     42  H   UNL A   1      39.913  21.181  26.785  1.00  0.00     0.163 HD
ATOM     43  O   UNL A   1      41.979  20.232  26.119  1.00  0.00    -0.269 OA
BRANCH  41  44
ATOM     44  C   UNL A   1      42.929  22.385  25.772  1.00  0.00     0.039 A 
ATOM     45  C   UNL A   1      44.193  22.101  26.251  1.00  0.00     0.014 A 
ATOM     46  C   UNL A   1      42.793  23.614  25.095  1.00  0.00     0.014 A 
ATOM     47  C   UNL A   1      45.282  22.981  25.999  1.00  0.00     0.010 A 
ATOM     48  C   UNL A   1      43.907  24.566  24.932  1.00  0.00     0.010 A 
ATOM     49  C   UNL A   1      45.209  24.294  25.394  1.00  0.00    -0.014 A 
BRANCH  49  50
ATOM     50  C   UNL A   1      46.453  25.311  25.744  1.00  0.00     0.031 A 
ATOM     51  C   UNL A   1      46.340  25.427  27.224  1.00  0.00     0.074 A 
ATOM     52  C   UNL A   1      47.398  26.215  25.241  1.00  0.00     0.049 A 
ATOM     53  N   UNL A   1      45.214  25.876  27.696  1.00  0.00    -0.248 NA
ATOM     54  C   UNL A   1      47.165  24.700  28.189  1.00  0.00     0.031 C 
ATOM     55  C   UNL A   1      47.562  26.711  23.865  1.00  0.00     0.029 A 
ATOM     56  N   UNL A   1      48.467  26.944  25.872  1.00  0.00    -0.354 N 
ATOM     57  C   UNL A   1      45.248  25.703  29.051  1.00  0.00     0.074 A 
ATOM     58  C   UNL A   1      46.380  24.806  29.270  1.00  0.00     0.031 C 
ATOM     59  C   UNL A   1      48.693  27.470  23.722  1.00  0.00     0.029 A 
ATOM     60  C   UNL A   1      49.398  27.629  24.996  1.00  0.00     0.049 A 
ATOM     61  H   UNL A   1      48.563  26.975  26.851  1.00  0.00     0.167 HD
ATOM     62  C   UNL A   1      44.848  26.780  29.784  1.00  0.00     0.031 A 
ATOM     63  C   UNL A   1      50.572  28.342  25.273  1.00  0.00     0.031 A 
ATOM     64  C   UNL A   1      45.994  27.528  30.237  1.00  0.00     0.049 A 
ATOM     65  C   UNL A   1      50.334  28.925  26.601  1.00  0.00     0.074 A 
ATOM     66  C   UNL A   1      47.194  27.148  30.810  1.00  0.00     0.029 A 
ATOM     67  N   UNL A   1      46.207  28.754  29.641  1.00  0.00    -0.354 N 
ATOM     68  N   UNL A   1      49.542  29.941  26.766  1.00  0.00    -0.248 NA
ATOM     69  C   UNL A   1      51.054  28.482  27.789  1.00  0.00     0.031 C 
ATOM     70  C   UNL A   1      48.174  27.881  30.105  1.00  0.00     0.029 A 
ATOM     71  C   UNL A   1      47.563  28.936  29.442  1.00  0.00     0.049 A 
ATOM     72  H   UNL A   1      45.503  29.398  29.397  1.00  0.00     0.167 HD
ATOM     73  C   UNL A   1      49.284  29.915  28.103  1.00  0.00     0.074 A 
ATOM     74  C   UNL A   1      50.404  29.210  28.698  1.00  0.00     0.031 C 
ATOM     75  C   UNL A   1      47.985  29.939  28.488  1.00  0.00     0.031 A 
BRANCH  62  76
ATOM     76  C   UNL A   1      43.560  27.417  29.299  1.00  0.00    -0.014 A 
ATOM     77  C   UNL A   1      43.353  28.787  29.509  1.00  0.00     0.010 A 
ATOM     78  C   UNL A   1      42.497  26.662  28.749  1.00  0.00     0.010 A 
ATOM     79  C   UNL A   1      42.105  29.367  29.232  1.00  0.00     0.020 A 
ATOM     80  C   UNL A   1      41.241  27.224  28.506  1.00  0.00     0.020 A 
ATOM     81  C   UNL A   1      41.050  28.578  28.754  1.00  0.00     0.054 A 
BRANCH  81  82
ATOM     82  S   UNL A   1      39.416  29.336  28.532  1.00  0.00     0.124 S 
ATOM     83  O   UNL A   1      39.539  30.587  29.279  1.00  0.00    -0.237 OA
ATOM     84  O   UNL A   1      39.342  29.490  27.083  1.00  0.00    -0.237 OA
ATOM     85  O   UNL A   1      38.492  28.369  29.120  1.00  0.00    -0.744 OA
ENDBRANCH  81  82
ENDBRANCH  62  76
BRANCH  63  86
ATOM     86  C   UNL A   1      51.897  28.975  24.702  1.00  0.00    -0.014 A 
ATOM     87  C   UNL A   1      52.400  28.551  23.418  1.00  0.00     0.010 A 
ATOM     88  C   UNL A   1      52.406  30.218  25.120  1.00  0.00     0.010 A 
ATOM     89  C   UNL A   1      53.201  29.353  22.562  1.00  0.00     0.020 A 
ATOM     90  C   UNL A   1      53.245  31.023  24.276  1.00  0.00     0.020 A 
ATOM     91  C   UNL A   1      53.594  30.613  22.983  1.00  0.00     0.054 A 
BRANCH  91  92
ATOM     92  S   UNL A   1      54.413  31.743  21.784  1.00  0.00     0.124 S 
ATOM     93  O   UNL A   1      54.667  30.879  20.634  1.00  0.00    -0.237 OA
ATOM     94  O   UNL A   1      53.401  32.778  21.577  1.00  0.00    -0.237 OA
ATOM     95  O   UNL A   1      55.606  32.193  22.497  1.00  0.00    -0.744 OA
ENDBRANCH  91  92
ENDBRANCH  63  86
BRANCH  75  96
ATOM     96  C   UNL A   1      47.037  30.879  27.760  1.00  0.00    -0.014 A 
ATOM     97  C   UNL A   1      45.971  30.490  26.917  1.00  0.00     0.010 A 
ATOM     98  C   UNL A   1      47.271  32.258  27.906  1.00  0.00     0.010 A 
ATOM     99  C   UNL A   1      45.221  31.436  26.199  1.00  0.00     0.020 A 
ATOM    100  C   UNL A   1      46.499  33.209  27.230  1.00  0.00     0.020 A 
ATOM    101  C   UNL A   1      45.501  32.792  26.352  1.00  0.00     0.054 A 
BRANCH 101 102
ATOM    102  S   UNL A   1      44.582  34.006  25.366  1.00  0.00     0.124 S 
ATOM    103  O   UNL A   1      45.552  35.093  25.235  1.00  0.00    -0.237 OA
ATOM    104  O   UNL A   1      44.294  33.278  24.135  1.00  0.00    -0.237 OA
ATOM    105  O   UNL A   1      43.424  34.322  26.199  1.00  0.00    -0.744 OA
ENDBRANCH 101 102
ENDBRANCH  75  96
ENDBRANCH  49  50
ENDBRANCH  41  44
ENDBRANCH  39  40
ENDBRANCH  38  39
ENDBRANCH   1  38
TORSDOF 21
ENDMDL
