MODEL 1
REMARK VINA RESULT:     -11.6      0.000      0.000
REMARK SMILES O=C(NCCCNC(=O)c1ccc(-c2c3nc(c(-c4ccc(S(=O)(=O)[O-])cc4)c4ccc([nH]4)c(-c4ccc(S(=O)(=O)[O-])cc4)c4nc(c(-c5ccc(S(=O)(=O)[O-])cc5)c5ccc2[nH]5)C=C4)C=C3)cc1)c1ccc(S[C@H]2CCO[C@@]3(CCSC3)C2)cc1
REMARK SMILES IDX 5 1 4 2 3 3 1 4 2 5 70 7 71 8 86 9 72 10 85 11 73 12 74 13
REMARK SMILES IDX 75 14 76 15 84 16 77 17 79 18 78 19 80 20 83 21 81 22 82 23
REMARK SMILES IDX 6 24 7 25 8 26 9 28 10 29 11 30 69 31 12 32 68 33 13 34
REMARK SMILES IDX 14 35 15 36 62 37 16 38 67 39 61 40 63 41 17 42 66 43 60 44
REMARK SMILES IDX 59 45 18 47 48 48 29 49 47 50 30 51 33 52 46 53 64 54 31 55
REMARK SMILES IDX 32 56 45 58 65 59 34 60 19 61 20 62 28 63 21 64 27 65 22 66
REMARK SMILES IDX 23 67 24 68 25 69 26 70 49 71 50 72 58 73 51 74 57 75 52 76
REMARK SMILES IDX 53 77 54 78 55 79 56 80 35 81 36 82 44 83 37 84 43 85 38 86
REMARK SMILES IDX 39 87 40 88 41 89 42 90
REMARK H PARENT 3 6 7 27 63 46 33 57
REMARK Flexibility Score: inf
ROOT
ATOM      1  C   UNL A   1      32.952  29.233  24.969  1.00  0.00     0.042 C 
ENDROOT
BRANCH   1   2
ATOM      2  C   UNL A   1      31.459  29.432  25.160  1.00  0.00     0.118 C 
BRANCH   2   3
ATOM      3  N   UNL A   1      30.759  29.683  23.905  1.00  0.00    -0.352 N 
ATOM      4  O   UNL A   1      30.065  29.275  21.796  1.00  0.00    -0.269 OA
ATOM      5  C   UNL A   1      30.529  28.840  22.845  1.00  0.00     0.251 C 
ATOM      6  H   UNL A   1      30.399  30.594  23.802  1.00  0.00     0.163 HD
BRANCH   5   7
ATOM      7  C   UNL A   1      30.833  27.401  22.974  1.00  0.00     0.039 A 
ATOM      8  C   UNL A   1      31.764  26.804  22.128  1.00  0.00     0.015 A 
ATOM      9  C   UNL A   1      30.197  26.638  23.954  1.00  0.00     0.015 A 
ATOM     10  C   UNL A   1      31.965  25.429  22.173  1.00  0.00     0.016 A 
ATOM     11  C   UNL A   1      30.463  25.266  24.044  1.00  0.00     0.016 A 
ATOM     12  C   UNL A   1      31.348  24.642  23.150  1.00  0.00     0.008 A 
BRANCH  12  13
ATOM     13  S   UNL A   1      31.641  22.885  23.361  1.00  0.00    -0.123 SA
BRANCH  13  14
ATOM     14  C   UNL A   1      32.759  22.792  24.817  1.00  0.00     0.057 C 
ATOM     15  C   UNL A   1      32.133  22.002  25.970  1.00  0.00     0.043 C 
ATOM     16  C   UNL A   1      34.080  22.112  24.427  1.00  0.00     0.051 C 
ATOM     17  C   UNL A   1      33.107  22.016  27.132  1.00  0.00     0.162 C 
ATOM     18  C   UNL A   1      35.014  21.946  25.654  1.00  0.00     0.079 C 
ATOM     19  O   UNL A   1      34.308  21.353  26.758  1.00  0.00    -0.374 OA
ATOM     20  C   UNL A   1      36.164  20.970  25.357  1.00  0.00     0.047 C 
ATOM     21  C   UNL A   1      35.704  23.259  26.074  1.00  0.00     0.105 C 
ATOM     22  C   UNL A   1      37.186  21.675  24.492  1.00  0.00     0.072 C 
ATOM     23  S   UNL A   1      37.288  23.342  25.183  1.00  0.00    -0.159 SA
ENDBRANCH  13  14
ENDBRANCH  12  13
ENDBRANCH   5   7
ENDBRANCH   2   3
ENDBRANCH   1   2
BRANCH   1  24
ATOM     24  C   UNL A   1      33.736  29.228  26.269  1.00  0.00     0.118 C 
BRANCH  24  25
ATOM     25  N   UNL A   1      33.613  30.478  27.011  1.00  0.00    -0.352 N 
ATOM     26  C   UNL A   1      34.439  31.010  27.974  1.00  0.00     0.251 C 
ATOM     27  H   UNL A   1      32.822  31.020  26.791  1.00  0.00     0.163 HD
ATOM     28  O   UNL A   1      34.083  31.995  28.613  1.00  0.00    -0.269 OA
BRANCH  26  29
ATOM     29  C   UNL A   1      35.741  30.368  28.251  1.00  0.00     0.039 A 
ATOM     30  C   UNL A   1      36.751  30.416  27.287  1.00  0.00     0.014 A 
ATOM     31  C   UNL A   1      35.974  29.754  29.484  1.00  0.00     0.014 A 
ATOM     32  C   UNL A   1      38.026  29.937  27.600  1.00  0.00     0.010 A 
ATOM     33  C   UNL A   1      37.262  29.369  29.825  1.00  0.00     0.010 A 
ATOM     34  C   UNL A   1      38.304  29.457  28.889  1.00  0.00    -0.014 A 
BRANCH  34  35
ATOM     35  C   UNL A   1      39.663  29.030  29.306  1.00  0.00     0.031 A 
ATOM     36  C   UNL A   1      40.561  30.008  30.012  1.00  0.00     0.074 A 
ATOM     37  C   UNL A   1      40.130  27.816  28.954  1.00  0.00     0.049 A 
ATOM     38  N   UNL A   1      41.835  29.912  30.289  1.00  0.00    -0.248 NA
ATOM     39  C   UNL A   1      39.948  31.282  30.427  1.00  0.00     0.031 C 
ATOM     40  C   UNL A   1      39.367  26.780  28.252  1.00  0.00     0.029 A 
ATOM     41  N   UNL A   1      41.371  27.255  29.122  1.00  0.00    -0.354 N 
ATOM     42  C   UNL A   1      42.184  31.122  30.876  1.00  0.00     0.074 A 
ATOM     43  C   UNL A   1      41.000  31.952  30.872  1.00  0.00     0.031 C 
ATOM     44  C   UNL A   1      40.151  25.703  28.073  1.00  0.00     0.029 A 
ATOM     45  C   UNL A   1      41.482  25.991  28.594  1.00  0.00     0.049 A 
ATOM     46  H   UNL A   1      42.112  27.716  29.579  1.00  0.00     0.167 HD
ATOM     47  C   UNL A   1      43.380  31.504  31.386  1.00  0.00     0.031 A 
ATOM     48  C   UNL A   1      42.542  25.162  28.521  1.00  0.00     0.031 A 
ATOM     49  C   UNL A   1      44.550  30.671  31.402  1.00  0.00     0.049 A 
ATOM     50  C   UNL A   1      43.865  25.612  29.077  1.00  0.00     0.074 A 
ATOM     51  C   UNL A   1      45.799  30.948  31.928  1.00  0.00     0.029 A 
ATOM     52  N   UNL A   1      44.613  29.390  30.872  1.00  0.00    -0.354 N 
ATOM     53  N   UNL A   1      44.173  26.752  29.647  1.00  0.00    -0.248 NA
ATOM     54  C   UNL A   1      44.982  24.663  28.981  1.00  0.00     0.031 C 
ATOM     55  C   UNL A   1      46.628  29.848  31.684  1.00  0.00     0.029 A 
ATOM     56  C   UNL A   1      45.882  28.867  31.050  1.00  0.00     0.049 A 
ATOM     57  H   UNL A   1      43.865  28.923  30.434  1.00  0.00     0.167 HD
ATOM     58  C   UNL A   1      45.511  26.644  30.011  1.00  0.00     0.074 A 
ATOM     59  C   UNL A   1      45.952  25.328  29.595  1.00  0.00     0.031 C 
ATOM     60  C   UNL A   1      46.300  27.550  30.640  1.00  0.00     0.031 A 
BRANCH  47  61
ATOM     61  C   UNL A   1      43.468  32.896  31.954  1.00  0.00    -0.014 A 
ATOM     62  C   UNL A   1      43.248  33.137  33.323  1.00  0.00     0.010 A 
ATOM     63  C   UNL A   1      43.765  33.980  31.107  1.00  0.00     0.010 A 
ATOM     64  C   UNL A   1      43.256  34.443  33.822  1.00  0.00     0.020 A 
ATOM     65  C   UNL A   1      43.805  35.284  31.609  1.00  0.00     0.020 A 
ATOM     66  C   UNL A   1      43.523  35.509  32.957  1.00  0.00     0.054 A 
BRANCH  66  67
ATOM     67  S   UNL A   1      43.509  37.195  33.626  1.00  0.00     0.124 S 
ATOM     68  O   UNL A   1      44.694  37.187  34.481  1.00  0.00    -0.237 OA
ATOM     69  O   UNL A   1      43.607  38.020  32.425  1.00  0.00    -0.237 OA
ATOM     70  O   UNL A   1      42.232  37.276  34.331  1.00  0.00    -0.744 OA
ENDBRANCH  66  67
ENDBRANCH  47  61
BRANCH  48  71
ATOM     71  C   UNL A   1      42.384  23.810  27.922  1.00  0.00    -0.014 A 
ATOM     72  C   UNL A   1      42.719  23.595  26.574  1.00  0.00     0.010 A 
ATOM     73  C   UNL A   1      41.931  22.727  28.696  1.00  0.00     0.010 A 
ATOM     74  C   UNL A   1      42.598  22.323  26.007  1.00  0.00     0.020 A 
ATOM     75  C   UNL A   1      41.831  21.448  28.139  1.00  0.00     0.020 A 
ATOM     76  C   UNL A   1      42.160  21.256  26.795  1.00  0.00     0.054 A 
BRANCH  76  77
ATOM     77  S   UNL A   1      42.079  19.601  26.056  1.00  0.00     0.124 S 
ATOM     78  O   UNL A   1      42.554  18.757  27.148  1.00  0.00    -0.237 OA
ATOM     79  O   UNL A   1      40.662  19.472  25.724  1.00  0.00    -0.237 OA
ATOM     80  O   UNL A   1      42.973  19.699  24.904  1.00  0.00    -0.744 OA
ENDBRANCH  76  77
ENDBRANCH  48  71
BRANCH  60  81
ATOM     81  C   UNL A   1      47.708  27.136  30.968  1.00  0.00    -0.014 A 
ATOM     82  C   UNL A   1      47.996  26.347  32.094  1.00  0.00     0.010 A 
ATOM     83  C   UNL A   1      48.748  27.482  30.086  1.00  0.00     0.010 A 
ATOM     84  C   UNL A   1      49.305  25.925  32.342  1.00  0.00     0.020 A 
ATOM     85  C   UNL A   1      50.053  27.042  30.317  1.00  0.00     0.020 A 
ATOM     86  C   UNL A   1      50.325  26.274  31.449  1.00  0.00     0.054 A 
BRANCH  86  87
ATOM     87  S   UNL A   1      52.004  25.656  31.755  1.00  0.00     0.124 S 
ATOM     88  O   UNL A   1      52.429  26.480  32.883  1.00  0.00    -0.237 OA
ATOM     89  O   UNL A   1      51.778  24.245  32.057  1.00  0.00    -0.237 OA
ATOM     90  O   UNL A   1      52.702  25.914  30.497  1.00  0.00    -0.744 OA
ENDBRANCH  86  87
ENDBRANCH  60  81
ENDBRANCH  34  35
ENDBRANCH  26  29
ENDBRANCH  24  25
ENDBRANCH   1  24
TORSDOF 15
ENDMDL
MODEL 2
REMARK VINA RESULT:     -11.6      2.690      3.339
REMARK SMILES O=C(NCCCNC(=O)c1ccc(-c2c3nc(c(-c4ccc(S(=O)(=O)[O-])cc4)c4ccc([nH]4)c(-c4ccc(S(=O)(=O)[O-])cc4)c4nc(c(-c5ccc(S(=O)(=O)[O-])cc5)c5ccc2[nH]5)C=C4)C=C3)cc1)c1ccc(S[C@H]2CCO[C@@]3(CCSC3)C2)cc1
REMARK SMILES IDX 5 1 4 2 3 3 1 4 2 5 70 7 71 8 86 9 72 10 85 11 73 12 74 13
REMARK SMILES IDX 75 14 76 15 84 16 77 17 79 18 78 19 80 20 83 21 81 22 82 23
REMARK SMILES IDX 6 24 7 25 8 26 9 28 10 29 11 30 69 31 12 32 68 33 13 34
REMARK SMILES IDX 14 35 15 36 62 37 16 38 67 39 61 40 63 41 17 42 66 43 60 44
REMARK SMILES IDX 59 45 18 47 48 48 29 49 47 50 30 51 33 52 46 53 64 54 31 55
REMARK SMILES IDX 32 56 45 58 65 59 34 60 19 61 20 62 28 63 21 64 27 65 22 66
REMARK SMILES IDX 23 67 24 68 25 69 26 70 49 71 50 72 58 73 51 74 57 75 52 76
REMARK SMILES IDX 53 77 54 78 55 79 56 80 35 81 36 82 44 83 37 84 43 85 38 86
REMARK SMILES IDX 39 87 40 88 41 89 42 90
REMARK H PARENT 3 6 7 27 63 46 33 57
REMARK Flexibility Score: inf
ROOT
ATOM      1  C   UNL A   1      33.515  29.078  26.939  1.00  0.00     0.042 C 
ENDROOT
BRANCH   1   2
ATOM      2  C   UNL A   1      33.398  29.263  25.437  1.00  0.00     0.118 C 
BRANCH   2   3
ATOM      3  N   UNL A   1      32.113  29.823  25.036  1.00  0.00    -0.352 N 
ATOM      4  O   UNL A   1      30.127  29.908  23.964  1.00  0.00    -0.269 OA
ATOM      5  C   UNL A   1      31.070  29.233  24.366  1.00  0.00     0.251 C 
ATOM      6  H   UNL A   1      31.972  30.767  25.282  1.00  0.00     0.163 HD
BRANCH   5   7
ATOM      7  C   UNL A   1      31.079  27.774  24.135  1.00  0.00     0.039 A 
ATOM      8  C   UNL A   1      30.710  26.901  25.155  1.00  0.00     0.015 A 
ATOM      9  C   UNL A   1      31.446  27.267  22.888  1.00  0.00     0.015 A 
ATOM     10  C   UNL A   1      30.830  25.527  24.974  1.00  0.00     0.016 A 
ATOM     11  C   UNL A   1      31.489  25.881  22.689  1.00  0.00     0.016 A 
ATOM     12  C   UNL A   1      31.186  24.993  23.732  1.00  0.00     0.008 A 
BRANCH  12  13
ATOM     13  S   UNL A   1      31.247  23.236  23.373  1.00  0.00    -0.123 SA
BRANCH  13  14
ATOM     14  C   UNL A   1      32.452  22.574  24.593  1.00  0.00     0.057 C 
ATOM     15  C   UNL A   1      32.156  21.117  24.957  1.00  0.00     0.043 C 
ATOM     16  C   UNL A   1      33.877  22.650  24.025  1.00  0.00     0.051 C 
ATOM     17  C   UNL A   1      33.171  20.676  25.993  1.00  0.00     0.162 C 
ATOM     18  C   UNL A   1      34.909  22.025  24.999  1.00  0.00     0.079 C 
ATOM     19  O   UNL A   1      34.477  20.723  25.434  1.00  0.00    -0.374 OA
ATOM     20  C   UNL A   1      36.259  21.778  24.305  1.00  0.00     0.047 C 
ATOM     21  C   UNL A   1      35.237  22.934  26.200  1.00  0.00     0.105 C 
ATOM     22  C   UNL A   1      36.979  23.101  24.162  1.00  0.00     0.072 C 
ATOM     23  S   UNL A   1      36.666  23.955  25.725  1.00  0.00    -0.159 SA
ENDBRANCH  13  14
ENDBRANCH  12  13
ENDBRANCH   5   7
ENDBRANCH   2   3
ENDBRANCH   1   2
BRANCH   1  24
ATOM     24  C   UNL A   1      34.932  29.230  27.464  1.00  0.00     0.118 C 
BRANCH  24  25
ATOM     25  N   UNL A   1      35.028  30.176  28.571  1.00  0.00    -0.352 N 
ATOM     26  C   UNL A   1      36.081  30.425  29.421  1.00  0.00     0.251 C 
ATOM     27  H   UNL A   1      34.220  30.713  28.734  1.00  0.00     0.163 HD
ATOM     28  O   UNL A   1      35.919  31.137  30.406  1.00  0.00    -0.269 OA
BRANCH  26  29
ATOM     29  C   UNL A   1      37.394  29.803  29.154  1.00  0.00     0.039 A 
ATOM     30  C   UNL A   1      37.935  29.863  27.866  1.00  0.00     0.014 A 
ATOM     31  C   UNL A   1      38.109  29.197  30.189  1.00  0.00     0.014 A 
ATOM     32  C   UNL A   1      39.235  29.403  27.642  1.00  0.00     0.010 A 
ATOM     33  C   UNL A   1      39.432  28.832  29.986  1.00  0.00     0.010 A 
ATOM     34  C   UNL A   1      40.011  28.932  28.712  1.00  0.00    -0.014 A 
BRANCH  34  35
ATOM     35  C   UNL A   1      41.431  28.527  28.550  1.00  0.00     0.031 A 
ATOM     36  C   UNL A   1      42.512  29.569  28.639  1.00  0.00     0.074 A 
ATOM     37  C   UNL A   1      41.739  27.259  28.213  1.00  0.00     0.049 A 
ATOM     38  N   UNL A   1      43.781  29.472  28.341  1.00  0.00    -0.248 NA
ATOM     39  C   UNL A   1      42.098  30.909  29.087  1.00  0.00     0.031 C 
ATOM     40  C   UNL A   1      40.783  26.157  28.077  1.00  0.00     0.029 A 
ATOM     41  N   UNL A   1      42.948  26.688  27.902  1.00  0.00    -0.354 N 
ATOM     42  C   UNL A   1      44.309  30.743  28.530  1.00  0.00     0.074 A 
ATOM     43  C   UNL A   1      43.214  31.603  28.922  1.00  0.00     0.031 C 
ATOM     44  C   UNL A   1      41.447  25.040  27.735  1.00  0.00     0.029 A 
ATOM     45  C   UNL A   1      42.861  25.357  27.571  1.00  0.00     0.049 A 
ATOM     46  H   UNL A   1      43.797  27.187  27.915  1.00  0.00     0.167 HD
ATOM     47  C   UNL A   1      45.593  31.157  28.403  1.00  0.00     0.031 A 
ATOM     48  C   UNL A   1      43.812  24.492  27.166  1.00  0.00     0.031 A 
ATOM     49  C   UNL A   1      46.681  30.296  28.028  1.00  0.00     0.049 A 
ATOM     50  C   UNL A   1      45.227  24.975  27.013  1.00  0.00     0.074 A 
ATOM     51  C   UNL A   1      48.024  30.607  27.907  1.00  0.00     0.029 A 
ATOM     52  N   UNL A   1      46.551  28.950  27.720  1.00  0.00    -0.354 N 
ATOM     53  N   UNL A   1      45.713  26.176  27.216  1.00  0.00    -0.248 NA
ATOM     54  C   UNL A   1      46.222  23.985  26.579  1.00  0.00     0.031 C 
ATOM     55  C   UNL A   1      48.700  29.456  27.490  1.00  0.00     0.029 A 
ATOM     56  C   UNL A   1      47.787  28.417  27.400  1.00  0.00     0.049 A 
ATOM     57  H   UNL A   1      45.704  28.448  27.728  1.00  0.00     0.167 HD
ATOM     58  C   UNL A   1      47.078  26.078  26.968  1.00  0.00     0.074 A 
ATOM     59  C   UNL A   1      47.339  24.701  26.601  1.00  0.00     0.031 C 
ATOM     60  C   UNL A   1      48.030  27.041  27.047  1.00  0.00     0.031 A 
BRANCH  47  61
ATOM     61  C   UNL A   1      45.871  32.614  28.662  1.00  0.00    -0.014 A 
ATOM     62  C   UNL A   1      45.808  33.561  27.623  1.00  0.00     0.010 A 
ATOM     63  C   UNL A   1      46.209  33.042  29.959  1.00  0.00     0.010 A 
ATOM     64  C   UNL A   1      46.143  34.897  27.862  1.00  0.00     0.020 A 
ATOM     65  C   UNL A   1      46.515  34.383  30.208  1.00  0.00     0.020 A 
ATOM     66  C   UNL A   1      46.506  35.296  29.152  1.00  0.00     0.054 A 
BRANCH  66  67
ATOM     67  S   UNL A   1      46.956  37.031  29.431  1.00  0.00     0.124 S 
ATOM     68  O   UNL A   1      45.821  37.733  28.836  1.00  0.00    -0.237 OA
ATOM     69  O   UNL A   1      47.051  37.110  30.886  1.00  0.00    -0.237 OA
ATOM     70  O   UNL A   1      48.223  37.178  28.719  1.00  0.00    -0.744 OA
ENDBRANCH  66  67
ENDBRANCH  47  61
BRANCH  48  71
ATOM     71  C   UNL A   1      43.455  23.072  26.903  1.00  0.00    -0.014 A 
ATOM     72  C   UNL A   1      43.767  22.486  25.664  1.00  0.00     0.010 A 
ATOM     73  C   UNL A   1      42.834  22.289  27.893  1.00  0.00     0.010 A 
ATOM     74  C   UNL A   1      43.459  21.146  25.416  1.00  0.00     0.020 A 
ATOM     75  C   UNL A   1      42.546  20.941  27.657  1.00  0.00     0.020 A 
ATOM     76  C   UNL A   1      42.855  20.380  26.416  1.00  0.00     0.054 A 
BRANCH  76  77
ATOM     77  S   UNL A   1      42.530  18.624  26.094  1.00  0.00     0.124 S 
ATOM     78  O   UNL A   1      42.858  18.014  27.380  1.00  0.00    -0.237 OA
ATOM     79  O   UNL A   1      41.114  18.625  25.736  1.00  0.00    -0.237 OA
ATOM     80  O   UNL A   1      43.442  18.304  24.998  1.00  0.00    -0.744 OA
ENDBRANCH  76  77
ENDBRANCH  48  71
BRANCH  60  81
ATOM     81  C   UNL A   1      49.454  26.634  26.784  1.00  0.00    -0.014 A 
ATOM     82  C   UNL A   1      50.321  26.281  27.831  1.00  0.00     0.010 A 
ATOM     83  C   UNL A   1      49.902  26.529  25.454  1.00  0.00     0.010 A 
ATOM     84  C   UNL A   1      51.620  25.848  27.554  1.00  0.00     0.020 A 
ATOM     85  C   UNL A   1      51.191  26.072  25.172  1.00  0.00     0.020 A 
ATOM     86  C   UNL A   1      52.046  25.743  26.225  1.00  0.00     0.054 A 
BRANCH  86  87
ATOM     87  S   UNL A   1      53.713  25.112  25.887  1.00  0.00     0.124 S 
ATOM     88  O   UNL A   1      54.196  26.054  24.882  1.00  0.00    -0.237 OA
ATOM     89  O   UNL A   1      54.361  25.199  27.194  1.00  0.00    -0.237 OA
ATOM     90  O   UNL A   1      53.478  23.753  25.405  1.00  0.00    -0.744 OA
ENDBRANCH  86  87
ENDBRANCH  60  81
ENDBRANCH  34  35
ENDBRANCH  26  29
ENDBRANCH  24  25
ENDBRANCH   1  24
TORSDOF 15
ENDMDL
MODEL 3
REMARK VINA RESULT:     -11.2      3.666      8.324
REMARK SMILES O=C(NCCCNC(=O)c1ccc(-c2c3nc(c(-c4ccc(S(=O)(=O)[O-])cc4)c4ccc([nH]4)c(-c4ccc(S(=O)(=O)[O-])cc4)c4nc(c(-c5ccc(S(=O)(=O)[O-])cc5)c5ccc2[nH]5)C=C4)C=C3)cc1)c1ccc(S[C@H]2CCO[C@@]3(CCSC3)C2)cc1
REMARK SMILES IDX 5 1 4 2 3 3 1 4 2 5 70 7 71 8 86 9 72 10 85 11 73 12 74 13
REMARK SMILES IDX 75 14 76 15 84 16 77 17 79 18 78 19 80 20 83 21 81 22 82 23
REMARK SMILES IDX 6 24 7 25 8 26 9 28 10 29 11 30 69 31 12 32 68 33 13 34
REMARK SMILES IDX 14 35 15 36 62 37 16 38 67 39 61 40 63 41 17 42 66 43 60 44
REMARK SMILES IDX 59 45 18 47 48 48 29 49 47 50 30 51 33 52 46 53 64 54 31 55
REMARK SMILES IDX 32 56 45 58 65 59 34 60 19 61 20 62 28 63 21 64 27 65 22 66
REMARK SMILES IDX 23 67 24 68 25 69 26 70 49 71 50 72 58 73 51 74 57 75 52 76
REMARK SMILES IDX 53 77 54 78 55 79 56 80 35 81 36 82 44 83 37 84 43 85 38 86
REMARK SMILES IDX 39 87 40 88 41 89 42 90
REMARK H PARENT 3 6 7 27 63 46 33 57
REMARK Flexibility Score: inf
ROOT
ATOM      1  C   UNL A   1      37.783  21.605  25.004  1.00  0.00     0.042 C 
ENDROOT
BRANCH   1   2
ATOM      2  C   UNL A   1      36.387  21.446  25.577  1.00  0.00     0.118 C 
BRANCH   2   3
ATOM      3  N   UNL A   1      35.704  20.258  25.075  1.00  0.00    -0.352 N 
ATOM      4  O   UNL A   1      33.951  18.927  24.571  1.00  0.00    -0.269 OA
ATOM      5  C   UNL A   1      34.367  20.051  24.836  1.00  0.00     0.251 C 
ATOM      6  H   UNL A   1      36.289  19.491  24.880  1.00  0.00     0.163 HD
BRANCH   5   7
ATOM      7  C   UNL A   1      33.428  21.189  24.889  1.00  0.00     0.039 A 
ATOM      8  C   UNL A   1      33.115  21.894  23.730  1.00  0.00     0.015 A 
ATOM      9  C   UNL A   1      32.841  21.553  26.102  1.00  0.00     0.015 A 
ATOM     10  C   UNL A   1      32.322  23.034  23.800  1.00  0.00     0.016 A 
ATOM     11  C   UNL A   1      31.981  22.658  26.150  1.00  0.00     0.016 A 
ATOM     12  C   UNL A   1      31.714  23.416  25.000  1.00  0.00     0.008 A 
BRANCH  12  13
ATOM     13  S   UNL A   1      30.581  24.798  25.158  1.00  0.00    -0.123 SA
BRANCH  13  14
ATOM     14  C   UNL A   1      31.548  26.238  24.550  1.00  0.00     0.057 C 
ATOM     15  C   UNL A   1      31.061  26.716  23.179  1.00  0.00     0.043 C 
ATOM     16  C   UNL A   1      31.433  27.408  25.539  1.00  0.00     0.051 C 
ATOM     17  C   UNL A   1      31.942  27.873  22.747  1.00  0.00     0.162 C 
ATOM     18  C   UNL A   1      32.173  28.666  25.015  1.00  0.00     0.079 C 
ATOM     19  O   UNL A   1      31.793  28.954  23.658  1.00  0.00    -0.374 OA
ATOM     20  C   UNL A   1      31.775  29.922  25.808  1.00  0.00     0.047 C 
ATOM     21  C   UNL A   1      33.705  28.572  25.158  1.00  0.00     0.105 C 
ATOM     22  C   UNL A   1      32.476  29.891  27.148  1.00  0.00     0.072 C 
ATOM     23  S   UNL A   1      34.138  29.286  26.774  1.00  0.00    -0.159 SA
ENDBRANCH  13  14
ENDBRANCH  12  13
ENDBRANCH   5   7
ENDBRANCH   2   3
ENDBRANCH   1   2
BRANCH   1  24
ATOM     24  C   UNL A   1      38.877  21.600  26.057  1.00  0.00     0.118 C 
BRANCH  24  25
ATOM     25  N   UNL A   1      39.669  20.375  26.047  1.00  0.00    -0.352 N 
ATOM     26  C   UNL A   1      41.033  20.212  26.130  1.00  0.00     0.251 C 
ATOM     27  H   UNL A   1      39.151  19.542  25.967  1.00  0.00     0.163 HD
ATOM     28  O   UNL A   1      41.532  19.109  25.931  1.00  0.00    -0.269 OA
BRANCH  26  29
ATOM     29  C   UNL A   1      41.888  21.379  26.429  1.00  0.00     0.039 A 
ATOM     30  C   UNL A   1      42.277  22.230  25.392  1.00  0.00     0.014 A 
ATOM     31  C   UNL A   1      42.268  21.653  27.745  1.00  0.00     0.014 A 
ATOM     32  C   UNL A   1      42.964  23.410  25.689  1.00  0.00     0.010 A 
ATOM     33  C   UNL A   1      42.863  22.870  28.046  1.00  0.00     0.010 A 
ATOM     34  C   UNL A   1      43.216  23.763  27.023  1.00  0.00    -0.014 A 
BRANCH  34  35
ATOM     35  C   UNL A   1      43.851  25.051  27.402  1.00  0.00     0.031 A 
ATOM     36  C   UNL A   1      42.997  26.167  27.937  1.00  0.00     0.074 A 
ATOM     37  C   UNL A   1      45.161  25.258  27.160  1.00  0.00     0.049 A 
ATOM     38  N   UNL A   1      43.307  27.421  28.144  1.00  0.00    -0.248 NA
ATOM     39  C   UNL A   1      41.595  25.834  28.242  1.00  0.00     0.031 C 
ATOM     40  C   UNL A   1      46.096  24.264  26.627  1.00  0.00     0.029 A 
ATOM     41  N   UNL A   1      45.929  26.385  27.315  1.00  0.00    -0.354 N 
ATOM     42  C   UNL A   1      42.133  28.032  28.569  1.00  0.00     0.074 A 
ATOM     43  C   UNL A   1      41.097  27.023  28.545  1.00  0.00     0.031 C 
ATOM     44  C   UNL A   1      47.315  24.820  26.524  1.00  0.00     0.029 A 
ATOM     45  C   UNL A   1      47.236  26.220  26.926  1.00  0.00     0.049 A 
ATOM     46  H   UNL A   1      45.574  27.232  27.670  1.00  0.00     0.167 HD
ATOM     47  C   UNL A   1      41.937  29.315  28.959  1.00  0.00     0.031 A 
ATOM     48  C   UNL A   1      48.255  27.101  26.883  1.00  0.00     0.031 A 
ATOM     49  C   UNL A   1      42.973  30.310  28.997  1.00  0.00     0.049 A 
ATOM     50  C   UNL A   1      48.013  28.524  27.302  1.00  0.00     0.074 A 
ATOM     51  C   UNL A   1      42.888  31.627  29.411  1.00  0.00     0.029 A 
ATOM     52  N   UNL A   1      44.288  30.094  28.611  1.00  0.00    -0.354 N 
ATOM     53  N   UNL A   1      46.901  29.081  27.720  1.00  0.00    -0.248 NA
ATOM     54  C   UNL A   1      49.162  29.437  27.245  1.00  0.00     0.031 C 
ATOM     55  C   UNL A   1      44.144  32.218  29.241  1.00  0.00     0.029 A 
ATOM     56  C   UNL A   1      45.023  31.256  28.769  1.00  0.00     0.049 A 
ATOM     57  H   UNL A   1      44.645  29.240  28.275  1.00  0.00     0.167 HD
ATOM     58  C   UNL A   1      47.226  30.401  28.011  1.00  0.00     0.074 A 
ATOM     59  C   UNL A   1      48.637  30.559  27.720  1.00  0.00     0.031 C 
ATOM     60  C   UNL A   1      46.430  31.391  28.484  1.00  0.00     0.031 A 
BRANCH  47  61
ATOM     61  C   UNL A   1      40.538  29.701  29.360  1.00  0.00    -0.014 A 
ATOM     62  C   UNL A   1      39.564  30.007  28.391  1.00  0.00     0.010 A 
ATOM     63  C   UNL A   1      40.194  29.770  30.722  1.00  0.00     0.010 A 
ATOM     64  C   UNL A   1      38.292  30.438  28.778  1.00  0.00     0.020 A 
ATOM     65  C   UNL A   1      38.913  30.172  31.112  1.00  0.00     0.020 A 
ATOM     66  C   UNL A   1      37.980  30.530  30.138  1.00  0.00     0.054 A 
BRANCH  66  67
ATOM     67  S   UNL A   1      36.330  31.111  30.614  1.00  0.00     0.124 S 
ATOM     68  O   UNL A   1      35.906  30.073  31.551  1.00  0.00    -0.237 OA
ATOM     69  O   UNL A   1      36.605  32.417  31.206  1.00  0.00    -0.237 OA
ATOM     70  O   UNL A   1      35.597  31.147  29.350  1.00  0.00    -0.744 OA
ENDBRANCH  66  67
ENDBRANCH  47  61
BRANCH  48  71
ATOM     71  C   UNL A   1      49.605  26.649  26.450  1.00  0.00    -0.014 A 
ATOM     72  C   UNL A   1      50.467  26.029  27.371  1.00  0.00     0.010 A 
ATOM     73  C   UNL A   1      50.024  26.805  25.116  1.00  0.00     0.010 A 
ATOM     74  C   UNL A   1      51.727  25.578  26.969  1.00  0.00     0.020 A 
ATOM     75  C   UNL A   1      51.275  26.333  24.705  1.00  0.00     0.020 A 
ATOM     76  C   UNL A   1      52.122  25.728  25.637  1.00  0.00     0.054 A 
BRANCH  76  77
ATOM     77  S   UNL A   1      53.733  25.071  25.124  1.00  0.00     0.124 S 
ATOM     78  O   UNL A   1      54.628  25.648  26.123  1.00  0.00    -0.237 OA
ATOM     79  O   UNL A   1      53.529  23.627  25.215  1.00  0.00    -0.237 OA
ATOM     80  O   UNL A   1      53.894  25.584  23.766  1.00  0.00    -0.744 OA
ENDBRANCH  76  77
ENDBRANCH  48  71
BRANCH  60  81
ATOM     81  C   UNL A   1      47.070  32.722  28.771  1.00  0.00    -0.014 A 
ATOM     82  C   UNL A   1      47.010  33.777  27.846  1.00  0.00     0.010 A 
ATOM     83  C   UNL A   1      47.673  32.938  30.024  1.00  0.00     0.010 A 
ATOM     84  C   UNL A   1      47.559  35.023  28.162  1.00  0.00     0.020 A 
ATOM     85  C   UNL A   1      48.201  34.188  30.353  1.00  0.00     0.020 A 
ATOM     86  C   UNL A   1      48.149  35.220  29.416  1.00  0.00     0.054 A 
BRANCH  86  87
ATOM     87  S   UNL A   1      48.793  36.865  29.830  1.00  0.00     0.124 S 
ATOM     88  O   UNL A   1      49.345  37.305  28.552  1.00  0.00    -0.237 OA
ATOM     89  O   UNL A   1      47.598  37.576  30.277  1.00  0.00    -0.237 OA
ATOM     90  O   UNL A   1      49.779  36.598  30.875  1.00  0.00    -0.744 OA
ENDBRANCH  86  87
ENDBRANCH  60  81
ENDBRANCH  34  35
ENDBRANCH  26  29
ENDBRANCH  24  25
ENDBRANCH   1  24
TORSDOF 15
ENDMDL
