MODEL 1
REMARK VINA RESULT:     -11.8      0.000      0.000
REMARK SMILES O=C(NCCCNC(=O)c1nn(-c2ccc(Br)cc2F)cc1CCCO)c1ccc(-c2c3nc(c(-c4ccc(S(=O)(=O)[O-])cc4)c4ccc([nH]4)c(-c4ccc(S(=O)(=O)[O-])cc4)c4nc(c(-c5ccc(S(=O)(=O)[O-])cc5)c5ccc2[nH]5)C=C4)C=C3)cc1
REMARK SMILES IDX 5 1 4 2 3 3 1 4 2 5 27 7 28 8 86 9 29 10 85 11 30 12 31 13
REMARK SMILES IDX 32 14 79 15 33 16 84 17 78 18 80 19 34 20 83 21 77 22 76 23
REMARK SMILES IDX 35 25 65 26 46 27 64 28 47 29 50 30 63 31 81 32 48 33 49 34
REMARK SMILES IDX 62 36 82 37 51 38 36 39 37 40 45 41 38 42 44 43 39 44 40 45
REMARK SMILES IDX 41 46 42 47 43 48 66 49 67 50 75 51 68 52 74 53 69 54 70 55
REMARK SMILES IDX 71 56 72 57 73 58 52 59 53 60 61 61 54 62 60 63 55 64 56 65
REMARK SMILES IDX 57 66 58 67 59 68 6 69 7 70 8 71 9 73 10 74 11 75 22 76
REMARK SMILES IDX 12 77 21 78 23 79 24 80 25 81 26 82 13 84 14 85 19 86 15 87
REMARK SMILES IDX 18 88 20 89 16 90 17 91
REMARK H PARENT 3 6 80 24 50 35 7 72 26 83
REMARK Flexibility Score: inf
ROOT
ATOM      1  C   UNL A   1      36.128  23.300  23.645  1.00  0.00     0.042 C 
ENDROOT
BRANCH   1   2
ATOM      2  C   UNL A   1      36.799  23.350  25.020  1.00  0.00     0.118 C 
BRANCH   2   3
ATOM      3  N   UNL A   1      37.790  22.326  25.298  1.00  0.00    -0.352 N 
ATOM      4  O   UNL A   1      39.461  21.165  26.176  1.00  0.00    -0.269 OA
ATOM      5  C   UNL A   1      38.914  22.267  26.074  1.00  0.00     0.251 C 
ATOM      6  H   UNL A   1      37.611  21.484  24.819  1.00  0.00     0.163 HD
BRANCH   5   7
ATOM      7  C   UNL A   1      39.541  23.445  26.721  1.00  0.00     0.039 A 
ATOM      8  C   UNL A   1      40.749  23.423  27.421  1.00  0.00     0.014 A 
ATOM      9  C   UNL A   1      38.837  24.655  26.619  1.00  0.00     0.014 A 
ATOM     10  C   UNL A   1      41.172  24.542  28.132  1.00  0.00     0.010 A 
ATOM     11  C   UNL A   1      39.281  25.789  27.286  1.00  0.00     0.010 A 
ATOM     12  C   UNL A   1      40.418  25.712  28.093  1.00  0.00    -0.014 A 
BRANCH  12  13
ATOM     13  C   UNL A   1      40.879  26.866  28.868  1.00  0.00     0.031 A 
ATOM     14  C   UNL A   1      42.060  27.616  28.338  1.00  0.00     0.074 A 
ATOM     15  C   UNL A   1      40.143  27.355  29.887  1.00  0.00     0.049 A 
ATOM     16  N   UNL A   1      43.108  28.046  28.967  1.00  0.00    -0.248 NA
ATOM     17  C   UNL A   1      42.078  27.894  26.891  1.00  0.00     0.031 C 
ATOM     18  C   UNL A   1      38.807  26.911  30.303  1.00  0.00     0.029 A 
ATOM     19  N   UNL A   1      40.357  28.464  30.650  1.00  0.00    -0.354 N 
ATOM     20  C   UNL A   1      43.839  28.790  28.039  1.00  0.00     0.074 A 
ATOM     21  C   UNL A   1      43.211  28.582  26.759  1.00  0.00     0.031 C 
ATOM     22  C   UNL A   1      38.227  27.890  31.027  1.00  0.00     0.029 A 
ATOM     23  C   UNL A   1      39.192  28.958  31.226  1.00  0.00     0.049 A 
ATOM     24  H   UNL A   1      41.243  28.873  30.781  1.00  0.00     0.167 HD
ATOM     25  C   UNL A   1      44.818  29.674  28.379  1.00  0.00     0.031 A 
ATOM     26  C   UNL A   1      38.992  30.205  31.717  1.00  0.00     0.031 A 
ATOM     27  C   UNL A   1      45.320  29.480  29.707  1.00  0.00     0.049 A 
ATOM     28  C   UNL A   1      40.316  30.816  31.973  1.00  0.00     0.074 A 
ATOM     29  C   UNL A   1      45.981  28.463  30.363  1.00  0.00     0.029 A 
ATOM     30  N   UNL A   1      44.903  30.348  30.686  1.00  0.00    -0.354 N 
ATOM     31  N   UNL A   1      41.154  30.384  32.872  1.00  0.00    -0.248 NA
ATOM     32  C   UNL A   1      40.886  31.698  30.967  1.00  0.00     0.031 C 
ATOM     33  C   UNL A   1      45.519  28.527  31.710  1.00  0.00     0.029 A 
ATOM     34  C   UNL A   1      44.613  29.588  31.789  1.00  0.00     0.049 A 
ATOM     35  H   UNL A   1      44.829  31.327  30.611  1.00  0.00     0.167 HD
ATOM     36  C   UNL A   1      42.411  30.605  32.329  1.00  0.00     0.074 A 
ATOM     37  C   UNL A   1      42.185  31.523  31.219  1.00  0.00     0.031 C 
ATOM     38  C   UNL A   1      43.474  29.809  32.655  1.00  0.00     0.031 A 
BRANCH  25  39
ATOM     39  C   UNL A   1      45.097  30.932  27.593  1.00  0.00    -0.014 A 
ATOM     40  C   UNL A   1      46.390  31.171  27.085  1.00  0.00     0.010 A 
ATOM     41  C   UNL A   1      44.190  32.014  27.579  1.00  0.00     0.010 A 
ATOM     42  C   UNL A   1      46.770  32.445  26.637  1.00  0.00     0.020 A 
ATOM     43  C   UNL A   1      44.546  33.274  27.094  1.00  0.00     0.020 A 
ATOM     44  C   UNL A   1      45.847  33.492  26.662  1.00  0.00     0.054 A 
BRANCH  44  45
ATOM     45  S   UNL A   1      46.382  35.164  26.215  1.00  0.00     0.124 S 
ATOM     46  O   UNL A   1      46.754  34.994  24.814  1.00  0.00    -0.237 OA
ATOM     47  O   UNL A   1      45.180  35.955  26.460  1.00  0.00    -0.237 OA
ATOM     48  O   UNL A   1      47.490  35.425  27.131  1.00  0.00    -0.744 OA
ENDBRANCH  44  45
ENDBRANCH  25  39
BRANCH  26  49
ATOM     49  C   UNL A   1      37.736  30.987  31.611  1.00  0.00    -0.014 A 
ATOM     50  C   UNL A   1      36.848  31.102  32.694  1.00  0.00     0.010 A 
ATOM     51  C   UNL A   1      37.524  31.828  30.496  1.00  0.00     0.010 A 
ATOM     52  C   UNL A   1      35.804  32.044  32.669  1.00  0.00     0.020 A 
ATOM     53  C   UNL A   1      36.480  32.756  30.458  1.00  0.00     0.020 A 
ATOM     54  C   UNL A   1      35.634  32.872  31.555  1.00  0.00     0.054 A 
BRANCH  54  55
ATOM     55  S   UNL A   1      34.373  34.178  31.588  1.00  0.00     0.124 S 
ATOM     56  O   UNL A   1      33.892  34.179  30.209  1.00  0.00    -0.237 OA
ATOM     57  O   UNL A   1      33.431  33.683  32.587  1.00  0.00    -0.237 OA
ATOM     58  O   UNL A   1      35.122  35.370  31.983  1.00  0.00    -0.744 OA
ENDBRANCH  54  55
ENDBRANCH  26  49
BRANCH  38  59
ATOM     59  C   UNL A   1      43.320  28.850  33.815  1.00  0.00    -0.014 A 
ATOM     60  C   UNL A   1      43.607  29.220  35.143  1.00  0.00     0.010 A 
ATOM     61  C   UNL A   1      42.699  27.609  33.586  1.00  0.00     0.010 A 
ATOM     62  C   UNL A   1      43.297  28.369  36.212  1.00  0.00     0.020 A 
ATOM     63  C   UNL A   1      42.372  26.762  34.650  1.00  0.00     0.020 A 
ATOM     64  C   UNL A   1      42.675  27.145  35.958  1.00  0.00     0.054 A 
BRANCH  64  65
ATOM     65  S   UNL A   1      42.196  26.093  37.358  1.00  0.00     0.124 S 
ATOM     66  O   UNL A   1      40.823  26.516  37.618  1.00  0.00    -0.237 OA
ATOM     67  O   UNL A   1      42.346  24.743  36.818  1.00  0.00    -0.237 OA
ATOM     68  O   UNL A   1      43.159  26.442  38.401  1.00  0.00    -0.744 OA
ENDBRANCH  64  65
ENDBRANCH  38  59
ENDBRANCH  12  13
ENDBRANCH   5   7
ENDBRANCH   2   3
ENDBRANCH   1   2
BRANCH   1  69
ATOM     69  C   UNL A   1      34.649  23.689  23.614  1.00  0.00     0.118 C 
BRANCH  69  70
ATOM     70  N   UNL A   1      33.829  22.684  22.961  1.00  0.00    -0.351 N 
ATOM     71  C   UNL A   1      32.487  22.443  23.070  1.00  0.00     0.272 C 
ATOM     72  H   UNL A   1      34.312  22.085  22.346  1.00  0.00     0.163 HD
ATOM     73  O   UNL A   1      32.056  21.382  22.599  1.00  0.00    -0.267 OA
BRANCH  71  74
ATOM     74  C   UNL A   1      31.639  23.408  23.771  1.00  0.00     0.153 A 
ATOM     75  N   UNL A   1      31.013  24.390  23.093  1.00  0.00    -0.162 NA
ATOM     76  C   UNL A   1      31.325  23.465  25.160  1.00  0.00     0.004 A 
ATOM     77  N   UNL A   1      30.527  25.217  24.046  1.00  0.00    -0.237 N 
ATOM     78  C   UNL A   1      30.672  24.675  25.300  1.00  0.00     0.119 A 
BRANCH  76  79
ATOM     79  C   UNL A   1      31.714  22.532  26.261  1.00  0.00     0.042 C 
BRANCH  79  80
ATOM     80  C   UNL A   1      33.142  22.707  26.793  1.00  0.00     0.033 C 
BRANCH  80  81
ATOM     81  C   UNL A   1      34.068  21.507  26.632  1.00  0.00     0.156 C 
BRANCH  81  82
ATOM     82  O   UNL A   1      33.427  20.304  27.028  1.00  0.00    -0.396 OA
ATOM     83  H   UNL A   1      34.090  19.681  27.367  1.00  0.00     0.210 HD
ENDBRANCH  81  82
ENDBRANCH  80  81
ENDBRANCH  79  80
ENDBRANCH  76  79
BRANCH  77  84
ATOM     84  C   UNL A   1      29.957  26.458  23.691  1.00  0.00     0.100 A 
ATOM     85  C   UNL A   1      28.566  26.623  23.759  1.00  0.00     0.032 A 
ATOM     86  C   UNL A   1      30.756  27.509  23.241  1.00  0.00     0.149 A 
ATOM     87  C   UNL A   1      27.995  27.849  23.408  1.00  0.00     0.018 A 
ATOM     88  C   UNL A   1      30.185  28.715  22.839  1.00  0.00     0.057 A 
ATOM     89  F   UNL A   1      32.083  27.364  23.114  1.00  0.00    -0.205 F 
ATOM     90  C   UNL A   1      28.805  28.883  22.938  1.00  0.00     0.021 A 
ATOM     91  Br  UNL A   1      28.020  30.528  22.434  1.00  0.00    -0.051 Br
ENDBRANCH  77  84
ENDBRANCH  71  74
ENDBRANCH  69  70
ENDBRANCH   1  69
TORSDOF 18
ENDMDL
MODEL 2
REMARK VINA RESULT:     -11.7      1.718      2.647
REMARK SMILES O=C(NCCCNC(=O)c1nn(-c2ccc(Br)cc2F)cc1CCCO)c1ccc(-c2c3nc(c(-c4ccc(S(=O)(=O)[O-])cc4)c4ccc([nH]4)c(-c4ccc(S(=O)(=O)[O-])cc4)c4nc(c(-c5ccc(S(=O)(=O)[O-])cc5)c5ccc2[nH]5)C=C4)C=C3)cc1
REMARK SMILES IDX 5 1 4 2 3 3 1 4 2 5 27 7 28 8 86 9 29 10 85 11 30 12 31 13
REMARK SMILES IDX 32 14 79 15 33 16 84 17 78 18 80 19 34 20 83 21 77 22 76 23
REMARK SMILES IDX 35 25 65 26 46 27 64 28 47 29 50 30 63 31 81 32 48 33 49 34
REMARK SMILES IDX 62 36 82 37 51 38 36 39 37 40 45 41 38 42 44 43 39 44 40 45
REMARK SMILES IDX 41 46 42 47 43 48 66 49 67 50 75 51 68 52 74 53 69 54 70 55
REMARK SMILES IDX 71 56 72 57 73 58 52 59 53 60 61 61 54 62 60 63 55 64 56 65
REMARK SMILES IDX 57 66 58 67 59 68 6 69 7 70 8 71 9 73 10 74 11 75 22 76
REMARK SMILES IDX 12 77 21 78 23 79 24 80 25 81 26 82 13 84 14 85 19 86 15 87
REMARK SMILES IDX 18 88 20 89 16 90 17 91
REMARK H PARENT 3 6 80 24 50 35 7 72 26 83
REMARK Flexibility Score: inf
ROOT
ATOM      1  C   UNL A   1      38.135  21.213  25.259  1.00  0.00     0.042 C 
ENDROOT
BRANCH   1   2
ATOM      2  C   UNL A   1      39.327  21.726  26.072  1.00  0.00     0.118 C 
BRANCH   2   3
ATOM      3  N   UNL A   1      40.639  21.568  25.471  1.00  0.00    -0.352 N 
ATOM      4  O   UNL A   1      42.807  21.698  25.033  1.00  0.00    -0.269 OA
ATOM      5  C   UNL A   1      41.848  22.187  25.636  1.00  0.00     0.251 C 
ATOM      6  H   UNL A   1      40.664  20.855  24.793  1.00  0.00     0.163 HD
BRANCH   5   7
ATOM      7  C   UNL A   1      42.046  23.431  26.418  1.00  0.00     0.039 A 
ATOM      8  C   UNL A   1      42.890  23.554  27.523  1.00  0.00     0.014 A 
ATOM      9  C   UNL A   1      41.304  24.548  26.002  1.00  0.00     0.014 A 
ATOM     10  C   UNL A   1      42.884  24.715  28.289  1.00  0.00     0.010 A 
ATOM     11  C   UNL A   1      41.332  25.727  26.736  1.00  0.00     0.010 A 
ATOM     12  C   UNL A   1      42.076  25.787  27.915  1.00  0.00    -0.014 A 
BRANCH  12  13
ATOM     13  C   UNL A   1      42.075  26.987  28.753  1.00  0.00     0.031 A 
ATOM     14  C   UNL A   1      43.236  27.920  28.610  1.00  0.00     0.074 A 
ATOM     15  C   UNL A   1      40.981  27.341  29.457  1.00  0.00     0.049 A 
ATOM     16  N   UNL A   1      43.941  28.499  29.531  1.00  0.00    -0.248 NA
ATOM     17  C   UNL A   1      43.687  28.218  27.240  1.00  0.00     0.031 C 
ATOM     18  C   UNL A   1      39.666  26.688  29.430  1.00  0.00     0.029 A 
ATOM     19  N   UNL A   1      40.760  28.459  30.205  1.00  0.00    -0.354 N 
ATOM     20  C   UNL A   1      44.815  29.361  28.865  1.00  0.00     0.074 A 
ATOM     21  C   UNL A   1      44.682  29.075  27.459  1.00  0.00     0.031 C 
ATOM     22  C   UNL A   1      38.739  27.555  29.887  1.00  0.00     0.029 A 
ATOM     23  C   UNL A   1      39.411  28.757  30.349  1.00  0.00     0.049 A 
ATOM     24  H   UNL A   1      41.481  28.999  30.602  1.00  0.00     0.167 HD
ATOM     25  C   UNL A   1      45.481  30.382  29.473  1.00  0.00     0.031 A 
ATOM     26  C   UNL A   1      38.873  29.950  30.700  1.00  0.00     0.031 A 
ATOM     27  C   UNL A   1      45.543  30.250  30.898  1.00  0.00     0.049 A 
ATOM     28  C   UNL A   1      39.929  30.756  31.352  1.00  0.00     0.074 A 
ATOM     29  C   UNL A   1      46.097  29.339  31.773  1.00  0.00     0.029 A 
ATOM     30  N   UNL A   1      44.700  31.028  31.653  1.00  0.00    -0.354 N 
ATOM     31  N   UNL A   1      40.481  30.448  32.491  1.00  0.00    -0.248 NA
ATOM     32  C   UNL A   1      40.658  31.730  30.554  1.00  0.00     0.031 C 
ATOM     33  C   UNL A   1      45.214  29.311  32.891  1.00  0.00     0.029 A 
ATOM     34  C   UNL A   1      44.182  30.216  32.629  1.00  0.00     0.049 A 
ATOM     35  H   UNL A   1      44.507  31.984  31.521  1.00  0.00     0.167 HD
ATOM     36  C   UNL A   1      41.798  30.870  32.381  1.00  0.00     0.074 A 
ATOM     37  C   UNL A   1      41.812  31.757  31.224  1.00  0.00     0.031 C 
ATOM     38  C   UNL A   1      42.802  30.245  33.067  1.00  0.00     0.031 A 
BRANCH  25  39
ATOM     39  C   UNL A   1      45.809  31.679  28.774  1.00  0.00    -0.014 A 
ATOM     40  C   UNL A   1      44.813  32.663  28.616  1.00  0.00     0.010 A 
ATOM     41  C   UNL A   1      46.996  31.839  28.026  1.00  0.00     0.010 A 
ATOM     42  C   UNL A   1      44.977  33.724  27.713  1.00  0.00     0.020 A 
ATOM     43  C   UNL A   1      47.187  32.916  27.158  1.00  0.00     0.020 A 
ATOM     44  C   UNL A   1      46.159  33.831  26.977  1.00  0.00     0.054 A 
BRANCH  44  45
ATOM     45  S   UNL A   1      46.309  35.120  25.712  1.00  0.00     0.124 S 
ATOM     46  O   UNL A   1      45.697  34.475  24.555  1.00  0.00    -0.237 OA
ATOM     47  O   UNL A   1      45.552  36.222  26.298  1.00  0.00    -0.237 OA
ATOM     48  O   UNL A   1      47.750  35.341  25.618  1.00  0.00    -0.744 OA
ENDBRANCH  44  45
ENDBRANCH  25  39
BRANCH  26  49
ATOM     49  C   UNL A   1      37.618  30.528  30.161  1.00  0.00    -0.014 A 
ATOM     50  C   UNL A   1      36.674  31.147  30.997  1.00  0.00     0.010 A 
ATOM     51  C   UNL A   1      37.457  30.679  28.766  1.00  0.00     0.010 A 
ATOM     52  C   UNL A   1      35.625  31.911  30.455  1.00  0.00     0.020 A 
ATOM     53  C   UNL A   1      36.409  31.424  28.218  1.00  0.00     0.020 A 
ATOM     54  C   UNL A   1      35.506  32.052  29.068  1.00  0.00     0.054 A 
BRANCH  54  55
ATOM     55  S   UNL A   1      34.236  33.152  28.382  1.00  0.00     0.124 S 
ATOM     56  O   UNL A   1      33.665  33.753  29.584  1.00  0.00    -0.237 OA
ATOM     57  O   UNL A   1      35.016  34.049  27.535  1.00  0.00    -0.237 OA
ATOM     58  O   UNL A   1      33.345  32.243  27.661  1.00  0.00    -0.744 OA
ENDBRANCH  54  55
ENDBRANCH  26  49
BRANCH  38  59
ATOM     59  C   UNL A   1      42.423  29.257  34.148  1.00  0.00    -0.014 A 
ATOM     60  C   UNL A   1      41.779  28.037  33.862  1.00  0.00     0.010 A 
ATOM     61  C   UNL A   1      42.891  29.476  35.456  1.00  0.00     0.010 A 
ATOM     62  C   UNL A   1      41.592  27.070  34.858  1.00  0.00     0.020 A 
ATOM     63  C   UNL A   1      42.722  28.508  36.451  1.00  0.00     0.020 A 
ATOM     64  C   UNL A   1      42.071  27.310  36.148  1.00  0.00     0.054 A 
BRANCH  64  65
ATOM     65  S   UNL A   1      41.904  26.011  37.405  1.00  0.00     0.124 S 
ATOM     66  O   UNL A   1      42.223  24.799  36.656  1.00  0.00    -0.237 OA
ATOM     67  O   UNL A   1      42.887  26.404  38.413  1.00  0.00    -0.237 OA
ATOM     68  O   UNL A   1      40.512  26.122  37.838  1.00  0.00    -0.744 OA
ENDBRANCH  64  65
ENDBRANCH  38  59
ENDBRANCH  12  13
ENDBRANCH   5   7
ENDBRANCH   2   3
ENDBRANCH   1   2
BRANCH   1  69
ATOM     69  C   UNL A   1      36.874  22.077  25.312  1.00  0.00     0.118 C 
BRANCH  69  70
ATOM     70  N   UNL A   1      36.025  21.744  26.442  1.00  0.00    -0.351 N 
ATOM     71  C   UNL A   1      34.677  21.907  26.601  1.00  0.00     0.272 C 
ATOM     72  H   UNL A   1      36.491  21.339  27.209  1.00  0.00     0.163 HD
ATOM     73  O   UNL A   1      34.215  21.768  27.742  1.00  0.00    -0.267 OA
BRANCH  71  74
ATOM     74  C   UNL A   1      33.858  22.283  25.448  1.00  0.00     0.153 A 
ATOM     75  N   UNL A   1      33.448  23.556  25.285  1.00  0.00    -0.162 NA
ATOM     76  C   UNL A   1      33.411  21.460  24.374  1.00  0.00     0.004 A 
ATOM     77  N   UNL A   1      32.540  23.505  24.283  1.00  0.00    -0.237 N 
ATOM     78  C   UNL A   1      32.516  22.264  23.694  1.00  0.00     0.119 A 
BRANCH  76  79
ATOM     79  C   UNL A   1      33.703  20.021  24.094  1.00  0.00     0.042 C 
BRANCH  79  80
ATOM     80  C   UNL A   1      32.470  19.119  23.952  1.00  0.00     0.033 C 
BRANCH  80  81
ATOM     81  C   UNL A   1      32.688  17.795  23.229  1.00  0.00     0.156 C 
BRANCH  81  82
ATOM     82  O   UNL A   1      31.966  17.749  22.007  1.00  0.00    -0.396 OA
ATOM     83  H   UNL A   1      32.504  17.308  21.331  1.00  0.00     0.210 HD
ENDBRANCH  81  82
ENDBRANCH  80  81
ENDBRANCH  79  80
ENDBRANCH  76  79
BRANCH  77  84
ATOM     84  C   UNL A   1      31.770  24.642  23.959  1.00  0.00     0.100 A 
ATOM     85  C   UNL A   1      32.164  25.462  22.893  1.00  0.00     0.032 A 
ATOM     86  C   UNL A   1      30.642  24.978  24.709  1.00  0.00     0.149 A 
ATOM     87  C   UNL A   1      31.406  26.589  22.567  1.00  0.00     0.018 A 
ATOM     88  C   UNL A   1      29.915  26.131  24.421  1.00  0.00     0.057 A 
ATOM     89  F   UNL A   1      30.271  24.243  25.767  1.00  0.00    -0.205 F 
ATOM     90  C   UNL A   1      30.294  26.925  23.340  1.00  0.00     0.021 A 
ATOM     91  Br  UNL A   1      29.293  28.471  22.912  1.00  0.00    -0.051 Br
ENDBRANCH  77  84
ENDBRANCH  71  74
ENDBRANCH  69  70
ENDBRANCH   1  69
TORSDOF 18
ENDMDL
MODEL 3
REMARK VINA RESULT:     -11.7      3.370      9.383
REMARK SMILES O=C(NCCCNC(=O)c1nn(-c2ccc(Br)cc2F)cc1CCCO)c1ccc(-c2c3nc(c(-c4ccc(S(=O)(=O)[O-])cc4)c4ccc([nH]4)c(-c4ccc(S(=O)(=O)[O-])cc4)c4nc(c(-c5ccc(S(=O)(=O)[O-])cc5)c5ccc2[nH]5)C=C4)C=C3)cc1
REMARK SMILES IDX 5 1 4 2 3 3 1 4 2 5 27 7 28 8 86 9 29 10 85 11 30 12 31 13
REMARK SMILES IDX 32 14 79 15 33 16 84 17 78 18 80 19 34 20 83 21 77 22 76 23
REMARK SMILES IDX 35 25 65 26 46 27 64 28 47 29 50 30 63 31 81 32 48 33 49 34
REMARK SMILES IDX 62 36 82 37 51 38 36 39 37 40 45 41 38 42 44 43 39 44 40 45
REMARK SMILES IDX 41 46 42 47 43 48 66 49 67 50 75 51 68 52 74 53 69 54 70 55
REMARK SMILES IDX 71 56 72 57 73 58 52 59 53 60 61 61 54 62 60 63 55 64 56 65
REMARK SMILES IDX 57 66 58 67 59 68 6 69 7 70 8 71 9 73 10 74 11 75 22 76
REMARK SMILES IDX 12 77 21 78 23 79 24 80 25 81 26 82 13 84 14 85 19 86 15 87
REMARK SMILES IDX 18 88 20 89 16 90 17 91
REMARK H PARENT 3 6 80 24 50 35 7 72 26 83
REMARK Flexibility Score: inf
ROOT
ATOM      1  C   UNL A   1      32.126  28.091  26.753  1.00  0.00     0.042 C 
ENDROOT
BRANCH   1   2
ATOM      2  C   UNL A   1      33.485  28.756  26.981  1.00  0.00     0.118 C 
BRANCH   2   3
ATOM      3  N   UNL A   1      33.470  30.070  27.599  1.00  0.00    -0.352 N 
ATOM      4  O   UNL A   1      34.057  32.051  28.401  1.00  0.00    -0.269 OA
ATOM      5  C   UNL A   1      34.436  30.935  28.034  1.00  0.00     0.251 C 
ATOM      6  H   UNL A   1      32.558  30.416  27.734  1.00  0.00     0.163 HD
BRANCH   5   7
ATOM      7  C   UNL A   1      35.871  30.584  28.160  1.00  0.00     0.039 A 
ATOM      8  C   UNL A   1      36.396  29.299  28.007  1.00  0.00     0.014 A 
ATOM      9  C   UNL A   1      36.742  31.640  28.472  1.00  0.00     0.014 A 
ATOM     10  C   UNL A   1      37.729  29.041  28.306  1.00  0.00     0.010 A 
ATOM     11  C   UNL A   1      38.086  31.396  28.723  1.00  0.00     0.010 A 
ATOM     12  C   UNL A   1      38.564  30.085  28.700  1.00  0.00    -0.014 A 
BRANCH  12  13
ATOM     13  C   UNL A   1      39.958  29.779  29.028  1.00  0.00     0.031 A 
ATOM     14  C   UNL A   1      40.328  29.755  30.477  1.00  0.00     0.074 A 
ATOM     15  C   UNL A   1      40.809  29.330  28.083  1.00  0.00     0.049 A 
ATOM     16  N   UNL A   1      41.356  30.277  31.070  1.00  0.00    -0.248 NA
ATOM     17  C   UNL A   1      39.396  29.073  31.392  1.00  0.00     0.031 C 
ATOM     18  C   UNL A   1      40.487  28.999  26.690  1.00  0.00     0.029 A 
ATOM     19  N   UNL A   1      42.099  28.905  28.216  1.00  0.00    -0.354 N 
ATOM     20  C   UNL A   1      41.292  29.855  32.399  1.00  0.00     0.074 A 
ATOM     21  C   UNL A   1      40.018  29.201  32.562  1.00  0.00     0.031 C 
ATOM     22  C   UNL A   1      41.445  28.185  26.201  1.00  0.00     0.029 A 
ATOM     23  C   UNL A   1      42.493  28.047  27.197  1.00  0.00     0.049 A 
ATOM     24  H   UNL A   1      42.688  29.178  28.955  1.00  0.00     0.167 HD
ATOM     25  C   UNL A   1      42.345  29.907  33.262  1.00  0.00     0.031 A 
ATOM     26  C   UNL A   1      43.538  27.185  27.217  1.00  0.00     0.031 A 
ATOM     27  C   UNL A   1      43.384  30.797  32.834  1.00  0.00     0.049 A 
ATOM     28  C   UNL A   1      44.466  27.613  28.289  1.00  0.00     0.074 A 
ATOM     29  C   UNL A   1      43.478  32.153  32.605  1.00  0.00     0.029 A 
ATOM     30  N   UNL A   1      44.517  30.246  32.287  1.00  0.00    -0.354 N 
ATOM     31  N   UNL A   1      45.136  28.730  28.267  1.00  0.00    -0.248 NA
ATOM     32  C   UNL A   1      44.378  26.968  29.589  1.00  0.00     0.031 C 
ATOM     33  C   UNL A   1      44.407  32.287  31.533  1.00  0.00     0.029 A 
ATOM     34  C   UNL A   1      44.829  31.001  31.186  1.00  0.00     0.049 A 
ATOM     35  H   UNL A   1      45.011  29.463  32.621  1.00  0.00     0.167 HD
ATOM     36  C   UNL A   1      45.209  29.133  29.592  1.00  0.00     0.074 A 
ATOM     37  C   UNL A   1      44.837  27.953  30.365  1.00  0.00     0.031 C 
ATOM     38  C   UNL A   1      45.294  30.456  29.928  1.00  0.00     0.031 A 
BRANCH  25  39
ATOM     39  C   UNL A   1      42.562  28.890  34.355  1.00  0.00    -0.014 A 
ATOM     40  C   UNL A   1      42.781  29.318  35.680  1.00  0.00     0.010 A 
ATOM     41  C   UNL A   1      42.830  27.535  34.064  1.00  0.00     0.010 A 
ATOM     42  C   UNL A   1      43.295  28.444  36.649  1.00  0.00     0.020 A 
ATOM     43  C   UNL A   1      43.299  26.646  35.034  1.00  0.00     0.020 A 
ATOM     44  C   UNL A   1      43.567  27.117  36.312  1.00  0.00     0.054 A 
BRANCH  44  45
ATOM     45  S   UNL A   1      44.360  26.032  37.527  1.00  0.00     0.124 S 
ATOM     46  O   UNL A   1      43.978  24.710  37.041  1.00  0.00    -0.237 OA
ATOM     47  O   UNL A   1      45.772  26.377  37.381  1.00  0.00    -0.237 OA
ATOM     48  O   UNL A   1      43.754  26.435  38.793  1.00  0.00    -0.744 OA
ENDBRANCH  44  45
ENDBRANCH  25  39
BRANCH  26  49
ATOM     49  C   UNL A   1      43.558  25.831  26.610  1.00  0.00    -0.014 A 
ATOM     50  C   UNL A   1      44.114  25.603  25.340  1.00  0.00     0.010 A 
ATOM     51  C   UNL A   1      43.232  24.704  27.396  1.00  0.00     0.010 A 
ATOM     52  C   UNL A   1      44.359  24.295  24.888  1.00  0.00     0.020 A 
ATOM     53  C   UNL A   1      43.459  23.400  26.948  1.00  0.00     0.020 A 
ATOM     54  C   UNL A   1      44.039  23.202  25.700  1.00  0.00     0.054 A 
BRANCH  54  55
ATOM     55  S   UNL A   1      44.486  21.525  25.169  1.00  0.00     0.124 S 
ATOM     56  O   UNL A   1      44.254  21.584  23.729  1.00  0.00    -0.237 OA
ATOM     57  O   UNL A   1      45.883  21.423  25.581  1.00  0.00    -0.237 OA
ATOM     58  O   UNL A   1      43.561  20.669  25.911  1.00  0.00    -0.744 OA
ENDBRANCH  54  55
ENDBRANCH  26  49
BRANCH  38  59
ATOM     59  C   UNL A   1      45.572  31.456  28.827  1.00  0.00    -0.014 A 
ATOM     60  C   UNL A   1      44.552  31.974  28.005  1.00  0.00     0.010 A 
ATOM     61  C   UNL A   1      46.855  32.025  28.741  1.00  0.00     0.010 A 
ATOM     62  C   UNL A   1      44.810  33.020  27.110  1.00  0.00     0.020 A 
ATOM     63  C   UNL A   1      47.115  33.080  27.861  1.00  0.00     0.020 A 
ATOM     64  C   UNL A   1      46.091  33.572  27.047  1.00  0.00     0.054 A 
BRANCH  64  65
ATOM     65  S   UNL A   1      46.389  34.987  25.950  1.00  0.00     0.124 S 
ATOM     66  O   UNL A   1      45.822  34.533  24.684  1.00  0.00    -0.237 OA
ATOM     67  O   UNL A   1      45.664  36.071  26.611  1.00  0.00    -0.237 OA
ATOM     68  O   UNL A   1      47.844  35.134  25.959  1.00  0.00    -0.744 OA
ENDBRANCH  64  65
ENDBRANCH  38  59
ENDBRANCH  12  13
ENDBRANCH   5   7
ENDBRANCH   2   3
ENDBRANCH   1   2
BRANCH   1  69
ATOM     69  C   UNL A   1      32.157  26.758  26.002  1.00  0.00     0.118 C 
BRANCH  69  70
ATOM     70  N   UNL A   1      31.419  25.718  26.696  1.00  0.00    -0.351 N 
ATOM     71  C   UNL A   1      31.457  24.361  26.532  1.00  0.00     0.272 C 
ATOM     72  H   UNL A   1      30.797  26.038  27.389  1.00  0.00     0.163 HD
ATOM     73  O   UNL A   1      30.563  23.695  27.072  1.00  0.00    -0.267 OA
BRANCH  71  74
ATOM     74  C   UNL A   1      32.502  23.767  25.699  1.00  0.00     0.153 A 
ATOM     75  N   UNL A   1      33.626  23.277  26.256  1.00  0.00    -0.162 NA
ATOM     76  C   UNL A   1      32.511  23.585  24.285  1.00  0.00     0.004 A 
ATOM     77  N   UNL A   1      34.455  23.033  25.215  1.00  0.00    -0.237 N 
ATOM     78  C   UNL A   1      33.804  23.180  24.013  1.00  0.00     0.119 A 
BRANCH  76  79
ATOM     79  C   UNL A   1      31.445  23.888  23.281  1.00  0.00     0.042 C 
BRANCH  79  80
ATOM     80  C   UNL A   1      31.438  25.326  22.747  1.00  0.00     0.033 C 
BRANCH  80  81
ATOM     81  C   UNL A   1      32.391  25.616  21.593  1.00  0.00     0.156 C 
BRANCH  81  82
ATOM     82  O   UNL A   1      32.795  24.419  20.944  1.00  0.00    -0.396 OA
ATOM     83  H   UNL A   1      33.085  23.774  21.608  1.00  0.00     0.210 HD
ENDBRANCH  81  82
ENDBRANCH  80  81
ENDBRANCH  79  80
ENDBRANCH  76  79
BRANCH  77  84
ATOM     84  C   UNL A   1      35.800  22.672  25.441  1.00  0.00     0.100 A 
ATOM     85  C   UNL A   1      36.713  23.647  25.871  1.00  0.00     0.032 A 
ATOM     86  C   UNL A   1      36.239  21.368  25.210  1.00  0.00     0.149 A 
ATOM     87  C   UNL A   1      38.046  23.297  26.097  1.00  0.00     0.018 A 
ATOM     88  C   UNL A   1      37.579  21.029  25.382  1.00  0.00     0.057 A 
ATOM     89  F   UNL A   1      35.402  20.429  24.748  1.00  0.00    -0.205 F 
ATOM     90  C   UNL A   1      38.475  21.994  25.839  1.00  0.00     0.021 A 
ATOM     91  Br  UNL A   1      40.289  21.537  26.116  1.00  0.00    -0.051 Br
ENDBRANCH  77  84
ENDBRANCH  71  74
ENDBRANCH  69  70
ENDBRANCH   1  69
TORSDOF 18
ENDMDL
