MODEL 1
REMARK VINA RESULT:     -12.3      0.000      0.000
REMARK SMILES Cc1ccc2cc(C[N@H+]3CC[NH2+][C@H](C(=O)NCCCNC(=O)c4ccc(-c5c6nc(c(-c7ccc(S(=O)(=O)[O-])cc7)c7ccc([nH]7)c(-c7ccc(S(=O)(=O)[O-])cc7)c7nc(c(-c8ccc(S(=O)(=O)[O-])cc8)c8ccc5[nH]8)C=C7)C=C6)cc4)C3)c(N3CCOCC3)nc2c1
REMARK SMILES IDX 18 1 17 2 16 3 14 4 15 5 13 7 9 8 10 9 83 10 11 12 12 13
REMARK SMILES IDX 8 16 7 17 1 18 2 19 3 20 93 21 4 22 92 23 5 24 91 25 6 26
REMARK SMILES IDX 84 27 85 28 86 29 90 30 87 31 89 32 88 33 19 34 20 35 21 36
REMARK SMILES IDX 22 38 23 39 24 40 82 41 25 42 81 43 26 44 27 45 28 46 75 47
REMARK SMILES IDX 29 48 80 49 74 50 76 51 30 52 79 53 73 54 72 55 31 57 61 58
REMARK SMILES IDX 42 59 60 60 43 61 46 62 59 63 77 64 44 65 45 66 58 68 78 69
REMARK SMILES IDX 47 70 32 71 33 72 41 73 34 74 40 75 35 76 36 77 37 78 38 79
REMARK SMILES IDX 39 80 62 81 63 82 71 83 64 84 70 85 65 86 66 87 67 88 68 89
REMARK SMILES IDX 69 90 48 91 49 92 57 93 50 94 56 95 51 96 52 97 53 98 54 99
REMARK SMILES IDX 55 100
REMARK H PARENT 16 6 9 11 12 14 12 15 20 37 76 56 46 67
REMARK Flexibility Score: inf
ROOT
ATOM      1  C   UNL A   1      43.537  22.581  26.685  1.00  0.00     0.042 C 
ENDROOT
BRANCH   1   2
ATOM      2  C   UNL A   1      42.496  22.203  25.641  1.00  0.00     0.118 C 
BRANCH   2   3
ATOM      3  N   UNL A   1      41.735  21.048  26.083  1.00  0.00    -0.351 N 
ATOM      4  C   UNL A   1      40.517  20.912  26.680  1.00  0.00     0.284 C 
ATOM      5  O   UNL A   1      40.388  19.867  27.332  1.00  0.00    -0.268 OA
ATOM      6  H   UNL A   1      42.190  20.191  25.918  1.00  0.00     0.163 HD
BRANCH   4   7
ATOM      7  C   UNL A   1      39.316  21.849  26.408  1.00  0.00     0.328 C 
ATOM      8  N   UNL A   1      37.124  22.316  25.166  1.00  0.00    -0.321 N 
ATOM      9  C   UNL A   1      37.477  23.741  25.228  1.00  0.00     0.324 C 
ATOM     10  C   UNL A   1      38.300  21.453  25.323  1.00  0.00     0.339 C 
ATOM     11  H   UNL A   1      36.786  22.189  24.212  1.00  0.00     0.348 HD
ATOM     12  C   UNL A   1      38.575  24.132  26.249  1.00  0.00     0.323 C 
ATOM     13  N   UNL A   1      39.761  23.257  26.214  1.00  0.00    -0.327 N 
ATOM     14  H   UNL A   1      40.405  23.520  26.959  1.00  0.00     0.347 HD
ATOM     15  H   UNL A   1      40.238  23.352  25.317  1.00  0.00     0.347 HD
BRANCH   8  16
ATOM     16  C   UNL A   1      35.932  21.884  25.927  1.00  0.00     0.303 C 
BRANCH  16  17
ATOM     17  C   UNL A   1      35.049  20.832  25.289  1.00  0.00     0.049 A 
ATOM     18  C   UNL A   1      32.281  15.031  25.338  1.00  0.00     0.044 C 
ATOM     19  C   UNL A   1      33.143  16.232  25.079  1.00  0.00    -0.049 A 
ATOM     20  C   UNL A   1      34.520  16.077  24.927  1.00  0.00     0.004 A 
ATOM     21  C   UNL A   1      32.597  17.532  25.093  1.00  0.00     0.032 A 
ATOM     22  C   UNL A   1      35.331  17.198  24.782  1.00  0.00     0.010 A 
ATOM     23  C   UNL A   1      33.388  18.675  25.000  1.00  0.00     0.073 A 
ATOM     24  C   UNL A   1      34.773  18.485  24.845  1.00  0.00     0.001 A 
ATOM     25  N   UNL A   1      32.842  19.907  25.123  1.00  0.00    -0.230 NA
ATOM     26  C   UNL A   1      35.595  19.607  24.905  1.00  0.00     0.023 A 
ATOM     27  C   UNL A   1      33.659  20.979  25.251  1.00  0.00     0.138 A 
BRANCH  27  28
ATOM     28  N   UNL A   1      33.116  22.235  25.403  1.00  0.00    -0.352 N 
ATOM     29  C   UNL A   1      33.363  23.250  24.373  1.00  0.00     0.146 C 
ATOM     30  C   UNL A   1      31.910  22.444  26.193  1.00  0.00     0.146 C 
ATOM     31  C   UNL A   1      33.370  24.637  25.037  1.00  0.00     0.181 C 
ATOM     32  C   UNL A   1      31.997  23.859  26.801  1.00  0.00     0.181 C 
ATOM     33  O   UNL A   1      32.160  24.868  25.782  1.00  0.00    -0.378 OA
ENDBRANCH  27  28
ENDBRANCH  16  17
ENDBRANCH   8  16
ENDBRANCH   4   7
ENDBRANCH   2   3
ENDBRANCH   1   2
BRANCH   1  34
ATOM     34  C   UNL A   1      43.775  24.084  26.684  1.00  0.00     0.118 C 
BRANCH  34  35
ATOM     35  N   UNL A   1      42.952  24.752  25.677  1.00  0.00    -0.352 N 
ATOM     36  C   UNL A   1      42.036  25.759  25.843  1.00  0.00     0.251 C 
ATOM     37  H   UNL A   1      43.073  24.434  24.752  1.00  0.00     0.163 HD
ATOM     38  O   UNL A   1      41.241  26.028  24.948  1.00  0.00    -0.269 OA
BRANCH  36  39
ATOM     39  C   UNL A   1      42.013  26.488  27.123  1.00  0.00     0.039 A 
ATOM     40  C   UNL A   1      41.177  26.043  28.150  1.00  0.00     0.014 A 
ATOM     41  C   UNL A   1      42.771  27.648  27.274  1.00  0.00     0.014 A 
ATOM     42  C   UNL A   1      40.948  26.861  29.243  1.00  0.00     0.010 A 
ATOM     43  C   UNL A   1      42.626  28.411  28.433  1.00  0.00     0.010 A 
ATOM     44  C   UNL A   1      41.677  28.050  29.403  1.00  0.00    -0.014 A 
BRANCH  44  45
ATOM     45  C   UNL A   1      41.430  28.901  30.593  1.00  0.00     0.031 A 
ATOM     46  C   UNL A   1      40.257  29.842  30.627  1.00  0.00     0.074 A 
ATOM     47  C   UNL A   1      42.245  28.782  31.659  1.00  0.00     0.049 A 
ATOM     48  N   UNL A   1      39.925  30.701  31.556  1.00  0.00    -0.248 NA
ATOM     49  C   UNL A   1      39.336  29.820  29.477  1.00  0.00     0.031 C 
ATOM     50  C   UNL A   1      43.381  27.859  31.751  1.00  0.00     0.029 A 
ATOM     51  N   UNL A   1      42.231  29.410  32.879  1.00  0.00    -0.354 N 
ATOM     52  C   UNL A   1      38.781  31.340  31.092  1.00  0.00     0.074 A 
ATOM     53  C   UNL A   1      38.484  30.787  29.790  1.00  0.00     0.031 C 
ATOM     54  C   UNL A   1      43.911  27.935  32.979  1.00  0.00     0.029 A 
ATOM     55  C   UNL A   1      43.223  28.980  33.728  1.00  0.00     0.049 A 
ATOM     56  H   UNL A   1      41.574  30.101  33.122  1.00  0.00     0.167 HD
ATOM     57  C   UNL A   1      38.045  32.293  31.708  1.00  0.00     0.031 A 
ATOM     58  C   UNL A   1      43.567  29.396  34.962  1.00  0.00     0.031 A 
ATOM     59  C   UNL A   1      38.344  32.811  33.018  1.00  0.00     0.049 A 
ATOM     60  C   UNL A   1      42.779  30.505  35.594  1.00  0.00     0.074 A 
ATOM     61  C   UNL A   1      37.657  33.777  33.731  1.00  0.00     0.029 A 
ATOM     62  N   UNL A   1      39.404  32.400  33.814  1.00  0.00    -0.354 N 
ATOM     63  N   UNL A   1      41.719  31.121  35.127  1.00  0.00    -0.248 NA
ATOM     64  C   UNL A   1      43.233  30.988  36.904  1.00  0.00     0.031 C 
ATOM     65  C   UNL A   1      38.338  33.997  34.930  1.00  0.00     0.029 A 
ATOM     66  C   UNL A   1      39.405  33.114  34.999  1.00  0.00     0.049 A 
ATOM     67  H   UNL A   1      40.057  31.704  33.571  1.00  0.00     0.167 HD
ATOM     68  C   UNL A   1      41.371  32.058  36.090  1.00  0.00     0.074 A 
ATOM     69  C   UNL A   1      42.323  31.917  37.174  1.00  0.00     0.031 C 
ATOM     70  C   UNL A   1      40.357  32.956  36.071  1.00  0.00     0.031 A 
BRANCH  57  71
ATOM     71  C   UNL A   1      36.846  32.859  30.990  1.00  0.00    -0.014 A 
ATOM     72  C   UNL A   1      37.034  33.787  29.948  1.00  0.00     0.010 A 
ATOM     73  C   UNL A   1      35.538  32.575  31.424  1.00  0.00     0.010 A 
ATOM     74  C   UNL A   1      35.943  34.448  29.378  1.00  0.00     0.020 A 
ATOM     75  C   UNL A   1      34.441  33.214  30.836  1.00  0.00     0.020 A 
ATOM     76  C   UNL A   1      34.653  34.165  29.834  1.00  0.00     0.054 A 
BRANCH  76  77
ATOM     77  S   UNL A   1      33.250  35.054  29.104  1.00  0.00     0.124 S 
ATOM     78  O   UNL A   1      33.896  36.228  28.524  1.00  0.00    -0.237 OA
ATOM     79  O   UNL A   1      32.721  34.086  28.147  1.00  0.00    -0.237 OA
ATOM     80  O   UNL A   1      32.382  35.320  30.250  1.00  0.00    -0.744 OA
ENDBRANCH  76  77
ENDBRANCH  57  71
BRANCH  58  81
ATOM     81  C   UNL A   1      44.718  28.746  35.649  1.00  0.00    -0.014 A 
ATOM     82  C   UNL A   1      46.033  29.193  35.411  1.00  0.00     0.010 A 
ATOM     83  C   UNL A   1      44.519  27.609  36.451  1.00  0.00     0.010 A 
ATOM     84  C   UNL A   1      47.126  28.475  35.897  1.00  0.00     0.020 A 
ATOM     85  C   UNL A   1      45.612  26.907  36.969  1.00  0.00     0.020 A 
ATOM     86  C   UNL A   1      46.909  27.325  36.660  1.00  0.00     0.054 A 
BRANCH  86  87
ATOM     87  S   UNL A   1      48.345  26.372  37.223  1.00  0.00     0.124 S 
ATOM     88  O   UNL A   1      48.407  26.733  38.637  1.00  0.00    -0.237 OA
ATOM     89  O   UNL A   1      47.945  24.996  36.942  1.00  0.00    -0.237 OA
ATOM     90  O   UNL A   1      49.438  26.881  36.399  1.00  0.00    -0.744 OA
ENDBRANCH  86  87
ENDBRANCH  58  81
BRANCH  70  91
ATOM     91  C   UNL A   1      40.198  33.875  37.252  1.00  0.00    -0.014 A 
ATOM     92  C   UNL A   1      39.354  33.498  38.314  1.00  0.00     0.010 A 
ATOM     93  C   UNL A   1      40.735  35.173  37.225  1.00  0.00     0.010 A 
ATOM     94  C   UNL A   1      39.001  34.423  39.298  1.00  0.00     0.020 A 
ATOM     95  C   UNL A   1      40.406  36.093  38.224  1.00  0.00     0.020 A 
ATOM     96  C   UNL A   1      39.515  35.721  39.235  1.00  0.00     0.054 A 
BRANCH  96  97
ATOM     97  S   UNL A   1      38.977  36.932  40.472  1.00  0.00     0.124 S 
ATOM     98  O   UNL A   1      40.228  37.257  41.148  1.00  0.00    -0.237 OA
ATOM     99  O   UNL A   1      38.408  37.999  39.651  1.00  0.00    -0.237 OA
ATOM    100  O   UNL A   1      38.006  36.192  41.277  1.00  0.00    -0.744 OA
ENDBRANCH  96  97
ENDBRANCH  70  91
ENDBRANCH  44  45
ENDBRANCH  36  39
ENDBRANCH  34  35
ENDBRANCH   1  34
TORSDOF 16
ENDMDL
MODEL 2
REMARK VINA RESULT:     -12.3      4.387     10.077
REMARK SMILES Cc1ccc2cc(C[N@H+]3CC[NH2+][C@H](C(=O)NCCCNC(=O)c4ccc(-c5c6nc(c(-c7ccc(S(=O)(=O)[O-])cc7)c7ccc([nH]7)c(-c7ccc(S(=O)(=O)[O-])cc7)c7nc(c(-c8ccc(S(=O)(=O)[O-])cc8)c8ccc5[nH]8)C=C7)C=C6)cc4)C3)c(N3CCOCC3)nc2c1
REMARK SMILES IDX 18 1 17 2 16 3 14 4 15 5 13 7 9 8 10 9 83 10 11 12 12 13
REMARK SMILES IDX 8 16 7 17 1 18 2 19 3 20 93 21 4 22 92 23 5 24 91 25 6 26
REMARK SMILES IDX 84 27 85 28 86 29 90 30 87 31 89 32 88 33 19 34 20 35 21 36
REMARK SMILES IDX 22 38 23 39 24 40 82 41 25 42 81 43 26 44 27 45 28 46 75 47
REMARK SMILES IDX 29 48 80 49 74 50 76 51 30 52 79 53 73 54 72 55 31 57 61 58
REMARK SMILES IDX 42 59 60 60 43 61 46 62 59 63 77 64 44 65 45 66 58 68 78 69
REMARK SMILES IDX 47 70 32 71 33 72 41 73 34 74 40 75 35 76 36 77 37 78 38 79
REMARK SMILES IDX 39 80 62 81 63 82 71 83 64 84 70 85 65 86 66 87 67 88 68 89
REMARK SMILES IDX 69 90 48 91 49 92 57 93 50 94 56 95 51 96 52 97 53 98 54 99
REMARK SMILES IDX 55 100
REMARK H PARENT 16 6 9 11 12 14 12 15 20 37 76 56 46 67
REMARK Flexibility Score: inf
ROOT
ATOM      1  C   UNL A   1      32.451  28.103  26.922  1.00  0.00     0.042 C 
ENDROOT
BRANCH   1   2
ATOM      2  C   UNL A   1      32.402  27.497  25.527  1.00  0.00     0.118 C 
BRANCH   2   3
ATOM      3  N   UNL A   1      31.096  26.915  25.275  1.00  0.00    -0.351 N 
ATOM      4  C   UNL A   1      30.692  25.668  24.899  1.00  0.00     0.284 C 
ATOM      5  O   UNL A   1      29.594  25.643  24.328  1.00  0.00    -0.268 OA
ATOM      6  H   UNL A   1      30.353  27.547  25.400  1.00  0.00     0.163 HD
BRANCH   4   7
ATOM      7  C   UNL A   1      31.411  24.365  25.327  1.00  0.00     0.328 C 
ATOM      8  N   UNL A   1      31.394  21.813  25.553  1.00  0.00    -0.321 N 
ATOM      9  C   UNL A   1      32.244  21.985  26.739  1.00  0.00     0.324 C 
ATOM     10  C   UNL A   1      30.646  23.034  25.234  1.00  0.00     0.339 C 
ATOM     11  H   UNL A   1      30.712  21.111  25.842  1.00  0.00     0.348 HD
ATOM     12  C   UNL A   1      32.937  23.363  26.891  1.00  0.00     0.323 C 
ATOM     13  N   UNL A   1      32.040  24.510  26.669  1.00  0.00    -0.327 N 
ATOM     14  H   UNL A   1      32.574  25.378  26.706  1.00  0.00     0.347 HD
ATOM     15  H   UNL A   1      31.320  24.536  27.391  1.00  0.00     0.347 HD
BRANCH   8  16
ATOM     16  C   UNL A   1      31.995  21.131  24.387  1.00  0.00     0.303 C 
BRANCH  16  17
ATOM     17  C   UNL A   1      33.507  21.124  24.293  1.00  0.00     0.049 A 
ATOM     18  C   UNL A   1      39.286  22.877  26.493  1.00  0.00     0.044 C 
ATOM     19  C   UNL A   1      38.007  22.715  25.723  1.00  0.00    -0.049 A 
ATOM     20  C   UNL A   1      37.349  23.841  25.229  1.00  0.00     0.004 A 
ATOM     21  C   UNL A   1      37.401  21.450  25.585  1.00  0.00     0.032 A 
ATOM     22  C   UNL A   1      36.117  23.700  24.600  1.00  0.00     0.010 A 
ATOM     23  C   UNL A   1      36.145  21.284  25.004  1.00  0.00     0.073 A 
ATOM     24  C   UNL A   1      35.509  22.438  24.512  1.00  0.00     0.001 A 
ATOM     25  N   UNL A   1      35.547  20.070  24.982  1.00  0.00    -0.230 NA
ATOM     26  C   UNL A   1      34.194  22.318  24.070  1.00  0.00     0.023 A 
ATOM     27  C   UNL A   1      34.247  19.983  24.616  1.00  0.00     0.138 A 
BRANCH  27  28
ATOM     28  N   UNL A   1      33.619  18.758  24.615  1.00  0.00    -0.352 N 
ATOM     29  C   UNL A   1      32.765  18.391  25.751  1.00  0.00     0.146 C 
ATOM     30  C   UNL A   1      33.308  18.072  23.368  1.00  0.00     0.146 C 
ATOM     31  C   UNL A   1      32.813  16.865  25.932  1.00  0.00     0.181 C 
ATOM     32  C   UNL A   1      33.361  16.556  23.650  1.00  0.00     0.181 C 
ATOM     33  O   UNL A   1      32.462  16.181  24.715  1.00  0.00    -0.378 OA
ENDBRANCH  27  28
ENDBRANCH  16  17
ENDBRANCH   8  16
ENDBRANCH   4   7
ENDBRANCH   2   3
ENDBRANCH   1   2
BRANCH   1  34
ATOM     34  C   UNL A   1      33.858  28.578  27.250  1.00  0.00     0.118 C 
BRANCH  34  35
ATOM     35  N   UNL A   1      33.854  29.958  27.733  1.00  0.00    -0.352 N 
ATOM     36  C   UNL A   1      34.827  30.628  28.431  1.00  0.00     0.251 C 
ATOM     37  H   UNL A   1      33.042  30.476  27.529  1.00  0.00     0.163 HD
ATOM     38  O   UNL A   1      34.568  31.690  28.991  1.00  0.00    -0.269 OA
BRANCH  36  39
ATOM     39  C   UNL A   1      36.173  30.035  28.514  1.00  0.00     0.039 A 
ATOM     40  C   UNL A   1      36.581  29.423  29.701  1.00  0.00     0.014 A 
ATOM     41  C   UNL A   1      37.047  30.148  27.433  1.00  0.00     0.014 A 
ATOM     42  C   UNL A   1      37.916  29.106  29.878  1.00  0.00     0.010 A 
ATOM     43  C   UNL A   1      38.366  29.718  27.577  1.00  0.00     0.010 A 
ATOM     44  C   UNL A   1      38.824  29.240  28.816  1.00  0.00    -0.014 A 
BRANCH  44  45
ATOM     45  C   UNL A   1      40.246  28.875  29.023  1.00  0.00     0.031 A 
ATOM     46  C   UNL A   1      41.189  29.832  29.699  1.00  0.00     0.074 A 
ATOM     47  C   UNL A   1      40.668  27.654  28.640  1.00  0.00     0.049 A 
ATOM     48  N   UNL A   1      42.474  29.704  29.907  1.00  0.00    -0.248 NA
ATOM     49  C   UNL A   1      40.624  31.094  30.208  1.00  0.00     0.031 C 
ATOM     50  C   UNL A   1      39.821  26.627  28.023  1.00  0.00     0.029 A 
ATOM     51  N   UNL A   1      41.897  27.053  28.736  1.00  0.00    -0.354 N 
ATOM     52  C   UNL A   1      42.875  30.874  30.540  1.00  0.00     0.074 A 
ATOM     53  C   UNL A   1      41.704  31.713  30.666  1.00  0.00     0.031 C 
ATOM     54  C   UNL A   1      40.538  25.507  27.858  1.00  0.00     0.029 A 
ATOM     55  C   UNL A   1      41.916  25.764  28.259  1.00  0.00     0.049 A 
ATOM     56  H   UNL A   1      42.689  27.502  29.111  1.00  0.00     0.167 HD
ATOM     57  C   UNL A   1      44.109  31.207  30.984  1.00  0.00     0.031 A 
ATOM     58  C   UNL A   1      42.932  24.888  28.126  1.00  0.00     0.031 A 
ATOM     59  C   UNL A   1      45.257  30.345  30.872  1.00  0.00     0.049 A 
ATOM     60  C   UNL A   1      44.305  25.309  28.559  1.00  0.00     0.074 A 
ATOM     61  C   UNL A   1      46.552  30.589  31.294  1.00  0.00     0.029 A 
ATOM     62  N   UNL A   1      45.248  29.075  30.314  1.00  0.00    -0.354 N 
ATOM     63  N   UNL A   1      44.673  26.433  29.127  1.00  0.00    -0.248 NA
ATOM     64  C   UNL A   1      45.401  24.361  28.325  1.00  0.00     0.031 C 
ATOM     65  C   UNL A   1      47.339  29.495  30.932  1.00  0.00     0.029 A 
ATOM     66  C   UNL A   1      46.521  28.535  30.354  1.00  0.00     0.049 A 
ATOM     67  H   UNL A   1      44.454  28.625  29.944  1.00  0.00     0.167 HD
ATOM     68  C   UNL A   1      46.042  26.324  29.328  1.00  0.00     0.074 A 
ATOM     69  C   UNL A   1      46.435  25.018  28.837  1.00  0.00     0.031 C 
ATOM     70  C   UNL A   1      46.894  27.230  29.866  1.00  0.00     0.031 A 
BRANCH  57  71
ATOM     71  C   UNL A   1      44.308  32.556  31.626  1.00  0.00    -0.014 A 
ATOM     72  C   UNL A   1      43.702  32.833  32.866  1.00  0.00     0.010 A 
ATOM     73  C   UNL A   1      44.984  33.590  30.951  1.00  0.00     0.010 A 
ATOM     74  C   UNL A   1      43.734  34.122  33.403  1.00  0.00     0.020 A 
ATOM     75  C   UNL A   1      45.042  34.876  31.499  1.00  0.00     0.020 A 
ATOM     76  C   UNL A   1      44.396  35.139  32.710  1.00  0.00     0.054 A 
BRANCH  76  77
ATOM     77  S   UNL A   1      44.402  36.814  33.407  1.00  0.00     0.124 S 
ATOM     78  O   UNL A   1      44.384  37.647  32.209  1.00  0.00    -0.237 OA
ATOM     79  O   UNL A   1      43.181  36.830  34.208  1.00  0.00    -0.237 OA
ATOM     80  O   UNL A   1      45.642  36.857  34.181  1.00  0.00    -0.744 OA
ENDBRANCH  76  77
ENDBRANCH  57  71
BRANCH  58  81
ATOM     81  C   UNL A   1      42.655  23.542  27.552  1.00  0.00    -0.014 A 
ATOM     82  C   UNL A   1      42.291  22.472  28.392  1.00  0.00     0.010 A 
ATOM     83  C   UNL A   1      42.867  23.295  26.185  1.00  0.00     0.010 A 
ATOM     84  C   UNL A   1      42.216  21.170  27.894  1.00  0.00     0.020 A 
ATOM     85  C   UNL A   1      42.757  21.996  25.675  1.00  0.00     0.020 A 
ATOM     86  C   UNL A   1      42.467  20.938  26.540  1.00  0.00     0.054 A 
BRANCH  86  87
ATOM     87  S   UNL A   1      42.430  19.231  25.929  1.00  0.00     0.124 S 
ATOM     88  O   UNL A   1      43.005  18.499  27.055  1.00  0.00    -0.237 OA
ATOM     89  O   UNL A   1      41.007  19.006  25.693  1.00  0.00    -0.237 OA
ATOM     90  O   UNL A   1      43.258  19.280  24.727  1.00  0.00    -0.744 OA
ENDBRANCH  86  87
ENDBRANCH  58  81
BRANCH  70  91
ATOM     91  C   UNL A   1      48.350  26.865  29.968  1.00  0.00    -0.014 A 
ATOM     92  C   UNL A   1      48.851  26.341  31.174  1.00  0.00     0.010 A 
ATOM     93  C   UNL A   1      49.245  27.206  28.939  1.00  0.00     0.010 A 
ATOM     94  C   UNL A   1      50.227  26.221  31.375  1.00  0.00     0.020 A 
ATOM     95  C   UNL A   1      50.622  27.061  29.127  1.00  0.00     0.020 A 
ATOM     96  C   UNL A   1      51.105  26.601  30.356  1.00  0.00     0.054 A 
BRANCH  96  97
ATOM     97  S   UNL A   1      52.889  26.519  30.667  1.00  0.00     0.124 S 
ATOM     98  O   UNL A   1      53.002  25.319  31.489  1.00  0.00    -0.237 OA
ATOM     99  O   UNL A   1      53.445  26.416  29.319  1.00  0.00    -0.237 OA
ATOM    100  O   UNL A   1      53.174  27.777  31.355  1.00  0.00    -0.744 OA
ENDBRANCH  96  97
ENDBRANCH  70  91
ENDBRANCH  44  45
ENDBRANCH  36  39
ENDBRANCH  34  35
ENDBRANCH   1  34
TORSDOF 16
ENDMDL
MODEL 3
REMARK VINA RESULT:     -12.3      3.976     10.252
REMARK SMILES Cc1ccc2cc(C[N@H+]3CC[NH2+][C@H](C(=O)NCCCNC(=O)c4ccc(-c5c6nc(c(-c7ccc(S(=O)(=O)[O-])cc7)c7ccc([nH]7)c(-c7ccc(S(=O)(=O)[O-])cc7)c7nc(c(-c8ccc(S(=O)(=O)[O-])cc8)c8ccc5[nH]8)C=C7)C=C6)cc4)C3)c(N3CCOCC3)nc2c1
REMARK SMILES IDX 18 1 17 2 16 3 14 4 15 5 13 7 9 8 10 9 83 10 11 12 12 13
REMARK SMILES IDX 8 16 7 17 1 18 2 19 3 20 93 21 4 22 92 23 5 24 91 25 6 26
REMARK SMILES IDX 84 27 85 28 86 29 90 30 87 31 89 32 88 33 19 34 20 35 21 36
REMARK SMILES IDX 22 38 23 39 24 40 82 41 25 42 81 43 26 44 27 45 28 46 75 47
REMARK SMILES IDX 29 48 80 49 74 50 76 51 30 52 79 53 73 54 72 55 31 57 61 58
REMARK SMILES IDX 42 59 60 60 43 61 46 62 59 63 77 64 44 65 45 66 58 68 78 69
REMARK SMILES IDX 47 70 32 71 33 72 41 73 34 74 40 75 35 76 36 77 37 78 38 79
REMARK SMILES IDX 39 80 62 81 63 82 71 83 64 84 70 85 65 86 66 87 67 88 68 89
REMARK SMILES IDX 69 90 48 91 49 92 57 93 50 94 56 95 51 96 52 97 53 98 54 99
REMARK SMILES IDX 55 100
REMARK H PARENT 16 6 9 11 12 14 12 15 20 37 76 56 46 67
REMARK Flexibility Score: inf
ROOT
ATOM      1  C   UNL A   1      32.337  28.073  26.894  1.00  0.00     0.042 C 
ENDROOT
BRANCH   1   2
ATOM      2  C   UNL A   1      32.334  27.460  25.501  1.00  0.00     0.118 C 
BRANCH   2   3
ATOM      3  N   UNL A   1      31.042  26.863  25.214  1.00  0.00    -0.351 N 
ATOM      4  C   UNL A   1      30.662  25.610  24.831  1.00  0.00     0.284 C 
ATOM      5  O   UNL A   1      29.580  25.573  24.230  1.00  0.00    -0.268 OA
ATOM      6  H   UNL A   1      30.289  27.488  25.317  1.00  0.00     0.163 HD
BRANCH   4   7
ATOM      7  C   UNL A   1      31.383  24.317  25.283  1.00  0.00     0.328 C 
ATOM      8  N   UNL A   1      31.373  21.768  25.546  1.00  0.00    -0.321 N 
ATOM      9  C   UNL A   1      32.216  21.961  26.734  1.00  0.00     0.324 C 
ATOM     10  C   UNL A   1      30.623  22.982  25.204  1.00  0.00     0.339 C 
ATOM     11  H   UNL A   1      30.692  21.069  25.840  1.00  0.00     0.348 HD
ATOM     12  C   UNL A   1      32.903  23.343  26.871  1.00  0.00     0.323 C 
ATOM     13  N   UNL A   1      32.003  24.484  26.627  1.00  0.00    -0.327 N 
ATOM     14  H   UNL A   1      32.533  25.354  26.654  1.00  0.00     0.347 HD
ATOM     15  H   UNL A   1      31.278  24.517  27.343  1.00  0.00     0.347 HD
BRANCH   8  16
ATOM     16  C   UNL A   1      31.984  21.072  24.393  1.00  0.00     0.303 C 
BRANCH  16  17
ATOM     17  C   UNL A   1      33.496  21.083  24.299  1.00  0.00     0.049 A 
ATOM     18  C   UNL A   1      39.252  22.914  26.496  1.00  0.00     0.044 C 
ATOM     19  C   UNL A   1      37.975  22.734  25.727  1.00  0.00    -0.049 A 
ATOM     20  C   UNL A   1      37.304  23.850  25.228  1.00  0.00     0.004 A 
ATOM     21  C   UNL A   1      37.385  21.461  25.592  1.00  0.00     0.032 A 
ATOM     22  C   UNL A   1      36.074  23.692  24.599  1.00  0.00     0.010 A 
ATOM     23  C   UNL A   1      36.132  21.278  25.012  1.00  0.00     0.073 A 
ATOM     24  C   UNL A   1      35.481  22.422  24.515  1.00  0.00     0.001 A 
ATOM     25  N   UNL A   1      35.549  20.056  24.993  1.00  0.00    -0.230 NA
ATOM     26  C   UNL A   1      34.168  22.285  24.073  1.00  0.00     0.023 A 
ATOM     27  C   UNL A   1      34.250  19.952  24.627  1.00  0.00     0.138 A 
BRANCH  27  28
ATOM     28  N   UNL A   1      33.637  18.720  24.630  1.00  0.00    -0.352 N 
ATOM     29  C   UNL A   1      32.858  18.312  25.805  1.00  0.00     0.146 C 
ATOM     30  C   UNL A   1      33.259  18.063  23.386  1.00  0.00     0.146 C 
ATOM     31  C   UNL A   1      32.934  16.781  25.941  1.00  0.00     0.181 C 
ATOM     32  C   UNL A   1      33.346  16.541  23.623  1.00  0.00     0.181 C 
ATOM     33  O   UNL A   1      32.518  16.126  24.728  1.00  0.00    -0.378 OA
ENDBRANCH  27  28
ENDBRANCH  16  17
ENDBRANCH   8  16
ENDBRANCH   4   7
ENDBRANCH   2   3
ENDBRANCH   1   2
BRANCH   1  34
ATOM     34  C   UNL A   1      33.725  28.582  27.252  1.00  0.00     0.118 C 
BRANCH  34  35
ATOM     35  N   UNL A   1      33.694  29.997  27.617  1.00  0.00    -0.352 N 
ATOM     36  C   UNL A   1      34.630  30.730  28.302  1.00  0.00     0.251 C 
ATOM     37  H   UNL A   1      32.891  30.491  27.333  1.00  0.00     0.163 HD
ATOM     38  O   UNL A   1      34.342  31.832  28.758  1.00  0.00    -0.269 OA
BRANCH  36  39
ATOM     39  C   UNL A   1      35.972  30.156  28.497  1.00  0.00     0.039 A 
ATOM     40  C   UNL A   1      36.293  29.562  29.720  1.00  0.00     0.014 A 
ATOM     41  C   UNL A   1      36.927  30.268  27.487  1.00  0.00     0.014 A 
ATOM     42  C   UNL A   1      37.615  29.264  30.005  1.00  0.00     0.010 A 
ATOM     43  C   UNL A   1      38.236  29.856  27.738  1.00  0.00     0.010 A 
ATOM     44  C   UNL A   1      38.601  29.398  29.015  1.00  0.00    -0.014 A 
BRANCH  44  45
ATOM     45  C   UNL A   1      40.007  29.053  29.337  1.00  0.00     0.031 A 
ATOM     46  C   UNL A   1      40.587  27.734  28.908  1.00  0.00     0.074 A 
ATOM     47  C   UNL A   1      40.770  29.961  29.977  1.00  0.00     0.049 A 
ATOM     48  N   UNL A   1      41.772  27.242  29.156  1.00  0.00    -0.248 NA
ATOM     49  C   UNL A   1      39.731  26.849  28.098  1.00  0.00     0.031 C 
ATOM     50  C   UNL A   1      40.322  31.295  30.391  1.00  0.00     0.029 A 
ATOM     51  N   UNL A   1      42.085  29.920  30.366  1.00  0.00    -0.354 N 
ATOM     52  C   UNL A   1      41.796  25.986  28.562  1.00  0.00     0.074 A 
ATOM     53  C   UNL A   1      40.500  25.777  27.957  1.00  0.00     0.031 C 
ATOM     54  C   UNL A   1      41.358  31.964  30.913  1.00  0.00     0.029 A 
ATOM     55  C   UNL A   1      42.515  31.079  30.967  1.00  0.00     0.049 A 
ATOM     56  H   UNL A   1      42.664  29.137  30.227  1.00  0.00     0.167 HD
ATOM     57  C   UNL A   1      42.815  25.097  28.519  1.00  0.00     0.031 A 
ATOM     58  C   UNL A   1      43.698  31.392  31.531  1.00  0.00     0.031 A 
ATOM     59  C   UNL A   1      44.109  25.337  29.105  1.00  0.00     0.049 A 
ATOM     60  C   UNL A   1      44.788  30.362  31.535  1.00  0.00     0.074 A 
ATOM     61  C   UNL A   1      45.210  24.500  29.114  1.00  0.00     0.029 A 
ATOM     62  N   UNL A   1      44.479  26.496  29.771  1.00  0.00    -0.354 N 
ATOM     63  N   UNL A   1      44.783  29.166  30.995  1.00  0.00    -0.248 NA
ATOM     64  C   UNL A   1      46.035  30.708  32.228  1.00  0.00     0.031 C 
ATOM     65  C   UNL A   1      46.224  25.125  29.841  1.00  0.00     0.029 A 
ATOM     66  C   UNL A   1      45.783  26.384  30.220  1.00  0.00     0.049 A 
ATOM     67  H   UNL A   1      43.899  27.281  29.905  1.00  0.00     0.167 HD
ATOM     68  C   UNL A   1      46.028  28.619  31.276  1.00  0.00     0.074 A 
ATOM     69  C   UNL A   1      46.768  29.621  32.017  1.00  0.00     0.031 C 
ATOM     70  C   UNL A   1      46.507  27.394  30.951  1.00  0.00     0.031 A 
BRANCH  57  71
ATOM     71  C   UNL A   1      42.595  23.776  27.829  1.00  0.00    -0.014 A 
ATOM     72  C   UNL A   1      42.220  22.649  28.587  1.00  0.00     0.010 A 
ATOM     73  C   UNL A   1      42.879  23.613  26.461  1.00  0.00     0.010 A 
ATOM     74  C   UNL A   1      42.169  21.382  28.001  1.00  0.00     0.020 A 
ATOM     75  C   UNL A   1      42.802  22.350  25.865  1.00  0.00     0.020 A 
ATOM     76  C   UNL A   1      42.471  21.238  26.645  1.00  0.00     0.054 A 
BRANCH  76  77
ATOM     77  S   UNL A   1      42.429  19.581  25.908  1.00  0.00     0.124 S 
ATOM     78  O   UNL A   1      41.062  19.500  25.405  1.00  0.00    -0.237 OA
ATOM     79  O   UNL A   1      43.475  19.658  24.892  1.00  0.00    -0.237 OA
ATOM     80  O   UNL A   1      42.734  18.700  27.035  1.00  0.00    -0.744 OA
ENDBRANCH  76  77
ENDBRANCH  57  71
BRANCH  58  81
ATOM     81  C   UNL A   1      43.877  32.743  32.132  1.00  0.00    -0.014 A 
ATOM     82  C   UNL A   1      43.645  32.946  33.507  1.00  0.00     0.010 A 
ATOM     83  C   UNL A   1      44.167  33.852  31.318  1.00  0.00     0.010 A 
ATOM     84  C   UNL A   1      43.624  34.235  34.042  1.00  0.00     0.020 A 
ATOM     85  C   UNL A   1      44.181  35.143  31.859  1.00  0.00     0.020 A 
ATOM     86  C   UNL A   1      43.876  35.328  33.210  1.00  0.00     0.054 A 
BRANCH  86  87
ATOM     87  S   UNL A   1      43.776  36.996  33.912  1.00  0.00     0.124 S 
ATOM     88  O   UNL A   1      44.243  37.817  32.798  1.00  0.00    -0.237 OA
ATOM     89  O   UNL A   1      42.359  37.123  34.237  1.00  0.00    -0.237 OA
ATOM     90  O   UNL A   1      44.673  36.937  35.064  1.00  0.00    -0.744 OA
ENDBRANCH  86  87
ENDBRANCH  58  81
BRANCH  70  91
ATOM     91  C   UNL A   1      47.904  27.040  31.383  1.00  0.00    -0.014 A 
ATOM     92  C   UNL A   1      48.984  27.299  30.519  1.00  0.00     0.010 A 
ATOM     93  C   UNL A   1      48.122  26.294  32.555  1.00  0.00     0.010 A 
ATOM     94  C   UNL A   1      50.246  26.768  30.786  1.00  0.00     0.020 A 
ATOM     95  C   UNL A   1      49.391  25.784  32.839  1.00  0.00     0.020 A 
ATOM     96  C   UNL A   1      50.437  25.997  31.936  1.00  0.00     0.054 A 
BRANCH  96  97
ATOM     97  S   UNL A   1      52.061  25.244  32.222  1.00  0.00     0.124 S 
ATOM     98  O   UNL A   1      52.789  25.616  31.013  1.00  0.00    -0.237 OA
ATOM     99  O   UNL A   1      52.505  25.896  33.452  1.00  0.00    -0.237 OA
ATOM    100  O   UNL A   1      51.760  23.819  32.355  1.00  0.00    -0.744 OA
ENDBRANCH  96  97
ENDBRANCH  70  91
ENDBRANCH  44  45
ENDBRANCH  36  39
ENDBRANCH  34  35
ENDBRANCH   1  34
TORSDOF 16
ENDMDL
