MODEL 1
REMARK VINA RESULT:     -11.2      0.000      0.000
REMARK SMILES CC1(C)[C@H](C(=O)Nc2ccccc2C(N)=O)[C@@H]1C(=O)NCCCNC(=O)c1ccc(-c2c3nc(c(-c4ccc(S(=O)(=O)[O-])cc4)c4ccc([nH]4)c(-c4ccc(S(=O)(=O)[O-])cc4)c4nc(c(-c5ccc(S(=O)(=O)[O-])cc5)c5ccc2[nH]5)C=C4)C=C3)cc1
REMARK SMILES IDX 22 1 21 2 20 3 18 4 19 5 17 7 1 8 2 9 3 10 4 11 5 12 6 13
REMARK SMILES IDX 7 14 8 16 9 17 13 18 10 19 12 20 11 21 14 22 15 23 16 24
REMARK SMILES IDX 23 27 24 28 25 29 26 31 27 32 28 33 86 34 29 35 85 36 30 37
REMARK SMILES IDX 31 38 32 39 79 40 33 41 84 42 78 43 80 44 34 45 83 46 77 47
REMARK SMILES IDX 76 48 35 50 65 51 46 52 64 53 47 54 50 55 63 56 81 57 48 58
REMARK SMILES IDX 49 59 62 61 82 62 51 63 36 64 37 65 45 66 38 67 44 68 39 69
REMARK SMILES IDX 40 70 41 71 42 72 43 73 66 74 67 75 75 76 68 77 74 78 69 79
REMARK SMILES IDX 70 80 71 81 72 82 73 83 52 84 53 85 61 86 54 87 60 88 55 89
REMARK SMILES IDX 56 90 57 91 58 92 59 93
REMARK H PARENT 20 6 7 15 15 25 15 26 24 30 80 49 50 60
REMARK Flexibility Score: inf
ROOT
ATOM      1  C   UNL A   1      31.813  28.002  27.265  1.00  0.00     0.042 C 
ENDROOT
BRANCH   1   2
ATOM      2  C   UNL A   1      31.141  28.045  25.911  1.00  0.00     0.117 C 
BRANCH   2   3
ATOM      3  N   UNL A   1      30.797  26.724  25.438  1.00  0.00    -0.356 N 
ATOM      4  C   UNL A   1      31.488  25.922  24.585  1.00  0.00     0.224 C 
ATOM      5  O   UNL A   1      30.919  24.950  24.101  1.00  0.00    -0.275 OA
ATOM      6  H   UNL A   1      29.950  26.356  25.779  1.00  0.00     0.163 HD
BRANCH   4   7
ATOM      7  C   UNL A   1      32.895  26.247  24.213  1.00  0.00     0.098 C 
ATOM      8  C   UNL A   1      34.237  28.185  23.049  1.00  0.00     0.013 C 
ATOM      9  C   UNL A   1      33.122  27.149  22.986  1.00  0.00    -0.011 C 
ATOM     10  C   UNL A   1      31.883  27.729  22.362  1.00  0.00     0.013 C 
ATOM     11  C   UNL A   1      33.646  25.728  22.994  1.00  0.00     0.098 C 
BRANCH  11  12
ATOM     12  C   UNL A   1      33.389  24.367  22.454  1.00  0.00     0.228 C 
ATOM     13  O   UNL A   1      32.992  24.322  21.285  1.00  0.00    -0.274 OA
ATOM     14  N   UNL A   1      33.697  23.163  23.015  1.00  0.00    -0.325 N 
ATOM     15  H   UNL A   1      33.691  22.412  22.377  1.00  0.00     0.169 HD
BRANCH  14  16
ATOM     16  C   UNL A   1      34.018  22.795  24.312  1.00  0.00     0.053 A 
ATOM     17  C   UNL A   1      32.924  22.620  25.171  1.00  0.00     0.027 A 
ATOM     18  C   UNL A   1      35.327  22.631  24.788  1.00  0.00     0.063 A 
ATOM     19  C   UNL A   1      33.115  22.116  26.453  1.00  0.00     0.002 A 
ATOM     20  C   UNL A   1      35.509  22.138  26.089  1.00  0.00     0.016 A 
ATOM     21  C   UNL A   1      34.405  21.847  26.900  1.00  0.00     0.001 A 
BRANCH  18  22
ATOM     22  C   UNL A   1      36.495  23.066  23.970  1.00  0.00     0.250 C 
ATOM     23  N   UNL A   1      37.566  23.608  24.622  1.00  0.00    -0.366 N 
ATOM     24  O   UNL A   1      36.525  22.959  22.750  1.00  0.00    -0.269 OA
ATOM     25  H   UNL A   1      37.552  23.699  25.602  1.00  0.00     0.159 HD
ATOM     26  H   UNL A   1      38.353  23.909  24.112  1.00  0.00     0.159 HD
ENDBRANCH  18  22
ENDBRANCH  14  16
ENDBRANCH  11  12
ENDBRANCH   4   7
ENDBRANCH   2   3
ENDBRANCH   1   2
BRANCH   1  27
ATOM     27  C   UNL A   1      33.229  28.554  27.251  1.00  0.00     0.118 C 
BRANCH  27  28
ATOM     28  N   UNL A   1      33.304  29.984  27.542  1.00  0.00    -0.352 N 
ATOM     29  C   UNL A   1      34.347  30.727  28.047  1.00  0.00     0.251 C 
ATOM     30  H   UNL A   1      32.484  30.493  27.349  1.00  0.00     0.163 HD
ATOM     31  O   UNL A   1      34.171  31.899  28.361  1.00  0.00    -0.269 OA
BRANCH  29  32
ATOM     32  C   UNL A   1      35.662  30.086  28.236  1.00  0.00     0.039 A 
ATOM     33  C   UNL A   1      36.579  30.071  27.185  1.00  0.00     0.014 A 
ATOM     34  C   UNL A   1      36.014  29.571  29.484  1.00  0.00     0.014 A 
ATOM     35  C   UNL A   1      37.882  29.631  27.421  1.00  0.00     0.010 A 
ATOM     36  C   UNL A   1      37.341  29.271  29.750  1.00  0.00     0.010 A 
ATOM     37  C   UNL A   1      38.290  29.283  28.720  1.00  0.00    -0.014 A 
BRANCH  37  38
ATOM     38  C   UNL A   1      39.698  28.923  29.027  1.00  0.00     0.031 A 
ATOM     39  C   UNL A   1      40.619  29.948  29.635  1.00  0.00     0.074 A 
ATOM     40  C   UNL A   1      40.168  27.709  28.682  1.00  0.00     0.049 A 
ATOM     41  N   UNL A   1      41.890  29.843  29.927  1.00  0.00    -0.248 NA
ATOM     42  C   UNL A   1      40.050  31.277  29.915  1.00  0.00     0.031 C 
ATOM     43  C   UNL A   1      39.396  26.654  28.019  1.00  0.00     0.029 A 
ATOM     44  N   UNL A   1      41.415  27.156  28.836  1.00  0.00    -0.354 N 
ATOM     45  C   UNL A   1      42.273  31.096  30.393  1.00  0.00     0.074 A 
ATOM     46  C   UNL A   1      41.122  31.960  30.280  1.00  0.00     0.031 C 
ATOM     47  C   UNL A   1      40.173  25.572  27.861  1.00  0.00     0.029 A 
ATOM     48  C   UNL A   1      41.510  25.867  28.366  1.00  0.00     0.049 A 
ATOM     49  H   UNL A   1      42.171  27.636  29.246  1.00  0.00     0.167 HD
ATOM     50  C   UNL A   1      43.469  31.486  30.895  1.00  0.00     0.031 A 
ATOM     51  C   UNL A   1      42.555  25.017  28.338  1.00  0.00     0.031 A 
ATOM     52  C   UNL A   1      44.606  30.615  31.017  1.00  0.00     0.049 A 
ATOM     53  C   UNL A   1      43.869  25.462  28.916  1.00  0.00     0.074 A 
ATOM     54  C   UNL A   1      45.838  30.883  31.584  1.00  0.00     0.029 A 
ATOM     55  N   UNL A   1      44.654  29.307  30.552  1.00  0.00    -0.354 N 
ATOM     56  N   UNL A   1      44.187  26.620  29.444  1.00  0.00    -0.248 NA
ATOM     57  C   UNL A   1      44.962  24.480  28.909  1.00  0.00     0.031 C 
ATOM     58  C   UNL A   1      46.653  29.761  31.402  1.00  0.00     0.029 A 
ATOM     59  C   UNL A   1      45.906  28.767  30.787  1.00  0.00     0.049 A 
ATOM     60  H   UNL A   1      43.907  28.835  30.119  1.00  0.00     0.167 HD
ATOM     61  C   UNL A   1      45.511  26.502  29.851  1.00  0.00     0.074 A 
ATOM     62  C   UNL A   1      45.926  25.151  29.525  1.00  0.00     0.031 C 
ATOM     63  C   UNL A   1      46.310  27.426  30.441  1.00  0.00     0.031 A 
BRANCH  50  64
ATOM     64  C   UNL A   1      43.601  32.925  31.330  1.00  0.00    -0.014 A 
ATOM     65  C   UNL A   1      44.020  33.927  30.434  1.00  0.00     0.010 A 
ATOM     66  C   UNL A   1      43.301  33.280  32.657  1.00  0.00     0.010 A 
ATOM     67  C   UNL A   1      44.201  35.241  30.874  1.00  0.00     0.020 A 
ATOM     68  C   UNL A   1      43.444  34.600  33.092  1.00  0.00     0.020 A 
ATOM     69  C   UNL A   1      43.917  35.568  32.204  1.00  0.00     0.054 A 
BRANCH  69  70
ATOM     70  S   UNL A   1      44.168  37.278  32.750  1.00  0.00     0.124 S 
ATOM     71  O   UNL A   1      44.086  38.011  31.489  1.00  0.00    -0.237 OA
ATOM     72  O   UNL A   1      43.053  37.487  33.670  1.00  0.00    -0.237 OA
ATOM     73  O   UNL A   1      45.490  37.255  33.371  1.00  0.00    -0.744 OA
ENDBRANCH  69  70
ENDBRANCH  50  64
BRANCH  51  74
ATOM     74  C   UNL A   1      42.380  23.657  27.757  1.00  0.00    -0.014 A 
ATOM     75  C   UNL A   1      42.744  23.393  26.426  1.00  0.00     0.010 A 
ATOM     76  C   UNL A   1      41.902  22.601  28.557  1.00  0.00     0.010 A 
ATOM     77  C   UNL A   1      42.636  22.099  25.905  1.00  0.00     0.020 A 
ATOM     78  C   UNL A   1      41.821  21.302  28.048  1.00  0.00     0.020 A 
ATOM     79  C   UNL A   1      42.185  21.060  26.724  1.00  0.00     0.054 A 
BRANCH  79  80
ATOM     80  S   UNL A   1      42.141  19.374  26.051  1.00  0.00     0.124 S 
ATOM     81  O   UNL A   1      40.723  19.203  25.751  1.00  0.00    -0.237 OA
ATOM     82  O   UNL A   1      43.026  19.476  24.893  1.00  0.00    -0.237 OA
ATOM     83  O   UNL A   1      42.654  18.556  27.149  1.00  0.00    -0.744 OA
ENDBRANCH  79  80
ENDBRANCH  51  74
BRANCH  63  84
ATOM     84  C   UNL A   1      47.711  27.005  30.795  1.00  0.00    -0.014 A 
ATOM     85  C   UNL A   1      48.790  27.247  29.925  1.00  0.00     0.010 A 
ATOM     86  C   UNL A   1      47.960  26.408  32.045  1.00  0.00     0.010 A 
ATOM     87  C   UNL A   1      50.086  26.867  30.284  1.00  0.00     0.020 A 
ATOM     88  C   UNL A   1      49.259  26.057  32.421  1.00  0.00     0.020 A 
ATOM     89  C   UNL A   1      50.312  26.274  31.530  1.00  0.00     0.054 A 
BRANCH  89  90
ATOM     90  S   UNL A   1      52.008  25.826  31.988  1.00  0.00     0.124 S 
ATOM     91  O   UNL A   1      52.192  26.569  33.232  1.00  0.00    -0.237 OA
ATOM     92  O   UNL A   1      51.928  24.374  32.129  1.00  0.00    -0.237 OA
ATOM     93  O   UNL A   1      52.808  26.293  30.859  1.00  0.00    -0.744 OA
ENDBRANCH  89  90
ENDBRANCH  63  84
ENDBRANCH  37  38
ENDBRANCH  29  32
ENDBRANCH  27  28
ENDBRANCH   1  27
TORSDOF 16
ENDMDL
MODEL 2
REMARK VINA RESULT:     -11.2      2.468      9.292
REMARK SMILES CC1(C)[C@H](C(=O)Nc2ccccc2C(N)=O)[C@@H]1C(=O)NCCCNC(=O)c1ccc(-c2c3nc(c(-c4ccc(S(=O)(=O)[O-])cc4)c4ccc([nH]4)c(-c4ccc(S(=O)(=O)[O-])cc4)c4nc(c(-c5ccc(S(=O)(=O)[O-])cc5)c5ccc2[nH]5)C=C4)C=C3)cc1
REMARK SMILES IDX 22 1 21 2 20 3 18 4 19 5 17 7 1 8 2 9 3 10 4 11 5 12 6 13
REMARK SMILES IDX 7 14 8 16 9 17 13 18 10 19 12 20 11 21 14 22 15 23 16 24
REMARK SMILES IDX 23 27 24 28 25 29 26 31 27 32 28 33 86 34 29 35 85 36 30 37
REMARK SMILES IDX 31 38 32 39 79 40 33 41 84 42 78 43 80 44 34 45 83 46 77 47
REMARK SMILES IDX 76 48 35 50 65 51 46 52 64 53 47 54 50 55 63 56 81 57 48 58
REMARK SMILES IDX 49 59 62 61 82 62 51 63 36 64 37 65 45 66 38 67 44 68 39 69
REMARK SMILES IDX 40 70 41 71 42 72 43 73 66 74 67 75 75 76 68 77 74 78 69 79
REMARK SMILES IDX 70 80 71 81 72 82 73 83 52 84 53 85 61 86 54 87 60 88 55 89
REMARK SMILES IDX 56 90 57 91 58 92 59 93
REMARK H PARENT 20 6 7 15 15 25 15 26 24 30 80 49 50 60
REMARK Flexibility Score: inf
ROOT
ATOM      1  C   UNL A   1      36.450  23.289  24.258  1.00  0.00     0.042 C 
ENDROOT
BRANCH   1   2
ATOM      2  C   UNL A   1      35.224  22.474  23.913  1.00  0.00     0.117 C 
BRANCH   2   3
ATOM      3  N   UNL A   1      34.118  23.310  23.504  1.00  0.00    -0.356 N 
ATOM      4  C   UNL A   1      33.175  23.908  24.278  1.00  0.00     0.224 C 
ATOM      5  O   UNL A   1      32.173  24.364  23.738  1.00  0.00    -0.275 OA
ATOM      6  H   UNL A   1      34.040  23.468  22.535  1.00  0.00     0.163 HD
BRANCH   4   7
ATOM      7  C   UNL A   1      33.338  23.967  25.760  1.00  0.00     0.098 C 
ATOM      8  C   UNL A   1      33.665  22.318  27.780  1.00  0.00     0.013 C 
ATOM      9  C   UNL A   1      32.837  22.766  26.583  1.00  0.00    -0.011 C 
ATOM     10  C   UNL A   1      32.355  21.583  25.790  1.00  0.00     0.013 C 
ATOM     11  C   UNL A   1      32.221  24.135  26.781  1.00  0.00     0.098 C 
BRANCH  11  12
ATOM     12  C   UNL A   1      31.014  24.946  26.474  1.00  0.00     0.228 C 
ATOM     13  O   UNL A   1      29.932  24.359  26.586  1.00  0.00    -0.274 OA
ATOM     14  N   UNL A   1      30.931  26.291  26.258  1.00  0.00    -0.325 N 
ATOM     15  H   UNL A   1      30.019  26.653  26.346  1.00  0.00     0.169 HD
BRANCH  14  16
ATOM     16  C   UNL A   1      31.886  27.242  25.937  1.00  0.00     0.053 A 
ATOM     17  C   UNL A   1      32.714  27.637  26.996  1.00  0.00     0.027 A 
ATOM     18  C   UNL A   1      32.031  27.821  24.668  1.00  0.00     0.063 A 
ATOM     19  C   UNL A   1      33.796  28.478  26.762  1.00  0.00     0.002 A 
ATOM     20  C   UNL A   1      33.117  28.682  24.446  1.00  0.00     0.016 A 
ATOM     21  C   UNL A   1      34.014  28.976  25.481  1.00  0.00     0.001 A 
BRANCH  18  22
ATOM     22  C   UNL A   1      31.001  27.609  23.611  1.00  0.00     0.250 C 
ATOM     23  N   UNL A   1      31.398  27.690  22.306  1.00  0.00    -0.366 N 
ATOM     24  O   UNL A   1      29.828  27.374  23.869  1.00  0.00    -0.269 OA
ATOM     25  H   UNL A   1      32.339  27.878  22.088  1.00  0.00     0.159 HD
ATOM     26  H   UNL A   1      30.742  27.558  21.582  1.00  0.00     0.159 HD
ENDBRANCH  18  22
ENDBRANCH  14  16
ENDBRANCH  11  12
ENDBRANCH   4   7
ENDBRANCH   2   3
ENDBRANCH   1   2
BRANCH   1  27
ATOM     27  C   UNL A   1      36.857  23.175  25.718  1.00  0.00     0.118 C 
BRANCH  27  28
ATOM     28  N   UNL A   1      38.090  22.419  25.926  1.00  0.00    -0.352 N 
ATOM     29  C   UNL A   1      39.308  22.837  26.410  1.00  0.00     0.251 C 
ATOM     30  H   UNL A   1      38.042  21.466  25.682  1.00  0.00     0.163 HD
ATOM     31  O   UNL A   1      40.275  22.083  26.376  1.00  0.00    -0.269 OA
BRANCH  29  32
ATOM     32  C   UNL A   1      39.443  24.210  26.935  1.00  0.00     0.039 A 
ATOM     33  C   UNL A   1      39.056  24.486  28.246  1.00  0.00     0.014 A 
ATOM     34  C   UNL A   1      40.027  25.203  26.148  1.00  0.00     0.014 A 
ATOM     35  C   UNL A   1      39.353  25.734  28.797  1.00  0.00     0.010 A 
ATOM     36  C   UNL A   1      40.447  26.384  26.740  1.00  0.00     0.010 A 
ATOM     37  C   UNL A   1      40.103  26.672  28.067  1.00  0.00    -0.014 A 
BRANCH  37  38
ATOM     38  C   UNL A   1      40.536  27.961  28.664  1.00  0.00     0.031 A 
ATOM     39  C   UNL A   1      41.934  28.106  29.206  1.00  0.00     0.074 A 
ATOM     40  C   UNL A   1      39.651  28.968  28.796  1.00  0.00     0.049 A 
ATOM     41  N   UNL A   1      42.482  29.129  29.809  1.00  0.00    -0.248 NA
ATOM     42  C   UNL A   1      42.821  26.935  29.091  1.00  0.00     0.031 C 
ATOM     43  C   UNL A   1      38.246  28.926  28.380  1.00  0.00     0.029 A 
ATOM     44  N   UNL A   1      39.799  30.226  29.325  1.00  0.00    -0.354 N 
ATOM     45  C   UNL A   1      43.759  28.713  30.169  1.00  0.00     0.074 A 
ATOM     46  C   UNL A   1      43.880  27.328  29.780  1.00  0.00     0.031 C 
ATOM     47  C   UNL A   1      37.675  30.114  28.632  1.00  0.00     0.029 A 
ATOM     48  C   UNL A   1      38.655  30.987  29.271  1.00  0.00     0.049 A 
ATOM     49  H   UNL A   1      40.645  30.553  29.708  1.00  0.00     0.167 HD
ATOM     50  C   UNL A   1      44.754  29.428  30.748  1.00  0.00     0.031 A 
ATOM     51  C   UNL A   1      38.416  32.245  29.690  1.00  0.00     0.031 A 
ATOM     52  C   UNL A   1      44.630  30.811  31.120  1.00  0.00     0.049 A 
ATOM     53  C   UNL A   1      39.536  33.028  30.314  1.00  0.00     0.074 A 
ATOM     54  C   UNL A   1      45.597  31.652  31.637  1.00  0.00     0.029 A 
ATOM     55  N   UNL A   1      43.461  31.555  31.023  1.00  0.00    -0.354 N 
ATOM     56  N   UNL A   1      40.769  32.650  30.558  1.00  0.00    -0.248 NA
ATOM     57  C   UNL A   1      39.239  34.413  30.706  1.00  0.00     0.031 C 
ATOM     58  C   UNL A   1      44.997  32.884  31.918  1.00  0.00     0.029 A 
ATOM     59  C   UNL A   1      43.674  32.834  31.507  1.00  0.00     0.049 A 
ATOM     60  H   UNL A   1      42.608  31.220  30.665  1.00  0.00     0.167 HD
ATOM     61  C   UNL A   1      41.402  33.757  31.114  1.00  0.00     0.074 A 
ATOM     62  C   UNL A   1      40.420  34.823  31.151  1.00  0.00     0.031 C 
ATOM     63  C   UNL A   1      42.680  33.879  31.553  1.00  0.00     0.031 A 
BRANCH  50  64
ATOM     64  C   UNL A   1      46.050  28.709  31.027  1.00  0.00    -0.014 A 
ATOM     65  C   UNL A   1      47.077  28.645  30.066  1.00  0.00     0.010 A 
ATOM     66  C   UNL A   1      46.245  28.086  32.273  1.00  0.00     0.010 A 
ATOM     67  C   UNL A   1      48.242  27.917  30.320  1.00  0.00     0.020 A 
ATOM     68  C   UNL A   1      47.424  27.389  32.546  1.00  0.00     0.020 A 
ATOM     69  C   UNL A   1      48.405  27.288  31.558  1.00  0.00     0.054 A 
BRANCH  69  70
ATOM     70  S   UNL A   1      49.924  26.343  31.858  1.00  0.00     0.124 S 
ATOM     71  O   UNL A   1      50.653  26.541  30.607  1.00  0.00    -0.237 OA
ATOM     72  O   UNL A   1      50.491  27.011  33.027  1.00  0.00    -0.237 OA
ATOM     73  O   UNL A   1      49.446  24.983  32.091  1.00  0.00    -0.744 OA
ENDBRANCH  69  70
ENDBRANCH  50  64
BRANCH  51  74
ATOM     74  C   UNL A   1      37.061  32.834  29.507  1.00  0.00    -0.014 A 
ATOM     75  C   UNL A   1      36.187  32.977  30.599  1.00  0.00     0.010 A 
ATOM     76  C   UNL A   1      36.660  33.313  28.245  1.00  0.00     0.010 A 
ATOM     77  C   UNL A   1      34.940  33.589  30.434  1.00  0.00     0.020 A 
ATOM     78  C   UNL A   1      35.427  33.951  28.083  1.00  0.00     0.020 A 
ATOM     79  C   UNL A   1      34.573  34.082  29.178  1.00  0.00     0.054 A 
BRANCH  79  80
ATOM     80  S   UNL A   1      32.989  34.953  29.010  1.00  0.00     0.124 S 
ATOM     81  O   UNL A   1      32.464  34.895  30.371  1.00  0.00    -0.237 OA
ATOM     82  O   UNL A   1      33.407  36.275  28.548  1.00  0.00    -0.237 OA
ATOM     83  O   UNL A   1      32.264  34.155  28.023  1.00  0.00    -0.744 OA
ENDBRANCH  79  80
ENDBRANCH  51  74
BRANCH  63  84
ATOM     84  C   UNL A   1      43.101  35.220  32.093  1.00  0.00    -0.014 A 
ATOM     85  C   UNL A   1      43.751  36.166  31.280  1.00  0.00     0.010 A 
ATOM     86  C   UNL A   1      42.790  35.559  33.423  1.00  0.00     0.010 A 
ATOM     87  C   UNL A   1      44.114  37.412  31.797  1.00  0.00     0.020 A 
ATOM     88  C   UNL A   1      43.121  36.817  33.934  1.00  0.00     0.020 A 
ATOM     89  C   UNL A   1      43.796  37.729  33.121  1.00  0.00     0.054 A 
BRANCH  89  90
ATOM     90  S   UNL A   1      44.242  39.368  33.757  1.00  0.00     0.124 S 
ATOM     91  O   UNL A   1      42.957  40.062  33.732  1.00  0.00    -0.237 OA
ATOM     92  O   UNL A   1      44.766  39.064  35.086  1.00  0.00    -0.237 OA
ATOM     93  O   UNL A   1      45.231  39.854  32.799  1.00  0.00    -0.744 OA
ENDBRANCH  89  90
ENDBRANCH  63  84
ENDBRANCH  37  38
ENDBRANCH  29  32
ENDBRANCH  27  28
ENDBRANCH   1  27
TORSDOF 16
ENDMDL
MODEL 3
REMARK VINA RESULT:     -11.1      4.512     10.382
REMARK SMILES CC1(C)[C@H](C(=O)Nc2ccccc2C(N)=O)[C@@H]1C(=O)NCCCNC(=O)c1ccc(-c2c3nc(c(-c4ccc(S(=O)(=O)[O-])cc4)c4ccc([nH]4)c(-c4ccc(S(=O)(=O)[O-])cc4)c4nc(c(-c5ccc(S(=O)(=O)[O-])cc5)c5ccc2[nH]5)C=C4)C=C3)cc1
REMARK SMILES IDX 22 1 21 2 20 3 18 4 19 5 17 7 1 8 2 9 3 10 4 11 5 12 6 13
REMARK SMILES IDX 7 14 8 16 9 17 13 18 10 19 12 20 11 21 14 22 15 23 16 24
REMARK SMILES IDX 23 27 24 28 25 29 26 31 27 32 28 33 86 34 29 35 85 36 30 37
REMARK SMILES IDX 31 38 32 39 79 40 33 41 84 42 78 43 80 44 34 45 83 46 77 47
REMARK SMILES IDX 76 48 35 50 65 51 46 52 64 53 47 54 50 55 63 56 81 57 48 58
REMARK SMILES IDX 49 59 62 61 82 62 51 63 36 64 37 65 45 66 38 67 44 68 39 69
REMARK SMILES IDX 40 70 41 71 42 72 43 73 66 74 67 75 75 76 68 77 74 78 69 79
REMARK SMILES IDX 70 80 71 81 72 82 73 83 52 84 53 85 61 86 54 87 60 88 55 89
REMARK SMILES IDX 56 90 57 91 58 92 59 93
REMARK H PARENT 20 6 7 15 15 25 15 26 24 30 80 49 50 60
REMARK Flexibility Score: inf
ROOT
ATOM      1  C   UNL A   1      37.741  22.846  25.748  1.00  0.00     0.042 C 
ENDROOT
BRANCH   1   2
ATOM      2  C   UNL A   1      36.415  23.182  25.104  1.00  0.00     0.117 C 
BRANCH   2   3
ATOM      3  N   UNL A   1      35.780  24.316  25.736  1.00  0.00    -0.356 N 
ATOM      4  C   UNL A   1      34.476  24.695  25.685  1.00  0.00     0.224 C 
ATOM      5  O   UNL A   1      34.175  25.819  26.071  1.00  0.00    -0.275 OA
ATOM      6  H   UNL A   1      36.371  24.889  26.276  1.00  0.00     0.163 HD
BRANCH   4   7
ATOM      7  C   UNL A   1      33.442  23.776  25.130  1.00  0.00     0.098 C 
ATOM      8  C   UNL A   1      32.413  23.134  22.797  1.00  0.00     0.013 C 
ATOM      9  C   UNL A   1      32.724  24.204  23.836  1.00  0.00    -0.011 C 
ATOM     10  C   UNL A   1      33.243  25.455  23.183  1.00  0.00     0.013 C 
ATOM     11  C   UNL A   1      31.938  24.017  25.117  1.00  0.00     0.098 C 
BRANCH  11  12
ATOM     12  C   UNL A   1      31.269  24.761  26.216  1.00  0.00     0.228 C 
ATOM     13  O   UNL A   1      31.162  24.153  27.286  1.00  0.00    -0.274 OA
ATOM     14  N   UNL A   1      30.916  26.079  26.252  1.00  0.00    -0.325 N 
ATOM     15  H   UNL A   1      30.742  26.420  27.160  1.00  0.00     0.169 HD
BRANCH  14  16
ATOM     16  C   UNL A   1      30.756  27.027  25.255  1.00  0.00     0.053 A 
ATOM     17  C   UNL A   1      29.891  26.659  24.214  1.00  0.00     0.027 A 
ATOM     18  C   UNL A   1      31.414  28.264  25.226  1.00  0.00     0.063 A 
ATOM     19  C   UNL A   1      29.544  27.581  23.234  1.00  0.00     0.002 A 
ATOM     20  C   UNL A   1      31.070  29.182  24.221  1.00  0.00     0.016 A 
ATOM     21  C   UNL A   1      30.111  28.853  23.255  1.00  0.00     0.001 A 
BRANCH  18  22
ATOM     22  C   UNL A   1      32.526  28.558  26.175  1.00  0.00     0.250 C 
ATOM     23  N   UNL A   1      33.676  29.095  25.667  1.00  0.00    -0.366 N 
ATOM     24  O   UNL A   1      32.447  28.334  27.376  1.00  0.00    -0.269 OA
ATOM     25  H   UNL A   1      33.750  29.279  24.702  1.00  0.00     0.159 HD
ATOM     26  H   UNL A   1      34.431  29.299  26.266  1.00  0.00     0.159 HD
ENDBRANCH  18  22
ENDBRANCH  14  16
ENDBRANCH  11  12
ENDBRANCH   4   7
ENDBRANCH   2   3
ENDBRANCH   1   2
BRANCH   1  27
ATOM     27  C   UNL A   1      38.498  24.068  26.240  1.00  0.00     0.118 C 
BRANCH  27  28
ATOM     28  N   UNL A   1      39.946  23.966  26.077  1.00  0.00    -0.352 N 
ATOM     29  C   UNL A   1      40.947  24.771  26.571  1.00  0.00     0.251 C 
ATOM     30  H   UNL A   1      40.252  23.207  25.530  1.00  0.00     0.163 HD
ATOM     31  O   UNL A   1      42.105  24.607  26.203  1.00  0.00    -0.269 OA
BRANCH  29  32
ATOM     32  C   UNL A   1      40.603  25.851  27.516  1.00  0.00     0.039 A 
ATOM     33  C   UNL A   1      39.752  25.581  28.588  1.00  0.00     0.014 A 
ATOM     34  C   UNL A   1      41.190  27.109  27.382  1.00  0.00     0.014 A 
ATOM     35  C   UNL A   1      39.574  26.548  29.579  1.00  0.00     0.010 A 
ATOM     36  C   UNL A   1      41.126  28.009  28.435  1.00  0.00     0.010 A 
ATOM     37  C   UNL A   1      40.306  27.748  29.540  1.00  0.00    -0.014 A 
BRANCH  37  38
ATOM     38  C   UNL A   1      40.229  28.745  30.637  1.00  0.00     0.031 A 
ATOM     39  C   UNL A   1      41.122  28.607  31.842  1.00  0.00     0.074 A 
ATOM     40  C   UNL A   1      39.302  29.722  30.590  1.00  0.00     0.049 A 
ATOM     41  N   UNL A   1      41.169  29.343  32.923  1.00  0.00    -0.248 NA
ATOM     42  C   UNL A   1      42.059  27.470  31.854  1.00  0.00     0.031 C 
ATOM     43  C   UNL A   1      38.328  29.918  29.513  1.00  0.00     0.029 A 
ATOM     44  N   UNL A   1      39.022  30.733  31.475  1.00  0.00    -0.354 N 
ATOM     45  C   UNL A   1      42.112  28.740  33.748  1.00  0.00     0.074 A 
ATOM     46  C   UNL A   1      42.562  27.544  33.075  1.00  0.00     0.031 C 
ATOM     47  C   UNL A   1      37.588  31.005  29.781  1.00  0.00     0.029 A 
ATOM     48  C   UNL A   1      37.998  31.555  31.068  1.00  0.00     0.049 A 
ATOM     49  H   UNL A   1      39.509  30.858  32.322  1.00  0.00     0.167 HD
ATOM     50  C   UNL A   1      42.583  29.159  34.947  1.00  0.00     0.031 A 
ATOM     51  C   UNL A   1      37.446  32.630  31.664  1.00  0.00     0.031 A 
ATOM     52  C   UNL A   1      42.139  30.359  35.603  1.00  0.00     0.049 A 
ATOM     53  C   UNL A   1      37.993  33.090  32.986  1.00  0.00     0.074 A 
ATOM     54  C   UNL A   1      42.606  30.918  36.779  1.00  0.00     0.029 A 
ATOM     55  N   UNL A   1      41.118  31.179  35.145  1.00  0.00    -0.354 N 
ATOM     56  N   UNL A   1      38.955  32.564  33.707  1.00  0.00    -0.248 NA
ATOM     57  C   UNL A   1      37.392  34.298  33.568  1.00  0.00     0.031 C 
ATOM     58  C   UNL A   1      41.821  32.039  37.067  1.00  0.00     0.029 A 
ATOM     59  C   UNL A   1      40.914  32.221  36.034  1.00  0.00     0.049 A 
ATOM     60  H   UNL A   1      40.612  31.040  34.312  1.00  0.00     0.167 HD
ATOM     61  C   UNL A   1      39.089  33.387  34.820  1.00  0.00     0.074 A 
ATOM     62  C   UNL A   1      38.122  34.457  34.664  1.00  0.00     0.031 C 
ATOM     63  C   UNL A   1      39.935  33.269  35.873  1.00  0.00     0.031 A 
BRANCH  50  64
ATOM     64  C   UNL A   1      43.616  28.294  35.625  1.00  0.00    -0.014 A 
ATOM     65  C   UNL A   1      44.990  28.442  35.355  1.00  0.00     0.010 A 
ATOM     66  C   UNL A   1      43.206  27.316  36.548  1.00  0.00     0.010 A 
ATOM     67  C   UNL A   1      45.925  27.586  35.943  1.00  0.00     0.020 A 
ATOM     68  C   UNL A   1      44.141  26.482  37.168  1.00  0.00     0.020 A 
ATOM     69  C   UNL A   1      45.492  26.606  36.841  1.00  0.00     0.054 A 
BRANCH  69  70
ATOM     70  S   UNL A   1      46.726  25.503  37.583  1.00  0.00     0.124 S 
ATOM     71  O   UNL A   1      47.818  26.428  37.877  1.00  0.00    -0.237 OA
ATOM     72  O   UNL A   1      46.022  24.974  38.749  1.00  0.00    -0.237 OA
ATOM     73  O   UNL A   1      47.001  24.530  36.529  1.00  0.00    -0.744 OA
ENDBRANCH  69  70
ENDBRANCH  50  64
BRANCH  51  74
ATOM     74  C   UNL A   1      36.326  33.347  30.992  1.00  0.00    -0.014 A 
ATOM     75  C   UNL A   1      35.146  33.652  31.693  1.00  0.00     0.010 A 
ATOM     76  C   UNL A   1      36.461  33.783  29.661  1.00  0.00     0.010 A 
ATOM     77  C   UNL A   1      34.124  34.380  31.077  1.00  0.00     0.020 A 
ATOM     78  C   UNL A   1      35.453  34.536  29.051  1.00  0.00     0.020 A 
ATOM     79  C   UNL A   1      34.289  34.827  29.762  1.00  0.00     0.054 A 
BRANCH  79  80
ATOM     80  S   UNL A   1      32.986  35.848  29.016  1.00  0.00     0.124 S 
ATOM     81  O   UNL A   1      32.340  34.903  28.112  1.00  0.00    -0.237 OA
ATOM     82  O   UNL A   1      32.200  36.250  30.180  1.00  0.00    -0.237 OA
ATOM     83  O   UNL A   1      33.728  36.929  28.370  1.00  0.00    -0.744 OA
ENDBRANCH  79  80
ENDBRANCH  51  74
BRANCH  63  84
ATOM     84  C   UNL A   1      39.872  34.334  36.935  1.00  0.00    -0.014 A 
ATOM     85  C   UNL A   1      40.556  35.555  36.789  1.00  0.00     0.010 A 
ATOM     86  C   UNL A   1      39.068  34.132  38.073  1.00  0.00     0.010 A 
ATOM     87  C   UNL A   1      40.466  36.538  37.777  1.00  0.00     0.020 A 
ATOM     88  C   UNL A   1      38.949  35.126  39.047  1.00  0.00     0.020 A 
ATOM     89  C   UNL A   1      39.663  36.317  38.900  1.00  0.00     0.054 A 
BRANCH  89  90
ATOM     90  S   UNL A   1      39.531  37.624  40.150  1.00  0.00     0.124 S 
ATOM     91  O   UNL A   1      39.052  36.884  41.314  1.00  0.00    -0.237 OA
ATOM     92  O   UNL A   1      40.903  38.119  40.241  1.00  0.00    -0.237 OA
ATOM     93  O   UNL A   1      38.574  38.563  39.571  1.00  0.00    -0.744 OA
ENDBRANCH  89  90
ENDBRANCH  63  84
ENDBRANCH  37  38
ENDBRANCH  29  32
ENDBRANCH  27  28
ENDBRANCH   1  27
TORSDOF 16
ENDMDL
