MODEL 1
REMARK VINA RESULT:     -11.3      0.000      0.000
REMARK SMILES Cc1nc(SCc2ccccc2)[nH]c(=O)c1CCC(=O)NCCCNC(=O)c1ccc(-c2c3nc(c(-c4ccc(S(=O)(=O)[O-])cc4)c4ccc([nH]4)c(-c4ccc(S(=O)(=O)[O-])cc4)c4nc(c(-c5ccc(S(=O)(=O)[O-])cc5)c5ccc2[nH]5)C=C4)C=C3)cc1
REMARK SMILES IDX 22 1 21 2 19 3 20 4 18 6 17 7 16 8 1 9 2 10 3 11 4 12 14 13
REMARK SMILES IDX 13 14 15 15 5 17 6 18 7 19 8 20 12 21 9 22 11 23 10 24 23 25
REMARK SMILES IDX 24 26 25 27 26 28 27 30 28 31 29 32 87 33 30 34 86 35 31 36
REMARK SMILES IDX 32 37 33 38 80 39 34 40 85 41 79 42 81 43 35 44 84 45 78 46
REMARK SMILES IDX 77 47 36 49 66 50 47 51 65 52 48 53 51 54 64 55 82 56 49 57
REMARK SMILES IDX 50 58 63 60 83 61 52 62 37 63 38 64 46 65 39 66 45 67 40 68
REMARK SMILES IDX 41 69 42 70 43 71 44 72 67 73 68 74 76 75 69 76 75 77 70 78
REMARK SMILES IDX 71 79 72 80 73 81 74 82 53 83 54 84 62 85 55 86 61 87 56 88
REMARK SMILES IDX 57 89 58 90 59 91 60 92
REMARK H PARENT 21 5 13 16 25 29 81 48 51 59
REMARK Flexibility Score: inf
ROOT
ATOM      1  C   UNL A   1      34.539  30.594  27.373  1.00  0.00     0.117 C 
ENDROOT
BRANCH   1   2
ATOM      2  N   UNL A   1      33.403  29.762  27.758  1.00  0.00    -0.356 N 
ATOM      3  C   UNL A   1      32.328  29.314  27.053  1.00  0.00     0.220 C 
ATOM      4  O   UNL A   1      31.456  28.686  27.660  1.00  0.00    -0.275 OA
ATOM      5  H   UNL A   1      33.417  29.471  28.698  1.00  0.00     0.163 HD
BRANCH   3   6
ATOM      6  C   UNL A   1      32.217  29.517  25.555  1.00  0.00     0.105 C 
BRANCH   6   7
ATOM      7  C   UNL A   1      30.835  29.135  24.996  1.00  0.00     0.053 C 
BRANCH   7   8
ATOM      8  C   UNL A   1      30.944  27.960  24.060  1.00  0.00     0.039 A 
ATOM      9  C   UNL A   1      30.489  26.167  25.750  1.00  0.00     0.067 C 
ATOM     10  C   UNL A   1      30.870  26.650  24.375  1.00  0.00     0.049 A 
ATOM     11  N   UNL A   1      31.315  25.648  23.537  1.00  0.00    -0.229 NA
ATOM     12  C   UNL A   1      31.853  26.006  22.422  1.00  0.00     0.168 A 
ATOM     13  C   UNL A   1      31.227  28.275  22.641  1.00  0.00     0.254 A 
ATOM     14  N   UNL A   1      31.787  27.263  21.931  1.00  0.00    -0.301 N 
ATOM     15  O   UNL A   1      31.032  29.386  22.171  1.00  0.00    -0.269 OA
ATOM     16  H   UNL A   1      32.155  27.449  21.035  1.00  0.00     0.172 HD
BRANCH  12  17
ATOM     17  S   UNL A   1      32.817  24.982  21.413  1.00  0.00    -0.083 SA
BRANCH  17  18
ATOM     18  C   UNL A   1      33.272  23.628  22.514  1.00  0.00     0.113 C 
BRANCH  18  19
ATOM     19  C   UNL A   1      34.498  23.779  23.399  1.00  0.00    -0.038 A 
ATOM     20  C   UNL A   1      35.640  23.009  23.118  1.00  0.00     0.004 A 
ATOM     21  C   UNL A   1      34.499  24.514  24.594  1.00  0.00     0.004 A 
ATOM     22  C   UNL A   1      36.714  22.948  24.014  1.00  0.00     0.000 A 
ATOM     23  C   UNL A   1      35.564  24.446  25.497  1.00  0.00     0.000 A 
ATOM     24  C   UNL A   1      36.667  23.652  25.213  1.00  0.00     0.000 A 
ENDBRANCH  18  19
ENDBRANCH  17  18
ENDBRANCH  12  17
ENDBRANCH   7   8
ENDBRANCH   6   7
ENDBRANCH   3   6
ENDBRANCH   1   2
BRANCH   1  25
ATOM     25  C   UNL A   1      34.505  31.951  28.099  1.00  0.00     0.042 C 
BRANCH  25  26
ATOM     26  C   UNL A   1      35.695  32.193  29.019  1.00  0.00     0.118 C 
BRANCH  26  27
ATOM     27  N   UNL A   1      35.693  31.312  30.173  1.00  0.00    -0.352 N 
ATOM     28  C   UNL A   1      36.510  30.326  30.663  1.00  0.00     0.251 C 
ATOM     29  H   UNL A   1      34.909  31.460  30.748  1.00  0.00     0.163 HD
ATOM     30  O   UNL A   1      36.090  29.765  31.681  1.00  0.00    -0.269 OA
BRANCH  28  31
ATOM     31  C   UNL A   1      37.820  29.874  30.093  1.00  0.00     0.039 A 
ATOM     32  C   UNL A   1      38.794  29.456  31.023  1.00  0.00     0.014 A 
ATOM     33  C   UNL A   1      38.190  29.887  28.748  1.00  0.00     0.014 A 
ATOM     34  C   UNL A   1      40.091  29.093  30.627  1.00  0.00     0.010 A 
ATOM     35  C   UNL A   1      39.473  29.474  28.343  1.00  0.00     0.010 A 
ATOM     36  C   UNL A   1      40.449  29.091  29.275  1.00  0.00    -0.014 A 
BRANCH  36  37
ATOM     37  C   UNL A   1      41.825  28.715  28.831  1.00  0.00     0.031 A 
ATOM     38  C   UNL A   1      42.927  29.749  28.772  1.00  0.00     0.074 A 
ATOM     39  C   UNL A   1      42.090  27.453  28.435  1.00  0.00     0.049 A 
ATOM     40  N   UNL A   1      44.157  29.627  28.335  1.00  0.00    -0.248 NA
ATOM     41  C   UNL A   1      42.594  31.102  29.243  1.00  0.00     0.031 C 
ATOM     42  C   UNL A   1      41.125  26.352  28.411  1.00  0.00     0.029 A 
ATOM     43  N   UNL A   1      43.251  26.883  27.970  1.00  0.00    -0.354 N 
ATOM     44  C   UNL A   1      44.731  30.891  28.442  1.00  0.00     0.074 A 
ATOM     45  C   UNL A   1      43.701  31.772  28.955  1.00  0.00     0.031 C 
ATOM     46  C   UNL A   1      41.738  25.237  27.980  1.00  0.00     0.029 A 
ATOM     47  C   UNL A   1      43.127  25.549  27.656  1.00  0.00     0.049 A 
ATOM     48  H   UNL A   1      44.093  27.383  27.870  1.00  0.00     0.167 HD
ATOM     49  C   UNL A   1      45.996  31.286  28.158  1.00  0.00     0.031 A 
ATOM     50  C   UNL A   1      44.022  24.672  27.158  1.00  0.00     0.031 A 
ATOM     51  C   UNL A   1      47.035  30.408  27.684  1.00  0.00     0.049 A 
ATOM     52  C   UNL A   1      45.427  25.125  26.869  1.00  0.00     0.074 A 
ATOM     53  C   UNL A   1      48.364  30.705  27.430  1.00  0.00     0.029 A 
ATOM     54  N   UNL A   1      46.868  29.061  27.401  1.00  0.00    -0.354 N 
ATOM     55  N   UNL A   1      45.955  26.315  27.019  1.00  0.00    -0.248 NA
ATOM     56  C   UNL A   1      46.358  24.112  26.352  1.00  0.00     0.031 C 
ATOM     57  C   UNL A   1      48.991  29.546  26.956  1.00  0.00     0.029 A 
ATOM     58  C   UNL A   1      48.064  28.516  26.962  1.00  0.00     0.049 A 
ATOM     59  H   UNL A   1      46.024  28.564  27.499  1.00  0.00     0.167 HD
ATOM     60  C   UNL A   1      47.286  26.189  26.633  1.00  0.00     0.074 A 
ATOM     61  C   UNL A   1      47.486  24.804  26.262  1.00  0.00     0.031 C 
ATOM     62  C   UNL A   1      48.254  27.137  26.593  1.00  0.00     0.031 A 
BRANCH  49  63
ATOM     63  C   UNL A   1      46.333  32.744  28.349  1.00  0.00    -0.014 A 
ATOM     64  C   UNL A   1      46.495  33.604  27.248  1.00  0.00     0.010 A 
ATOM     65  C   UNL A   1      46.451  33.271  29.649  1.00  0.00     0.010 A 
ATOM     66  C   UNL A   1      46.821  34.950  27.441  1.00  0.00     0.020 A 
ATOM     67  C   UNL A   1      46.748  34.624  29.847  1.00  0.00     0.020 A 
ATOM     68  C   UNL A   1      46.953  35.449  28.740  1.00  0.00     0.054 A 
BRANCH  68  69
ATOM     69  S   UNL A   1      47.370  37.202  28.961  1.00  0.00     0.124 S 
ATOM     70  O   UNL A   1      47.782  37.236  30.363  1.00  0.00    -0.237 OA
ATOM     71  O   UNL A   1      48.441  37.403  27.988  1.00  0.00    -0.237 OA
ATOM     72  O   UNL A   1      46.121  37.896  28.662  1.00  0.00    -0.744 OA
ENDBRANCH  68  69
ENDBRANCH  49  63
BRANCH  50  73
ATOM     73  C   UNL A   1      43.617  23.259  26.915  1.00  0.00    -0.014 A 
ATOM     74  C   UNL A   1      43.068  22.488  27.955  1.00  0.00     0.010 A 
ATOM     75  C   UNL A   1      43.765  22.682  25.641  1.00  0.00     0.010 A 
ATOM     76  C   UNL A   1      42.684  21.163  27.729  1.00  0.00     0.020 A 
ATOM     77  C   UNL A   1      43.357  21.366  25.403  1.00  0.00     0.020 A 
ATOM     78  C   UNL A   1      42.828  20.612  26.452  1.00  0.00     0.054 A 
BRANCH  78  79
ATOM     79  S   UNL A   1      42.262  18.911  26.166  1.00  0.00     0.124 S 
ATOM     80  O   UNL A   1      40.870  19.116  25.774  1.00  0.00    -0.237 OA
ATOM     81  O   UNL A   1      43.157  18.454  25.107  1.00  0.00    -0.237 OA
ATOM     82  O   UNL A   1      42.461  18.264  27.460  1.00  0.00    -0.744 OA
ENDBRANCH  78  79
ENDBRANCH  50  73
BRANCH  62  83
ATOM     83  C   UNL A   1      49.628  26.706  26.154  1.00  0.00    -0.014 A 
ATOM     84  C   UNL A   1      50.073  26.919  24.837  1.00  0.00     0.010 A 
ATOM     85  C   UNL A   1      50.503  26.118  27.086  1.00  0.00     0.010 A 
ATOM     86  C   UNL A   1      51.356  26.521  24.452  1.00  0.00     0.020 A 
ATOM     87  C   UNL A   1      51.795  25.741  26.711  1.00  0.00     0.020 A 
ATOM     88  C   UNL A   1      52.209  25.933  25.392  1.00  0.00     0.054 A 
BRANCH  88  89
ATOM     89  S   UNL A   1      53.883  25.457  24.877  1.00  0.00     0.124 S 
ATOM     90  O   UNL A   1      53.978  26.065  23.553  1.00  0.00    -0.237 OA
ATOM     91  O   UNL A   1      54.722  26.063  25.909  1.00  0.00    -0.237 OA
ATOM     92  O   UNL A   1      53.847  23.996  24.893  1.00  0.00    -0.744 OA
ENDBRANCH  88  89
ENDBRANCH  62  83
ENDBRANCH  36  37
ENDBRANCH  28  31
ENDBRANCH  26  27
ENDBRANCH  25  26
ENDBRANCH   1  25
TORSDOF 18
ENDMDL
MODEL 2
REMARK VINA RESULT:     -11.2      6.269     12.268
REMARK SMILES Cc1nc(SCc2ccccc2)[nH]c(=O)c1CCC(=O)NCCCNC(=O)c1ccc(-c2c3nc(c(-c4ccc(S(=O)(=O)[O-])cc4)c4ccc([nH]4)c(-c4ccc(S(=O)(=O)[O-])cc4)c4nc(c(-c5ccc(S(=O)(=O)[O-])cc5)c5ccc2[nH]5)C=C4)C=C3)cc1
REMARK SMILES IDX 22 1 21 2 19 3 20 4 18 6 17 7 16 8 1 9 2 10 3 11 4 12 14 13
REMARK SMILES IDX 13 14 15 15 5 17 6 18 7 19 8 20 12 21 9 22 11 23 10 24 23 25
REMARK SMILES IDX 24 26 25 27 26 28 27 30 28 31 29 32 87 33 30 34 86 35 31 36
REMARK SMILES IDX 32 37 33 38 80 39 34 40 85 41 79 42 81 43 35 44 84 45 78 46
REMARK SMILES IDX 77 47 36 49 66 50 47 51 65 52 48 53 51 54 64 55 82 56 49 57
REMARK SMILES IDX 50 58 63 60 83 61 52 62 37 63 38 64 46 65 39 66 45 67 40 68
REMARK SMILES IDX 41 69 42 70 43 71 44 72 67 73 68 74 76 75 69 76 75 77 70 78
REMARK SMILES IDX 71 79 72 80 73 81 74 82 53 83 54 84 62 85 55 86 61 87 56 88
REMARK SMILES IDX 57 89 58 90 59 91 60 92
REMARK H PARENT 21 5 13 16 25 29 81 48 51 59
REMARK Flexibility Score: inf
ROOT
ATOM      1  C   UNL A   1      39.586  22.540  26.543  1.00  0.00     0.117 C 
ENDROOT
BRANCH   1   2
ATOM      2  N   UNL A   1      39.194  21.295  25.889  1.00  0.00    -0.356 N 
ATOM      3  C   UNL A   1      38.068  20.943  25.210  1.00  0.00     0.220 C 
ATOM      4  O   UNL A   1      37.960  19.775  24.828  1.00  0.00    -0.275 OA
ATOM      5  H   UNL A   1      39.867  20.579  25.950  1.00  0.00     0.163 HD
BRANCH   3   6
ATOM      6  C   UNL A   1      36.995  21.958  24.868  1.00  0.00     0.105 C 
BRANCH   6   7
ATOM      7  C   UNL A   1      35.620  21.316  24.608  1.00  0.00     0.053 C 
BRANCH   7   8
ATOM      8  C   UNL A   1      34.536  22.361  24.609  1.00  0.00     0.039 A 
ATOM      9  C   UNL A   1      33.817  22.066  26.992  1.00  0.00     0.067 C 
ATOM     10  C   UNL A   1      33.685  22.659  25.613  1.00  0.00     0.049 A 
ATOM     11  N   UNL A   1      32.519  23.373  25.425  1.00  0.00    -0.229 NA
ATOM     12  C   UNL A   1      32.235  23.733  24.221  1.00  0.00     0.168 A 
ATOM     13  C   UNL A   1      34.338  23.106  23.344  1.00  0.00     0.254 A 
ATOM     14  N   UNL A   1      33.110  23.664  23.194  1.00  0.00    -0.301 N 
ATOM     15  O   UNL A   1      35.197  23.151  22.477  1.00  0.00    -0.269 OA
ATOM     16  H   UNL A   1      32.851  24.028  22.315  1.00  0.00     0.172 HD
BRANCH  12  17
ATOM     17  S   UNL A   1      30.679  24.275  23.689  1.00  0.00    -0.083 SA
BRANCH  17  18
ATOM     18  C   UNL A   1      30.244  25.535  24.904  1.00  0.00     0.113 C 
BRANCH  18  19
ATOM     19  C   UNL A   1      30.141  26.984  24.456  1.00  0.00    -0.038 A 
ATOM     20  C   UNL A   1      29.185  27.332  23.487  1.00  0.00     0.004 A 
ATOM     21  C   UNL A   1      31.068  27.971  24.825  1.00  0.00     0.004 A 
ATOM     22  C   UNL A   1      29.185  28.596  22.886  1.00  0.00     0.000 A 
ATOM     23  C   UNL A   1      31.081  29.229  24.218  1.00  0.00     0.000 A 
ATOM     24  C   UNL A   1      30.146  29.539  23.239  1.00  0.00     0.000 A 
ENDBRANCH  18  19
ENDBRANCH  17  18
ENDBRANCH  12  17
ENDBRANCH   7   8
ENDBRANCH   6   7
ENDBRANCH   3   6
ENDBRANCH   1   2
BRANCH   1  25
ATOM     25  C   UNL A   1      40.705  22.299  27.571  1.00  0.00     0.042 C 
BRANCH  25  26
ATOM     26  C   UNL A   1      42.030  22.961  27.213  1.00  0.00     0.118 C 
BRANCH  26  27
ATOM     27  N   UNL A   1      41.892  23.942  26.151  1.00  0.00    -0.352 N 
ATOM     28  C   UNL A   1      41.547  25.267  26.070  1.00  0.00     0.251 C 
ATOM     29  H   UNL A   1      42.098  23.560  25.268  1.00  0.00     0.163 HD
ATOM     30  O   UNL A   1      41.492  25.717  24.920  1.00  0.00    -0.269 OA
BRANCH  28  31
ATOM     31  C   UNL A   1      41.233  26.189  27.208  1.00  0.00     0.039 A 
ATOM     32  C   UNL A   1      42.002  27.367  27.287  1.00  0.00     0.014 A 
ATOM     33  C   UNL A   1      40.305  25.965  28.226  1.00  0.00     0.014 A 
ATOM     34  C   UNL A   1      41.868  28.271  28.353  1.00  0.00     0.010 A 
ATOM     35  C   UNL A   1      40.133  26.895  29.269  1.00  0.00     0.010 A 
ATOM     36  C   UNL A   1      40.924  28.049  29.361  1.00  0.00    -0.014 A 
BRANCH  36  37
ATOM     37  C   UNL A   1      40.769  28.994  30.508  1.00  0.00     0.031 A 
ATOM     38  C   UNL A   1      41.660  28.883  31.725  1.00  0.00     0.074 A 
ATOM     39  C   UNL A   1      39.800  29.933  30.489  1.00  0.00     0.049 A 
ATOM     40  N   UNL A   1      41.619  29.558  32.848  1.00  0.00    -0.248 NA
ATOM     41  C   UNL A   1      42.719  27.863  31.682  1.00  0.00     0.031 C 
ATOM     42  C   UNL A   1      38.847  30.146  29.398  1.00  0.00     0.029 A 
ATOM     43  N   UNL A   1      39.452  30.882  31.421  1.00  0.00    -0.354 N 
ATOM     44  C   UNL A   1      42.617  29.021  33.657  1.00  0.00     0.074 A 
ATOM     45  C   UNL A   1      43.224  27.942  32.905  1.00  0.00     0.031 C 
ATOM     46  C   UNL A   1      38.041  31.174  29.711  1.00  0.00     0.029 A 
ATOM     47  C   UNL A   1      38.388  31.668  31.040  1.00  0.00     0.049 A 
ATOM     48  H   UNL A   1      39.919  30.989  32.281  1.00  0.00     0.167 HD
ATOM     49  C   UNL A   1      43.007  29.395  34.901  1.00  0.00     0.031 A 
ATOM     50  C   UNL A   1      37.755  32.670  31.684  1.00  0.00     0.031 A 
ATOM     51  C   UNL A   1      42.433  30.491  35.638  1.00  0.00     0.049 A 
ATOM     52  C   UNL A   1      38.217  33.082  33.055  1.00  0.00     0.074 A 
ATOM     53  C   UNL A   1      42.806  30.983  36.878  1.00  0.00     0.029 A 
ATOM     54  N   UNL A   1      41.373  31.271  35.204  1.00  0.00    -0.354 N 
ATOM     55  N   UNL A   1      39.190  32.586  33.780  1.00  0.00    -0.248 NA
ATOM     56  C   UNL A   1      37.499  34.197  33.689  1.00  0.00     0.031 C 
ATOM     57  C   UNL A   1      41.946  32.037  37.210  1.00  0.00     0.029 A 
ATOM     58  C   UNL A   1      41.069  32.232  36.155  1.00  0.00     0.049 A 
ATOM     59  H   UNL A   1      40.905  31.160  34.345  1.00  0.00     0.167 HD
ATOM     60  C   UNL A   1      39.214  33.342  34.948  1.00  0.00     0.074 A 
ATOM     61  C   UNL A   1      38.172  34.339  34.824  1.00  0.00     0.031 C 
ATOM     62  C   UNL A   1      40.029  33.219  36.024  1.00  0.00     0.031 A 
BRANCH  49  63
ATOM     63  C   UNL A   1      44.113  28.604  35.553  1.00  0.00    -0.014 A 
ATOM     64  C   UNL A   1      45.461  28.981  35.410  1.00  0.00     0.010 A 
ATOM     65  C   UNL A   1      43.799  27.489  36.354  1.00  0.00     0.010 A 
ATOM     66  C   UNL A   1      46.475  28.230  36.009  1.00  0.00     0.020 A 
ATOM     67  C   UNL A   1      44.810  26.751  36.979  1.00  0.00     0.020 A 
ATOM     68  C   UNL A   1      46.143  27.114  36.784  1.00  0.00     0.054 A 
BRANCH  68  69
ATOM     69  S   UNL A   1      47.481  26.160  37.556  1.00  0.00     0.124 S 
ATOM     70  O   UNL A   1      46.743  25.312  38.489  1.00  0.00    -0.237 OA
ATOM     71  O   UNL A   1      48.080  25.467  36.418  1.00  0.00    -0.237 OA
ATOM     72  O   UNL A   1      48.322  27.181  38.174  1.00  0.00    -0.744 OA
ENDBRANCH  68  69
ENDBRANCH  49  63
BRANCH  50  73
ATOM     73  C   UNL A   1      36.617  33.369  31.026  1.00  0.00    -0.014 A 
ATOM     74  C   UNL A   1      35.353  33.404  31.640  1.00  0.00     0.010 A 
ATOM     75  C   UNL A   1      36.794  34.015  29.789  1.00  0.00     0.010 A 
ATOM     76  C   UNL A   1      34.284  34.062  31.025  1.00  0.00     0.020 A 
ATOM     77  C   UNL A   1      35.735  34.697  29.183  1.00  0.00     0.020 A 
ATOM     78  C   UNL A   1      34.483  34.708  29.802  1.00  0.00     0.054 A 
BRANCH  78  79
ATOM     79  S   UNL A   1      33.098  35.612  29.054  1.00  0.00     0.124 S 
ATOM     80  O   UNL A   1      33.789  36.624  28.261  1.00  0.00    -0.237 OA
ATOM     81  O   UNL A   1      32.412  34.570  28.295  1.00  0.00    -0.237 OA
ATOM     82  O   UNL A   1      32.359  36.118  30.209  1.00  0.00    -0.744 OA
ENDBRANCH  78  79
ENDBRANCH  50  73
BRANCH  62  83
ATOM     83  C   UNL A   1      39.845  34.205  37.148  1.00  0.00    -0.014 A 
ATOM     84  C   UNL A   1      40.487  35.456  37.132  1.00  0.00     0.010 A 
ATOM     85  C   UNL A   1      38.980  33.892  38.213  1.00  0.00     0.010 A 
ATOM     86  C   UNL A   1      40.295  36.361  38.179  1.00  0.00     0.020 A 
ATOM     87  C   UNL A   1      38.767  34.804  39.249  1.00  0.00     0.020 A 
ATOM     88  C   UNL A   1      39.438  36.029  39.232  1.00  0.00     0.054 A 
BRANCH  88  89
ATOM     89  S   UNL A   1      39.176  37.236  40.562  1.00  0.00     0.124 S 
ATOM     90  O   UNL A   1      38.673  36.394  41.643  1.00  0.00    -0.237 OA
ATOM     91  O   UNL A   1      40.514  37.788  40.764  1.00  0.00    -0.237 OA
ATOM     92  O   UNL A   1      38.205  38.170  39.994  1.00  0.00    -0.744 OA
ENDBRANCH  88  89
ENDBRANCH  62  83
ENDBRANCH  36  37
ENDBRANCH  28  31
ENDBRANCH  26  27
ENDBRANCH  25  26
ENDBRANCH   1  25
TORSDOF 18
ENDMDL
MODEL 3
REMARK VINA RESULT:     -11.2      3.504      5.163
REMARK SMILES Cc1nc(SCc2ccccc2)[nH]c(=O)c1CCC(=O)NCCCNC(=O)c1ccc(-c2c3nc(c(-c4ccc(S(=O)(=O)[O-])cc4)c4ccc([nH]4)c(-c4ccc(S(=O)(=O)[O-])cc4)c4nc(c(-c5ccc(S(=O)(=O)[O-])cc5)c5ccc2[nH]5)C=C4)C=C3)cc1
REMARK SMILES IDX 22 1 21 2 19 3 20 4 18 6 17 7 16 8 1 9 2 10 3 11 4 12 14 13
REMARK SMILES IDX 13 14 15 15 5 17 6 18 7 19 8 20 12 21 9 22 11 23 10 24 23 25
REMARK SMILES IDX 24 26 25 27 26 28 27 30 28 31 29 32 87 33 30 34 86 35 31 36
REMARK SMILES IDX 32 37 33 38 80 39 34 40 85 41 79 42 81 43 35 44 84 45 78 46
REMARK SMILES IDX 77 47 36 49 66 50 47 51 65 52 48 53 51 54 64 55 82 56 49 57
REMARK SMILES IDX 50 58 63 60 83 61 52 62 37 63 38 64 46 65 39 66 45 67 40 68
REMARK SMILES IDX 41 69 42 70 43 71 44 72 67 73 68 74 76 75 69 76 75 77 70 78
REMARK SMILES IDX 71 79 72 80 73 81 74 82 53 83 54 84 62 85 55 86 61 87 56 88
REMARK SMILES IDX 57 89 58 90 59 91 60 92
REMARK H PARENT 21 5 13 16 25 29 81 48 51 59
REMARK Flexibility Score: inf
ROOT
ATOM      1  C   UNL A   1      33.302  26.545  25.737  1.00  0.00     0.117 C 
ENDROOT
BRANCH   1   2
ATOM      2  N   UNL A   1      34.259  25.744  24.981  1.00  0.00    -0.356 N 
ATOM      3  C   UNL A   1      34.810  24.523  25.222  1.00  0.00     0.220 C 
ATOM      4  O   UNL A   1      35.675  24.112  24.444  1.00  0.00    -0.275 OA
ATOM      5  H   UNL A   1      34.561  26.163  24.143  1.00  0.00     0.163 HD
BRANCH   3   6
ATOM      6  C   UNL A   1      34.344  23.653  26.371  1.00  0.00     0.105 C 
BRANCH   6   7
ATOM      7  C   UNL A   1      33.422  22.505  25.922  1.00  0.00     0.053 C 
BRANCH   7   8
ATOM      8  C   UNL A   1      32.119  23.044  25.392  1.00  0.00     0.039 A 
ATOM      9  C   UNL A   1      32.541  22.565  22.969  1.00  0.00     0.067 C 
ATOM     10  C   UNL A   1      31.738  23.149  24.102  1.00  0.00     0.049 A 
ATOM     11  N   UNL A   1      30.696  23.954  23.687  1.00  0.00    -0.229 NA
ATOM     12  C   UNL A   1      30.096  24.653  24.588  1.00  0.00     0.168 A 
ATOM     13  C   UNL A   1      31.170  23.576  26.397  1.00  0.00     0.254 A 
ATOM     14  N   UNL A   1      30.264  24.464  25.916  1.00  0.00    -0.301 N 
ATOM     15  O   UNL A   1      31.249  23.286  27.582  1.00  0.00    -0.269 OA
ATOM     16  H   UNL A   1      29.714  24.982  26.549  1.00  0.00     0.172 HD
BRANCH  12  17
ATOM     17  S   UNL A   1      29.052  25.996  24.269  1.00  0.00    -0.083 SA
BRANCH  17  18
ATOM     18  C   UNL A   1      30.190  27.273  23.693  1.00  0.00     0.113 C 
BRANCH  18  19
ATOM     19  C   UNL A   1      29.623  28.526  23.046  1.00  0.00    -0.038 A 
ATOM     20  C   UNL A   1      28.239  28.764  23.117  1.00  0.00     0.004 A 
ATOM     21  C   UNL A   1      30.378  29.376  22.224  1.00  0.00     0.004 A 
ATOM     22  C   UNL A   1      27.637  29.780  22.365  1.00  0.00     0.000 A 
ATOM     23  C   UNL A   1      29.779  30.382  21.462  1.00  0.00     0.000 A 
ATOM     24  C   UNL A   1      28.405  30.577  21.523  1.00  0.00     0.000 A 
ENDBRANCH  18  19
ENDBRANCH  17  18
ENDBRANCH  12  17
ENDBRANCH   7   8
ENDBRANCH   6   7
ENDBRANCH   3   6
ENDBRANCH   1   2
BRANCH   1  25
ATOM     25  C   UNL A   1      33.986  27.758  26.391  1.00  0.00     0.042 C 
BRANCH  25  26
ATOM     26  C   UNL A   1      33.562  29.101  25.808  1.00  0.00     0.118 C 
BRANCH  26  27
ATOM     27  N   UNL A   1      33.564  30.162  26.798  1.00  0.00    -0.352 N 
ATOM     28  C   UNL A   1      34.439  30.625  27.748  1.00  0.00     0.251 C 
ATOM     29  H   UNL A   1      32.728  30.681  26.784  1.00  0.00     0.163 HD
ATOM     30  O   UNL A   1      34.004  31.546  28.447  1.00  0.00    -0.269 OA
BRANCH  28  31
ATOM     31  C   UNL A   1      35.827  30.128  28.014  1.00  0.00     0.039 A 
ATOM     32  C   UNL A   1      36.076  29.636  29.311  1.00  0.00     0.014 A 
ATOM     33  C   UNL A   1      36.905  30.164  27.130  1.00  0.00     0.014 A 
ATOM     34  C   UNL A   1      37.356  29.224  29.716  1.00  0.00     0.010 A 
ATOM     35  C   UNL A   1      38.178  29.702  27.517  1.00  0.00     0.010 A 
ATOM     36  C   UNL A   1      38.428  29.246  28.819  1.00  0.00    -0.014 A 
BRANCH  36  37
ATOM     37  C   UNL A   1      39.799  28.818  29.229  1.00  0.00     0.031 A 
ATOM     38  C   UNL A   1      40.705  29.757  29.995  1.00  0.00     0.074 A 
ATOM     39  C   UNL A   1      40.263  27.599  28.883  1.00  0.00     0.049 A 
ATOM     40  N   UNL A   1      41.952  29.592  30.362  1.00  0.00    -0.248 NA
ATOM     41  C   UNL A   1      40.141  31.062  30.373  1.00  0.00     0.031 C 
ATOM     42  C   UNL A   1      39.518  26.592  28.124  1.00  0.00     0.029 A 
ATOM     43  N   UNL A   1      41.478  27.000  29.120  1.00  0.00    -0.354 N 
ATOM     44  C   UNL A   1      42.333  30.780  30.979  1.00  0.00     0.074 A 
ATOM     45  C   UNL A   1      41.192  31.669  30.905  1.00  0.00     0.031 C 
ATOM     46  C   UNL A   1      40.279  25.495  27.980  1.00  0.00     0.029 A 
ATOM     47  C   UNL A   1      41.581  25.731  28.597  1.00  0.00     0.049 A 
ATOM     48  H   UNL A   1      42.206  27.438  29.617  1.00  0.00     0.167 HD
ATOM     49  C   UNL A   1      43.512  31.103  31.566  1.00  0.00     0.031 A 
ATOM     50  C   UNL A   1      42.606  24.854  28.603  1.00  0.00     0.031 A 
ATOM     51  C   UNL A   1      44.637  30.211  31.677  1.00  0.00     0.049 A 
ATOM     52  C   UNL A   1      43.898  25.225  29.277  1.00  0.00     0.074 A 
ATOM     53  C   UNL A   1      45.849  30.428  32.310  1.00  0.00     0.029 A 
ATOM     54  N   UNL A   1      44.688  28.929  31.150  1.00  0.00    -0.354 N 
ATOM     55  N   UNL A   1      44.217  26.338  29.890  1.00  0.00    -0.248 NA
ATOM     56  C   UNL A   1      44.965  24.213  29.269  1.00  0.00     0.031 C 
ATOM     57  C   UNL A   1      46.648  29.292  32.133  1.00  0.00     0.029 A 
ATOM     58  C   UNL A   1      45.915  28.349  31.432  1.00  0.00     0.049 A 
ATOM     59  H   UNL A   1      43.960  28.495  30.650  1.00  0.00     0.167 HD
ATOM     60  C   UNL A   1      45.515  26.154  30.358  1.00  0.00     0.074 A 
ATOM     61  C   UNL A   1      45.913  24.816  29.974  1.00  0.00     0.031 C 
ATOM     62  C   UNL A   1      46.303  27.017  31.044  1.00  0.00     0.031 A 
BRANCH  49  63
ATOM     63  C   UNL A   1      43.650  32.492  32.137  1.00  0.00    -0.014 A 
ATOM     64  C   UNL A   1      44.115  33.561  31.349  1.00  0.00     0.010 A 
ATOM     65  C   UNL A   1      43.274  32.742  33.471  1.00  0.00     0.010 A 
ATOM     66  C   UNL A   1      44.251  34.840  31.897  1.00  0.00     0.020 A 
ATOM     67  C   UNL A   1      43.381  34.027  34.015  1.00  0.00     0.020 A 
ATOM     68  C   UNL A   1      43.890  35.062  33.230  1.00  0.00     0.054 A 
BRANCH  68  69
ATOM     69  S   UNL A   1      44.072  36.734  33.914  1.00  0.00     0.124 S 
ATOM     70  O   UNL A   1      44.776  36.469  35.166  1.00  0.00    -0.237 OA
ATOM     71  O   UNL A   1      44.853  37.419  32.887  1.00  0.00    -0.237 OA
ATOM     72  O   UNL A   1      42.695  37.199  34.060  1.00  0.00    -0.744 OA
ENDBRANCH  68  69
ENDBRANCH  49  63
BRANCH  50  73
ATOM     73  C   UNL A   1      42.443  23.522  27.957  1.00  0.00    -0.014 A 
ATOM     74  C   UNL A   1      43.086  23.239  26.739  1.00  0.00     0.010 A 
ATOM     75  C   UNL A   1      41.655  22.526  28.562  1.00  0.00     0.010 A 
ATOM     76  C   UNL A   1      42.937  21.988  26.133  1.00  0.00     0.020 A 
ATOM     77  C   UNL A   1      41.525  21.265  27.972  1.00  0.00     0.020 A 
ATOM     78  C   UNL A   1      42.160  21.008  26.756  1.00  0.00     0.054 A 
BRANCH  78  79
ATOM     79  S   UNL A   1      42.034  19.370  25.984  1.00  0.00     0.124 S 
ATOM     80  O   UNL A   1      40.596  19.250  25.759  1.00  0.00    -0.237 OA
ATOM     81  O   UNL A   1      42.853  19.522  24.784  1.00  0.00    -0.237 OA
ATOM     82  O   UNL A   1      42.588  18.473  26.996  1.00  0.00    -0.744 OA
ENDBRANCH  78  79
ENDBRANCH  50  73
BRANCH  62  83
ATOM     83  C   UNL A   1      47.670  26.534  31.450  1.00  0.00    -0.014 A 
ATOM     84  C   UNL A   1      47.889  25.935  32.703  1.00  0.00     0.010 A 
ATOM     85  C   UNL A   1      48.743  26.640  30.545  1.00  0.00     0.010 A 
ATOM     86  C   UNL A   1      49.163  25.483  33.057  1.00  0.00     0.020 A 
ATOM     87  C   UNL A   1      50.012  26.167  30.886  1.00  0.00     0.020 A 
ATOM     88  C   UNL A   1      50.217  25.604  32.147  1.00  0.00     0.054 A 
BRANCH  88  89
ATOM     89  S   UNL A   1      51.854  24.976  32.615  1.00  0.00     0.124 S 
ATOM     90  O   UNL A   1      51.896  25.270  34.045  1.00  0.00    -0.237 OA
ATOM     91  O   UNL A   1      51.769  23.559  32.266  1.00  0.00    -0.237 OA
ATOM     92  O   UNL A   1      52.773  25.758  31.790  1.00  0.00    -0.744 OA
ENDBRANCH  88  89
ENDBRANCH  62  83
ENDBRANCH  36  37
ENDBRANCH  28  31
ENDBRANCH  26  27
ENDBRANCH  25  26
ENDBRANCH   1  25
TORSDOF 18
ENDMDL
