MODEL 1
REMARK VINA RESULT:     -10.6      0.000      0.000
REMARK SMILES CCCNC(=O)[C@H](C)Oc1c(F)cc(C(=O)NCCCNC(=O)c2ccc(-c3c4nc(c(-c5ccc(S(=O)(=O)[O-])cc5)c5ccc([nH]5)c(-c5ccc(S(=O)(=O)[O-])cc5)c5nc(c(-c6ccc(S(=O)(=O)[O-])cc6)c6ccc3[nH]6)C=C5)C=C4)cc2)cc1F
REMARK SMILES IDX 18 1 17 2 15 3 16 4 14 6 10 7 11 8 85 9 12 10 13 11 84 12
REMARK SMILES IDX 86 13 9 14 7 15 8 16 5 17 4 18 6 20 3 21 2 22 1 23 19 24
REMARK SMILES IDX 20 25 21 26 22 27 23 29 24 30 25 31 83 32 26 33 82 34 27 35
REMARK SMILES IDX 28 36 29 37 76 38 30 39 81 40 75 41 77 42 31 43 80 44 74 45
REMARK SMILES IDX 73 46 32 48 62 49 43 50 61 51 44 52 47 53 60 54 78 55 45 56
REMARK SMILES IDX 46 57 59 59 79 60 48 61 33 62 34 63 42 64 35 65 41 66 36 67
REMARK SMILES IDX 37 68 38 69 39 70 40 71 63 72 64 73 72 74 65 75 71 76 66 77
REMARK SMILES IDX 67 78 68 79 69 80 70 81 49 82 50 83 58 84 51 85 57 86 52 87
REMARK SMILES IDX 53 88 54 89 55 90 56 91
REMARK H PARENT 17 5 4 19 21 28 77 47 47 58
REMARK Flexibility Score: inf
ROOT
ATOM      1  C   UNL A   1      32.563  28.132  24.329  1.00  0.00     0.118 C 
ENDROOT
BRANCH   1   2
ATOM      2  N   UNL A   1      31.655  27.823  25.425  1.00  0.00    -0.352 N 
ATOM      3  C   UNL A   1      31.257  26.637  25.989  1.00  0.00     0.251 C 
ATOM      4  O   UNL A   1      30.523  26.671  26.974  1.00  0.00    -0.269 OA
ATOM      5  H   UNL A   1      31.249  28.618  25.841  1.00  0.00     0.163 HD
BRANCH   3   6
ATOM      6  C   UNL A   1      31.766  25.326  25.516  1.00  0.00     0.045 A 
ATOM      7  C   UNL A   1      33.063  23.100  24.406  1.00  0.00     0.191 A 
ATOM      8  C   UNL A   1      31.785  23.458  23.994  1.00  0.00     0.168 A 
ATOM      9  C   UNL A   1      33.609  23.760  25.504  1.00  0.00     0.168 A 
ATOM     10  F   UNL A   1      31.163  22.773  23.027  1.00  0.00    -0.203 F 
ATOM     11  C   UNL A   1      31.133  24.559  24.540  1.00  0.00     0.057 A 
ATOM     12  C   UNL A   1      32.972  24.868  26.061  1.00  0.00     0.057 A 
ATOM     13  F   UNL A   1      34.791  23.376  26.003  1.00  0.00    -0.203 F 
BRANCH   7  14
ATOM     14  O   UNL A   1      33.728  22.049  23.859  1.00  0.00    -0.475 OA
BRANCH  14  15
ATOM     15  C   UNL A   1      33.693  20.812  24.570  1.00  0.00     0.259 C 
ATOM     16  C   UNL A   1      32.469  19.951  24.256  1.00  0.00     0.064 C 
BRANCH  15  17
ATOM     17  C   UNL A   1      34.979  19.988  24.885  1.00  0.00     0.260 C 
ATOM     18  N   UNL A   1      35.100  18.644  24.726  1.00  0.00    -0.353 N 
ATOM     19  H   UNL A   1      35.940  18.281  25.088  1.00  0.00     0.163 HD
ATOM     20  O   UNL A   1      35.973  20.557  25.358  1.00  0.00    -0.271 OA
BRANCH  18  21
ATOM     21  C   UNL A   1      34.246  17.634  24.133  1.00  0.00     0.115 C 
BRANCH  21  22
ATOM     22  C   UNL A   1      34.166  16.393  25.018  1.00  0.00     0.018 C 
ATOM     23  C   UNL A   1      35.510  15.797  25.394  1.00  0.00     0.006 C 
ENDBRANCH  21  22
ENDBRANCH  18  21
ENDBRANCH  15  17
ENDBRANCH  14  15
ENDBRANCH   7  14
ENDBRANCH   3   6
ENDBRANCH   1   2
BRANCH   1  24
ATOM     24  C   UNL A   1      33.918  28.610  24.839  1.00  0.00     0.042 C 
BRANCH  24  25
ATOM     25  C   UNL A   1      34.051  28.537  26.353  1.00  0.00     0.118 C 
BRANCH  25  26
ATOM     26  N   UNL A   1      33.832  29.827  26.988  1.00  0.00    -0.352 N 
ATOM     27  C   UNL A   1      34.607  30.502  27.900  1.00  0.00     0.251 C 
ATOM     28  H   UNL A   1      33.003  30.288  26.724  1.00  0.00     0.163 HD
ATOM     29  O   UNL A   1      34.141  31.481  28.473  1.00  0.00    -0.269 OA
BRANCH  27  30
ATOM     30  C   UNL A   1      35.982  30.044  28.207  1.00  0.00     0.039 A 
ATOM     31  C   UNL A   1      36.966  30.154  27.221  1.00  0.00     0.014 A 
ATOM     32  C   UNL A   1      36.301  29.479  29.446  1.00  0.00     0.014 A 
ATOM     33  C   UNL A   1      38.275  29.749  27.495  1.00  0.00     0.010 A 
ATOM     34  C   UNL A   1      37.623  29.161  29.747  1.00  0.00     0.010 A 
ATOM     35  C   UNL A   1      38.623  29.279  28.772  1.00  0.00    -0.014 A 
BRANCH  35  36
ATOM     36  C   UNL A   1      40.019  28.890  29.099  1.00  0.00     0.031 A 
ATOM     37  C   UNL A   1      40.949  29.880  29.753  1.00  0.00     0.074 A 
ATOM     38  C   UNL A   1      40.469  27.665  28.759  1.00  0.00     0.049 A 
ATOM     39  N   UNL A   1      42.211  29.741  30.069  1.00  0.00    -0.248 NA
ATOM     40  C   UNL A   1      40.395  31.207  30.070  1.00  0.00     0.031 C 
ATOM     41  C   UNL A   1      39.681  26.628  28.087  1.00  0.00     0.029 A 
ATOM     42  N   UNL A   1      41.701  27.084  28.929  1.00  0.00    -0.354 N 
ATOM     43  C   UNL A   1      42.604  30.963  30.604  1.00  0.00     0.074 A 
ATOM     44  C   UNL A   1      41.464  31.847  30.518  1.00  0.00     0.031 C 
ATOM     45  C   UNL A   1      40.438  25.532  27.931  1.00  0.00     0.029 A 
ATOM     46  C   UNL A   1      41.776  25.798  28.448  1.00  0.00     0.049 A 
ATOM     47  H   UNL A   1      42.459  27.545  29.356  1.00  0.00     0.167 HD
ATOM     48  C   UNL A   1      43.800  31.312  31.136  1.00  0.00     0.031 A 
ATOM     49  C   UNL A   1      42.808  24.931  28.420  1.00  0.00     0.031 A 
ATOM     50  C   UNL A   1      44.929  30.427  31.228  1.00  0.00     0.049 A 
ATOM     51  C   UNL A   1      44.128  25.345  29.008  1.00  0.00     0.074 A 
ATOM     52  C   UNL A   1      46.168  30.668  31.797  1.00  0.00     0.029 A 
ATOM     53  N   UNL A   1      44.962  29.130  30.737  1.00  0.00    -0.354 N 
ATOM     54  N   UNL A   1      44.461  26.485  29.566  1.00  0.00    -0.248 NA
ATOM     55  C   UNL A   1      45.209  24.350  28.977  1.00  0.00     0.031 C 
ATOM     56  C   UNL A   1      46.967  29.538  31.600  1.00  0.00     0.029 A 
ATOM     57  C   UNL A   1      46.206  28.567  30.969  1.00  0.00     0.049 A 
ATOM     58  H   UNL A   1      44.211  28.677  30.289  1.00  0.00     0.167 HD
ATOM     59  C   UNL A   1      45.780  26.332  29.982  1.00  0.00     0.074 A 
ATOM     60  C   UNL A   1      46.177  24.985  29.624  1.00  0.00     0.031 C 
ATOM     61  C   UNL A   1      46.587  27.224  30.608  1.00  0.00     0.031 A 
BRANCH  48  62
ATOM     62  C   UNL A   1      43.948  32.720  31.657  1.00  0.00    -0.014 A 
ATOM     63  C   UNL A   1      44.389  33.764  30.823  1.00  0.00     0.010 A 
ATOM     64  C   UNL A   1      43.603  33.012  32.989  1.00  0.00     0.010 A 
ATOM     65  C   UNL A   1      44.524  35.062  31.322  1.00  0.00     0.020 A 
ATOM     66  C   UNL A   1      43.705  34.317  33.484  1.00  0.00     0.020 A 
ATOM     67  C   UNL A   1      44.182  35.330  32.651  1.00  0.00     0.054 A 
BRANCH  67  68
ATOM     68  S   UNL A   1      44.346  37.028  33.264  1.00  0.00     0.124 S 
ATOM     69  O   UNL A   1      43.518  36.995  34.468  1.00  0.00    -0.237 OA
ATOM     70  O   UNL A   1      45.783  37.148  33.494  1.00  0.00    -0.237 OA
ATOM     71  O   UNL A   1      43.822  37.845  32.172  1.00  0.00    -0.744 OA
ENDBRANCH  67  68
ENDBRANCH  48  62
BRANCH  49  72
ATOM     72  C   UNL A   1      42.625  23.576  27.828  1.00  0.00    -0.014 A 
ATOM     73  C   UNL A   1      43.092  23.292  26.533  1.00  0.00     0.010 A 
ATOM     74  C   UNL A   1      41.988  22.558  28.563  1.00  0.00     0.010 A 
ATOM     75  C   UNL A   1      42.909  22.022  25.976  1.00  0.00     0.020 A 
ATOM     76  C   UNL A   1      41.831  21.280  28.021  1.00  0.00     0.020 A 
ATOM     77  C   UNL A   1      42.282  21.023  26.724  1.00  0.00     0.054 A 
BRANCH  77  78
ATOM     78  S   UNL A   1      42.099  19.370  25.999  1.00  0.00     0.124 S 
ATOM     79  O   UNL A   1      40.659  19.296  25.772  1.00  0.00    -0.237 OA
ATOM     80  O   UNL A   1      42.927  19.461  24.798  1.00  0.00    -0.237 OA
ATOM     81  O   UNL A   1      42.617  18.482  27.038  1.00  0.00    -0.744 OA
ENDBRANCH  77  78
ENDBRANCH  49  72
BRANCH  61  82
ATOM     82  C   UNL A   1      47.969  26.762  30.988  1.00  0.00    -0.014 A 
ATOM     83  C   UNL A   1      49.075  26.979  30.148  1.00  0.00     0.010 A 
ATOM     84  C   UNL A   1      48.168  26.140  32.235  1.00  0.00     0.010 A 
ATOM     85  C   UNL A   1      50.348  26.549  30.531  1.00  0.00     0.020 A 
ATOM     86  C   UNL A   1      49.445  25.738  32.636  1.00  0.00     0.020 A 
ATOM     87  C   UNL A   1      50.525  25.931  31.773  1.00  0.00     0.054 A 
BRANCH  87  88
ATOM     88  S   UNL A   1      52.193  25.414  32.262  1.00  0.00     0.124 S 
ATOM     89  O   UNL A   1      52.030  23.972  32.419  1.00  0.00    -0.237 OA
ATOM     90  O   UNL A   1      53.004  25.835  31.122  1.00  0.00    -0.237 OA
ATOM     91  O   UNL A   1      52.437  26.152  33.499  1.00  0.00    -0.744 OA
ENDBRANCH  87  88
ENDBRANCH  61  82
ENDBRANCH  35  36
ENDBRANCH  27  30
ENDBRANCH  25  26
ENDBRANCH  24  25
ENDBRANCH   1  24
TORSDOF 18
ENDMDL
MODEL 2
REMARK VINA RESULT:     -10.6      3.341      8.984
REMARK SMILES CCCNC(=O)[C@H](C)Oc1c(F)cc(C(=O)NCCCNC(=O)c2ccc(-c3c4nc(c(-c5ccc(S(=O)(=O)[O-])cc5)c5ccc([nH]5)c(-c5ccc(S(=O)(=O)[O-])cc5)c5nc(c(-c6ccc(S(=O)(=O)[O-])cc6)c6ccc3[nH]6)C=C5)C=C4)cc2)cc1F
REMARK SMILES IDX 18 1 17 2 15 3 16 4 14 6 10 7 11 8 85 9 12 10 13 11 84 12
REMARK SMILES IDX 86 13 9 14 7 15 8 16 5 17 4 18 6 20 3 21 2 22 1 23 19 24
REMARK SMILES IDX 20 25 21 26 22 27 23 29 24 30 25 31 83 32 26 33 82 34 27 35
REMARK SMILES IDX 28 36 29 37 76 38 30 39 81 40 75 41 77 42 31 43 80 44 74 45
REMARK SMILES IDX 73 46 32 48 62 49 43 50 61 51 44 52 47 53 60 54 78 55 45 56
REMARK SMILES IDX 46 57 59 59 79 60 48 61 33 62 34 63 42 64 35 65 41 66 36 67
REMARK SMILES IDX 37 68 38 69 39 70 40 71 63 72 64 73 72 74 65 75 71 76 66 77
REMARK SMILES IDX 67 78 68 79 69 80 70 81 49 82 50 83 58 84 51 85 57 86 52 87
REMARK SMILES IDX 53 88 54 89 55 90 56 91
REMARK H PARENT 17 5 4 19 21 28 77 47 47 58
REMARK Flexibility Score: inf
ROOT
ATOM      1  C   UNL A   1      33.264  29.996  26.796  1.00  0.00     0.118 C 
ENDROOT
BRANCH   1   2
ATOM      2  N   UNL A   1      33.302  29.976  25.340  1.00  0.00    -0.352 N 
ATOM      3  C   UNL A   1      32.995  29.004  24.421  1.00  0.00     0.251 C 
ATOM      4  O   UNL A   1      33.047  29.287  23.227  1.00  0.00    -0.269 OA
ATOM      5  H   UNL A   1      33.607  30.822  24.939  1.00  0.00     0.163 HD
BRANCH   3   6
ATOM      6  C   UNL A   1      32.503  27.664  24.821  1.00  0.00     0.045 A 
ATOM      7  C   UNL A   1      31.687  24.998  25.140  1.00  0.00     0.191 A 
ATOM      8  C   UNL A   1      30.759  26.034  25.153  1.00  0.00     0.168 A 
ATOM      9  C   UNL A   1      33.039  25.328  25.146  1.00  0.00     0.168 A 
ATOM     10  F   UNL A   1      29.451  25.777  25.275  1.00  0.00    -0.203 F 
ATOM     11  C   UNL A   1      31.155  27.358  24.998  1.00  0.00     0.057 A 
ATOM     12  C   UNL A   1      33.455  26.649  24.987  1.00  0.00     0.057 A 
ATOM     13  F   UNL A   1      33.968  24.366  25.243  1.00  0.00    -0.203 F 
BRANCH   7  14
ATOM     14  O   UNL A   1      31.315  23.697  25.256  1.00  0.00    -0.475 OA
BRANCH  14  15
ATOM     15  C   UNL A   1      31.223  23.158  26.574  1.00  0.00     0.259 C 
ATOM     16  C   UNL A   1      29.818  22.689  26.956  1.00  0.00     0.064 C 
BRANCH  15  17
ATOM     17  C   UNL A   1      32.366  22.314  27.218  1.00  0.00     0.260 C 
ATOM     18  N   UNL A   1      32.995  21.271  26.616  1.00  0.00    -0.353 N 
ATOM     19  H   UNL A   1      33.604  20.783  27.216  1.00  0.00     0.163 HD
ATOM     20  O   UNL A   1      32.727  22.553  28.379  1.00  0.00    -0.271 OA
BRANCH  18  21
ATOM     21  C   UNL A   1      32.955  20.729  25.273  1.00  0.00     0.115 C 
BRANCH  21  22
ATOM     22  C   UNL A   1      32.835  19.207  25.297  1.00  0.00     0.018 C 
ATOM     23  C   UNL A   1      33.873  18.478  24.465  1.00  0.00     0.006 C 
ENDBRANCH  21  22
ENDBRANCH  18  21
ENDBRANCH  15  17
ENDBRANCH  14  15
ENDBRANCH   7  14
ENDBRANCH   3   6
ENDBRANCH   1   2
BRANCH   1  24
ATOM     24  C   UNL A   1      34.387  29.159  27.399  1.00  0.00     0.042 C 
BRANCH  24  25
ATOM     25  C   UNL A   1      35.537  29.995  27.941  1.00  0.00     0.118 C 
BRANCH  25  26
ATOM     26  N   UNL A   1      35.535  30.057  29.395  1.00  0.00    -0.352 N 
ATOM     27  C   UNL A   1      36.510  29.693  30.292  1.00  0.00     0.251 C 
ATOM     28  H   UNL A   1      34.711  30.415  29.796  1.00  0.00     0.163 HD
ATOM     29  O   UNL A   1      36.229  29.627  31.485  1.00  0.00    -0.269 OA
BRANCH  27  30
ATOM     30  C   UNL A   1      37.877  29.362  29.829  1.00  0.00     0.039 A 
ATOM     31  C   UNL A   1      38.187  29.518  28.475  1.00  0.00     0.014 A 
ATOM     32  C   UNL A   1      38.845  28.870  30.710  1.00  0.00     0.014 A 
ATOM     33  C   UNL A   1      39.477  29.234  28.019  1.00  0.00     0.010 A 
ATOM     34  C   UNL A   1      40.152  28.674  30.272  1.00  0.00     0.010 A 
ATOM     35  C   UNL A   1      40.481  28.840  28.919  1.00  0.00    -0.014 A 
BRANCH  35  36
ATOM     36  C   UNL A   1      41.870  28.580  28.463  1.00  0.00     0.031 A 
ATOM     37  C   UNL A   1      42.279  27.196  28.028  1.00  0.00     0.074 A 
ATOM     38  C   UNL A   1      42.781  29.574  28.491  1.00  0.00     0.049 A 
ATOM     39  N   UNL A   1      43.454  26.764  27.646  1.00  0.00    -0.248 NA
ATOM     40  C   UNL A   1      41.238  26.155  28.049  1.00  0.00     0.031 C 
ATOM     41  C   UNL A   1      42.522  30.949  28.927  1.00  0.00     0.029 A 
ATOM     42  N   UNL A   1      44.110  29.582  28.148  1.00  0.00    -0.354 N 
ATOM     43  C   UNL A   1      43.297  25.405  27.399  1.00  0.00     0.074 A 
ATOM     44  C   UNL A   1      41.929  25.072  27.728  1.00  0.00     0.031 C 
ATOM     45  C   UNL A   1      43.646  31.671  28.797  1.00  0.00     0.029 A 
ATOM     46  C   UNL A   1      44.716  30.806  28.312  1.00  0.00     0.049 A 
ATOM     47  H   UNL A   1      44.585  28.785  27.816  1.00  0.00     0.167 HD
ATOM     48  C   UNL A   1      44.203  24.517  26.924  1.00  0.00     0.031 A 
ATOM     49  C   UNL A   1      45.990  31.188  28.101  1.00  0.00     0.031 A 
ATOM     50  C   UNL A   1      45.561  24.854  26.589  1.00  0.00     0.049 A 
ATOM     51  C   UNL A   1      46.981  30.183  27.583  1.00  0.00     0.074 A 
ATOM     52  C   UNL A   1      46.542  24.040  26.051  1.00  0.00     0.029 A 
ATOM     53  N   UNL A   1      46.132  26.106  26.762  1.00  0.00    -0.354 N 
ATOM     54  N   UNL A   1      46.796  28.915  27.296  1.00  0.00    -0.248 NA
ATOM     55  C   UNL A   1      48.349  30.661  27.344  1.00  0.00     0.031 C 
ATOM     56  C   UNL A   1      47.721  24.784  25.951  1.00  0.00     0.029 A 
ATOM     57  C   UNL A   1      47.458  26.081  26.362  1.00  0.00     0.049 A 
ATOM     58  H   UNL A   1      45.663  26.897  27.115  1.00  0.00     0.167 HD
ATOM     59  C   UNL A   1      48.016  28.455  26.812  1.00  0.00     0.074 A 
ATOM     60  C   UNL A   1      48.925  29.583  26.832  1.00  0.00     0.031 C 
ATOM     61  C   UNL A   1      48.352  27.212  26.386  1.00  0.00     0.031 A 
BRANCH  48  62
ATOM     62  C   UNL A   1      43.753  23.089  26.742  1.00  0.00    -0.014 A 
ATOM     63  C   UNL A   1      42.935  22.456  27.696  1.00  0.00     0.010 A 
ATOM     64  C   UNL A   1      44.119  22.383  25.582  1.00  0.00     0.010 A 
ATOM     65  C   UNL A   1      42.529  21.131  27.513  1.00  0.00     0.020 A 
ATOM     66  C   UNL A   1      43.688  21.068  25.380  1.00  0.00     0.020 A 
ATOM     67  C   UNL A   1      42.910  20.444  26.357  1.00  0.00     0.054 A 
BRANCH  67  68
ATOM     68  S   UNL A   1      42.349  18.734  26.138  1.00  0.00     0.124 S 
ATOM     69  O   UNL A   1      42.583  18.168  27.465  1.00  0.00    -0.237 OA
ATOM     70  O   UNL A   1      40.947  18.903  25.766  1.00  0.00    -0.237 OA
ATOM     71  O   UNL A   1      43.215  18.217  25.081  1.00  0.00    -0.744 OA
ENDBRANCH  67  68
ENDBRANCH  48  62
BRANCH  49  72
ATOM     72  C   UNL A   1      46.397  32.597  28.365  1.00  0.00    -0.014 A 
ATOM     73  C   UNL A   1      46.299  33.572  27.357  1.00  0.00     0.010 A 
ATOM     74  C   UNL A   1      46.878  32.973  29.633  1.00  0.00     0.010 A 
ATOM     75  C   UNL A   1      46.692  34.890  27.604  1.00  0.00     0.020 A 
ATOM     76  C   UNL A   1      47.242  34.297  29.894  1.00  0.00     0.020 A 
ATOM     77  C   UNL A   1      47.159  35.246  28.872  1.00  0.00     0.054 A 
BRANCH  77  78
ATOM     78  S   UNL A   1      47.618  36.973  29.184  1.00  0.00     0.124 S 
ATOM     79  O   UNL A   1      48.345  36.872  30.445  1.00  0.00    -0.237 OA
ATOM     80  O   UNL A   1      48.425  37.300  28.010  1.00  0.00    -0.237 OA
ATOM     81  O   UNL A   1      46.330  37.661  29.255  1.00  0.00    -0.744 OA
ENDBRANCH  77  78
ENDBRANCH  49  72
BRANCH  61  82
ATOM     82  C   UNL A   1      49.749  27.012  25.862  1.00  0.00    -0.014 A 
ATOM     83  C   UNL A   1      50.791  26.566  26.694  1.00  0.00     0.010 A 
ATOM     84  C   UNL A   1      50.010  27.229  24.496  1.00  0.00     0.010 A 
ATOM     85  C   UNL A   1      52.076  26.379  26.179  1.00  0.00     0.020 A 
ATOM     86  C   UNL A   1      51.286  27.011  23.970  1.00  0.00     0.020 A 
ATOM     87  C   UNL A   1      52.315  26.603  24.819  1.00  0.00     0.054 A 
BRANCH  87  88
ATOM     88  S   UNL A   1      53.984  26.318  24.168  1.00  0.00     0.124 S 
ATOM     89  O   UNL A   1      54.342  25.050  24.795  1.00  0.00    -0.237 OA
ATOM     90  O   UNL A   1      53.759  26.266  22.725  1.00  0.00    -0.237 OA
ATOM     91  O   UNL A   1      54.740  27.478  24.634  1.00  0.00    -0.744 OA
ENDBRANCH  87  88
ENDBRANCH  61  82
ENDBRANCH  35  36
ENDBRANCH  27  30
ENDBRANCH  25  26
ENDBRANCH  24  25
ENDBRANCH   1  24
TORSDOF 18
ENDMDL
MODEL 3
REMARK VINA RESULT:     -10.4      3.016      3.739
REMARK SMILES CCCNC(=O)[C@H](C)Oc1c(F)cc(C(=O)NCCCNC(=O)c2ccc(-c3c4nc(c(-c5ccc(S(=O)(=O)[O-])cc5)c5ccc([nH]5)c(-c5ccc(S(=O)(=O)[O-])cc5)c5nc(c(-c6ccc(S(=O)(=O)[O-])cc6)c6ccc3[nH]6)C=C5)C=C4)cc2)cc1F
REMARK SMILES IDX 18 1 17 2 15 3 16 4 14 6 10 7 11 8 85 9 12 10 13 11 84 12
REMARK SMILES IDX 86 13 9 14 7 15 8 16 5 17 4 18 6 20 3 21 2 22 1 23 19 24
REMARK SMILES IDX 20 25 21 26 22 27 23 29 24 30 25 31 83 32 26 33 82 34 27 35
REMARK SMILES IDX 28 36 29 37 76 38 30 39 81 40 75 41 77 42 31 43 80 44 74 45
REMARK SMILES IDX 73 46 32 48 62 49 43 50 61 51 44 52 47 53 60 54 78 55 45 56
REMARK SMILES IDX 46 57 59 59 79 60 48 61 33 62 34 63 42 64 35 65 41 66 36 67
REMARK SMILES IDX 37 68 38 69 39 70 40 71 63 72 64 73 72 74 65 75 71 76 66 77
REMARK SMILES IDX 67 78 68 79 69 80 70 81 49 82 50 83 58 84 51 85 57 86 52 87
REMARK SMILES IDX 53 88 54 89 55 90 56 91
REMARK H PARENT 17 5 4 19 21 28 77 47 47 58
REMARK Flexibility Score: inf
ROOT
ATOM      1  C   UNL A   1      33.029  29.769  26.655  1.00  0.00     0.118 C 
ENDROOT
BRANCH   1   2
ATOM      2  N   UNL A   1      33.323  29.832  25.230  1.00  0.00    -0.352 N 
ATOM      3  C   UNL A   1      33.338  28.874  24.247  1.00  0.00     0.251 C 
ATOM      4  O   UNL A   1      33.551  29.225  23.089  1.00  0.00    -0.269 OA
ATOM      5  H   UNL A   1      33.556  30.734  24.912  1.00  0.00     0.163 HD
BRANCH   3   6
ATOM      6  C   UNL A   1      33.001  27.456  24.518  1.00  0.00     0.045 A 
ATOM      7  C   UNL A   1      32.644  24.677  24.663  1.00  0.00     0.191 A 
ATOM      8  C   UNL A   1      31.589  25.513  24.315  1.00  0.00     0.168 A 
ATOM      9  C   UNL A   1      33.825  25.261  25.112  1.00  0.00     0.168 A 
ATOM     10  F   UNL A   1      30.392  25.006  23.999  1.00  0.00    -0.203 F 
ATOM     11  C   UNL A   1      31.757  26.892  24.242  1.00  0.00     0.057 A 
ATOM     12  C   UNL A   1      34.013  26.641  25.042  1.00  0.00     0.057 A 
ATOM     13  F   UNL A   1      34.830  24.495  25.560  1.00  0.00    -0.203 F 
BRANCH   7  14
ATOM     14  O   UNL A   1      32.508  23.326  24.706  1.00  0.00    -0.475 OA
BRANCH  14  15
ATOM     15  C   UNL A   1      32.174  22.742  25.965  1.00  0.00     0.259 C 
ATOM     16  C   UNL A   1      30.715  22.296  26.075  1.00  0.00     0.064 C 
BRANCH  15  17
ATOM     17  C   UNL A   1      33.169  21.846  26.766  1.00  0.00     0.260 C 
ATOM     18  N   UNL A   1      33.726  20.697  26.301  1.00  0.00    -0.353 N 
ATOM     19  H   UNL A   1      34.233  20.204  26.986  1.00  0.00     0.163 HD
ATOM     20  O   UNL A   1      33.467  22.148  27.930  1.00  0.00    -0.271 OA
BRANCH  18  21
ATOM     21  C   UNL A   1      33.727  20.047  25.006  1.00  0.00     0.115 C 
BRANCH  21  22
ATOM     22  C   UNL A   1      32.753  18.871  24.980  1.00  0.00     0.018 C 
ATOM     23  C   UNL A   1      32.967  17.899  23.836  1.00  0.00     0.006 C 
ENDBRANCH  21  22
ENDBRANCH  18  21
ENDBRANCH  15  17
ENDBRANCH  14  15
ENDBRANCH   7  14
ENDBRANCH   3   6
ENDBRANCH   1   2
BRANCH   1  24
ATOM     24  C   UNL A   1      34.129  29.044  27.424  1.00  0.00     0.042 C 
BRANCH  24  25
ATOM     25  C   UNL A   1      35.357  29.907  27.675  1.00  0.00     0.118 C 
BRANCH  25  26
ATOM     26  N   UNL A   1      35.360  30.486  29.010  1.00  0.00    -0.352 N 
ATOM     27  C   UNL A   1      36.369  30.547  29.940  1.00  0.00     0.251 C 
ATOM     28  H   UNL A   1      34.510  30.897  29.288  1.00  0.00     0.163 HD
ATOM     29  O   UNL A   1      36.104  30.891  31.088  1.00  0.00    -0.269 OA
BRANCH  27  30
ATOM     30  C   UNL A   1      37.757  30.184  29.574  1.00  0.00     0.039 A 
ATOM     31  C   UNL A   1      38.694  29.984  30.592  1.00  0.00     0.014 A 
ATOM     32  C   UNL A   1      38.150  30.070  28.237  1.00  0.00     0.014 A 
ATOM     33  C   UNL A   1      40.004  29.619  30.270  1.00  0.00     0.010 A 
ATOM     34  C   UNL A   1      39.430  29.618  27.922  1.00  0.00     0.010 A 
ATOM     35  C   UNL A   1      40.376  29.401  28.934  1.00  0.00    -0.014 A 
BRANCH  35  36
ATOM     36  C   UNL A   1      41.750  28.965  28.575  1.00  0.00     0.031 A 
ATOM     37  C   UNL A   1      42.876  29.966  28.536  1.00  0.00     0.074 A 
ATOM     38  C   UNL A   1      41.975  27.681  28.230  1.00  0.00     0.049 A 
ATOM     39  N   UNL A   1      44.128  29.785  28.198  1.00  0.00    -0.248 NA
ATOM     40  C   UNL A   1      42.549  31.354  28.899  1.00  0.00     0.031 C 
ATOM     41  C   UNL A   1      40.963  26.623  28.190  1.00  0.00     0.029 A 
ATOM     42  N   UNL A   1      43.130  27.047  27.844  1.00  0.00    -0.354 N 
ATOM     43  C   UNL A   1      44.729  31.035  28.292  1.00  0.00     0.074 A 
ATOM     44  C   UNL A   1      43.695  31.975  28.663  1.00  0.00     0.031 C 
ATOM     45  C   UNL A   1      41.546  25.469  27.832  1.00  0.00     0.029 A 
ATOM     46  C   UNL A   1      42.961  25.709  27.572  1.00  0.00     0.049 A 
ATOM     47  H   UNL A   1      43.998  27.507  27.768  1.00  0.00     0.167 HD
ATOM     48  C   UNL A   1      46.029  31.370  28.105  1.00  0.00     0.031 A 
ATOM     49  C   UNL A   1      43.844  24.781  27.156  1.00  0.00     0.031 A 
ATOM     50  C   UNL A   1      47.057  30.430  27.745  1.00  0.00     0.049 A 
ATOM     51  C   UNL A   1      45.280  25.177  26.946  1.00  0.00     0.074 A 
ATOM     52  C   UNL A   1      48.413  30.659  27.583  1.00  0.00     0.029 A 
ATOM     53  N   UNL A   1      46.846  29.084  27.487  1.00  0.00    -0.354 N 
ATOM     54  N   UNL A   1      45.841  26.354  27.100  1.00  0.00    -0.248 NA
ATOM     55  C   UNL A   1      46.205  24.119  26.520  1.00  0.00     0.031 C 
ATOM     56  C   UNL A   1      49.012  29.464  27.174  1.00  0.00     0.029 A 
ATOM     57  C   UNL A   1      48.042  28.474  27.146  1.00  0.00     0.049 A 
ATOM     58  H   UNL A   1      45.975  28.629  27.540  1.00  0.00     0.167 HD
ATOM     59  C   UNL A   1      47.191  26.168  26.822  1.00  0.00     0.074 A 
ATOM     60  C   UNL A   1      47.363  24.764  26.505  1.00  0.00     0.031 C 
ATOM     61  C   UNL A   1      48.199  27.075  26.833  1.00  0.00     0.031 A 
BRANCH  48  62
ATOM     62  C   UNL A   1      46.411  32.818  28.282  1.00  0.00    -0.014 A 
ATOM     63  C   UNL A   1      46.291  33.738  27.225  1.00  0.00     0.010 A 
ATOM     64  C   UNL A   1      46.856  33.275  29.535  1.00  0.00     0.010 A 
ATOM     65  C   UNL A   1      46.651  35.076  27.405  1.00  0.00     0.020 A 
ATOM     66  C   UNL A   1      47.188  34.620  29.729  1.00  0.00     0.020 A 
ATOM     67  C   UNL A   1      47.100  35.508  28.656  1.00  0.00     0.054 A 
BRANCH  67  68
ATOM     68  S   UNL A   1      47.539  37.255  28.866  1.00  0.00     0.124 S 
ATOM     69  O   UNL A   1      48.883  37.298  28.295  1.00  0.00    -0.237 OA
ATOM     70  O   UNL A   1      46.506  37.939  28.093  1.00  0.00    -0.237 OA
ATOM     71  O   UNL A   1      47.470  37.460  30.311  1.00  0.00    -0.744 OA
ENDBRANCH  67  68
ENDBRANCH  48  62
BRANCH  49  72
ATOM     72  C   UNL A   1      43.397  23.378  26.928  1.00  0.00    -0.014 A 
ATOM     73  C   UNL A   1      43.250  22.877  25.622  1.00  0.00     0.010 A 
ATOM     74  C   UNL A   1      43.124  22.532  28.018  1.00  0.00     0.010 A 
ATOM     75  C   UNL A   1      42.819  21.564  25.411  1.00  0.00     0.020 A 
ATOM     76  C   UNL A   1      42.722  21.209  27.812  1.00  0.00     0.020 A 
ATOM     77  C   UNL A   1      42.560  20.736  26.507  1.00  0.00     0.054 A 
BRANCH  77  78
ATOM     78  S   UNL A   1      42.049  19.022  26.209  1.00  0.00     0.124 S 
ATOM     79  O   UNL A   1      42.989  18.599  25.176  1.00  0.00    -0.237 OA
ATOM     80  O   UNL A   1      42.231  18.407  27.522  1.00  0.00    -0.237 OA
ATOM     81  O   UNL A   1      40.658  19.150  25.778  1.00  0.00    -0.744 OA
ENDBRANCH  77  78
ENDBRANCH  49  72
BRANCH  61  82
ATOM     82  C   UNL A   1      49.588  26.575  26.536  1.00  0.00    -0.014 A 
ATOM     83  C   UNL A   1      50.424  26.079  27.552  1.00  0.00     0.010 A 
ATOM     84  C   UNL A   1      50.043  26.559  25.204  1.00  0.00     0.010 A 
ATOM     85  C   UNL A   1      51.705  25.612  27.246  1.00  0.00     0.020 A 
ATOM     86  C   UNL A   1      51.311  26.061  24.891  1.00  0.00     0.020 A 
ATOM     87  C   UNL A   1      52.140  25.606  25.917  1.00  0.00     0.054 A 
BRANCH  87  88
ATOM     88  S   UNL A   1      53.793  24.961  25.543  1.00  0.00     0.124 S 
ATOM     89  O   UNL A   1      54.238  25.860  24.483  1.00  0.00    -0.237 OA
ATOM     90  O   UNL A   1      54.488  25.101  26.820  1.00  0.00    -0.237 OA
ATOM     91  O   UNL A   1      53.542  23.583  25.125  1.00  0.00    -0.744 OA
ENDBRANCH  87  88
ENDBRANCH  61  82
ENDBRANCH  35  36
ENDBRANCH  27  30
ENDBRANCH  25  26
ENDBRANCH  24  25
ENDBRANCH   1  24
TORSDOF 18
ENDMDL
