MODEL 1
REMARK VINA RESULT:     -11.4      0.000      0.000
REMARK SMILES COc1ccc([C@H]2[C@@H](C(=O)NCCCNC(=O)c3ccc(-c4c5nc(c(-c6ccc(S(=O)(=O)[O-])cc6)c6ccc([nH]6)c(-c6ccc(S(=O)(=O)[O-])cc6)c6nc(c(-c7ccc(S(=O)(=O)[O-])cc7)c7ccc4[nH]7)C=C6)C=C5)cc3)CC(=O)N2Cc2ccccc2)cc1
REMARK SMILES IDX 13 1 12 2 11 3 9 4 10 5 8 7 7 8 81 9 78 10 79 11 80 12 6 13
REMARK SMILES IDX 3 14 4 15 90 16 5 17 89 18 2 19 1 20 82 21 83 22 84 23 88 24
REMARK SMILES IDX 85 25 87 26 86 27 14 28 15 29 16 30 17 32 18 33 19 34 77 35
REMARK SMILES IDX 20 36 76 37 21 38 22 39 23 40 70 41 24 42 75 43 69 44 71 45
REMARK SMILES IDX 25 46 74 47 68 48 67 49 26 51 56 52 37 53 55 54 38 55 41 56
REMARK SMILES IDX 54 57 72 58 39 59 40 60 53 62 73 63 42 64 27 65 28 66 36 67
REMARK SMILES IDX 29 68 35 69 30 70 31 71 32 72 33 73 34 74 57 75 58 76 66 77
REMARK SMILES IDX 59 78 65 79 60 80 61 81 62 82 63 83 64 84 43 85 44 86 52 87
REMARK SMILES IDX 45 88 51 89 46 90 47 91 48 92 49 93 50 94
REMARK H PARENT 11 6 15 31 71 50 41 61
REMARK Flexibility Score: inf
ROOT
ATOM      1  C   UNL A   1      35.536  22.694  25.011  1.00  0.00     0.042 C 
ENDROOT
BRANCH   1   2
ATOM      2  C   UNL A   1      34.331  23.568  24.771  1.00  0.00     0.117 C 
BRANCH   2   3
ATOM      3  N   UNL A   1      33.657  24.048  25.959  1.00  0.00    -0.356 N 
ATOM      4  C   UNL A   1      32.375  24.485  26.082  1.00  0.00     0.226 C 
ATOM      5  O   UNL A   1      31.875  24.453  27.212  1.00  0.00    -0.275 OA
ATOM      6  H   UNL A   1      34.196  24.059  26.784  1.00  0.00     0.163 HD
BRANCH   4   7
ATOM      7  C   UNL A   1      31.561  25.029  24.922  1.00  0.00     0.115 C 
ATOM      8  C   UNL A   1      31.825  26.455  24.404  1.00  0.00     0.128 C 
ATOM      9  N   UNL A   1      30.537  26.830  23.820  1.00  0.00    -0.330 N 
ATOM     10  C   UNL A   1      30.048  24.893  25.074  1.00  0.00     0.116 C 
ATOM     11  C   UNL A   1      29.504  25.990  24.204  1.00  0.00     0.224 C 
ATOM     12  O   UNL A   1      28.334  26.085  23.870  1.00  0.00    -0.275 OA
BRANCH   8  13
ATOM     13  C   UNL A   1      32.395  27.463  25.386  1.00  0.00    -0.024 A 
ATOM     14  C   UNL A   1      33.530  29.286  27.234  1.00  0.00     0.118 A 
ATOM     15  C   UNL A   1      34.278  28.807  26.155  1.00  0.00     0.047 A 
ATOM     16  C   UNL A   1      32.208  28.882  27.374  1.00  0.00     0.047 A 
ATOM     17  C   UNL A   1      33.718  27.910  25.237  1.00  0.00     0.010 A 
ATOM     18  C   UNL A   1      31.655  27.969  26.470  1.00  0.00     0.010 A 
BRANCH  14  19
ATOM     19  O   UNL A   1      34.198  30.124  28.083  1.00  0.00    -0.497 OA
ATOM     20  C   UNL A   1      34.662  31.351  27.521  1.00  0.00     0.278 C 
ENDBRANCH  14  19
ENDBRANCH   8  13
BRANCH   9  21
ATOM     21  C   UNL A   1      30.375  27.810  22.746  1.00  0.00     0.155 C 
BRANCH  21  22
ATOM     22  C   UNL A   1      29.560  29.023  23.113  1.00  0.00    -0.029 A 
ATOM     23  C   UNL A   1      30.119  30.048  23.893  1.00  0.00     0.005 A 
ATOM     24  C   UNL A   1      28.267  29.195  22.594  1.00  0.00     0.005 A 
ATOM     25  C   UNL A   1      29.416  31.237  24.108  1.00  0.00     0.000 A 
ATOM     26  C   UNL A   1      27.576  30.391  22.794  1.00  0.00     0.000 A 
ATOM     27  C   UNL A   1      28.152  31.413  23.545  1.00  0.00     0.000 A 
ENDBRANCH  21  22
ENDBRANCH   9  21
ENDBRANCH   4   7
ENDBRANCH   2   3
ENDBRANCH   1   2
BRANCH   1  28
ATOM     28  C   UNL A   1      36.752  23.491  25.453  1.00  0.00     0.118 C 
BRANCH  28  29
ATOM     29  N   UNL A   1      37.958  22.683  25.658  1.00  0.00    -0.352 N 
ATOM     30  C   UNL A   1      39.147  22.993  26.279  1.00  0.00     0.251 C 
ATOM     31  H   UNL A   1      37.910  21.770  25.291  1.00  0.00     0.163 HD
ATOM     32  O   UNL A   1      40.073  22.188  26.303  1.00  0.00    -0.269 OA
BRANCH  30  33
ATOM     33  C   UNL A   1      39.327  24.326  26.876  1.00  0.00     0.039 A 
ATOM     34  C   UNL A   1      38.889  24.556  28.183  1.00  0.00     0.014 A 
ATOM     35  C   UNL A   1      39.994  25.322  26.167  1.00  0.00     0.014 A 
ATOM     36  C   UNL A   1      39.227  25.751  28.817  1.00  0.00     0.010 A 
ATOM     37  C   UNL A   1      40.443  26.446  26.840  1.00  0.00     0.010 A 
ATOM     38  C   UNL A   1      40.061  26.677  28.169  1.00  0.00    -0.014 A 
BRANCH  38  39
ATOM     39  C   UNL A   1      40.540  27.911  28.836  1.00  0.00     0.031 A 
ATOM     40  C   UNL A   1      41.925  27.936  29.424  1.00  0.00     0.074 A 
ATOM     41  C   UNL A   1      39.704  28.955  29.007  1.00  0.00     0.049 A 
ATOM     42  N   UNL A   1      42.484  28.842  30.183  1.00  0.00    -0.248 NA
ATOM     43  C   UNL A   1      42.781  26.766  29.158  1.00  0.00     0.031 C 
ATOM     44  C   UNL A   1      38.322  29.031  28.521  1.00  0.00     0.029 A 
ATOM     45  N   UNL A   1      39.892  30.152  29.650  1.00  0.00    -0.354 N 
ATOM     46  C   UNL A   1      43.734  28.333  30.513  1.00  0.00     0.074 A 
ATOM     47  C   UNL A   1      43.830  27.017  29.924  1.00  0.00     0.031 C 
ATOM     48  C   UNL A   1      37.802  30.223  28.855  1.00  0.00     0.029 A 
ATOM     49  C   UNL A   1      38.789  30.974  29.625  1.00  0.00     0.049 A 
ATOM     50  H   UNL A   1      40.736  30.400  30.090  1.00  0.00     0.167 HD
ATOM     51  C   UNL A   1      44.727  28.920  31.220  1.00  0.00     0.031 A 
ATOM     52  C   UNL A   1      38.591  32.190  30.169  1.00  0.00     0.031 A 
ATOM     53  C   UNL A   1      44.636  30.244  31.772  1.00  0.00     0.049 A 
ATOM     54  C   UNL A   1      39.710  32.824  30.950  1.00  0.00     0.074 A 
ATOM     55  C   UNL A   1      45.604  30.961  32.450  1.00  0.00     0.029 A 
ATOM     56  N   UNL A   1      43.512  31.052  31.699  1.00  0.00    -0.354 N 
ATOM     57  N   UNL A   1      40.907  32.351  31.206  1.00  0.00    -0.248 NA
ATOM     58  C   UNL A   1      39.455  34.159  31.509  1.00  0.00     0.031 C 
ATOM     59  C   UNL A   1      45.048  32.187  32.830  1.00  0.00     0.029 A 
ATOM     60  C   UNL A   1      43.754  32.255  32.337  1.00  0.00     0.049 A 
ATOM     61  H   UNL A   1      42.666  30.807  31.258  1.00  0.00     0.167 HD
ATOM     62  C   UNL A   1      41.557  33.341  31.934  1.00  0.00     0.074 A 
ATOM     63  C   UNL A   1      40.626  34.444  32.063  1.00  0.00     0.031 C 
ATOM     64  C   UNL A   1      42.812  33.340  32.448  1.00  0.00     0.031 A 
BRANCH  51  65
ATOM     65  C   UNL A   1      45.993  28.132  31.428  1.00  0.00    -0.014 A 
ATOM     66  C   UNL A   1      46.201  27.388  32.604  1.00  0.00     0.010 A 
ATOM     67  C   UNL A   1      46.980  28.117  30.426  1.00  0.00     0.010 A 
ATOM     68  C   UNL A   1      47.390  26.681  32.794  1.00  0.00     0.020 A 
ATOM     69  C   UNL A   1      48.158  27.383  30.598  1.00  0.00     0.020 A 
ATOM     70  C   UNL A   1      48.362  26.685  31.790  1.00  0.00     0.054 A 
BRANCH  70  71
ATOM     71  S   UNL A   1      49.885  25.737  32.055  1.00  0.00     0.124 S 
ATOM     72  O   UNL A   1      50.706  26.689  32.801  1.00  0.00    -0.237 OA
ATOM     73  O   UNL A   1      49.416  24.583  32.816  1.00  0.00    -0.237 OA
ATOM     74  O   UNL A   1      50.350  25.441  30.702  1.00  0.00    -0.744 OA
ENDBRANCH  70  71
ENDBRANCH  51  65
BRANCH  52  75
ATOM     75  C   UNL A   1      37.292  32.893  29.980  1.00  0.00    -0.014 A 
ATOM     76  C   UNL A   1      36.232  32.679  30.879  1.00  0.00     0.010 A 
ATOM     77  C   UNL A   1      37.110  33.791  28.911  1.00  0.00     0.010 A 
ATOM     78  C   UNL A   1      35.010  33.334  30.704  1.00  0.00     0.020 A 
ATOM     79  C   UNL A   1      35.898  34.468  28.749  1.00  0.00     0.020 A 
ATOM     80  C   UNL A   1      34.850  34.227  29.641  1.00  0.00     0.054 A 
BRANCH  80  81
ATOM     81  S   UNL A   1      33.271  35.102  29.465  1.00  0.00     0.124 S 
ATOM     82  O   UNL A   1      32.567  34.268  28.497  1.00  0.00    -0.237 OA
ATOM     83  O   UNL A   1      32.742  35.075  30.827  1.00  0.00    -0.237 OA
ATOM     84  O   UNL A   1      33.665  36.425  28.984  1.00  0.00    -0.744 OA
ENDBRANCH  80  81
ENDBRANCH  52  75
BRANCH  64  85
ATOM     85  C   UNL A   1      43.266  34.578  33.170  1.00  0.00    -0.014 A 
ATOM     86  C   UNL A   1      43.959  35.599  32.497  1.00  0.00     0.010 A 
ATOM     87  C   UNL A   1      42.928  34.751  34.525  1.00  0.00     0.010 A 
ATOM     88  C   UNL A   1      44.326  36.764  33.175  1.00  0.00     0.020 A 
ATOM     89  C   UNL A   1      43.268  35.927  35.196  1.00  0.00     0.020 A 
ATOM     90  C   UNL A   1      43.975  36.922  34.519  1.00  0.00     0.054 A 
BRANCH  90  91
ATOM     91  S   UNL A   1      44.410  38.470  35.358  1.00  0.00     0.124 S 
ATOM     92  O   UNL A   1      45.862  38.502  35.199  1.00  0.00    -0.237 OA
ATOM     93  O   UNL A   1      43.671  39.469  34.590  1.00  0.00    -0.237 OA
ATOM     94  O   UNL A   1      43.937  38.269  36.726  1.00  0.00    -0.744 OA
ENDBRANCH  90  91
ENDBRANCH  64  85
ENDBRANCH  38  39
ENDBRANCH  30  33
ENDBRANCH  28  29
ENDBRANCH   1  28
TORSDOF 17
ENDMDL
MODEL 2
REMARK VINA RESULT:     -11.3      3.170      4.010
REMARK SMILES COc1ccc([C@H]2[C@@H](C(=O)NCCCNC(=O)c3ccc(-c4c5nc(c(-c6ccc(S(=O)(=O)[O-])cc6)c6ccc([nH]6)c(-c6ccc(S(=O)(=O)[O-])cc6)c6nc(c(-c7ccc(S(=O)(=O)[O-])cc7)c7ccc4[nH]7)C=C6)C=C5)cc3)CC(=O)N2Cc2ccccc2)cc1
REMARK SMILES IDX 13 1 12 2 11 3 9 4 10 5 8 7 7 8 81 9 78 10 79 11 80 12 6 13
REMARK SMILES IDX 3 14 4 15 90 16 5 17 89 18 2 19 1 20 82 21 83 22 84 23 88 24
REMARK SMILES IDX 85 25 87 26 86 27 14 28 15 29 16 30 17 32 18 33 19 34 77 35
REMARK SMILES IDX 20 36 76 37 21 38 22 39 23 40 70 41 24 42 75 43 69 44 71 45
REMARK SMILES IDX 25 46 74 47 68 48 67 49 26 51 56 52 37 53 55 54 38 55 41 56
REMARK SMILES IDX 54 57 72 58 39 59 40 60 53 62 73 63 42 64 27 65 28 66 36 67
REMARK SMILES IDX 29 68 35 69 30 70 31 71 32 72 33 73 34 74 57 75 58 76 66 77
REMARK SMILES IDX 59 78 65 79 60 80 61 81 62 82 63 83 64 84 43 85 44 86 52 87
REMARK SMILES IDX 45 88 51 89 46 90 47 91 48 92 49 93 50 94
REMARK H PARENT 11 6 15 31 71 50 41 61
REMARK Flexibility Score: inf
ROOT
ATOM      1  C   UNL A   1      38.287  22.788  26.071  1.00  0.00     0.042 C 
ENDROOT
BRANCH   1   2
ATOM      2  C   UNL A   1      37.070  23.666  25.916  1.00  0.00     0.117 C 
BRANCH   2   3
ATOM      3  N   UNL A   1      35.865  23.185  26.560  1.00  0.00    -0.356 N 
ATOM      4  C   UNL A   1      34.804  22.549  25.995  1.00  0.00     0.226 C 
ATOM      5  O   UNL A   1      34.094  21.867  26.741  1.00  0.00    -0.275 OA
ATOM      6  H   UNL A   1      35.808  23.339  27.532  1.00  0.00     0.163 HD
BRANCH   4   7
ATOM      7  C   UNL A   1      34.445  22.666  24.525  1.00  0.00     0.115 C 
ATOM      8  C   UNL A   1      33.970  24.017  23.958  1.00  0.00     0.128 C 
ATOM      9  N   UNL A   1      33.150  23.615  22.814  1.00  0.00    -0.330 N 
ATOM     10  C   UNL A   1      33.469  21.609  24.013  1.00  0.00     0.116 C 
ATOM     11  C   UNL A   1      32.820  22.271  22.830  1.00  0.00     0.224 C 
ATOM     12  O   UNL A   1      32.140  21.683  22.003  1.00  0.00    -0.275 OA
BRANCH   8  13
ATOM     13  C   UNL A   1      33.295  24.981  24.917  1.00  0.00    -0.024 A 
ATOM     14  C   UNL A   1      32.107  26.772  26.763  1.00  0.00     0.118 A 
ATOM     15  C   UNL A   1      33.390  27.010  26.263  1.00  0.00     0.047 A 
ATOM     16  C   UNL A   1      31.404  25.658  26.320  1.00  0.00     0.047 A 
ATOM     17  C   UNL A   1      33.978  26.130  25.346  1.00  0.00     0.010 A 
ATOM     18  C   UNL A   1      31.998  24.767  25.421  1.00  0.00     0.010 A 
BRANCH  14  19
ATOM     19  O   UNL A   1      31.659  27.680  27.681  1.00  0.00    -0.497 OA
ATOM     20  C   UNL A   1      31.683  29.048  27.277  1.00  0.00     0.278 C 
ENDBRANCH  14  19
ENDBRANCH   8  13
BRANCH   9  21
ATOM     21  C   UNL A   1      32.913  24.454  21.639  1.00  0.00     0.155 C 
BRANCH  21  22
ATOM     22  C   UNL A   1      32.535  25.881  21.944  1.00  0.00    -0.029 A 
ATOM     23  C   UNL A   1      31.225  26.202  22.334  1.00  0.00     0.005 A 
ATOM     24  C   UNL A   1      33.509  26.891  21.946  1.00  0.00     0.005 A 
ATOM     25  C   UNL A   1      30.910  27.495  22.760  1.00  0.00     0.000 A 
ATOM     26  C   UNL A   1      33.196  28.176  22.390  1.00  0.00     0.000 A 
ATOM     27  C   UNL A   1      31.900  28.477  22.803  1.00  0.00     0.000 A 
ENDBRANCH  21  22
ENDBRANCH   9  21
ENDBRANCH   4   7
ENDBRANCH   2   3
ENDBRANCH   1   2
BRANCH   1  28
ATOM     28  C   UNL A   1      39.376  23.446  26.902  1.00  0.00     0.118 C 
BRANCH  28  29
ATOM     29  N   UNL A   1      40.559  23.847  26.135  1.00  0.00    -0.352 N 
ATOM     30  C   UNL A   1      41.308  25.001  26.184  1.00  0.00     0.251 C 
ATOM     31  H   UNL A   1      40.868  23.182  25.477  1.00  0.00     0.163 HD
ATOM     32  O   UNL A   1      42.245  25.177  25.412  1.00  0.00    -0.269 OA
BRANCH  30  33
ATOM     33  C   UNL A   1      40.945  26.060  27.140  1.00  0.00     0.039 A 
ATOM     34  C   UNL A   1      40.112  25.752  28.219  1.00  0.00     0.014 A 
ATOM     35  C   UNL A   1      41.490  27.335  27.007  1.00  0.00     0.014 A 
ATOM     36  C   UNL A   1      39.921  26.698  29.227  1.00  0.00     0.010 A 
ATOM     37  C   UNL A   1      41.410  28.219  28.070  1.00  0.00     0.010 A 
ATOM     38  C   UNL A   1      40.621  27.914  29.189  1.00  0.00    -0.014 A 
BRANCH  38  39
ATOM     39  C   UNL A   1      40.541  28.907  30.286  1.00  0.00     0.031 A 
ATOM     40  C   UNL A   1      41.452  28.761  31.475  1.00  0.00     0.074 A 
ATOM     41  C   UNL A   1      39.590  29.863  30.265  1.00  0.00     0.049 A 
ATOM     42  N   UNL A   1      41.442  29.412  32.608  1.00  0.00    -0.248 NA
ATOM     43  C   UNL A   1      42.484  27.711  31.396  1.00  0.00     0.031 C 
ATOM     44  C   UNL A   1      38.619  30.077  29.187  1.00  0.00     0.029 A 
ATOM     45  N   UNL A   1      39.275  30.828  31.187  1.00  0.00    -0.354 N 
ATOM     46  C   UNL A   1      42.435  28.827  33.384  1.00  0.00     0.074 A 
ATOM     47  C   UNL A   1      42.986  27.731  32.621  1.00  0.00     0.031 C 
ATOM     48  C   UNL A   1      37.842  31.127  29.496  1.00  0.00     0.029 A 
ATOM     49  C   UNL A   1      38.218  31.627  30.815  1.00  0.00     0.049 A 
ATOM     50  H   UNL A   1      39.758  30.938  32.037  1.00  0.00     0.167 HD
ATOM     51  C   UNL A   1      42.871  29.186  34.614  1.00  0.00     0.031 A 
ATOM     52  C   UNL A   1      37.615  32.639  31.466  1.00  0.00     0.031 A 
ATOM     53  C   UNL A   1      42.340  30.300  35.352  1.00  0.00     0.049 A 
ATOM     54  C   UNL A   1      38.117  33.022  32.832  1.00  0.00     0.074 A 
ATOM     55  C   UNL A   1      42.750  30.792  36.577  1.00  0.00     0.029 A 
ATOM     56  N   UNL A   1      41.290  31.099  34.926  1.00  0.00    -0.354 N 
ATOM     57  N   UNL A   1      39.094  32.492  33.529  1.00  0.00    -0.248 NA
ATOM     58  C   UNL A   1      37.440  34.145  33.497  1.00  0.00     0.031 C 
ATOM     59  C   UNL A   1      41.914  31.862  36.915  1.00  0.00     0.029 A 
ATOM     60  C   UNL A   1      41.024  32.071  35.873  1.00  0.00     0.049 A 
ATOM     61  H   UNL A   1      40.806  30.991  34.075  1.00  0.00     0.167 HD
ATOM     62  C   UNL A   1      39.167  33.234  34.703  1.00  0.00     0.074 A 
ATOM     63  C   UNL A   1      38.145  34.257  34.614  1.00  0.00     0.031 C 
ATOM     64  C   UNL A   1      40.004  33.082  35.759  1.00  0.00     0.031 A 
BRANCH  51  65
ATOM     65  C   UNL A   1      43.975  28.368  35.228  1.00  0.00    -0.014 A 
ATOM     66  C   UNL A   1      43.689  27.247  36.030  1.00  0.00     0.010 A 
ATOM     67  C   UNL A   1      45.317  28.709  34.984  1.00  0.00     0.010 A 
ATOM     68  C   UNL A   1      44.723  26.511  36.612  1.00  0.00     0.020 A 
ATOM     69  C   UNL A   1      46.356  27.955  35.539  1.00  0.00     0.020 A 
ATOM     70  C   UNL A   1      46.050  26.871  36.365  1.00  0.00     0.054 A 
BRANCH  70  71
ATOM     71  S   UNL A   1      47.371  25.881  37.115  1.00  0.00     0.124 S 
ATOM     72  O   UNL A   1      48.566  26.466  36.509  1.00  0.00    -0.237 OA
ATOM     73  O   UNL A   1      47.199  26.144  38.540  1.00  0.00    -0.237 OA
ATOM     74  O   UNL A   1      47.065  24.516  36.694  1.00  0.00    -0.744 OA
ENDBRANCH  70  71
ENDBRANCH  51  65
BRANCH  52  75
ATOM     75  C   UNL A   1      36.485  33.371  30.831  1.00  0.00    -0.014 A 
ATOM     76  C   UNL A   1      35.247  33.476  31.490  1.00  0.00     0.010 A 
ATOM     77  C   UNL A   1      36.641  33.979  29.571  1.00  0.00     0.010 A 
ATOM     78  C   UNL A   1      34.183  34.159  30.896  1.00  0.00     0.020 A 
ATOM     79  C   UNL A   1      35.586  34.686  28.986  1.00  0.00     0.020 A 
ATOM     80  C   UNL A   1      34.358  34.762  29.648  1.00  0.00     0.054 A 
BRANCH  80  81
ATOM     81  S   UNL A   1      32.976  35.685  28.920  1.00  0.00     0.124 S 
ATOM     82  O   UNL A   1      32.355  34.679  28.066  1.00  0.00    -0.237 OA
ATOM     83  O   UNL A   1      32.206  36.079  30.098  1.00  0.00    -0.237 OA
ATOM     84  O   UNL A   1      33.632  36.786  28.218  1.00  0.00    -0.744 OA
ENDBRANCH  80  81
ENDBRANCH  52  75
BRANCH  64  85
ATOM     85  C   UNL A   1      39.875  34.065  36.891  1.00  0.00    -0.014 A 
ATOM     86  C   UNL A   1      40.428  35.354  36.801  1.00  0.00     0.010 A 
ATOM     87  C   UNL A   1      39.127  33.712  38.029  1.00  0.00     0.010 A 
ATOM     88  C   UNL A   1      40.252  36.268  37.843  1.00  0.00     0.020 A 
ATOM     89  C   UNL A   1      38.925  34.633  39.059  1.00  0.00     0.020 A 
ATOM     90  C   UNL A   1      39.499  35.903  38.964  1.00  0.00     0.054 A 
BRANCH  90  91
ATOM     91  S   UNL A   1      39.235  37.128  40.274  1.00  0.00     0.124 S 
ATOM     92  O   UNL A   1      38.410  36.385  41.222  1.00  0.00    -0.237 OA
ATOM     93  O   UNL A   1      40.595  37.420  40.718  1.00  0.00    -0.237 OA
ATOM     94  O   UNL A   1      38.559  38.229  39.589  1.00  0.00    -0.744 OA
ENDBRANCH  90  91
ENDBRANCH  64  85
ENDBRANCH  38  39
ENDBRANCH  30  33
ENDBRANCH  28  29
ENDBRANCH   1  28
TORSDOF 17
ENDMDL
MODEL 3
REMARK VINA RESULT:     -11.1      4.054      9.395
REMARK SMILES COc1ccc([C@H]2[C@@H](C(=O)NCCCNC(=O)c3ccc(-c4c5nc(c(-c6ccc(S(=O)(=O)[O-])cc6)c6ccc([nH]6)c(-c6ccc(S(=O)(=O)[O-])cc6)c6nc(c(-c7ccc(S(=O)(=O)[O-])cc7)c7ccc4[nH]7)C=C6)C=C5)cc3)CC(=O)N2Cc2ccccc2)cc1
REMARK SMILES IDX 13 1 12 2 11 3 9 4 10 5 8 7 7 8 81 9 78 10 79 11 80 12 6 13
REMARK SMILES IDX 3 14 4 15 90 16 5 17 89 18 2 19 1 20 82 21 83 22 84 23 88 24
REMARK SMILES IDX 85 25 87 26 86 27 14 28 15 29 16 30 17 32 18 33 19 34 77 35
REMARK SMILES IDX 20 36 76 37 21 38 22 39 23 40 70 41 24 42 75 43 69 44 71 45
REMARK SMILES IDX 25 46 74 47 68 48 67 49 26 51 56 52 37 53 55 54 38 55 41 56
REMARK SMILES IDX 54 57 72 58 39 59 40 60 53 62 73 63 42 64 27 65 28 66 36 67
REMARK SMILES IDX 29 68 35 69 30 70 31 71 32 72 33 73 34 74 57 75 58 76 66 77
REMARK SMILES IDX 59 78 65 79 60 80 61 81 62 82 63 83 64 84 43 85 44 86 52 87
REMARK SMILES IDX 45 88 51 89 46 90 47 91 48 92 49 93 50 94
REMARK H PARENT 11 6 15 31 71 50 41 61
REMARK Flexibility Score: inf
ROOT
ATOM      1  C   UNL A   1      38.092  21.563  25.370  1.00  0.00     0.042 C 
ENDROOT
BRANCH   1   2
ATOM      2  C   UNL A   1      37.334  22.846  25.604  1.00  0.00     0.117 C 
BRANCH   2   3
ATOM      3  N   UNL A   1      36.124  22.725  26.391  1.00  0.00    -0.356 N 
ATOM      4  C   UNL A   1      34.889  22.330  25.981  1.00  0.00     0.226 C 
ATOM      5  O   UNL A   1      34.119  21.899  26.847  1.00  0.00    -0.275 OA
ATOM      6  H   UNL A   1      36.208  22.958  27.345  1.00  0.00     0.163 HD
BRANCH   4   7
ATOM      7  C   UNL A   1      34.414  22.424  24.542  1.00  0.00     0.115 C 
ATOM      8  C   UNL A   1      33.975  23.784  23.970  1.00  0.00     0.128 C 
ATOM      9  N   UNL A   1      33.039  23.401  22.912  1.00  0.00    -0.330 N 
ATOM     10  C   UNL A   1      33.337  21.416  24.151  1.00  0.00     0.116 C 
ATOM     11  C   UNL A   1      32.631  22.080  23.002  1.00  0.00     0.224 C 
ATOM     12  O   UNL A   1      31.850  21.512  22.256  1.00  0.00    -0.275 OA
BRANCH   8  13
ATOM     13  C   UNL A   1      33.442  24.818  24.945  1.00  0.00    -0.024 A 
ATOM     14  C   UNL A   1      32.372  26.755  26.714  1.00  0.00     0.118 A 
ATOM     15  C   UNL A   1      31.646  25.605  26.392  1.00  0.00     0.047 A 
ATOM     16  C   UNL A   1      33.644  26.924  26.180  1.00  0.00     0.047 A 
ATOM     17  C   UNL A   1      32.174  24.643  25.522  1.00  0.00     0.010 A 
ATOM     18  C   UNL A   1      34.163  25.975  25.294  1.00  0.00     0.010 A 
BRANCH  14  19
ATOM     19  O   UNL A   1      31.734  27.637  27.540  1.00  0.00    -0.497 OA
ATOM     20  C   UNL A   1      31.775  29.009  27.150  1.00  0.00     0.278 C 
ENDBRANCH  14  19
ENDBRANCH   8  13
BRANCH   9  21
ATOM     21  C   UNL A   1      32.755  24.216  21.731  1.00  0.00     0.155 C 
BRANCH  21  22
ATOM     22  C   UNL A   1      32.371  25.644  22.024  1.00  0.00    -0.029 A 
ATOM     23  C   UNL A   1      31.081  25.955  22.483  1.00  0.00     0.005 A 
ATOM     24  C   UNL A   1      33.327  26.669  21.945  1.00  0.00     0.005 A 
ATOM     25  C   UNL A   1      30.771  27.253  22.896  1.00  0.00     0.000 A 
ATOM     26  C   UNL A   1      33.020  27.960  22.376  1.00  0.00     0.000 A 
ATOM     27  C   UNL A   1      31.745  28.251  22.857  1.00  0.00     0.000 A 
ENDBRANCH  21  22
ENDBRANCH   9  21
ENDBRANCH   4   7
ENDBRANCH   2   3
ENDBRANCH   1   2
BRANCH   1  28
ATOM     28  C   UNL A   1      39.222  21.366  26.368  1.00  0.00     0.118 C 
BRANCH  28  29
ATOM     29  N   UNL A   1      40.042  20.177  26.120  1.00  0.00    -0.352 N 
ATOM     30  C   UNL A   1      41.410  20.025  26.088  1.00  0.00     0.251 C 
ATOM     31  H   UNL A   1      39.531  19.353  25.947  1.00  0.00     0.163 HD
ATOM     32  O   UNL A   1      41.916  18.943  25.806  1.00  0.00    -0.269 OA
BRANCH  30  33
ATOM     33  C   UNL A   1      42.275  21.188  26.345  1.00  0.00     0.039 A 
ATOM     34  C   UNL A   1      42.641  22.017  25.280  1.00  0.00     0.014 A 
ATOM     35  C   UNL A   1      42.658  21.496  27.647  1.00  0.00     0.014 A 
ATOM     36  C   UNL A   1      43.296  23.219  25.545  1.00  0.00     0.010 A 
ATOM     37  C   UNL A   1      43.185  22.748  27.919  1.00  0.00     0.010 A 
ATOM     38  C   UNL A   1      43.516  23.621  26.872  1.00  0.00    -0.014 A 
BRANCH  38  39
ATOM     39  C   UNL A   1      44.108  24.937  27.211  1.00  0.00     0.031 A 
ATOM     40  C   UNL A   1      43.209  26.042  27.698  1.00  0.00     0.074 A 
ATOM     41  C   UNL A   1      45.416  25.169  26.982  1.00  0.00     0.049 A 
ATOM     42  N   UNL A   1      43.486  27.304  27.896  1.00  0.00    -0.248 NA
ATOM     43  C   UNL A   1      41.801  25.689  27.954  1.00  0.00     0.031 C 
ATOM     44  C   UNL A   1      46.380  24.189  26.470  1.00  0.00     0.029 A 
ATOM     45  N   UNL A   1      46.161  26.309  27.140  1.00  0.00    -0.354 N 
ATOM     46  C   UNL A   1      42.283  27.896  28.261  1.00  0.00     0.074 A 
ATOM     47  C   UNL A   1      41.264  26.874  28.198  1.00  0.00     0.031 C 
ATOM     48  C   UNL A   1      47.591  24.763  26.388  1.00  0.00     0.029 A 
ATOM     49  C   UNL A   1      47.483  26.162  26.787  1.00  0.00     0.049 A 
ATOM     50  H   UNL A   1      45.786  27.156  27.474  1.00  0.00     0.167 HD
ATOM     51  C   UNL A   1      42.049  29.174  28.642  1.00  0.00     0.031 A 
ATOM     52  C   UNL A   1      48.490  27.055  26.777  1.00  0.00     0.031 A 
ATOM     53  C   UNL A   1      43.075  30.176  28.736  1.00  0.00     0.049 A 
ATOM     54  C   UNL A   1      48.208  28.470  27.206  1.00  0.00     0.074 A 
ATOM     55  C   UNL A   1      42.962  31.483  29.172  1.00  0.00     0.029 A 
ATOM     56  N   UNL A   1      44.405  29.977  28.396  1.00  0.00    -0.354 N 
ATOM     57  N   UNL A   1      47.074  29.000  27.600  1.00  0.00    -0.248 NA
ATOM     58  C   UNL A   1      49.342  29.405  27.196  1.00  0.00     0.031 C 
ATOM     59  C   UNL A   1      44.217  32.090  29.050  1.00  0.00     0.029 A 
ATOM     60  C   UNL A   1      45.122  31.143  28.594  1.00  0.00     0.049 A 
ATOM     61  H   UNL A   1      44.783  29.131  28.063  1.00  0.00     0.167 HD
ATOM     62  C   UNL A   1      47.364  30.324  27.911  1.00  0.00     0.074 A 
ATOM     63  C   UNL A   1      48.782  30.508  27.672  1.00  0.00     0.031 C 
ATOM     64  C   UNL A   1      46.534  31.300  28.353  1.00  0.00     0.031 A 
BRANCH  51  65
ATOM     65  C   UNL A   1      40.633  29.549  28.988  1.00  0.00    -0.014 A 
ATOM     66  C   UNL A   1      39.638  29.623  27.996  1.00  0.00     0.010 A 
ATOM     67  C   UNL A   1      40.286  29.811  30.326  1.00  0.00     0.010 A 
ATOM     68  C   UNL A   1      38.333  29.996  28.328  1.00  0.00     0.020 A 
ATOM     69  C   UNL A   1      38.974  30.153  30.667  1.00  0.00     0.020 A 
ATOM     70  C   UNL A   1      38.011  30.260  29.661  1.00  0.00     0.054 A 
BRANCH  70  71
ATOM     71  S   UNL A   1      36.303  30.717  30.065  1.00  0.00     0.124 S 
ATOM     72  O   UNL A   1      35.655  30.646  28.757  1.00  0.00    -0.237 OA
ATOM     73  O   UNL A   1      35.910  29.682  31.016  1.00  0.00    -0.237 OA
ATOM     74  O   UNL A   1      36.425  32.061  30.626  1.00  0.00    -0.744 OA
ENDBRANCH  70  71
ENDBRANCH  51  65
BRANCH  52  75
ATOM     75  C   UNL A   1      49.858  26.637  26.364  1.00  0.00    -0.014 A 
ATOM     76  C   UNL A   1      50.733  26.051  27.296  1.00  0.00     0.010 A 
ATOM     77  C   UNL A   1      50.291  26.806  25.035  1.00  0.00     0.010 A 
ATOM     78  C   UNL A   1      52.019  25.660  26.913  1.00  0.00     0.020 A 
ATOM     79  C   UNL A   1      51.566  26.391  24.643  1.00  0.00     0.020 A 
ATOM     80  C   UNL A   1      52.428  25.830  25.588  1.00  0.00     0.054 A 
BRANCH  80  81
ATOM     81  S   UNL A   1      54.084  25.268  25.106  1.00  0.00     0.124 S 
ATOM     82  O   UNL A   1      54.902  25.739  26.218  1.00  0.00    -0.237 OA
ATOM     83  O   UNL A   1      53.911  23.820  25.015  1.00  0.00    -0.237 OA
ATOM     84  O   UNL A   1      54.314  25.941  23.828  1.00  0.00    -0.744 OA
ENDBRANCH  80  81
ENDBRANCH  52  75
BRANCH  64  85
ATOM     85  C   UNL A   1      47.138  32.646  28.643  1.00  0.00    -0.014 A 
ATOM     86  C   UNL A   1      47.704  32.935  29.896  1.00  0.00     0.010 A 
ATOM     87  C   UNL A   1      47.204  33.608  27.618  1.00  0.00     0.010 A 
ATOM     88  C   UNL A   1      48.307  34.174  30.126  1.00  0.00     0.020 A 
ATOM     89  C   UNL A   1      47.832  34.836  27.836  1.00  0.00     0.020 A 
ATOM     90  C   UNL A   1      48.370  35.116  29.094  1.00  0.00     0.054 A 
BRANCH  90  91
ATOM     91  S   UNL A   1      49.212  36.692  29.401  1.00  0.00     0.124 S 
ATOM     92  O   UNL A   1      48.759  37.018  30.751  1.00  0.00    -0.237 OA
ATOM     93  O   UNL A   1      50.622  36.330  29.281  1.00  0.00    -0.237 OA
ATOM     94  O   UNL A   1      48.706  37.567  28.345  1.00  0.00    -0.744 OA
ENDBRANCH  90  91
ENDBRANCH  64  85
ENDBRANCH  38  39
ENDBRANCH  30  33
ENDBRANCH  28  29
ENDBRANCH   1  28
TORSDOF 17
ENDMDL
