MODEL 1
REMARK VINA RESULT:     -11.9      0.000      0.000
REMARK SMILES CCc1nc2sc(C(=O)NCC(=O)NCCCNC(=O)c3ccc(-c4c5nc(c(-c6ccc(S(=O)(=O)[O-])cc6)c6ccc([nH]6)c(-c6ccc(S(=O)(=O)[O-])cc6)c6nc(c(-c7ccc(S(=O)(=O)[O-])cc7)c7ccc4[nH]7)C=C6)C=C5)cc3)c(N)c2c(C(F)(F)F)c1C
REMARK SMILES IDX 16 1 15 2 14 3 12 4 13 5 11 7 10 8 8 9 9 10 7 12 3 13 4 14
REMARK SMILES IDX 89 15 5 16 84 17 90 18 6 19 83 20 81 21 2 22 1 23 85 24
REMARK SMILES IDX 86 25 87 26 88 27 82 28 17 31 18 32 19 33 20 35 21 36 22 37
REMARK SMILES IDX 80 38 23 39 79 40 24 41 25 42 26 43 73 44 27 45 78 46 72 47
REMARK SMILES IDX 74 48 28 49 77 50 71 51 70 52 29 54 59 55 40 56 58 57 41 58
REMARK SMILES IDX 44 59 57 60 75 61 42 62 43 63 56 65 76 66 45 67 30 68 31 69
REMARK SMILES IDX 39 70 32 71 38 72 33 73 34 74 35 75 36 76 37 77 60 78 61 79
REMARK SMILES IDX 69 80 62 81 68 82 63 83 64 84 65 85 66 86 67 87 46 88 47 89
REMARK SMILES IDX 55 90 48 91 54 92 49 93 50 94 51 95 52 96 53 97
REMARK H PARENT 14 6 10 11 82 29 82 30 18 34 74 53 44 64
REMARK Flexibility Score: inf
ROOT
ATOM      1  C   UNL A   1      31.515  31.461  26.748  1.00  0.00     0.042 C 
ENDROOT
BRANCH   1   2
ATOM      2  C   UNL A   1      31.933  30.336  25.808  1.00  0.00     0.117 C 
BRANCH   2   3
ATOM      3  N   UNL A   1      33.046  29.533  26.279  1.00  0.00    -0.355 N 
ATOM      4  C   UNL A   1      33.188  28.197  26.503  1.00  0.00     0.239 C 
ATOM      5  O   UNL A   1      34.340  27.805  26.719  1.00  0.00    -0.273 OA
ATOM      6  H   UNL A   1      33.857  30.055  26.474  1.00  0.00     0.163 HD
BRANCH   4   7
ATOM      7  C   UNL A   1      32.055  27.162  26.369  1.00  0.00     0.216 C 
BRANCH   7   8
ATOM      8  N   UNL A   1      31.559  26.760  25.072  1.00  0.00    -0.342 N 
ATOM      9  C   UNL A   1      31.568  25.579  24.372  1.00  0.00     0.264 C 
ATOM     10  O   UNL A   1      30.828  25.614  23.380  1.00  0.00    -0.268 OA
ATOM     11  H   UNL A   1      31.118  27.492  24.584  1.00  0.00     0.164 HD
BRANCH   9  12
ATOM     12  C   UNL A   1      32.418  24.420  24.676  1.00  0.00     0.118 A 
ATOM     13  C   UNL A   1      34.265  20.071  24.697  1.00  0.00     0.045 A 
ATOM     14  N   UNL A   1      33.058  20.667  24.626  1.00  0.00    -0.242 NA
ATOM     15  C   UNL A   1      35.466  20.765  24.907  1.00  0.00    -0.017 A 
ATOM     16  C   UNL A   1      33.059  22.006  24.737  1.00  0.00     0.127 A 
ATOM     17  C   UNL A   1      35.416  22.167  25.147  1.00  0.00     0.073 A 
ATOM     18  C   UNL A   1      36.797  20.054  24.895  1.00  0.00     0.047 C 
ATOM     19  S   UNL A   1      31.623  22.879  24.542  1.00  0.00    -0.108 S 
ATOM     20  C   UNL A   1      34.151  22.811  24.999  1.00  0.00     0.048 A 
ATOM     21  C   UNL A   1      33.754  24.203  24.993  1.00  0.00     0.066 A 
BRANCH  13  22
ATOM     22  C   UNL A   1      34.212  18.567  24.531  1.00  0.00     0.053 C 
ATOM     23  C   UNL A   1      32.881  18.076  23.974  1.00  0.00     0.011 C 
ENDBRANCH  13  22
BRANCH  17  24
ATOM     24  C   UNL A   1      36.654  22.974  25.466  1.00  0.00     0.417 C 
ATOM     25  F   UNL A   1      37.694  22.192  25.869  1.00  0.00    -0.166 F 
ATOM     26  F   UNL A   1      37.114  23.685  24.393  1.00  0.00    -0.166 F 
ATOM     27  F   UNL A   1      36.499  23.913  26.441  1.00  0.00    -0.166 F 
ENDBRANCH  17  24
BRANCH  21  28
ATOM     28  N   UNL A   1      34.690  25.162  25.153  1.00  0.00    -0.397 N 
ATOM     29  H   UNL A   1      34.511  25.930  25.742  1.00  0.00     0.156 HD
ATOM     30  H   UNL A   1      35.550  25.094  24.680  1.00  0.00     0.156 HD
ENDBRANCH  21  28
ENDBRANCH   9  12
ENDBRANCH   7   8
ENDBRANCH   4   7
ENDBRANCH   2   3
ENDBRANCH   1   2
BRANCH   1  31
ATOM     31  C   UNL A   1      32.727  32.223  27.244  1.00  0.00     0.118 C 
BRANCH  31  32
ATOM     32  N   UNL A   1      32.431  33.633  27.533  1.00  0.00    -0.352 N 
ATOM     33  C   UNL A   1      33.046  34.447  28.465  1.00  0.00     0.251 C 
ATOM     34  H   UNL A   1      31.712  34.045  27.003  1.00  0.00     0.163 HD
ATOM     35  O   UNL A   1      32.529  35.503  28.828  1.00  0.00    -0.269 OA
BRANCH  33  36
ATOM     36  C   UNL A   1      34.343  34.016  29.003  1.00  0.00     0.039 A 
ATOM     37  C   UNL A   1      34.451  33.241  30.161  1.00  0.00     0.014 A 
ATOM     38  C   UNL A   1      35.464  34.339  28.246  1.00  0.00     0.014 A 
ATOM     39  C   UNL A   1      35.698  32.719  30.498  1.00  0.00     0.010 A 
ATOM     40  C   UNL A   1      36.632  33.668  28.466  1.00  0.00     0.010 A 
ATOM     41  C   UNL A   1      36.780  32.922  29.630  1.00  0.00    -0.014 A 
BRANCH  41  42
ATOM     42  C   UNL A   1      38.075  32.285  29.839  1.00  0.00     0.031 A 
ATOM     43  C   UNL A   1      38.131  30.849  29.447  1.00  0.00     0.074 A 
ATOM     44  C   UNL A   1      39.181  33.021  30.093  1.00  0.00     0.049 A 
ATOM     45  N   UNL A   1      38.342  29.830  30.212  1.00  0.00    -0.248 NA
ATOM     46  C   UNL A   1      37.775  30.485  28.062  1.00  0.00     0.031 C 
ATOM     47  C   UNL A   1      39.300  34.486  30.174  1.00  0.00     0.029 A 
ATOM     48  N   UNL A   1      40.475  32.625  30.181  1.00  0.00    -0.354 N 
ATOM     49  C   UNL A   1      38.365  28.718  29.375  1.00  0.00     0.074 A 
ATOM     50  C   UNL A   1      37.826  29.152  28.111  1.00  0.00     0.031 C 
ATOM     51  C   UNL A   1      40.594  34.847  30.024  1.00  0.00     0.029 A 
ATOM     52  C   UNL A   1      41.409  33.648  30.025  1.00  0.00     0.049 A 
ATOM     53  H   UNL A   1      40.735  31.689  30.343  1.00  0.00     0.167 HD
ATOM     54  C   UNL A   1      39.051  27.587  29.705  1.00  0.00     0.031 A 
ATOM     55  C   UNL A   1      42.751  33.510  29.871  1.00  0.00     0.031 A 
ATOM     56  C   UNL A   1      39.465  27.601  31.083  1.00  0.00     0.049 A 
ATOM     57  C   UNL A   1      43.092  32.154  30.367  1.00  0.00     0.074 A 
ATOM     58  C   UNL A   1      38.805  27.642  32.294  1.00  0.00     0.029 A 
ATOM     59  N   UNL A   1      40.756  28.005  31.335  1.00  0.00    -0.354 N 
ATOM     60  N   UNL A   1      42.949  31.791  31.612  1.00  0.00    -0.248 NA
ATOM     61  C   UNL A   1      43.130  31.068  29.401  1.00  0.00     0.031 C 
ATOM     62  C   UNL A   1      39.583  28.519  33.104  1.00  0.00     0.029 A 
ATOM     63  C   UNL A   1      40.716  28.896  32.377  1.00  0.00     0.049 A 
ATOM     64  H   UNL A   1      41.562  27.707  30.855  1.00  0.00     0.167 HD
ATOM     65  C   UNL A   1      42.438  30.501  31.548  1.00  0.00     0.074 A 
ATOM     66  C   UNL A   1      42.661  30.077  30.165  1.00  0.00     0.031 C 
ATOM     67  C   UNL A   1      41.630  30.011  32.533  1.00  0.00     0.031 A 
BRANCH  54  68
ATOM     68  C   UNL A   1      39.682  26.659  28.699  1.00  0.00    -0.014 A 
ATOM     69  C   UNL A   1      39.048  25.435  28.404  1.00  0.00     0.010 A 
ATOM     70  C   UNL A   1      41.005  26.823  28.237  1.00  0.00     0.010 A 
ATOM     71  C   UNL A   1      39.721  24.412  27.723  1.00  0.00     0.020 A 
ATOM     72  C   UNL A   1      41.670  25.827  27.520  1.00  0.00     0.020 A 
ATOM     73  C   UNL A   1      41.033  24.614  27.292  1.00  0.00     0.054 A 
BRANCH  73  74
ATOM     74  S   UNL A   1      41.922  23.257  26.491  1.00  0.00     0.124 S 
ATOM     75  O   UNL A   1      40.836  22.339  26.159  1.00  0.00    -0.237 OA
ATOM     76  O   UNL A   1      42.553  23.929  25.358  1.00  0.00    -0.237 OA
ATOM     77  O   UNL A   1      42.842  22.791  27.525  1.00  0.00    -0.744 OA
ENDBRANCH  73  74
ENDBRANCH  54  68
BRANCH  55  78
ATOM     78  C   UNL A   1      43.684  34.315  29.037  1.00  0.00    -0.014 A 
ATOM     79  C   UNL A   1      44.943  34.704  29.534  1.00  0.00     0.010 A 
ATOM     80  C   UNL A   1      43.465  34.443  27.650  1.00  0.00     0.010 A 
ATOM     81  C   UNL A   1      45.969  35.130  28.668  1.00  0.00     0.020 A 
ATOM     82  C   UNL A   1      44.479  34.872  26.781  1.00  0.00     0.020 A 
ATOM     83  C   UNL A   1      45.737  35.184  27.292  1.00  0.00     0.054 A 
BRANCH  83  84
ATOM     84  S   UNL A   1      47.122  35.540  26.166  1.00  0.00     0.124 S 
ATOM     85  O   UNL A   1      48.286  35.311  27.017  1.00  0.00    -0.237 OA
ATOM     86  O   UNL A   1      46.919  34.565  25.098  1.00  0.00    -0.237 OA
ATOM     87  O   UNL A   1      46.901  36.933  25.777  1.00  0.00    -0.744 OA
ENDBRANCH  83  84
ENDBRANCH  55  78
BRANCH  67  88
ATOM     88  C   UNL A   1      41.501  30.800  33.820  1.00  0.00    -0.014 A 
ATOM     89  C   UNL A   1      40.594  31.864  34.008  1.00  0.00     0.010 A 
ATOM     90  C   UNL A   1      42.211  30.325  34.935  1.00  0.00     0.010 A 
ATOM     91  C   UNL A   1      40.421  32.445  35.276  1.00  0.00     0.020 A 
ATOM     92  C   UNL A   1      42.031  30.885  36.202  1.00  0.00     0.020 A 
ATOM     93  C   UNL A   1      41.141  31.948  36.367  1.00  0.00     0.054 A 
BRANCH  93  94
ATOM     94  S   UNL A   1      40.887  32.667  38.015  1.00  0.00     0.124 S 
ATOM     95  O   UNL A   1      39.458  32.457  38.237  1.00  0.00    -0.237 OA
ATOM     96  O   UNL A   1      41.777  31.873  38.857  1.00  0.00    -0.237 OA
ATOM     97  O   UNL A   1      41.286  34.064  37.850  1.00  0.00    -0.744 OA
ENDBRANCH  93  94
ENDBRANCH  67  88
ENDBRANCH  41  42
ENDBRANCH  33  36
ENDBRANCH  31  32
ENDBRANCH   1  31
TORSDOF 18
ENDMDL
MODEL 2
REMARK VINA RESULT:     -11.8      4.075     10.014
REMARK SMILES CCc1nc2sc(C(=O)NCC(=O)NCCCNC(=O)c3ccc(-c4c5nc(c(-c6ccc(S(=O)(=O)[O-])cc6)c6ccc([nH]6)c(-c6ccc(S(=O)(=O)[O-])cc6)c6nc(c(-c7ccc(S(=O)(=O)[O-])cc7)c7ccc4[nH]7)C=C6)C=C5)cc3)c(N)c2c(C(F)(F)F)c1C
REMARK SMILES IDX 16 1 15 2 14 3 12 4 13 5 11 7 10 8 8 9 9 10 7 12 3 13 4 14
REMARK SMILES IDX 89 15 5 16 84 17 90 18 6 19 83 20 81 21 2 22 1 23 85 24
REMARK SMILES IDX 86 25 87 26 88 27 82 28 17 31 18 32 19 33 20 35 21 36 22 37
REMARK SMILES IDX 80 38 23 39 79 40 24 41 25 42 26 43 73 44 27 45 78 46 72 47
REMARK SMILES IDX 74 48 28 49 77 50 71 51 70 52 29 54 59 55 40 56 58 57 41 58
REMARK SMILES IDX 44 59 57 60 75 61 42 62 43 63 56 65 76 66 45 67 30 68 31 69
REMARK SMILES IDX 39 70 32 71 38 72 33 73 34 74 35 75 36 76 37 77 60 78 61 79
REMARK SMILES IDX 69 80 62 81 68 82 63 83 64 84 65 85 66 86 67 87 46 88 47 89
REMARK SMILES IDX 55 90 48 91 54 92 49 93 50 94 51 95 52 96 53 97
REMARK H PARENT 14 6 10 11 82 29 82 30 18 34 74 53 44 64
REMARK Flexibility Score: inf
ROOT
ATOM      1  C   UNL A   1      37.586  20.166  24.895  1.00  0.00     0.042 C 
ENDROOT
BRANCH   1   2
ATOM      2  C   UNL A   1      36.560  21.287  25.014  1.00  0.00     0.117 C 
BRANCH   2   3
ATOM      3  N   UNL A   1      35.456  21.007  25.914  1.00  0.00    -0.355 N 
ATOM      4  C   UNL A   1      34.234  21.585  26.078  1.00  0.00     0.239 C 
ATOM      5  O   UNL A   1      33.442  20.976  26.808  1.00  0.00    -0.273 OA
ATOM      6  H   UNL A   1      35.622  20.253  26.523  1.00  0.00     0.163 HD
BRANCH   4   7
ATOM      7  C   UNL A   1      33.748  22.837  25.325  1.00  0.00     0.216 C 
BRANCH   7   8
ATOM      8  N   UNL A   1      33.665  22.856  23.881  1.00  0.00    -0.342 N 
ATOM      9  C   UNL A   1      33.552  23.853  22.946  1.00  0.00     0.264 C 
ATOM     10  O   UNL A   1      33.740  23.442  21.793  1.00  0.00    -0.268 OA
ATOM     11  H   UNL A   1      33.695  21.957  23.482  1.00  0.00     0.164 HD
BRANCH   9  12
ATOM     12  C   UNL A   1      33.159  25.241  23.229  1.00  0.00     0.118 A 
ATOM     13  C   UNL A   1      30.620  29.199  23.686  1.00  0.00     0.045 A 
ATOM     14  N   UNL A   1      30.731  28.148  22.850  1.00  0.00    -0.242 NA
ATOM     15  C   UNL A   1      31.474  29.420  24.777  1.00  0.00    -0.017 A 
ATOM     16  C   UNL A   1      31.709  27.273  23.134  1.00  0.00     0.127 A 
ATOM     17  C   UNL A   1      32.576  28.542  24.975  1.00  0.00     0.073 A 
ATOM     18  C   UNL A   1      31.251  30.569  25.729  1.00  0.00     0.047 C 
ATOM     19  S   UNL A   1      31.871  25.851  22.232  1.00  0.00    -0.108 S 
ATOM     20  C   UNL A   1      32.652  27.389  24.137  1.00  0.00     0.048 A 
ATOM     21  C   UNL A   1      33.504  26.219  24.155  1.00  0.00     0.066 A 
BRANCH  13  22
ATOM     22  C   UNL A   1      29.481  30.136  23.340  1.00  0.00     0.053 C 
ATOM     23  C   UNL A   1      29.211  30.216  21.843  1.00  0.00     0.011 C 
ENDBRANCH  13  22
BRANCH  17  24
ATOM     24  C   UNL A   1      33.592  28.758  26.074  1.00  0.00     0.417 C 
ATOM     25  F   UNL A   1      33.400  27.919  27.130  1.00  0.00    -0.166 F 
ATOM     26  F   UNL A   1      34.876  28.548  25.658  1.00  0.00    -0.166 F 
ATOM     27  F   UNL A   1      33.618  30.014  26.601  1.00  0.00    -0.166 F 
ENDBRANCH  17  24
BRANCH  21  28
ATOM     28  N   UNL A   1      34.448  26.097  25.112  1.00  0.00    -0.397 N 
ATOM     29  H   UNL A   1      35.305  25.661  24.905  1.00  0.00     0.156 HD
ATOM     30  H   UNL A   1      34.278  26.443  26.018  1.00  0.00     0.156 HD
ENDBRANCH  21  28
ENDBRANCH   9  12
ENDBRANCH   7   8
ENDBRANCH   4   7
ENDBRANCH   2   3
ENDBRANCH   1   2
BRANCH   1  31
ATOM     31  C   UNL A   1      38.850  20.513  25.656  1.00  0.00     0.118 C 
BRANCH  31  32
ATOM     32  N   UNL A   1      39.784  19.382  25.748  1.00  0.00    -0.352 N 
ATOM     33  C   UNL A   1      41.142  19.432  25.995  1.00  0.00     0.251 C 
ATOM     34  H   UNL A   1      39.398  18.486  25.618  1.00  0.00     0.163 HD
ATOM     35  O   UNL A   1      41.869  18.468  25.758  1.00  0.00    -0.269 OA
BRANCH  33  36
ATOM     36  C   UNL A   1      41.691  20.671  26.561  1.00  0.00     0.039 A 
ATOM     37  C   UNL A   1      42.343  21.626  25.775  1.00  0.00     0.014 A 
ATOM     38  C   UNL A   1      41.447  20.896  27.911  1.00  0.00     0.014 A 
ATOM     39  C   UNL A   1      42.667  22.853  26.351  1.00  0.00     0.010 A 
ATOM     40  C   UNL A   1      41.583  22.159  28.412  1.00  0.00     0.010 A 
ATOM     41  C   UNL A   1      42.262  23.117  27.667  1.00  0.00    -0.014 A 
BRANCH  41  42
ATOM     42  C   UNL A   1      42.434  24.425  28.286  1.00  0.00     0.031 A 
ATOM     43  C   UNL A   1      41.324  25.385  28.027  1.00  0.00     0.074 A 
ATOM     44  C   UNL A   1      43.375  24.630  29.236  1.00  0.00     0.049 A 
ATOM     45  N   UNL A   1      41.383  26.505  27.388  1.00  0.00    -0.248 NA
ATOM     46  C   UNL A   1      39.953  24.990  28.404  1.00  0.00     0.031 C 
ATOM     47  C   UNL A   1      44.315  23.653  29.810  1.00  0.00     0.029 A 
ATOM     48  N   UNL A   1      43.592  25.723  30.009  1.00  0.00    -0.354 N 
ATOM     49  C   UNL A   1      40.110  27.064  27.470  1.00  0.00     0.074 A 
ATOM     50  C   UNL A   1      39.237  26.014  27.932  1.00  0.00     0.031 C 
ATOM     51  C   UNL A   1      44.786  24.114  30.990  1.00  0.00     0.029 A 
ATOM     52  C   UNL A   1      44.335  25.481  31.163  1.00  0.00     0.049 A 
ATOM     53  H   UNL A   1      43.252  26.617  29.774  1.00  0.00     0.167 HD
ATOM     54  C   UNL A   1      39.912  28.409  27.388  1.00  0.00     0.031 A 
ATOM     55  C   UNL A   1      44.531  26.335  32.201  1.00  0.00     0.031 A 
ATOM     56  C   UNL A   1      41.093  29.093  26.932  1.00  0.00     0.049 A 
ATOM     57  C   UNL A   1      44.228  27.694  31.687  1.00  0.00     0.074 A 
ATOM     58  C   UNL A   1      41.848  29.060  25.778  1.00  0.00     0.029 A 
ATOM     59  N   UNL A   1      41.895  29.651  27.900  1.00  0.00    -0.354 N 
ATOM     60  N   UNL A   1      44.927  28.277  30.754  1.00  0.00    -0.248 NA
ATOM     61  C   UNL A   1      42.876  28.200  31.862  1.00  0.00     0.031 C 
ATOM     62  C   UNL A   1      43.199  29.145  26.224  1.00  0.00     0.029 A 
ATOM     63  C   UNL A   1      43.193  29.311  27.612  1.00  0.00     0.049 A 
ATOM     64  H   UNL A   1      41.593  30.197  28.663  1.00  0.00     0.167 HD
ATOM     65  C   UNL A   1      43.987  28.896  29.941  1.00  0.00     0.074 A 
ATOM     66  C   UNL A   1      42.752  28.893  30.726  1.00  0.00     0.031 C 
ATOM     67  C   UNL A   1      44.220  29.091  28.610  1.00  0.00     0.031 A 
BRANCH  54  68
ATOM     68  C   UNL A   1      38.794  29.142  28.085  1.00  0.00    -0.014 A 
ATOM     69  C   UNL A   1      37.657  29.521  27.344  1.00  0.00     0.010 A 
ATOM     70  C   UNL A   1      38.937  29.703  29.371  1.00  0.00     0.010 A 
ATOM     71  C   UNL A   1      36.736  30.451  27.846  1.00  0.00     0.020 A 
ATOM     72  C   UNL A   1      38.004  30.598  29.899  1.00  0.00     0.020 A 
ATOM     73  C   UNL A   1      36.923  30.990  29.120  1.00  0.00     0.054 A 
BRANCH  73  74
ATOM     74  S   UNL A   1      35.778  32.254  29.724  1.00  0.00     0.124 S 
ATOM     75  O   UNL A   1      34.568  31.954  28.964  1.00  0.00    -0.237 OA
ATOM     76  O   UNL A   1      35.719  31.957  31.153  1.00  0.00    -0.237 OA
ATOM     77  O   UNL A   1      36.440  33.509  29.380  1.00  0.00    -0.744 OA
ENDBRANCH  73  74
ENDBRANCH  54  68
BRANCH  55  78
ATOM     78  C   UNL A   1      44.630  26.033  33.654  1.00  0.00    -0.014 A 
ATOM     79  C   UNL A   1      45.572  26.695  34.467  1.00  0.00     0.010 A 
ATOM     80  C   UNL A   1      43.601  25.319  34.303  1.00  0.00     0.010 A 
ATOM     81  C   UNL A   1      45.444  26.708  35.868  1.00  0.00     0.020 A 
ATOM     82  C   UNL A   1      43.470  25.322  35.699  1.00  0.00     0.020 A 
ATOM     83  C   UNL A   1      44.376  26.043  36.474  1.00  0.00     0.054 A 
BRANCH  83  84
ATOM     84  S   UNL A   1      44.104  26.232  38.264  1.00  0.00     0.124 S 
ATOM     85  O   UNL A   1      44.829  25.090  38.813  1.00  0.00    -0.237 OA
ATOM     86  O   UNL A   1      44.690  27.541  38.536  1.00  0.00    -0.237 OA
ATOM     87  O   UNL A   1      42.650  26.167  38.401  1.00  0.00    -0.744 OA
ENDBRANCH  83  84
ENDBRANCH  55  78
BRANCH  67  88
ATOM     88  C   UNL A   1      45.619  28.852  28.080  1.00  0.00    -0.014 A 
ATOM     89  C   UNL A   1      46.109  27.592  27.679  1.00  0.00     0.010 A 
ATOM     90  C   UNL A   1      46.408  29.986  27.822  1.00  0.00     0.010 A 
ATOM     91  C   UNL A   1      47.361  27.474  27.051  1.00  0.00     0.020 A 
ATOM     92  C   UNL A   1      47.645  29.878  27.183  1.00  0.00     0.020 A 
ATOM     93  C   UNL A   1      48.121  28.622  26.806  1.00  0.00     0.054 A 
BRANCH  93  94
ATOM     94  S   UNL A   1      49.719  28.478  25.956  1.00  0.00     0.124 S 
ATOM     95  O   UNL A   1      49.327  28.093  24.603  1.00  0.00    -0.237 OA
ATOM     96  O   UNL A   1      50.281  29.819  26.091  1.00  0.00    -0.237 OA
ATOM     97  O   UNL A   1      50.422  27.441  26.712  1.00  0.00    -0.744 OA
ENDBRANCH  93  94
ENDBRANCH  67  88
ENDBRANCH  41  42
ENDBRANCH  33  36
ENDBRANCH  31  32
ENDBRANCH   1  31
TORSDOF 18
ENDMDL
MODEL 3
REMARK VINA RESULT:     -11.8      3.086      8.720
REMARK SMILES CCc1nc2sc(C(=O)NCC(=O)NCCCNC(=O)c3ccc(-c4c5nc(c(-c6ccc(S(=O)(=O)[O-])cc6)c6ccc([nH]6)c(-c6ccc(S(=O)(=O)[O-])cc6)c6nc(c(-c7ccc(S(=O)(=O)[O-])cc7)c7ccc4[nH]7)C=C6)C=C5)cc3)c(N)c2c(C(F)(F)F)c1C
REMARK SMILES IDX 16 1 15 2 14 3 12 4 13 5 11 7 10 8 8 9 9 10 7 12 3 13 4 14
REMARK SMILES IDX 89 15 5 16 84 17 90 18 6 19 83 20 81 21 2 22 1 23 85 24
REMARK SMILES IDX 86 25 87 26 88 27 82 28 17 31 18 32 19 33 20 35 21 36 22 37
REMARK SMILES IDX 80 38 23 39 79 40 24 41 25 42 26 43 73 44 27 45 78 46 72 47
REMARK SMILES IDX 74 48 28 49 77 50 71 51 70 52 29 54 59 55 40 56 58 57 41 58
REMARK SMILES IDX 44 59 57 60 75 61 42 62 43 63 56 65 76 66 45 67 30 68 31 69
REMARK SMILES IDX 39 70 32 71 38 72 33 73 34 74 35 75 36 76 37 77 60 78 61 79
REMARK SMILES IDX 69 80 62 81 68 82 63 83 64 84 65 85 66 86 67 87 46 88 47 89
REMARK SMILES IDX 55 90 48 91 54 92 49 93 50 94 51 95 52 96 53 97
REMARK H PARENT 14 6 10 11 82 29 82 30 18 34 74 53 44 64
REMARK Flexibility Score: inf
ROOT
ATOM      1  C   UNL A   1      38.876  23.208  26.167  1.00  0.00     0.042 C 
ENDROOT
BRANCH   1   2
ATOM      2  C   UNL A   1      37.834  22.182  25.740  1.00  0.00     0.117 C 
BRANCH   2   3
ATOM      3  N   UNL A   1      37.472  22.233  24.335  1.00  0.00    -0.355 N 
ATOM      4  C   UNL A   1      36.501  22.906  23.658  1.00  0.00     0.239 C 
ATOM      5  O   UNL A   1      36.586  22.882  22.425  1.00  0.00    -0.273 OA
ATOM      6  H   UNL A   1      38.039  21.672  23.759  1.00  0.00     0.163 HD
BRANCH   4   7
ATOM      7  C   UNL A   1      35.419  23.780  24.319  1.00  0.00     0.216 C 
BRANCH   7   8
ATOM      8  N   UNL A   1      34.065  23.300  24.481  1.00  0.00    -0.342 N 
ATOM      9  C   UNL A   1      32.828  23.887  24.394  1.00  0.00     0.264 C 
ATOM     10  O   UNL A   1      31.910  23.055  24.386  1.00  0.00    -0.268 OA
ATOM     11  H   UNL A   1      34.020  22.342  24.703  1.00  0.00     0.164 HD
BRANCH   9  12
ATOM     12  C   UNL A   1      32.574  25.335  24.406  1.00  0.00     0.118 A 
ATOM     13  C   UNL A   1      30.437  29.535  24.067  1.00  0.00     0.045 A 
ATOM     14  N   UNL A   1      30.443  28.340  23.445  1.00  0.00    -0.242 NA
ATOM     15  C   UNL A   1      31.310  29.874  25.113  1.00  0.00    -0.017 A 
ATOM     16  C   UNL A   1      31.331  27.444  23.906  1.00  0.00     0.127 A 
ATOM     17  C   UNL A   1      32.320  28.946  25.491  1.00  0.00     0.073 A 
ATOM     18  C   UNL A   1      31.202  31.198  25.829  1.00  0.00     0.047 C 
ATOM     19  S   UNL A   1      31.352  25.868  23.289  1.00  0.00    -0.108 S 
ATOM     20  C   UNL A   1      32.282  27.654  24.886  1.00  0.00     0.048 A 
ATOM     21  C   UNL A   1      33.014  26.431  25.138  1.00  0.00     0.066 A 
BRANCH  13  22
ATOM     22  C   UNL A   1      29.397  30.496  23.532  1.00  0.00     0.053 C 
ATOM     23  C   UNL A   1      29.279  30.460  22.014  1.00  0.00     0.011 C 
ENDBRANCH  13  22
BRANCH  17  24
ATOM     24  C   UNL A   1      33.353  29.266  26.549  1.00  0.00     0.417 C 
ATOM     25  F   UNL A   1      34.625  29.042  26.116  1.00  0.00    -0.166 F 
ATOM     26  F   UNL A   1      33.318  30.573  26.945  1.00  0.00    -0.166 F 
ATOM     27  F   UNL A   1      33.229  28.566  27.711  1.00  0.00    -0.166 F 
ENDBRANCH  17  24
BRANCH  21  28
ATOM     28  N   UNL A   1      33.942  26.401  26.118  1.00  0.00    -0.397 N 
ATOM     29  H   UNL A   1      33.669  26.504  27.057  1.00  0.00     0.156 HD
ATOM     30  H   UNL A   1      34.892  26.277  25.892  1.00  0.00     0.156 HD
ENDBRANCH  21  28
ENDBRANCH   9  12
ENDBRANCH   7   8
ENDBRANCH   4   7
ENDBRANCH   2   3
ENDBRANCH   1   2
BRANCH   1  31
ATOM     31  C   UNL A   1      39.975  22.551  26.978  1.00  0.00     0.118 C 
BRANCH  31  32
ATOM     32  N   UNL A   1      41.152  22.210  26.166  1.00  0.00    -0.352 N 
ATOM     33  C   UNL A   1      42.117  23.072  25.683  1.00  0.00     0.251 C 
ATOM     34  H   UNL A   1      41.265  21.259  25.939  1.00  0.00     0.163 HD
ATOM     35  O   UNL A   1      42.880  22.731  24.779  1.00  0.00    -0.269 OA
BRANCH  33  36
ATOM     36  C   UNL A   1      42.211  24.406  26.288  1.00  0.00     0.039 A 
ATOM     37  C   UNL A   1      41.609  25.531  25.715  1.00  0.00     0.014 A 
ATOM     38  C   UNL A   1      42.852  24.483  27.519  1.00  0.00     0.014 A 
ATOM     39  C   UNL A   1      41.586  26.718  26.445  1.00  0.00     0.010 A 
ATOM     40  C   UNL A   1      42.653  25.580  28.308  1.00  0.00     0.010 A 
ATOM     41  C   UNL A   1      42.094  26.725  27.752  1.00  0.00    -0.014 A 
BRANCH  41  42
ATOM     42  C   UNL A   1      41.971  27.884  28.627  1.00  0.00     0.031 A 
ATOM     43  C   UNL A   1      43.074  28.878  28.500  1.00  0.00     0.074 A 
ATOM     44  C   UNL A   1      40.812  28.151  29.273  1.00  0.00     0.049 A 
ATOM     45  N   UNL A   1      43.933  29.222  29.399  1.00  0.00    -0.248 NA
ATOM     46  C   UNL A   1      43.342  29.461  27.171  1.00  0.00     0.031 C 
ATOM     47  C   UNL A   1      39.543  27.409  29.207  1.00  0.00     0.029 A 
ATOM     48  N   UNL A   1      40.470  29.237  30.010  1.00  0.00    -0.354 N 
ATOM     49  C   UNL A   1      44.712  30.223  28.826  1.00  0.00     0.074 A 
ATOM     50  C   UNL A   1      44.433  30.193  27.412  1.00  0.00     0.031 C 
ATOM     51  C   UNL A   1      38.533  28.197  29.638  1.00  0.00     0.029 A 
ATOM     52  C   UNL A   1      39.098  29.417  30.179  1.00  0.00     0.049 A 
ATOM     53  H   UNL A   1      41.138  29.850  30.396  1.00  0.00     0.167 HD
ATOM     54  C   UNL A   1      45.342  31.163  29.584  1.00  0.00     0.031 A 
ATOM     55  C   UNL A   1      38.477  30.509  30.695  1.00  0.00     0.031 A 
ATOM     56  C   UNL A   1      45.333  30.813  30.979  1.00  0.00     0.049 A 
ATOM     57  C   UNL A   1      39.505  31.251  31.465  1.00  0.00     0.074 A 
ATOM     58  C   UNL A   1      45.844  29.767  31.720  1.00  0.00     0.029 A 
ATOM     59  N   UNL A   1      44.354  31.389  31.754  1.00  0.00    -0.354 N 
ATOM     60  N   UNL A   1      40.083  30.771  32.532  1.00  0.00    -0.248 NA
ATOM     61  C   UNL A   1      40.233  32.308  30.783  1.00  0.00     0.031 C 
ATOM     62  C   UNL A   1      44.831  29.470  32.678  1.00  0.00     0.029 A 
ATOM     63  C   UNL A   1      43.800  30.401  32.528  1.00  0.00     0.049 A 
ATOM     64  H   UNL A   1      44.097  32.340  31.754  1.00  0.00     0.167 HD
ATOM     65  C   UNL A   1      41.417  31.135  32.404  1.00  0.00     0.074 A 
ATOM     66  C   UNL A   1      41.430  32.158  31.358  1.00  0.00     0.031 C 
ATOM     67  C   UNL A   1      42.413  30.373  32.948  1.00  0.00     0.031 A 
BRANCH  54  68
ATOM     68  C   UNL A   1      45.619  32.572  29.125  1.00  0.00    -0.014 A 
ATOM     69  C   UNL A   1      44.545  33.375  28.691  1.00  0.00     0.010 A 
ATOM     70  C   UNL A   1      46.921  33.043  28.853  1.00  0.00     0.010 A 
ATOM     71  C   UNL A   1      44.763  34.562  27.980  1.00  0.00     0.020 A 
ATOM     72  C   UNL A   1      47.151  34.245  28.183  1.00  0.00     0.020 A 
ATOM     73  C   UNL A   1      46.069  34.985  27.724  1.00  0.00     0.054 A 
BRANCH  73  74
ATOM     74  S   UNL A   1      46.340  36.473  26.730  1.00  0.00     0.124 S 
ATOM     75  O   UNL A   1      47.460  37.100  27.426  1.00  0.00    -0.237 OA
ATOM     76  O   UNL A   1      46.643  35.914  25.416  1.00  0.00    -0.237 OA
ATOM     77  O   UNL A   1      45.067  37.183  26.822  1.00  0.00    -0.744 OA
ENDBRANCH  73  74
ENDBRANCH  54  68
BRANCH  55  78
ATOM     78  C   UNL A   1      37.178  31.118  30.300  1.00  0.00    -0.014 A 
ATOM     79  C   UNL A   1      36.352  31.740  31.258  1.00  0.00     0.010 A 
ATOM     80  C   UNL A   1      36.890  31.356  28.941  1.00  0.00     0.010 A 
ATOM     81  C   UNL A   1      35.330  32.627  30.872  1.00  0.00     0.020 A 
ATOM     82  C   UNL A   1      35.869  32.235  28.548  1.00  0.00     0.020 A 
ATOM     83  C   UNL A   1      35.113  32.890  29.518  1.00  0.00     0.054 A 
BRANCH  83  84
ATOM     84  S   UNL A   1      33.928  34.185  29.036  1.00  0.00     0.124 S 
ATOM     85  O   UNL A   1      34.799  35.210  28.468  1.00  0.00    -0.237 OA
ATOM     86  O   UNL A   1      33.068  33.489  28.085  1.00  0.00    -0.237 OA
ATOM     87  O   UNL A   1      33.283  34.548  30.298  1.00  0.00    -0.744 OA
ENDBRANCH  83  84
ENDBRANCH  55  78
BRANCH  67  88
ATOM     88  C   UNL A   1      42.032  29.265  33.907  1.00  0.00    -0.014 A 
ATOM     89  C   UNL A   1      41.739  27.943  33.512  1.00  0.00     0.010 A 
ATOM     90  C   UNL A   1      42.144  29.540  35.280  1.00  0.00     0.010 A 
ATOM     91  C   UNL A   1      41.548  26.932  34.469  1.00  0.00     0.020 A 
ATOM     92  C   UNL A   1      41.972  28.537  36.237  1.00  0.00     0.020 A 
ATOM     93  C   UNL A   1      41.668  27.237  35.829  1.00  0.00     0.054 A 
BRANCH  93  94
ATOM     94  S   UNL A   1      41.465  25.924  37.066  1.00  0.00     0.124 S 
ATOM     95  O   UNL A   1      42.603  26.145  37.955  1.00  0.00    -0.237 OA
ATOM     96  O   UNL A   1      40.153  26.217  37.638  1.00  0.00    -0.237 OA
ATOM     97  O   UNL A   1      41.528  24.692  36.280  1.00  0.00    -0.744 OA
ENDBRANCH  93  94
ENDBRANCH  67  88
ENDBRANCH  41  42
ENDBRANCH  33  36
ENDBRANCH  31  32
ENDBRANCH   1  31
TORSDOF 18
ENDMDL
