MODEL 1
REMARK VINA RESULT:     -12.6      0.000      0.000
REMARK SMILES O=C(NCCCNC(=O)[C@@H](Cc1c[nH]c2ccccc12)NC(=O)c1ccc(F)cc1F)c1ccc(-c2c3nc(c(-c4ccc(S(=O)(=O)[O-])cc4)c4ccc([nH]4)c(-c4ccc(S(=O)(=O)[O-])cc4)c4nc(c(-c5ccc(S(=O)(=O)[O-])cc5)c5ccc2[nH]5)C=C4)C=C3)cc1
REMARK SMILES IDX 4 1 3 2 1 3 2 4 32 6 33 7 91 8 34 9 90 10 35 11 36 12 37 13
REMARK SMILES IDX 84 14 38 15 89 16 83 17 85 18 39 19 88 20 82 21 81 22 40 24
REMARK SMILES IDX 70 25 51 26 69 27 52 28 55 29 68 30 86 31 53 32 54 33 67 35
REMARK SMILES IDX 87 36 56 37 41 38 42 39 50 40 43 41 49 42 44 43 45 44 46 45
REMARK SMILES IDX 47 46 48 47 71 48 72 49 80 50 73 51 79 52 74 53 75 54 76 55
REMARK SMILES IDX 77 56 78 57 57 58 58 59 66 60 59 61 65 62 60 63 61 64 62 65
REMARK SMILES IDX 63 66 64 67 5 68 6 69 7 70 8 71 9 73 10 74 11 75 12 76 13 77
REMARK SMILES IDX 20 78 14 79 15 80 19 81 16 83 18 84 17 85 21 86 22 87 23 89
REMARK SMILES IDX 24 90 25 91 30 92 26 93 29 94 31 95 27 96 28 97
REMARK H PARENT 3 5 85 23 55 34 7 72 14 82 21 88
REMARK Flexibility Score: inf
ROOT
ATOM      1  C   UNL A   1      32.831  28.663  27.608  1.00  0.00     0.118 C 
ENDROOT
BRANCH   1   2
ATOM      2  N   UNL A   1      33.211  30.069  27.584  1.00  0.00    -0.352 N 
ATOM      3  O   UNL A   1      34.272  31.946  28.122  1.00  0.00    -0.269 OA
ATOM      4  C   UNL A   1      34.360  30.728  27.950  1.00  0.00     0.251 C 
ATOM      5  H   UNL A   1      32.506  30.664  27.237  1.00  0.00     0.163 HD
BRANCH   4   6
ATOM      6  C   UNL A   1      35.684  30.069  28.149  1.00  0.00     0.039 A 
ATOM      7  C   UNL A   1      36.690  30.044  27.183  1.00  0.00     0.014 A 
ATOM      8  C   UNL A   1      35.991  29.599  29.438  1.00  0.00     0.014 A 
ATOM      9  C   UNL A   1      37.952  29.503  27.474  1.00  0.00     0.010 A 
ATOM     10  C   UNL A   1      37.277  29.132  29.753  1.00  0.00     0.010 A 
ATOM     11  C   UNL A   1      38.277  29.081  28.773  1.00  0.00    -0.014 A 
BRANCH  11  12
ATOM     12  C   UNL A   1      39.679  28.712  29.134  1.00  0.00     0.031 A 
ATOM     13  C   UNL A   1      40.607  29.698  29.791  1.00  0.00     0.074 A 
ATOM     14  C   UNL A   1      40.145  27.488  28.808  1.00  0.00     0.049 A 
ATOM     15  N   UNL A   1      41.877  29.565  30.089  1.00  0.00    -0.248 NA
ATOM     16  C   UNL A   1      40.041  31.007  30.148  1.00  0.00     0.031 C 
ATOM     17  C   UNL A   1      39.367  26.438  28.144  1.00  0.00     0.029 A 
ATOM     18  N   UNL A   1      41.386  26.919  28.978  1.00  0.00    -0.354 N 
ATOM     19  C   UNL A   1      42.271  30.779  30.640  1.00  0.00     0.074 A 
ATOM     20  C   UNL A   1      41.106  31.642  30.618  1.00  0.00     0.031 C 
ATOM     21  C   UNL A   1      40.138  25.352  27.985  1.00  0.00     0.029 A 
ATOM     22  C   UNL A   1      41.482  25.643  28.474  1.00  0.00     0.049 A 
ATOM     23  H   UNL A   1      42.134  27.384  29.418  1.00  0.00     0.167 HD
ATOM     24  C   UNL A   1      43.486  31.144  31.120  1.00  0.00     0.031 A 
ATOM     25  C   UNL A   1      42.531  24.801  28.380  1.00  0.00     0.031 A 
ATOM     26  C   UNL A   1      44.646  30.289  31.139  1.00  0.00     0.049 A 
ATOM     27  C   UNL A   1      43.872  25.227  28.903  1.00  0.00     0.074 A 
ATOM     28  C   UNL A   1      45.908  30.563  31.639  1.00  0.00     0.029 A 
ATOM     29  N   UNL A   1      44.691  29.000  30.629  1.00  0.00    -0.354 N 
ATOM     30  N   UNL A   1      44.210  26.366  29.456  1.00  0.00    -0.248 NA
ATOM     31  C   UNL A   1      44.971  24.258  28.792  1.00  0.00     0.031 C 
ATOM     32  C   UNL A   1      46.729  29.458  31.389  1.00  0.00     0.029 A 
ATOM     33  C   UNL A   1      45.963  28.474  30.782  1.00  0.00     0.049 A 
ATOM     34  H   UNL A   1      43.931  28.529  30.218  1.00  0.00     0.167 HD
ATOM     35  C   UNL A   1      45.556  26.245  29.779  1.00  0.00     0.074 A 
ATOM     36  C   UNL A   1      45.970  24.920  29.363  1.00  0.00     0.031 C 
ATOM     37  C   UNL A   1      46.370  27.152  30.371  1.00  0.00     0.031 A 
BRANCH  24  38
ATOM     38  C   UNL A   1      43.630  32.556  31.627  1.00  0.00    -0.014 A 
ATOM     39  C   UNL A   1      43.396  32.876  32.976  1.00  0.00     0.010 A 
ATOM     40  C   UNL A   1      44.012  33.578  30.739  1.00  0.00     0.010 A 
ATOM     41  C   UNL A   1      43.470  34.203  33.412  1.00  0.00     0.020 A 
ATOM     42  C   UNL A   1      44.114  34.903  31.176  1.00  0.00     0.020 A 
ATOM     43  C   UNL A   1      43.812  35.210  32.504  1.00  0.00     0.054 A 
BRANCH  43  44
ATOM     44  S   UNL A   1      43.856  36.929  33.081  1.00  0.00     0.124 S 
ATOM     45  O   UNL A   1      43.771  37.667  31.823  1.00  0.00    -0.237 OA
ATOM     46  O   UNL A   1      42.676  37.014  33.937  1.00  0.00    -0.237 OA
ATOM     47  O   UNL A   1      45.137  37.029  33.777  1.00  0.00    -0.744 OA
ENDBRANCH  43  44
ENDBRANCH  24  38
BRANCH  25  48
ATOM     48  C   UNL A   1      42.332  23.469  27.748  1.00  0.00    -0.014 A 
ATOM     49  C   UNL A   1      42.608  23.276  26.384  1.00  0.00     0.010 A 
ATOM     50  C   UNL A   1      41.951  22.365  28.534  1.00  0.00     0.010 A 
ATOM     51  C   UNL A   1      42.525  21.999  25.821  1.00  0.00     0.020 A 
ATOM     52  C   UNL A   1      41.891  21.083  27.981  1.00  0.00     0.020 A 
ATOM     53  C   UNL A   1      42.179  20.909  26.625  1.00  0.00     0.054 A 
BRANCH  53  54
ATOM     54  S   UNL A   1      42.194  19.244  25.901  1.00  0.00     0.124 S 
ATOM     55  O   UNL A   1      42.766  18.448  26.982  1.00  0.00    -0.237 OA
ATOM     56  O   UNL A   1      40.780  19.009  25.622  1.00  0.00    -0.237 OA
ATOM     57  O   UNL A   1      43.036  19.395  24.717  1.00  0.00    -0.744 OA
ENDBRANCH  53  54
ENDBRANCH  25  48
BRANCH  37  58
ATOM     58  C   UNL A   1      47.792  26.745  30.648  1.00  0.00    -0.014 A 
ATOM     59  C   UNL A   1      48.824  27.036  29.740  1.00  0.00     0.010 A 
ATOM     60  C   UNL A   1      48.109  26.148  31.882  1.00  0.00     0.010 A 
ATOM     61  C   UNL A   1      50.151  26.734  30.060  1.00  0.00     0.020 A 
ATOM     62  C   UNL A   1      49.437  25.862  32.214  1.00  0.00     0.020 A 
ATOM     63  C   UNL A   1      50.450  26.154  31.298  1.00  0.00     0.054 A 
BRANCH  63  64
ATOM     64  S   UNL A   1      52.187  25.852  31.729  1.00  0.00     0.124 S 
ATOM     65  O   UNL A   1      52.417  26.845  32.776  1.00  0.00    -0.237 OA
ATOM     66  O   UNL A   1      52.171  24.462  32.174  1.00  0.00    -0.237 OA
ATOM     67  O   UNL A   1      52.901  26.091  30.477  1.00  0.00    -0.744 OA
ENDBRANCH  63  64
ENDBRANCH  37  58
ENDBRANCH  11  12
ENDBRANCH   4   6
ENDBRANCH   1   2
BRANCH   1  68
ATOM     68  C   UNL A   1      33.101  27.991  26.260  1.00  0.00     0.042 C 
BRANCH  68  69
ATOM     69  C   UNL A   1      31.866  27.342  25.610  1.00  0.00     0.117 C 
BRANCH  69  70
ATOM     70  N   UNL A   1      31.389  26.227  26.412  1.00  0.00    -0.354 N 
ATOM     71  C   UNL A   1      31.396  24.879  26.267  1.00  0.00     0.242 C 
ATOM     72  H   UNL A   1      30.964  26.517  27.252  1.00  0.00     0.163 HD
ATOM     73  O   UNL A   1      30.619  24.280  27.030  1.00  0.00    -0.273 OA
BRANCH  71  74
ATOM     74  C   UNL A   1      32.195  24.035  25.230  1.00  0.00     0.176 C 
BRANCH  74  75
ATOM     75  C   UNL A   1      31.752  22.559  25.073  1.00  0.00     0.072 C 
BRANCH  75  76
ATOM     76  C   UNL A   1      32.749  21.446  25.268  1.00  0.00    -0.020 A 
ATOM     77  C   UNL A   1      33.717  21.315  26.238  1.00  0.00     0.087 A 
ATOM     78  C   UNL A   1      32.842  20.233  24.485  1.00  0.00     0.003 A 
ATOM     79  N   UNL A   1      34.528  20.259  25.933  1.00  0.00    -0.361 N 
ATOM     80  C   UNL A   1      33.980  19.543  24.906  1.00  0.00     0.046 A 
ATOM     81  C   UNL A   1      32.065  19.645  23.463  1.00  0.00     0.010 A 
ATOM     82  H   UNL A   1      35.376  20.046  26.384  1.00  0.00     0.166 HD
ATOM     83  C   UNL A   1      34.413  18.339  24.344  1.00  0.00     0.026 A 
ATOM     84  C   UNL A   1      32.455  18.407  22.924  1.00  0.00     0.001 A 
ATOM     85  C   UNL A   1      33.618  17.772  23.351  1.00  0.00     0.002 A 
ENDBRANCH  75  76
ENDBRANCH  74  75
BRANCH  74  86
ATOM     86  N   UNL A   1      32.627  24.661  23.977  1.00  0.00    -0.340 N 
ATOM     87  C   UNL A   1      33.860  24.680  23.367  1.00  0.00     0.254 C 
ATOM     88  H   UNL A   1      31.920  25.146  23.492  1.00  0.00     0.164 HD
ATOM     89  O   UNL A   1      34.003  25.297  22.316  1.00  0.00    -0.269 OA
BRANCH  87  90
ATOM     90  C   UNL A   1      35.021  23.960  23.935  1.00  0.00     0.075 A 
ATOM     91  C   UNL A   1      35.650  22.912  23.248  1.00  0.00     0.020 A 
ATOM     92  C   UNL A   1      35.551  24.395  25.153  1.00  0.00     0.138 A 
ATOM     93  C   UNL A   1      36.748  22.263  23.823  1.00  0.00     0.040 A 
ATOM     94  C   UNL A   1      36.659  23.767  25.717  1.00  0.00     0.079 A 
ATOM     95  F   UNL A   1      34.998  25.418  25.820  1.00  0.00    -0.206 F 
ATOM     96  C   UNL A   1      37.239  22.695  25.051  1.00  0.00     0.126 A 
ATOM     97  F   UNL A   1      38.293  22.072  25.596  1.00  0.00    -0.207 F 
ENDBRANCH  87  90
ENDBRANCH  74  86
ENDBRANCH  71  74
ENDBRANCH  69  70
ENDBRANCH  68  69
ENDBRANCH   1  68
TORSDOF 17
ENDMDL
MODEL 2
REMARK VINA RESULT:     -12.2      0.440      7.944
REMARK SMILES O=C(NCCCNC(=O)[C@@H](Cc1c[nH]c2ccccc12)NC(=O)c1ccc(F)cc1F)c1ccc(-c2c3nc(c(-c4ccc(S(=O)(=O)[O-])cc4)c4ccc([nH]4)c(-c4ccc(S(=O)(=O)[O-])cc4)c4nc(c(-c5ccc(S(=O)(=O)[O-])cc5)c5ccc2[nH]5)C=C4)C=C3)cc1
REMARK SMILES IDX 4 1 3 2 1 3 2 4 32 6 33 7 91 8 34 9 90 10 35 11 36 12 37 13
REMARK SMILES IDX 84 14 38 15 89 16 83 17 85 18 39 19 88 20 82 21 81 22 40 24
REMARK SMILES IDX 70 25 51 26 69 27 52 28 55 29 68 30 86 31 53 32 54 33 67 35
REMARK SMILES IDX 87 36 56 37 41 38 42 39 50 40 43 41 49 42 44 43 45 44 46 45
REMARK SMILES IDX 47 46 48 47 71 48 72 49 80 50 73 51 79 52 74 53 75 54 76 55
REMARK SMILES IDX 77 56 78 57 57 58 58 59 66 60 59 61 65 62 60 63 61 64 62 65
REMARK SMILES IDX 63 66 64 67 5 68 6 69 7 70 8 71 9 73 10 74 11 75 12 76 13 77
REMARK SMILES IDX 20 78 14 79 15 80 19 81 16 83 18 84 17 85 21 86 22 87 23 89
REMARK SMILES IDX 24 90 25 91 30 92 26 93 29 94 31 95 27 96 28 97
REMARK H PARENT 3 5 85 23 55 34 7 72 14 82 21 88
REMARK Flexibility Score: inf
ROOT
ATOM      1  C   UNL A   1      33.322  28.673  26.618  1.00  0.00     0.118 C 
ENDROOT
BRANCH   1   2
ATOM      2  N   UNL A   1      33.480  29.962  27.277  1.00  0.00    -0.352 N 
ATOM      3  O   UNL A   1      34.182  31.472  28.749  1.00  0.00    -0.269 OA
ATOM      4  C   UNL A   1      34.473  30.484  28.073  1.00  0.00     0.251 C 
ATOM      5  H   UNL A   1      32.729  30.581  27.124  1.00  0.00     0.163 HD
BRANCH   4   6
ATOM      6  C   UNL A   1      35.857  29.934  28.164  1.00  0.00     0.039 A 
ATOM      7  C   UNL A   1      36.820  30.090  27.167  1.00  0.00     0.014 A 
ATOM      8  C   UNL A   1      36.259  29.378  29.392  1.00  0.00     0.014 A 
ATOM      9  C   UNL A   1      38.137  29.643  27.363  1.00  0.00     0.010 A 
ATOM     10  C   UNL A   1      37.592  29.005  29.617  1.00  0.00     0.010 A 
ATOM     11  C   UNL A   1      38.552  29.136  28.605  1.00  0.00    -0.014 A 
BRANCH  11  12
ATOM     12  C   UNL A   1      39.995  28.867  28.882  1.00  0.00     0.031 A 
ATOM     13  C   UNL A   1      40.629  27.547  28.533  1.00  0.00     0.074 A 
ATOM     14  C   UNL A   1      40.732  29.802  29.518  1.00  0.00     0.049 A 
ATOM     15  N   UNL A   1      41.843  27.122  28.784  1.00  0.00    -0.248 NA
ATOM     16  C   UNL A   1      39.789  26.575  27.819  1.00  0.00     0.031 C 
ATOM     17  C   UNL A   1      40.244  31.116  29.941  1.00  0.00     0.029 A 
ATOM     18  N   UNL A   1      42.044  29.791  29.929  1.00  0.00    -0.354 N 
ATOM     19  C   UNL A   1      41.905  25.824  28.289  1.00  0.00     0.074 A 
ATOM     20  C   UNL A   1      40.598  25.528  27.737  1.00  0.00     0.031 C 
ATOM     21  C   UNL A   1      41.243  31.790  30.529  1.00  0.00     0.029 A 
ATOM     22  C   UNL A   1      42.427  30.938  30.584  1.00  0.00     0.049 A 
ATOM     23  H   UNL A   1      42.652  29.032  29.769  1.00  0.00     0.167 HD
ATOM     24  C   UNL A   1      42.950  24.959  28.293  1.00  0.00     0.031 A 
ATOM     25  C   UNL A   1      43.583  31.270  31.193  1.00  0.00     0.031 A 
ATOM     26  C   UNL A   1      44.249  25.250  28.844  1.00  0.00     0.049 A 
ATOM     27  C   UNL A   1      44.724  30.295  31.200  1.00  0.00     0.074 A 
ATOM     28  C   UNL A   1      45.377  24.447  28.860  1.00  0.00     0.029 A 
ATOM     29  N   UNL A   1      44.592  26.430  29.488  1.00  0.00    -0.354 N 
ATOM     30  N   UNL A   1      44.771  29.088  30.690  1.00  0.00    -0.248 NA
ATOM     31  C   UNL A   1      45.965  30.723  31.861  1.00  0.00     0.031 C 
ATOM     32  C   UNL A   1      46.388  25.122  29.552  1.00  0.00     0.029 A 
ATOM     33  C   UNL A   1      45.906  26.368  29.921  1.00  0.00     0.049 A 
ATOM     34  H   UNL A   1      43.991  27.198  29.617  1.00  0.00     0.167 HD
ATOM     35  C   UNL A   1      46.054  28.619  30.949  1.00  0.00     0.074 A 
ATOM     36  C   UNL A   1      46.752  29.673  31.657  1.00  0.00     0.031 C 
ATOM     37  C   UNL A   1      46.599  27.422  30.623  1.00  0.00     0.031 A 
BRANCH  24  38
ATOM     38  C   UNL A   1      42.711  23.588  27.713  1.00  0.00    -0.014 A 
ATOM     39  C   UNL A   1      42.232  22.531  28.507  1.00  0.00     0.010 A 
ATOM     40  C   UNL A   1      42.965  23.356  26.349  1.00  0.00     0.010 A 
ATOM     41  C   UNL A   1      42.080  21.251  27.966  1.00  0.00     0.020 A 
ATOM     42  C   UNL A   1      42.790  22.083  25.796  1.00  0.00     0.020 A 
ATOM     43  C   UNL A   1      42.378  21.032  26.617  1.00  0.00     0.054 A 
BRANCH  43  44
ATOM     44  S   UNL A   1      42.219  19.353  25.948  1.00  0.00     0.124 S 
ATOM     45  O   UNL A   1      40.783  19.271  25.691  1.00  0.00    -0.237 OA
ATOM     46  O   UNL A   1      43.065  19.396  24.759  1.00  0.00    -0.237 OA
ATOM     47  O   UNL A   1      42.709  18.501  27.029  1.00  0.00    -0.744 OA
ENDBRANCH  43  44
ENDBRANCH  24  38
BRANCH  25  48
ATOM     48  C   UNL A   1      43.693  32.598  31.855  1.00  0.00    -0.014 A 
ATOM     49  C   UNL A   1      44.028  33.743  31.111  1.00  0.00     0.010 A 
ATOM     50  C   UNL A   1      43.371  32.736  33.218  1.00  0.00     0.010 A 
ATOM     51  C   UNL A   1      44.022  35.003  31.715  1.00  0.00     0.020 A 
ATOM     52  C   UNL A   1      43.340  33.998  33.819  1.00  0.00     0.020 A 
ATOM     53  C   UNL A   1      43.666  35.124  33.062  1.00  0.00     0.054 A 
BRANCH  53  54
ATOM     54  S   UNL A   1      43.548  36.782  33.792  1.00  0.00     0.124 S 
ATOM     55  O   UNL A   1      43.696  37.641  32.622  1.00  0.00    -0.237 OA
ATOM     56  O   UNL A   1      42.220  36.764  34.402  1.00  0.00    -0.237 OA
ATOM     57  O   UNL A   1      44.658  36.816  34.742  1.00  0.00    -0.744 OA
ENDBRANCH  53  54
ENDBRANCH  25  48
BRANCH  37  58
ATOM     58  C   UNL A   1      48.039  27.183  30.989  1.00  0.00    -0.014 A 
ATOM     59  C   UNL A   1      48.393  26.635  32.233  1.00  0.00     0.010 A 
ATOM     60  C   UNL A   1      49.042  27.423  30.031  1.00  0.00     0.010 A 
ATOM     61  C   UNL A   1      49.729  26.333  32.516  1.00  0.00     0.020 A 
ATOM     62  C   UNL A   1      50.375  27.104  30.303  1.00  0.00     0.020 A 
ATOM     63  C   UNL A   1      50.711  26.564  31.547  1.00  0.00     0.054 A 
BRANCH  63  64
ATOM     64  S   UNL A   1      52.425  26.081  31.902  1.00  0.00     0.124 S 
ATOM     65  O   UNL A   1      52.256  24.731  32.432  1.00  0.00    -0.237 OA
ATOM     66  O   UNL A   1      53.061  26.167  30.590  1.00  0.00    -0.237 OA
ATOM     67  O   UNL A   1      52.872  27.080  32.870  1.00  0.00    -0.744 OA
ENDBRANCH  63  64
ENDBRANCH  37  58
ENDBRANCH  11  12
ENDBRANCH   4   6
ENDBRANCH   1   2
BRANCH   1  68
ATOM     68  C   UNL A   1      31.990  28.019  26.989  1.00  0.00     0.042 C 
BRANCH  68  69
ATOM     69  C   UNL A   1      31.482  26.980  25.973  1.00  0.00     0.117 C 
BRANCH  69  70
ATOM     70  N   UNL A   1      31.067  25.761  26.648  1.00  0.00    -0.354 N 
ATOM     71  C   UNL A   1      31.158  24.439  26.365  1.00  0.00     0.242 C 
ATOM     72  H   UNL A   1      30.617  25.937  27.506  1.00  0.00     0.163 HD
ATOM     73  O   UNL A   1      30.413  23.718  27.050  1.00  0.00    -0.273 OA
BRANCH  71  74
ATOM     74  C   UNL A   1      32.018  23.757  25.259  1.00  0.00     0.176 C 
BRANCH  74  75
ATOM     75  C   UNL A   1      31.701  22.266  24.979  1.00  0.00     0.072 C 
BRANCH  75  76
ATOM     76  C   UNL A   1      32.773  21.221  25.147  1.00  0.00    -0.020 A 
ATOM     77  C   UNL A   1      33.807  21.185  26.054  1.00  0.00     0.087 A 
ATOM     78  C   UNL A   1      32.886  19.985  24.406  1.00  0.00     0.003 A 
ATOM     79  N   UNL A   1      34.659  20.166  25.735  1.00  0.00    -0.361 N 
ATOM     80  C   UNL A   1      34.089  19.378  24.775  1.00  0.00     0.046 A 
ATOM     81  C   UNL A   1      32.081  19.311  23.461  1.00  0.00     0.010 A 
ATOM     82  H   UNL A   1      35.546  20.021  26.136  1.00  0.00     0.166 HD
ATOM     83  C   UNL A   1      34.555  18.179  24.230  1.00  0.00     0.026 A 
ATOM     84  C   UNL A   1      32.508  18.076  22.944  1.00  0.00     0.001 A 
ATOM     85  C   UNL A   1      33.733  17.527  23.315  1.00  0.00     0.002 A 
ENDBRANCH  75  76
ENDBRANCH  74  75
BRANCH  74  86
ATOM     86  N   UNL A   1      32.385  24.520  24.063  1.00  0.00    -0.340 N 
ATOM     87  C   UNL A   1      33.607  24.697  23.457  1.00  0.00     0.254 C 
ATOM     88  H   UNL A   1      31.635  24.982  23.622  1.00  0.00     0.164 HD
ATOM     89  O   UNL A   1      33.688  25.410  22.462  1.00  0.00    -0.269 OA
BRANCH  87  90
ATOM     90  C   UNL A   1      34.829  24.035  23.961  1.00  0.00     0.075 A 
ATOM     91  C   UNL A   1      35.490  23.041  23.226  1.00  0.00     0.020 A 
ATOM     92  C   UNL A   1      35.383  24.474  25.167  1.00  0.00     0.138 A 
ATOM     93  C   UNL A   1      36.646  22.445  23.740  1.00  0.00     0.040 A 
ATOM     94  C   UNL A   1      36.548  23.900  25.672  1.00  0.00     0.079 A 
ATOM     95  F   UNL A   1      34.799  25.448  25.880  1.00  0.00    -0.206 F 
ATOM     96  C   UNL A   1      37.161  22.879  24.959  1.00  0.00     0.126 A 
ATOM     97  F   UNL A   1      38.270  22.308  25.446  1.00  0.00    -0.207 F 
ENDBRANCH  87  90
ENDBRANCH  74  86
ENDBRANCH  71  74
ENDBRANCH  69  70
ENDBRANCH  68  69
ENDBRANCH   1  68
TORSDOF 17
ENDMDL
MODEL 3
REMARK VINA RESULT:     -12.2      2.664      9.502
REMARK SMILES O=C(NCCCNC(=O)[C@@H](Cc1c[nH]c2ccccc12)NC(=O)c1ccc(F)cc1F)c1ccc(-c2c3nc(c(-c4ccc(S(=O)(=O)[O-])cc4)c4ccc([nH]4)c(-c4ccc(S(=O)(=O)[O-])cc4)c4nc(c(-c5ccc(S(=O)(=O)[O-])cc5)c5ccc2[nH]5)C=C4)C=C3)cc1
REMARK SMILES IDX 4 1 3 2 1 3 2 4 32 6 33 7 91 8 34 9 90 10 35 11 36 12 37 13
REMARK SMILES IDX 84 14 38 15 89 16 83 17 85 18 39 19 88 20 82 21 81 22 40 24
REMARK SMILES IDX 70 25 51 26 69 27 52 28 55 29 68 30 86 31 53 32 54 33 67 35
REMARK SMILES IDX 87 36 56 37 41 38 42 39 50 40 43 41 49 42 44 43 45 44 46 45
REMARK SMILES IDX 47 46 48 47 71 48 72 49 80 50 73 51 79 52 74 53 75 54 76 55
REMARK SMILES IDX 77 56 78 57 57 58 58 59 66 60 59 61 65 62 60 63 61 64 62 65
REMARK SMILES IDX 63 66 64 67 5 68 6 69 7 70 8 71 9 73 10 74 11 75 12 76 13 77
REMARK SMILES IDX 20 78 14 79 15 80 19 81 16 83 18 84 17 85 21 86 22 87 23 89
REMARK SMILES IDX 24 90 25 91 30 92 26 93 29 94 31 95 27 96 28 97
REMARK H PARENT 3 5 85 23 55 34 7 72 14 82 21 88
REMARK Flexibility Score: inf
ROOT
ATOM      1  C   UNL A   1      36.738  22.463  25.904  1.00  0.00     0.118 C 
ENDROOT
BRANCH   1   2
ATOM      2  N   UNL A   1      38.086  21.930  26.050  1.00  0.00    -0.352 N 
ATOM      3  O   UNL A   1      40.308  21.867  26.053  1.00  0.00    -0.269 OA
ATOM      4  C   UNL A   1      39.298  22.525  26.310  1.00  0.00     0.251 C 
ATOM      5  H   UNL A   1      38.140  20.952  25.941  1.00  0.00     0.163 HD
BRANCH   4   6
ATOM      6  C   UNL A   1      39.460  23.897  26.875  1.00  0.00     0.039 A 
ATOM      7  C   UNL A   1      39.165  24.231  28.197  1.00  0.00     0.014 A 
ATOM      8  C   UNL A   1      40.103  24.859  26.076  1.00  0.00     0.014 A 
ATOM      9  C   UNL A   1      39.444  25.514  28.694  1.00  0.00     0.010 A 
ATOM     10  C   UNL A   1      40.455  26.115  26.595  1.00  0.00     0.010 A 
ATOM     11  C   UNL A   1      40.133  26.458  27.915  1.00  0.00    -0.014 A 
BRANCH  11  12
ATOM     12  C   UNL A   1      40.622  27.737  28.511  1.00  0.00     0.031 A 
ATOM     13  C   UNL A   1      42.027  27.874  29.033  1.00  0.00     0.074 A 
ATOM     14  C   UNL A   1      39.768  28.774  28.644  1.00  0.00     0.049 A 
ATOM     15  N   UNL A   1      42.581  28.886  29.657  1.00  0.00    -0.248 NA
ATOM     16  C   UNL A   1      42.923  26.725  28.840  1.00  0.00     0.031 C 
ATOM     17  C   UNL A   1      38.369  28.775  28.209  1.00  0.00     0.029 A 
ATOM     18  N   UNL A   1      39.942  30.023  29.191  1.00  0.00    -0.354 N 
ATOM     19  C   UNL A   1      43.878  28.486  29.959  1.00  0.00     0.074 A 
ATOM     20  C   UNL A   1      44.021  27.132  29.462  1.00  0.00     0.031 C 
ATOM     21  C   UNL A   1      37.823  29.968  28.484  1.00  0.00     0.029 A 
ATOM     22  C   UNL A   1      38.806  30.798  29.172  1.00  0.00     0.049 A 
ATOM     23  H   UNL A   1      40.801  30.333  29.562  1.00  0.00     0.167 HD
ATOM     24  C   UNL A   1      44.859  29.178  30.589  1.00  0.00     0.031 A 
ATOM     25  C   UNL A   1      38.559  32.025  29.673  1.00  0.00     0.031 A 
ATOM     26  C   UNL A   1      44.719  30.523  31.087  1.00  0.00     0.049 A 
ATOM     27  C   UNL A   1      39.651  32.772  30.380  1.00  0.00     0.074 A 
ATOM     28  C   UNL A   1      45.671  31.316  31.706  1.00  0.00     0.029 A 
ATOM     29  N   UNL A   1      43.552  31.272  31.033  1.00  0.00    -0.354 N 
ATOM     30  N   UNL A   1      40.883  32.388  30.618  1.00  0.00    -0.248 NA
ATOM     31  C   UNL A   1      39.327  34.113  30.885  1.00  0.00     0.031 C 
ATOM     32  C   UNL A   1      45.068  32.525  32.069  1.00  0.00     0.029 A 
ATOM     33  C   UNL A   1      43.754  32.507  31.626  1.00  0.00     0.049 A 
ATOM     34  H   UNL A   1      42.705  30.970  30.632  1.00  0.00     0.167 HD
ATOM     35  C   UNL A   1      41.487  33.448  31.282  1.00  0.00     0.074 A 
ATOM     36  C   UNL A   1      40.489  34.492  31.405  1.00  0.00     0.031 C 
ATOM     37  C   UNL A   1      42.758  33.545  31.743  1.00  0.00     0.031 A 
BRANCH  24  38
ATOM     38  C   UNL A   1      46.169  28.467  30.814  1.00  0.00    -0.014 A 
ATOM     39  C   UNL A   1      47.210  28.533  29.870  1.00  0.00     0.010 A 
ATOM     40  C   UNL A   1      46.363  27.723  31.993  1.00  0.00     0.010 A 
ATOM     41  C   UNL A   1      48.391  27.812  30.067  1.00  0.00     0.020 A 
ATOM     42  C   UNL A   1      47.554  27.021  32.207  1.00  0.00     0.020 A 
ATOM     43  C   UNL A   1      48.547  27.046  31.227  1.00  0.00     0.054 A 
BRANCH  43  44
ATOM     44  S   UNL A   1      50.069  26.081  31.438  1.00  0.00     0.124 S 
ATOM     45  O   UNL A   1      50.976  27.078  32.003  1.00  0.00    -0.237 OA
ATOM     46  O   UNL A   1      49.656  25.021  32.354  1.00  0.00    -0.237 OA
ATOM     47  O   UNL A   1      50.392  25.640  30.083  1.00  0.00    -0.744 OA
ENDBRANCH  43  44
ENDBRANCH  24  38
BRANCH  25  48
ATOM     48  C   UNL A   1      37.197  32.605  29.518  1.00  0.00    -0.014 A 
ATOM     49  C   UNL A   1      36.250  32.493  30.550  1.00  0.00     0.010 A 
ATOM     50  C   UNL A   1      36.875  33.354  28.370  1.00  0.00     0.010 A 
ATOM     51  C   UNL A   1      35.012  33.134  30.445  1.00  0.00     0.020 A 
ATOM     52  C   UNL A   1      35.648  34.016  28.272  1.00  0.00     0.020 A 
ATOM     53  C   UNL A   1      34.724  33.901  29.312  1.00  0.00     0.054 A 
BRANCH  53  54
ATOM     54  S   UNL A   1      33.160  34.821  29.251  1.00  0.00     0.124 S 
ATOM     55  O   UNL A   1      33.571  36.077  28.632  1.00  0.00    -0.237 OA
ATOM     56  O   UNL A   1      32.317  33.956  28.428  1.00  0.00    -0.237 OA
ATOM     57  O   UNL A   1      32.761  34.911  30.653  1.00  0.00    -0.744 OA
ENDBRANCH  53  54
ENDBRANCH  25  48
BRANCH  37  58
ATOM     58  C   UNL A   1      43.172  34.836  32.395  1.00  0.00    -0.014 A 
ATOM     59  C   UNL A   1      43.717  35.890  31.642  1.00  0.00     0.010 A 
ATOM     60  C   UNL A   1      42.921  35.028  33.766  1.00  0.00     0.010 A 
ATOM     61  C   UNL A   1      44.007  37.116  32.251  1.00  0.00     0.020 A 
ATOM     62  C   UNL A   1      43.190  36.257  34.373  1.00  0.00     0.020 A 
ATOM     63  C   UNL A   1      43.736  37.293  33.612  1.00  0.00     0.054 A 
BRANCH  63  64
ATOM     64  S   UNL A   1      44.036  38.919  34.361  1.00  0.00     0.124 S 
ATOM     65  O   UNL A   1      42.900  39.694  33.869  1.00  0.00    -0.237 OA
ATOM     66  O   UNL A   1      44.023  38.621  35.791  1.00  0.00    -0.237 OA
ATOM     67  O   UNL A   1      45.337  39.312  33.826  1.00  0.00    -0.744 OA
ENDBRANCH  63  64
ENDBRANCH  37  58
ENDBRANCH  11  12
ENDBRANCH   4   6
ENDBRANCH   1   2
BRANCH   1  68
ATOM     68  C   UNL A   1      35.790  21.419  25.311  1.00  0.00     0.042 C 
BRANCH  68  69
ATOM     69  C   UNL A   1      34.818  21.967  24.251  1.00  0.00     0.117 C 
BRANCH  69  70
ATOM     70  N   UNL A   1      33.500  22.186  24.825  1.00  0.00    -0.354 N 
ATOM     71  C   UNL A   1      32.756  23.283  25.109  1.00  0.00     0.242 C 
ATOM     72  H   UNL A   1      33.046  21.345  25.063  1.00  0.00     0.163 HD
ATOM     73  O   UNL A   1      31.803  23.068  25.876  1.00  0.00    -0.273 OA
BRANCH  71  74
ATOM     74  C   UNL A   1      33.004  24.749  24.645  1.00  0.00     0.176 C 
BRANCH  74  75
ATOM     75  C   UNL A   1      33.656  25.688  25.691  1.00  0.00     0.072 C 
BRANCH  75  76
ATOM     76  C   UNL A   1      32.872  26.840  26.264  1.00  0.00    -0.020 A 
ATOM     77  C   UNL A   1      31.547  26.884  26.632  1.00  0.00     0.087 A 
ATOM     78  C   UNL A   1      33.395  28.144  26.608  1.00  0.00     0.003 A 
ATOM     79  N   UNL A   1      31.194  28.172  26.918  1.00  0.00    -0.361 N 
ATOM     80  C   UNL A   1      32.316  28.951  26.975  1.00  0.00     0.046 A 
ATOM     81  C   UNL A   1      34.684  28.722  26.654  1.00  0.00     0.010 A 
ATOM     82  H   UNL A   1      30.274  28.490  27.063  1.00  0.00     0.166 HD
ATOM     83  C   UNL A   1      32.435  30.295  27.334  1.00  0.00     0.026 A 
ATOM     84  C   UNL A   1      34.828  30.057  27.067  1.00  0.00     0.001 A 
ATOM     85  C   UNL A   1      33.719  30.833  27.389  1.00  0.00     0.002 A 
ENDBRANCH  75  76
ENDBRANCH  74  75
BRANCH  74  86
ATOM     86  N   UNL A   1      33.439  25.002  23.268  1.00  0.00    -0.340 N 
ATOM     87  C   UNL A   1      33.059  25.980  22.377  1.00  0.00     0.254 C 
ATOM     88  H   UNL A   1      34.111  24.370  22.925  1.00  0.00     0.164 HD
ATOM     89  O   UNL A   1      33.542  25.987  21.250  1.00  0.00    -0.269 OA
BRANCH  87  90
ATOM     90  C   UNL A   1      32.095  27.038  22.748  1.00  0.00     0.075 A 
ATOM     91  C   UNL A   1      30.726  26.774  22.897  1.00  0.00     0.020 A 
ATOM     92  C   UNL A   1      32.579  28.317  23.036  1.00  0.00     0.138 A 
ATOM     93  C   UNL A   1      29.852  27.805  23.254  1.00  0.00     0.040 A 
ATOM     94  C   UNL A   1      31.715  29.342  23.415  1.00  0.00     0.079 A 
ATOM     95  F   UNL A   1      33.887  28.598  22.940  1.00  0.00    -0.206 F 
ATOM     96  C   UNL A   1      30.354  29.079  23.506  1.00  0.00     0.126 A 
ATOM     97  F   UNL A   1      29.514  30.063  23.850  1.00  0.00    -0.207 F 
ENDBRANCH  87  90
ENDBRANCH  74  86
ENDBRANCH  71  74
ENDBRANCH  69  70
ENDBRANCH  68  69
ENDBRANCH   1  68
TORSDOF 17
ENDMDL
