MODEL 1
REMARK VINA RESULT:     -10.0      0.000      0.000
REMARK SMILES C[C@H](NC(N)=O)C(=O)N[C@@H](CO)C(=O)NCCCNC(=O)c1ccc(-c2c3nc(c(-c4ccc(S(=O)(=O)[O-])cc4)c4ccc([nH]4)c(-c4ccc(S(=O)(=O)[O-])cc4)c4nc(c(-c5ccc(S(=O)(=O)[O-])cc5)c5ccc2[nH]5)C=C4)C=C3)cc1
REMARK SMILES IDX 17 1 16 2 15 3 13 4 14 5 10 7 9 8 7 9 8 10 2 12 1 13 3 14
REMARK SMILES IDX 4 15 5 17 6 18 11 21 12 22 18 24 19 25 20 26 21 28 22 29
REMARK SMILES IDX 23 30 81 31 24 32 80 33 25 34 26 35 27 36 74 37 28 38 79 39
REMARK SMILES IDX 73 40 75 41 29 42 78 43 72 44 71 45 30 47 60 48 41 49 59 50
REMARK SMILES IDX 42 51 45 52 58 53 76 54 43 55 44 56 57 58 77 59 46 60 31 61
REMARK SMILES IDX 32 62 40 63 33 64 39 65 34 66 35 67 36 68 37 69 38 70 61 71
REMARK SMILES IDX 62 72 70 73 63 74 69 75 64 76 65 77 66 78 67 79 68 80 47 81
REMARK SMILES IDX 48 82 56 83 49 84 55 85 50 86 51 87 52 88 53 89 54 90
REMARK H PARENT 15 6 9 11 3 16 5 19 5 20 12 23 19 27 75 46 45 57
REMARK Flexibility Score: inf
ROOT
ATOM      1  C   UNL A   1      33.660  28.300  25.665  1.00  0.00     0.042 C 
ENDROOT
BRANCH   1   2
ATOM      2  C   UNL A   1      32.322  27.854  25.103  1.00  0.00     0.117 C 
BRANCH   2   3
ATOM      3  N   UNL A   1      31.687  26.843  25.926  1.00  0.00    -0.354 N 
ATOM      4  C   UNL A   1      31.852  25.494  25.972  1.00  0.00     0.244 C 
ATOM      5  O   UNL A   1      31.319  24.898  26.915  1.00  0.00    -0.273 OA
ATOM      6  H   UNL A   1      31.021  27.193  26.561  1.00  0.00     0.163 HD
BRANCH   4   7
ATOM      7  C   UNL A   1      32.727  24.722  24.970  1.00  0.00     0.197 C 
BRANCH   7   8
ATOM      8  N   UNL A   1      34.051  24.381  25.503  1.00  0.00    -0.340 N 
ATOM      9  C   UNL A   1      34.478  23.223  26.090  1.00  0.00     0.243 C 
ATOM     10  O   UNL A   1      35.695  23.065  26.191  1.00  0.00    -0.273 OA
ATOM     11  H   UNL A   1      34.731  25.090  25.427  1.00  0.00     0.164 HD
BRANCH   9  12
ATOM     12  C   UNL A   1      33.490  22.131  26.543  1.00  0.00     0.170 C 
ATOM     13  C   UNL A   1      33.222  22.238  28.043  1.00  0.00     0.041 C 
BRANCH  12  14
ATOM     14  N   UNL A   1      33.973  20.821  26.105  1.00  0.00    -0.327 N 
ATOM     15  C   UNL A   1      33.183  19.904  25.492  1.00  0.00     0.312 C 
ATOM     16  H   UNL A   1      34.918  20.594  26.261  1.00  0.00     0.166 HD
ATOM     17  N   UNL A   1      33.851  18.777  25.155  1.00  0.00    -0.352 N 
ATOM     18  O   UNL A   1      31.987  20.026  25.263  1.00  0.00    -0.249 OA
ATOM     19  H   UNL A   1      34.813  18.699  25.350  1.00  0.00     0.161 HD
ATOM     20  H   UNL A   1      33.374  18.036  24.717  1.00  0.00     0.161 HD
ENDBRANCH  12  14
ENDBRANCH   9  12
ENDBRANCH   7   8
BRANCH   7  21
ATOM     21  C   UNL A   1      31.992  23.530  24.340  1.00  0.00     0.191 C 
BRANCH  21  22
ATOM     22  O   UNL A   1      30.572  23.627  24.377  1.00  0.00    -0.394 OA
ATOM     23  H   UNL A   1      30.185  22.933  23.820  1.00  0.00     0.210 HD
ENDBRANCH  21  22
ENDBRANCH   7  21
ENDBRANCH   4   7
ENDBRANCH   2   3
ENDBRANCH   1   2
BRANCH   1  24
ATOM     24  C   UNL A   1      33.654  28.486  27.174  1.00  0.00     0.118 C 
BRANCH  24  25
ATOM     25  N   UNL A   1      33.637  29.892  27.568  1.00  0.00    -0.352 N 
ATOM     26  C   UNL A   1      34.603  30.637  28.203  1.00  0.00     0.251 C 
ATOM     27  H   UNL A   1      32.810  30.378  27.347  1.00  0.00     0.163 HD
ATOM     28  O   UNL A   1      34.336  31.758  28.625  1.00  0.00    -0.269 OA
BRANCH  26  29
ATOM     29  C   UNL A   1      35.952  30.067  28.392  1.00  0.00     0.039 A 
ATOM     30  C   UNL A   1      36.861  30.076  27.332  1.00  0.00     0.014 A 
ATOM     31  C   UNL A   1      36.325  29.554  29.635  1.00  0.00     0.014 A 
ATOM     32  C   UNL A   1      38.175  29.650  27.546  1.00  0.00     0.010 A 
ATOM     33  C   UNL A   1      37.654  29.236  29.874  1.00  0.00     0.010 A 
ATOM     34  C   UNL A   1      38.593  29.269  28.831  1.00  0.00    -0.014 A 
BRANCH  34  35
ATOM     35  C   UNL A   1      39.988  28.859  29.130  1.00  0.00     0.031 A 
ATOM     36  C   UNL A   1      40.951  29.883  29.668  1.00  0.00     0.074 A 
ATOM     37  C   UNL A   1      40.418  27.622  28.817  1.00  0.00     0.049 A 
ATOM     38  N   UNL A   1      42.247  29.805  29.813  1.00  0.00    -0.248 NA
ATOM     39  C   UNL A   1      40.380  31.187  30.053  1.00  0.00     0.031 C 
ATOM     40  C   UNL A   1      39.590  26.547  28.265  1.00  0.00     0.029 A 
ATOM     41  N   UNL A   1      41.672  27.067  28.894  1.00  0.00    -0.354 N 
ATOM     42  C   UNL A   1      42.650  31.054  30.273  1.00  0.00     0.074 A 
ATOM     43  C   UNL A   1      41.470  31.888  30.322  1.00  0.00     0.031 C 
ATOM     44  C   UNL A   1      40.357  25.462  28.062  1.00  0.00     0.029 A 
ATOM     45  C   UNL A   1      41.736  25.779  28.416  1.00  0.00     0.049 A 
ATOM     46  H   UNL A   1      42.451  27.547  29.258  1.00  0.00     0.167 HD
ATOM     47  C   UNL A   1      43.886  31.464  30.641  1.00  0.00     0.031 A 
ATOM     48  C   UNL A   1      42.791  24.954  28.255  1.00  0.00     0.031 A 
ATOM     49  C   UNL A   1      45.051  30.624  30.600  1.00  0.00     0.049 A 
ATOM     50  C   UNL A   1      44.161  25.432  28.655  1.00  0.00     0.074 A 
ATOM     51  C   UNL A   1      46.343  30.926  30.988  1.00  0.00     0.029 A 
ATOM     52  N   UNL A   1      45.062  29.313  30.145  1.00  0.00    -0.354 N 
ATOM     53  N   UNL A   1      44.519  26.603  29.126  1.00  0.00    -0.248 NA
ATOM     54  C   UNL A   1      45.270  24.477  28.511  1.00  0.00     0.031 C 
ATOM     55  C   UNL A   1      47.147  29.815  30.721  1.00  0.00     0.029 A 
ATOM     56  C   UNL A   1      46.343  28.796  30.232  1.00  0.00     0.049 A 
ATOM     57  H   UNL A   1      44.277  28.824  29.811  1.00  0.00     0.167 HD
ATOM     58  C   UNL A   1      45.884  26.514  29.373  1.00  0.00     0.074 A 
ATOM     59  C   UNL A   1      46.289  25.173  28.998  1.00  0.00     0.031 C 
ATOM     60  C   UNL A   1      46.723  27.452  29.875  1.00  0.00     0.031 A 
BRANCH  47  61
ATOM     61  C   UNL A   1      44.031  32.888  31.112  1.00  0.00    -0.014 A 
ATOM     62  C   UNL A   1      44.321  33.928  30.208  1.00  0.00     0.010 A 
ATOM     63  C   UNL A   1      43.870  33.195  32.475  1.00  0.00     0.010 A 
ATOM     64  C   UNL A   1      44.508  35.234  30.666  1.00  0.00     0.020 A 
ATOM     65  C   UNL A   1      44.020  34.508  32.933  1.00  0.00     0.020 A 
ATOM     66  C   UNL A   1      44.363  35.514  32.027  1.00  0.00     0.054 A 
BRANCH  66  67
ATOM     67  S   UNL A   1      44.616  37.218  32.593  1.00  0.00     0.124 S 
ATOM     68  O   UNL A   1      46.066  37.262  32.772  1.00  0.00    -0.237 OA
ATOM     69  O   UNL A   1      44.097  38.005  31.477  1.00  0.00    -0.237 OA
ATOM     70  O   UNL A   1      43.834  37.296  33.824  1.00  0.00    -0.744 OA
ENDBRANCH  66  67
ENDBRANCH  47  61
BRANCH  48  71
ATOM     71  C   UNL A   1      42.583  23.589  27.697  1.00  0.00    -0.014 A 
ATOM     72  C   UNL A   1      42.850  23.321  26.344  1.00  0.00     0.010 A 
ATOM     73  C   UNL A   1      42.150  22.538  28.528  1.00  0.00     0.010 A 
ATOM     74  C   UNL A   1      42.678  22.033  25.828  1.00  0.00     0.020 A 
ATOM     75  C   UNL A   1      42.006  21.242  28.023  1.00  0.00     0.020 A 
ATOM     76  C   UNL A   1      42.264  21.000  26.673  1.00  0.00     0.054 A 
BRANCH  76  77
ATOM     77  S   UNL A   1      42.114  19.323  25.994  1.00  0.00     0.124 S 
ATOM     78  O   UNL A   1      42.962  19.397  24.809  1.00  0.00    -0.237 OA
ATOM     79  O   UNL A   1      42.622  18.496  27.086  1.00  0.00    -0.237 OA
ATOM     80  O   UNL A   1      40.682  19.186  25.734  1.00  0.00    -0.744 OA
ENDBRANCH  76  77
ENDBRANCH  48  71
BRANCH  60  81
ATOM     81  C   UNL A   1      48.157  27.063  30.121  1.00  0.00    -0.014 A 
ATOM     82  C   UNL A   1      49.160  27.310  29.169  1.00  0.00     0.010 A 
ATOM     83  C   UNL A   1      48.515  26.549  31.382  1.00  0.00     0.010 A 
ATOM     84  C   UNL A   1      50.499  27.048  29.476  1.00  0.00     0.020 A 
ATOM     85  C   UNL A   1      49.854  26.313  31.701  1.00  0.00     0.020 A 
ATOM     86  C   UNL A   1      50.838  26.562  30.744  1.00  0.00     0.054 A 
BRANCH  86  87
ATOM     87  S   UNL A   1      52.590  26.323  31.149  1.00  0.00     0.124 S 
ATOM     88  O   UNL A   1      53.197  26.213  29.826  1.00  0.00    -0.237 OA
ATOM     89  O   UNL A   1      52.914  27.541  31.889  1.00  0.00    -0.237 OA
ATOM     90  O   UNL A   1      52.600  25.097  31.943  1.00  0.00    -0.744 OA
ENDBRANCH  86  87
ENDBRANCH  60  81
ENDBRANCH  34  35
ENDBRANCH  26  29
ENDBRANCH  24  25
ENDBRANCH   1  24
TORSDOF 18
ENDMDL
MODEL 2
REMARK VINA RESULT:     -10.0      3.000      9.239
REMARK SMILES C[C@H](NC(N)=O)C(=O)N[C@@H](CO)C(=O)NCCCNC(=O)c1ccc(-c2c3nc(c(-c4ccc(S(=O)(=O)[O-])cc4)c4ccc([nH]4)c(-c4ccc(S(=O)(=O)[O-])cc4)c4nc(c(-c5ccc(S(=O)(=O)[O-])cc5)c5ccc2[nH]5)C=C4)C=C3)cc1
REMARK SMILES IDX 17 1 16 2 15 3 13 4 14 5 10 7 9 8 7 9 8 10 2 12 1 13 3 14
REMARK SMILES IDX 4 15 5 17 6 18 11 21 12 22 18 24 19 25 20 26 21 28 22 29
REMARK SMILES IDX 23 30 81 31 24 32 80 33 25 34 26 35 27 36 74 37 28 38 79 39
REMARK SMILES IDX 73 40 75 41 29 42 78 43 72 44 71 45 30 47 60 48 41 49 59 50
REMARK SMILES IDX 42 51 45 52 58 53 76 54 43 55 44 56 57 58 77 59 46 60 31 61
REMARK SMILES IDX 32 62 40 63 33 64 39 65 34 66 35 67 36 68 37 69 38 70 61 71
REMARK SMILES IDX 62 72 70 73 63 74 69 75 64 76 65 77 66 78 67 79 68 80 47 81
REMARK SMILES IDX 48 82 56 83 49 84 55 85 50 86 51 87 52 88 53 89 54 90
REMARK H PARENT 15 6 9 11 3 16 5 19 5 20 12 23 19 27 75 46 45 57
REMARK Flexibility Score: inf
ROOT
ATOM      1  C   UNL A   1      35.991  22.926  24.279  1.00  0.00     0.042 C 
ENDROOT
BRANCH   1   2
ATOM      2  C   UNL A   1      34.845  23.861  23.936  1.00  0.00     0.117 C 
BRANCH   2   3
ATOM      3  N   UNL A   1      33.739  23.746  24.868  1.00  0.00    -0.354 N 
ATOM      4  C   UNL A   1      32.894  22.713  25.130  1.00  0.00     0.244 C 
ATOM      5  O   UNL A   1      32.166  22.826  26.122  1.00  0.00    -0.273 OA
ATOM      6  H   UNL A   1      33.572  24.555  25.403  1.00  0.00     0.163 HD
BRANCH   4   7
ATOM      7  C   UNL A   1      32.880  21.413  24.309  1.00  0.00     0.197 C 
BRANCH   7   8
ATOM      8  N   UNL A   1      32.349  20.266  25.054  1.00  0.00    -0.340 N 
ATOM      9  C   UNL A   1      32.794  18.974  25.091  1.00  0.00     0.243 C 
ATOM     10  O   UNL A   1      32.371  18.264  26.004  1.00  0.00    -0.273 OA
ATOM     11  H   UNL A   1      31.555  20.453  25.606  1.00  0.00     0.164 HD
BRANCH   9  12
ATOM     12  C   UNL A   1      33.833  18.444  24.084  1.00  0.00     0.170 C 
ATOM     13  C   UNL A   1      33.151  17.632  22.985  1.00  0.00     0.041 C 
BRANCH  12  14
ATOM     14  N   UNL A   1      34.891  17.729  24.800  1.00  0.00    -0.327 N 
ATOM     15  C   UNL A   1      34.876  16.388  25.002  1.00  0.00     0.312 C 
ATOM     16  H   UNL A   1      35.650  18.247  25.151  1.00  0.00     0.166 HD
ATOM     17  N   UNL A   1      35.968  15.946  25.666  1.00  0.00    -0.352 N 
ATOM     18  O   UNL A   1      33.987  15.620  24.658  1.00  0.00    -0.249 OA
ATOM     19  H   UNL A   1      36.671  16.580  25.935  1.00  0.00     0.161 HD
ATOM     20  H   UNL A   1      36.058  14.989  25.882  1.00  0.00     0.161 HD
ENDBRANCH  12  14
ENDBRANCH   9  12
ENDBRANCH   7   8
BRANCH   7  21
ATOM     21  C   UNL A   1      32.244  21.596  22.923  1.00  0.00     0.191 C 
BRANCH  21  22
ATOM     22  O   UNL A   1      31.770  22.912  22.662  1.00  0.00    -0.394 OA
ATOM     23  H   UNL A   1      31.217  23.210  23.401  1.00  0.00     0.210 HD
ENDBRANCH  21  22
ENDBRANCH   7  21
ENDBRANCH   4   7
ENDBRANCH   2   3
ENDBRANCH   1   2
BRANCH   1  24
ATOM     24  C   UNL A   1      37.054  23.565  25.158  1.00  0.00     0.118 C 
BRANCH  24  25
ATOM     25  N   UNL A   1      38.143  22.649  25.481  1.00  0.00    -0.352 N 
ATOM     26  C   UNL A   1      39.331  22.891  26.130  1.00  0.00     0.251 C 
ATOM     27  H   UNL A   1      38.007  21.718  25.189  1.00  0.00     0.163 HD
ATOM     28  O   UNL A   1      40.211  22.037  26.143  1.00  0.00    -0.269 OA
BRANCH  26  29
ATOM     29  C   UNL A   1      39.545  24.196  26.789  1.00  0.00     0.039 A 
ATOM     30  C   UNL A   1      39.044  24.411  28.075  1.00  0.00     0.014 A 
ATOM     31  C   UNL A   1      40.274  25.194  26.141  1.00  0.00     0.014 A 
ATOM     32  C   UNL A   1      39.351  25.598  28.746  1.00  0.00     0.010 A 
ATOM     33  C   UNL A   1      40.669  26.321  26.846  1.00  0.00     0.010 A 
ATOM     34  C   UNL A   1      40.204  26.543  28.153  1.00  0.00    -0.014 A 
BRANCH  34  35
ATOM     35  C   UNL A   1      40.609  27.797  28.838  1.00  0.00     0.031 A 
ATOM     36  C   UNL A   1      41.928  27.840  29.562  1.00  0.00     0.074 A 
ATOM     37  C   UNL A   1      39.760  28.840  28.909  1.00  0.00     0.049 A 
ATOM     38  N   UNL A   1      42.392  28.744  30.382  1.00  0.00    -0.248 NA
ATOM     39  C   UNL A   1      42.824  26.686  29.369  1.00  0.00     0.031 C 
ATOM     40  C   UNL A   1      38.443  28.912  28.273  1.00  0.00     0.029 A 
ATOM     41  N   UNL A   1      39.871  30.036  29.575  1.00  0.00    -0.354 N 
ATOM     42  C   UNL A   1      43.615  28.256  30.827  1.00  0.00     0.074 A 
ATOM     43  C   UNL A   1      43.791  26.949  30.234  1.00  0.00     0.031 C 
ATOM     44  C   UNL A   1      37.874  30.091  28.574  1.00  0.00     0.029 A 
ATOM     45  C   UNL A   1      38.757  30.835  29.465  1.00  0.00     0.049 A 
ATOM     46  H   UNL A   1      40.673  30.296  30.084  1.00  0.00     0.167 HD
ATOM     47  C   UNL A   1      44.521  28.849  31.639  1.00  0.00     0.031 A 
ATOM     48  C   UNL A   1      38.468  32.021  30.038  1.00  0.00     0.031 A 
ATOM     49  C   UNL A   1      44.344  30.154  32.214  1.00  0.00     0.049 A 
ATOM     50  C   UNL A   1      39.480  32.659  30.951  1.00  0.00     0.074 A 
ATOM     51  C   UNL A   1      45.216  30.865  33.016  1.00  0.00     0.029 A 
ATOM     52  N   UNL A   1      43.216  30.944  32.043  1.00  0.00    -0.354 N 
ATOM     53  N   UNL A   1      40.650  32.202  31.329  1.00  0.00    -0.248 NA
ATOM     54  C   UNL A   1      39.141  33.977  31.507  1.00  0.00     0.031 C 
ATOM     55  C   UNL A   1      44.595  32.066  33.373  1.00  0.00     0.029 A 
ATOM     56  C   UNL A   1      43.366  32.132  32.736  1.00  0.00     0.049 A 
ATOM     57  H   UNL A   1      42.428  30.697  31.509  1.00  0.00     0.167 HD
ATOM     58  C   UNL A   1      41.203  33.191  32.135  1.00  0.00     0.074 A 
ATOM     59  C   UNL A   1      40.240  34.272  32.190  1.00  0.00     0.031 C 
ATOM     60  C   UNL A   1      42.405  33.208  32.761  1.00  0.00     0.031 A 
BRANCH  47  61
ATOM     61  C   UNL A   1      45.779  28.080  31.951  1.00  0.00    -0.014 A 
ATOM     62  C   UNL A   1      46.946  28.249  31.183  1.00  0.00     0.010 A 
ATOM     63  C   UNL A   1      45.798  27.178  33.030  1.00  0.00     0.010 A 
ATOM     64  C   UNL A   1      48.086  27.488  31.449  1.00  0.00     0.020 A 
ATOM     65  C   UNL A   1      46.950  26.441  33.324  1.00  0.00     0.020 A 
ATOM     66  C   UNL A   1      48.078  26.584  32.514  1.00  0.00     0.054 A 
BRANCH  66  67
ATOM     67  S   UNL A   1      49.572  25.606  32.833  1.00  0.00     0.124 S 
ATOM     68  O   UNL A   1      49.804  24.980  31.533  1.00  0.00    -0.237 OA
ATOM     69  O   UNL A   1      50.544  26.626  33.220  1.00  0.00    -0.237 OA
ATOM     70  O   UNL A   1      49.170  24.694  33.901  1.00  0.00    -0.744 OA
ENDBRANCH  66  67
ENDBRANCH  47  61
BRANCH  48  71
ATOM     71  C   UNL A   1      37.163  32.680  29.753  1.00  0.00    -0.014 A 
ATOM     72  C   UNL A   1      36.063  32.490  30.607  1.00  0.00     0.010 A 
ATOM     73  C   UNL A   1      37.023  33.533  28.641  1.00  0.00     0.010 A 
ATOM     74  C   UNL A   1      34.847  33.130  30.351  1.00  0.00     0.020 A 
ATOM     75  C   UNL A   1      35.818  34.198  28.399  1.00  0.00     0.020 A 
ATOM     76  C   UNL A   1      34.734  33.986  29.252  1.00  0.00     0.054 A 
BRANCH  76  77
ATOM     77  S   UNL A   1      33.165  34.857  28.981  1.00  0.00     0.124 S 
ATOM     78  O   UNL A   1      33.619  36.162  28.510  1.00  0.00    -0.237 OA
ATOM     79  O   UNL A   1      32.508  34.017  27.982  1.00  0.00    -0.237 OA
ATOM     80  O   UNL A   1      32.537  34.850  30.300  1.00  0.00    -0.744 OA
ENDBRANCH  76  77
ENDBRANCH  48  71
BRANCH  60  81
ATOM     81  C   UNL A   1      42.796  34.452  33.513  1.00  0.00    -0.014 A 
ATOM     82  C   UNL A   1      42.597  34.568  34.899  1.00  0.00     0.010 A 
ATOM     83  C   UNL A   1      43.484  35.472  32.828  1.00  0.00     0.010 A 
ATOM     84  C   UNL A   1      43.081  35.685  35.587  1.00  0.00     0.020 A 
ATOM     85  C   UNL A   1      43.993  36.575  33.517  1.00  0.00     0.020 A 
ATOM     86  C   UNL A   1      43.785  36.675  34.893  1.00  0.00     0.054 A 
BRANCH  86  87
ATOM     87  S   UNL A   1      44.486  38.065  35.826  1.00  0.00     0.124 S 
ATOM     88  O   UNL A   1      44.140  39.205  34.982  1.00  0.00    -0.237 OA
ATOM     89  O   UNL A   1      43.772  37.986  37.099  1.00  0.00    -0.237 OA
ATOM     90  O   UNL A   1      45.911  37.752  35.897  1.00  0.00    -0.744 OA
ENDBRANCH  86  87
ENDBRANCH  60  81
ENDBRANCH  34  35
ENDBRANCH  26  29
ENDBRANCH  24  25
ENDBRANCH   1  24
TORSDOF 18
ENDMDL
MODEL 3
REMARK VINA RESULT:      -9.9      2.935      9.330
REMARK SMILES C[C@H](NC(N)=O)C(=O)N[C@@H](CO)C(=O)NCCCNC(=O)c1ccc(-c2c3nc(c(-c4ccc(S(=O)(=O)[O-])cc4)c4ccc([nH]4)c(-c4ccc(S(=O)(=O)[O-])cc4)c4nc(c(-c5ccc(S(=O)(=O)[O-])cc5)c5ccc2[nH]5)C=C4)C=C3)cc1
REMARK SMILES IDX 17 1 16 2 15 3 13 4 14 5 10 7 9 8 7 9 8 10 2 12 1 13 3 14
REMARK SMILES IDX 4 15 5 17 6 18 11 21 12 22 18 24 19 25 20 26 21 28 22 29
REMARK SMILES IDX 23 30 81 31 24 32 80 33 25 34 26 35 27 36 74 37 28 38 79 39
REMARK SMILES IDX 73 40 75 41 29 42 78 43 72 44 71 45 30 47 60 48 41 49 59 50
REMARK SMILES IDX 42 51 45 52 58 53 76 54 43 55 44 56 57 58 77 59 46 60 31 61
REMARK SMILES IDX 32 62 40 63 33 64 39 65 34 66 35 67 36 68 37 69 38 70 61 71
REMARK SMILES IDX 62 72 70 73 63 74 69 75 64 76 65 77 66 78 67 79 68 80 47 81
REMARK SMILES IDX 48 82 56 83 49 84 55 85 50 86 51 87 52 88 53 89 54 90
REMARK H PARENT 15 6 9 11 3 16 5 19 5 20 12 23 19 27 75 46 45 57
REMARK Flexibility Score: inf
ROOT
ATOM      1  C   UNL A   1      35.467  23.353  25.584  1.00  0.00     0.042 C 
ENDROOT
BRANCH   1   2
ATOM      2  C   UNL A   1      34.358  24.225  25.022  1.00  0.00     0.117 C 
BRANCH   2   3
ATOM      3  N   UNL A   1      33.363  23.457  24.299  1.00  0.00    -0.354 N 
ATOM      4  C   UNL A   1      32.013  23.385  24.439  1.00  0.00     0.244 C 
ATOM      5  O   UNL A   1      31.389  22.795  23.551  1.00  0.00    -0.273 OA
ATOM      6  H   UNL A   1      33.728  22.888  23.583  1.00  0.00     0.163 HD
BRANCH   4   7
ATOM      7  C   UNL A   1      31.252  24.072  25.587  1.00  0.00     0.197 C 
BRANCH   7   8
ATOM      8  N   UNL A   1      30.127  24.892  25.125  1.00  0.00    -0.340 N 
ATOM      9  C   UNL A   1      30.101  25.871  24.171  1.00  0.00     0.243 C 
ATOM     10  O   UNL A   1      28.994  26.213  23.752  1.00  0.00    -0.273 OA
ATOM     11  H   UNL A   1      29.265  24.712  25.566  1.00  0.00     0.164 HD
BRANCH   9  12
ATOM     12  C   UNL A   1      31.395  26.473  23.591  1.00  0.00     0.170 C 
ATOM     13  C   UNL A   1      31.585  27.908  24.078  1.00  0.00     0.041 C 
BRANCH  12  14
ATOM     14  N   UNL A   1      31.398  26.320  22.135  1.00  0.00    -0.327 N 
ATOM     15  C   UNL A   1      32.445  25.807  21.444  1.00  0.00     0.312 C 
ATOM     16  H   UNL A   1      30.600  26.603  21.634  1.00  0.00     0.166 HD
ATOM     17  N   UNL A   1      32.213  25.739  20.113  1.00  0.00    -0.352 N 
ATOM     18  O   UNL A   1      33.513  25.447  21.921  1.00  0.00    -0.249 OA
ATOM     19  H   UNL A   1      31.346  26.034  19.750  1.00  0.00     0.161 HD
ATOM     20  H   UNL A   1      32.909  25.395  19.509  1.00  0.00     0.161 HD
ENDBRANCH  12  14
ENDBRANCH   9  12
ENDBRANCH   7   8
BRANCH   7  21
ATOM     21  C   UNL A   1      30.882  23.098  26.716  1.00  0.00     0.191 C 
BRANCH  21  22
ATOM     22  O   UNL A   1      29.906  22.125  26.358  1.00  0.00    -0.394 OA
ATOM     23  H   UNL A   1      29.084  22.298  26.843  1.00  0.00     0.210 HD
ENDBRANCH  21  22
ENDBRANCH   7  21
ENDBRANCH   4   7
ENDBRANCH   2   3
ENDBRANCH   1   2
BRANCH   1  24
ATOM     24  C   UNL A   1      36.850  23.721  25.069  1.00  0.00     0.118 C 
BRANCH  24  25
ATOM     25  N   UNL A   1      37.867  22.743  25.442  1.00  0.00    -0.352 N 
ATOM     26  C   UNL A   1      39.045  22.921  26.130  1.00  0.00     0.251 C 
ATOM     27  H   UNL A   1      37.683  21.819  25.157  1.00  0.00     0.163 HD
ATOM     28  O   UNL A   1      39.869  22.013  26.184  1.00  0.00    -0.269 OA
BRANCH  26  29
ATOM     29  C   UNL A   1      39.317  24.219  26.779  1.00  0.00     0.039 A 
ATOM     30  C   UNL A   1      38.867  24.448  28.082  1.00  0.00     0.014 A 
ATOM     31  C   UNL A   1      40.050  25.197  26.106  1.00  0.00     0.014 A 
ATOM     32  C   UNL A   1      39.229  25.626  28.741  1.00  0.00     0.010 A 
ATOM     33  C   UNL A   1      40.500  26.312  26.796  1.00  0.00     0.010 A 
ATOM     34  C   UNL A   1      40.087  26.547  28.117  1.00  0.00    -0.014 A 
BRANCH  34  35
ATOM     35  C   UNL A   1      40.550  27.789  28.787  1.00  0.00     0.031 A 
ATOM     36  C   UNL A   1      41.900  27.801  29.451  1.00  0.00     0.074 A 
ATOM     37  C   UNL A   1      39.728  28.850  28.899  1.00  0.00     0.049 A 
ATOM     38  N   UNL A   1      42.420  28.692  30.252  1.00  0.00    -0.248 NA
ATOM     39  C   UNL A   1      42.761  26.628  29.215  1.00  0.00     0.031 C 
ATOM     40  C   UNL A   1      38.386  28.953  28.323  1.00  0.00     0.029 A 
ATOM     41  N   UNL A   1      39.895  30.041  29.563  1.00  0.00    -0.354 N 
ATOM     42  C   UNL A   1      43.652  28.175  30.640  1.00  0.00     0.074 A 
ATOM     43  C   UNL A   1      43.772  26.867  30.037  1.00  0.00     0.031 C 
ATOM     44  C   UNL A   1      37.856  30.143  28.652  1.00  0.00     0.029 A 
ATOM     45  C   UNL A   1      38.795  30.865  29.505  1.00  0.00     0.049 A 
ATOM     46  H   UNL A   1      40.725  30.282  30.036  1.00  0.00     0.167 HD
ATOM     47  C   UNL A   1      44.606  28.746  31.412  1.00  0.00     0.031 A 
ATOM     48  C   UNL A   1      38.557  32.055  30.093  1.00  0.00     0.031 A 
ATOM     49  C   UNL A   1      44.483  30.052  31.998  1.00  0.00     0.049 A 
ATOM     50  C   UNL A   1      39.624  32.667  30.962  1.00  0.00     0.074 A 
ATOM     51  C   UNL A   1      45.406  30.741  32.762  1.00  0.00     0.029 A 
ATOM     52  N   UNL A   1      43.367  30.868  31.880  1.00  0.00    -0.354 N 
ATOM     53  N   UNL A   1      40.799  32.183  31.286  1.00  0.00    -0.248 NA
ATOM     54  C   UNL A   1      39.338  33.990  31.536  1.00  0.00     0.031 C 
ATOM     55  C   UNL A   1      44.828  31.954  33.150  1.00  0.00     0.029 A 
ATOM     56  C   UNL A   1      43.573  32.049  32.569  1.00  0.00     0.049 A 
ATOM     57  H   UNL A   1      42.550  30.639  31.381  1.00  0.00     0.167 HD
ATOM     58  C   UNL A   1      41.410  33.157  32.068  1.00  0.00     0.074 A 
ATOM     59  C   UNL A   1      40.473  34.259  32.169  1.00  0.00     0.031 C 
ATOM     60  C   UNL A   1      42.638  33.145  32.640  1.00  0.00     0.031 A 
BRANCH  47  61
ATOM     61  C   UNL A   1      45.859  27.948  31.666  1.00  0.00    -0.014 A 
ATOM     62  C   UNL A   1      45.961  27.084  32.772  1.00  0.00     0.010 A 
ATOM     63  C   UNL A   1      46.950  28.059  30.785  1.00  0.00     0.010 A 
ATOM     64  C   UNL A   1      47.147  26.394  33.026  1.00  0.00     0.020 A 
ATOM     65  C   UNL A   1      48.128  27.341  31.015  1.00  0.00     0.020 A 
ATOM     66  C   UNL A   1      48.226  26.532  32.149  1.00  0.00     0.054 A 
BRANCH  66  67
ATOM     67  S   UNL A   1      49.756  25.627  32.508  1.00  0.00     0.124 S 
ATOM     68  O   UNL A   1      49.316  24.689  33.538  1.00  0.00    -0.237 OA
ATOM     69  O   UNL A   1      50.086  25.032  31.215  1.00  0.00    -0.237 OA
ATOM     70  O   UNL A   1      50.676  26.667  32.965  1.00  0.00    -0.744 OA
ENDBRANCH  66  67
ENDBRANCH  47  61
BRANCH  48  71
ATOM     71  C   UNL A   1      37.256  32.743  29.869  1.00  0.00    -0.014 A 
ATOM     72  C   UNL A   1      36.281  32.778  30.880  1.00  0.00     0.010 A 
ATOM     73  C   UNL A   1      36.998  33.401  28.651  1.00  0.00     0.010 A 
ATOM     74  C   UNL A   1      35.070  33.447  30.676  1.00  0.00     0.020 A 
ATOM     75  C   UNL A   1      35.802  34.096  28.454  1.00  0.00     0.020 A 
ATOM     76  C   UNL A   1      34.841  34.107  29.466  1.00  0.00     0.054 A 
BRANCH  76  77
ATOM     77  S   UNL A   1      33.290  35.025  29.252  1.00  0.00     0.124 S 
ATOM     78  O   UNL A   1      32.593  34.217  28.257  1.00  0.00    -0.237 OA
ATOM     79  O   UNL A   1      32.722  35.001  30.598  1.00  0.00    -0.237 OA
ATOM     80  O   UNL A   1      33.731  36.341  28.794  1.00  0.00    -0.744 OA
ENDBRANCH  76  77
ENDBRANCH  48  71
BRANCH  60  81
ATOM     81  C   UNL A   1      43.090  34.378  33.377  1.00  0.00    -0.014 A 
ATOM     82  C   UNL A   1      42.922  34.508  34.765  1.00  0.00     0.010 A 
ATOM     83  C   UNL A   1      43.801  35.368  32.673  1.00  0.00     0.010 A 
ATOM     84  C   UNL A   1      43.460  35.610  35.438  1.00  0.00     0.020 A 
ATOM     85  C   UNL A   1      44.364  36.455  33.345  1.00  0.00     0.020 A 
ATOM     86  C   UNL A   1      44.187  36.570  34.725  1.00  0.00     0.054 A 
BRANCH  86  87
ATOM     87  S   UNL A   1      44.957  37.938  35.635  1.00  0.00     0.124 S 
ATOM     88  O   UNL A   1      46.108  37.284  36.252  1.00  0.00    -0.237 OA
ATOM     89  O   UNL A   1      45.270  38.891  34.573  1.00  0.00    -0.237 OA
ATOM     90  O   UNL A   1      43.914  38.368  36.564  1.00  0.00    -0.744 OA
ENDBRANCH  86  87
ENDBRANCH  60  81
ENDBRANCH  34  35
ENDBRANCH  26  29
ENDBRANCH  24  25
ENDBRANCH   1  24
TORSDOF 18
ENDMDL
