MODEL 1
REMARK VINA RESULT:     -11.2      0.000      0.000
REMARK SMILES COc1ccc(CSc2ncccc2C(=O)NCCCNC(=O)c2ccc(-c3c4nc(c(-c5ccc(S(=O)(=O)[O-])cc5)c5ccc([nH]5)c(-c5ccc(S(=O)(=O)[O-])cc5)c5nc(c(-c6ccc(S(=O)(=O)[O-])cc6)c6ccc3[nH]6)C=C5)C=C4)cc2)cc1
REMARK SMILES IDX 18 1 17 2 15 3 16 4 14 6 9 7 10 8 11 9 13 10 12 11 8 12 7 13
REMARK SMILES IDX 6 14 3 15 4 16 85 17 5 18 84 19 2 20 1 21 19 22 20 23 21 24
REMARK SMILES IDX 22 25 23 27 24 28 25 29 83 30 26 31 82 32 27 33 28 34 29 35
REMARK SMILES IDX 76 36 30 37 81 38 75 39 77 40 31 41 80 42 74 43 73 44 32 46
REMARK SMILES IDX 62 47 43 48 61 49 44 50 47 51 60 52 78 53 45 54 46 55 59 57
REMARK SMILES IDX 79 58 48 59 33 60 34 61 42 62 35 63 41 64 36 65 37 66 38 67
REMARK SMILES IDX 39 68 40 69 63 70 64 71 72 72 65 73 71 74 66 75 67 76 68 77
REMARK SMILES IDX 69 78 70 79 49 80 50 81 58 82 51 83 57 84 52 85 53 86 54 87
REMARK SMILES IDX 55 88 56 89
REMARK H PARENT 17 5 21 26 77 45 47 56
REMARK Flexibility Score: inf
ROOT
ATOM      1  C   UNL A   1      33.988  25.933  25.514  1.00  0.00     0.118 C 
ENDROOT
BRANCH   1   2
ATOM      2  N   UNL A   1      33.817  25.435  24.159  1.00  0.00    -0.352 N 
ATOM      3  C   UNL A   1      34.295  24.363  23.447  1.00  0.00     0.254 C 
ATOM      4  O   UNL A   1      33.963  24.351  22.263  1.00  0.00    -0.269 OA
ATOM      5  H   UNL A   1      33.213  26.000  23.626  1.00  0.00     0.163 HD
BRANCH   3   6
ATOM      6  C   UNL A   1      35.104  23.252  24.035  1.00  0.00     0.072 A 
ATOM      7  C   UNL A   1      34.536  22.297  24.898  1.00  0.00     0.109 A 
ATOM      8  N   UNL A   1      35.278  21.326  25.507  1.00  0.00    -0.249 NA
ATOM      9  C   UNL A   1      36.595  21.258  25.242  1.00  0.00     0.112 A 
ATOM     10  C   UNL A   1      36.461  23.084  23.729  1.00  0.00     0.018 A 
ATOM     11  C   UNL A   1      37.224  22.096  24.350  1.00  0.00     0.021 A 
BRANCH   7  12
ATOM     12  S   UNL A   1      32.798  22.079  25.245  1.00  0.00    -0.101 SA
BRANCH  12  13
ATOM     13  C   UNL A   1      32.313  21.045  23.834  1.00  0.00     0.112 C 
BRANCH  13  14
ATOM     14  C   UNL A   1      32.577  19.570  24.029  1.00  0.00    -0.037 A 
ATOM     15  C   UNL A   1      33.041  16.817  24.415  1.00  0.00     0.118 A 
ATOM     16  C   UNL A   1      33.023  17.358  23.130  1.00  0.00     0.047 A 
ATOM     17  C   UNL A   1      32.830  17.654  25.510  1.00  0.00     0.047 A 
ATOM     18  C   UNL A   1      32.775  18.717  22.935  1.00  0.00     0.008 A 
ATOM     19  C   UNL A   1      32.599  19.022  25.318  1.00  0.00     0.008 A 
BRANCH  15  20
ATOM     20  O   UNL A   1      33.300  15.475  24.472  1.00  0.00    -0.497 OA
ATOM     21  C   UNL A   1      32.755  14.779  25.585  1.00  0.00     0.278 C 
ENDBRANCH  15  20
ENDBRANCH  13  14
ENDBRANCH  12  13
ENDBRANCH   7  12
ENDBRANCH   3   6
ENDBRANCH   1   2
BRANCH   1  22
ATOM     22  C   UNL A   1      33.609  27.414  25.595  1.00  0.00     0.042 C 
BRANCH  22  23
ATOM     23  C   UNL A   1      33.619  27.970  27.021  1.00  0.00     0.118 C 
BRANCH  23  24
ATOM     24  N   UNL A   1      33.485  29.419  27.044  1.00  0.00    -0.352 N 
ATOM     25  C   UNL A   1      34.329  30.375  27.554  1.00  0.00     0.251 C 
ATOM     26  H   UNL A   1      32.663  29.768  26.631  1.00  0.00     0.163 HD
ATOM     27  O   UNL A   1      33.920  31.525  27.683  1.00  0.00    -0.269 OA
BRANCH  25  28
ATOM     28  C   UNL A   1      35.713  30.031  27.951  1.00  0.00     0.039 A 
ATOM     29  C   UNL A   1      35.964  29.680  29.281  1.00  0.00     0.014 A 
ATOM     30  C   UNL A   1      36.770  30.109  27.040  1.00  0.00     0.014 A 
ATOM     31  C   UNL A   1      37.263  29.360  29.685  1.00  0.00     0.010 A 
ATOM     32  C   UNL A   1      38.054  29.731  27.429  1.00  0.00     0.010 A 
ATOM     33  C   UNL A   1      38.315  29.357  28.756  1.00  0.00    -0.014 A 
BRANCH  33  34
ATOM     34  C   UNL A   1      39.691  28.961  29.152  1.00  0.00     0.031 A 
ATOM     35  C   UNL A   1      40.597  29.945  29.845  1.00  0.00     0.074 A 
ATOM     36  C   UNL A   1      40.149  27.735  28.829  1.00  0.00     0.049 A 
ATOM     37  N   UNL A   1      41.847  29.803  30.204  1.00  0.00    -0.248 NA
ATOM     38  C   UNL A   1      40.030  31.269  30.151  1.00  0.00     0.031 C 
ATOM     39  C   UNL A   1      39.383  26.705  28.125  1.00  0.00     0.029 A 
ATOM     40  N   UNL A   1      41.372  27.152  29.042  1.00  0.00    -0.354 N 
ATOM     41  C   UNL A   1      42.225  31.021  30.757  1.00  0.00     0.074 A 
ATOM     42  C   UNL A   1      41.082  31.903  30.651  1.00  0.00     0.031 C 
ATOM     43  C   UNL A   1      40.147  25.610  27.980  1.00  0.00     0.029 A 
ATOM     44  C   UNL A   1      41.467  25.873  28.546  1.00  0.00     0.049 A 
ATOM     45  H   UNL A   1      42.112  27.606  29.506  1.00  0.00     0.167 HD
ATOM     46  C   UNL A   1      43.409  31.371  31.313  1.00  0.00     0.031 A 
ATOM     47  C   UNL A   1      42.501  25.009  28.537  1.00  0.00     0.031 A 
ATOM     48  C   UNL A   1      44.539  30.486  31.430  1.00  0.00     0.049 A 
ATOM     49  C   UNL A   1      43.803  25.416  29.167  1.00  0.00     0.074 A 
ATOM     50  C   UNL A   1      45.760  30.726  32.034  1.00  0.00     0.029 A 
ATOM     51  N   UNL A   1      44.585  29.192  30.934  1.00  0.00    -0.354 N 
ATOM     52  N   UNL A   1      44.119  26.552  29.741  1.00  0.00    -0.248 NA
ATOM     53  C   UNL A   1      44.884  24.420  29.162  1.00  0.00     0.031 C 
ATOM     54  C   UNL A   1      46.564  29.594  31.862  1.00  0.00     0.029 A 
ATOM     55  C   UNL A   1      45.822  28.629  31.199  1.00  0.00     0.049 A 
ATOM     56  H   UNL A   1      43.848  28.740  30.463  1.00  0.00     0.167 HD
ATOM     57  C   UNL A   1      45.428  26.400  30.185  1.00  0.00     0.074 A 
ATOM     58  C   UNL A   1      45.839  25.057  29.827  1.00  0.00     0.031 C 
ATOM     59  C   UNL A   1      46.218  27.291  30.833  1.00  0.00     0.031 A 
BRANCH  46  60
ATOM     60  C   UNL A   1      43.547  32.778  31.833  1.00  0.00    -0.014 A 
ATOM     61  C   UNL A   1      43.321  33.078  33.189  1.00  0.00     0.010 A 
ATOM     62  C   UNL A   1      43.948  33.809  30.963  1.00  0.00     0.010 A 
ATOM     63  C   UNL A   1      43.451  34.388  33.655  1.00  0.00     0.020 A 
ATOM     64  C   UNL A   1      44.105  35.117  31.431  1.00  0.00     0.020 A 
ATOM     65  C   UNL A   1      43.838  35.401  32.772  1.00  0.00     0.054 A 
BRANCH  65  66
ATOM     66  S   UNL A   1      44.016  37.091  33.409  1.00  0.00     0.124 S 
ATOM     67  O   UNL A   1      45.177  36.960  34.286  1.00  0.00    -0.237 OA
ATOM     68  O   UNL A   1      44.234  37.871  32.193  1.00  0.00    -0.237 OA
ATOM     69  O   UNL A   1      42.747  37.341  34.087  1.00  0.00    -0.744 OA
ENDBRANCH  65  66
ENDBRANCH  46  60
BRANCH  47  70
ATOM     70  C   UNL A   1      42.334  23.665  27.921  1.00  0.00    -0.014 A 
ATOM     71  C   UNL A   1      42.495  23.492  26.535  1.00  0.00     0.010 A 
ATOM     72  C   UNL A   1      42.042  22.546  28.721  1.00  0.00     0.010 A 
ATOM     73  C   UNL A   1      42.357  22.225  25.959  1.00  0.00     0.020 A 
ATOM     74  C   UNL A   1      41.929  21.274  28.153  1.00  0.00     0.020 A 
ATOM     75  C   UNL A   1      42.079  21.123  26.773  1.00  0.00     0.054 A 
BRANCH  75  76
ATOM     76  S   UNL A   1      41.972  19.479  26.014  1.00  0.00     0.124 S 
ATOM     77  O   UNL A   1      42.459  18.617  27.086  1.00  0.00    -0.237 OA
ATOM     78  O   UNL A   1      40.548  19.364  25.706  1.00  0.00    -0.237 OA
ATOM     79  O   UNL A   1      42.846  19.585  24.848  1.00  0.00    -0.744 OA
ENDBRANCH  75  76
ENDBRANCH  47  70
BRANCH  59  80
ATOM     80  C   UNL A   1      47.598  26.837  31.225  1.00  0.00    -0.014 A 
ATOM     81  C   UNL A   1      47.845  26.258  32.482  1.00  0.00     0.010 A 
ATOM     82  C   UNL A   1      48.652  26.943  30.298  1.00  0.00     0.010 A 
ATOM     83  C   UNL A   1      49.128  25.819  32.817  1.00  0.00     0.020 A 
ATOM     84  C   UNL A   1      49.931  26.483  30.620  1.00  0.00     0.020 A 
ATOM     85  C   UNL A   1      50.163  25.935  31.884  1.00  0.00     0.054 A 
BRANCH  85  86
ATOM     86  S   UNL A   1      51.811  25.319  32.325  1.00  0.00     0.124 S 
ATOM     87  O   UNL A   1      51.630  23.874  32.232  1.00  0.00    -0.237 OA
ATOM     88  O   UNL A   1      52.662  25.912  31.295  1.00  0.00    -0.237 OA
ATOM     89  O   UNL A   1      52.025  25.836  33.674  1.00  0.00    -0.744 OA
ENDBRANCH  85  86
ENDBRANCH  59  80
ENDBRANCH  33  34
ENDBRANCH  25  28
ENDBRANCH  23  24
ENDBRANCH  22  23
ENDBRANCH   1  22
TORSDOF 17
ENDMDL
MODEL 2
REMARK VINA RESULT:     -10.8      2.862      9.634
REMARK SMILES COc1ccc(CSc2ncccc2C(=O)NCCCNC(=O)c2ccc(-c3c4nc(c(-c5ccc(S(=O)(=O)[O-])cc5)c5ccc([nH]5)c(-c5ccc(S(=O)(=O)[O-])cc5)c5nc(c(-c6ccc(S(=O)(=O)[O-])cc6)c6ccc3[nH]6)C=C5)C=C4)cc2)cc1
REMARK SMILES IDX 18 1 17 2 15 3 16 4 14 6 9 7 10 8 11 9 13 10 12 11 8 12 7 13
REMARK SMILES IDX 6 14 3 15 4 16 85 17 5 18 84 19 2 20 1 21 19 22 20 23 21 24
REMARK SMILES IDX 22 25 23 27 24 28 25 29 83 30 26 31 82 32 27 33 28 34 29 35
REMARK SMILES IDX 76 36 30 37 81 38 75 39 77 40 31 41 80 42 74 43 73 44 32 46
REMARK SMILES IDX 62 47 43 48 61 49 44 50 47 51 60 52 78 53 45 54 46 55 59 57
REMARK SMILES IDX 79 58 48 59 33 60 34 61 42 62 35 63 41 64 36 65 37 66 38 67
REMARK SMILES IDX 39 68 40 69 63 70 64 71 72 72 65 73 71 74 66 75 67 76 68 77
REMARK SMILES IDX 69 78 70 79 49 80 50 81 58 82 51 83 57 84 52 85 53 86 54 87
REMARK SMILES IDX 55 88 56 89
REMARK H PARENT 17 5 21 26 77 45 47 56
REMARK Flexibility Score: inf
ROOT
ATOM      1  C   UNL A   1      34.958  21.896  25.311  1.00  0.00     0.118 C 
ENDROOT
BRANCH   1   2
ATOM      2  N   UNL A   1      34.116  21.718  24.139  1.00  0.00    -0.352 N 
ATOM      3  C   UNL A   1      32.811  22.006  23.822  1.00  0.00     0.254 C 
ATOM      4  O   UNL A   1      32.456  21.602  22.717  1.00  0.00    -0.269 OA
ATOM      5  H   UNL A   1      34.597  21.291  23.394  1.00  0.00     0.163 HD
BRANCH   3   6
ATOM      6  C   UNL A   1      31.885  22.791  24.694  1.00  0.00     0.072 A 
ATOM      7  C   UNL A   1      31.589  24.142  24.435  1.00  0.00     0.109 A 
ATOM      8  N   UNL A   1      30.811  24.894  25.267  1.00  0.00    -0.249 NA
ATOM      9  C   UNL A   1      30.277  24.312  26.354  1.00  0.00     0.112 A 
ATOM     10  C   UNL A   1      31.236  22.212  25.792  1.00  0.00     0.018 A 
ATOM     11  C   UNL A   1      30.442  22.978  26.646  1.00  0.00     0.021 A 
BRANCH   7  12
ATOM     12  S   UNL A   1      32.029  25.064  22.970  1.00  0.00    -0.101 SA
BRANCH  12  13
ATOM     13  C   UNL A   1      33.610  25.780  23.500  1.00  0.00     0.112 C 
BRANCH  13  14
ATOM     14  C   UNL A   1      33.472  26.982  24.404  1.00  0.00    -0.037 A 
ATOM     15  C   UNL A   1      33.249  29.218  26.105  1.00  0.00     0.118 A 
ATOM     16  C   UNL A   1      32.934  29.326  24.751  1.00  0.00     0.047 A 
ATOM     17  C   UNL A   1      33.675  27.991  26.611  1.00  0.00     0.047 A 
ATOM     18  C   UNL A   1      33.061  28.225  23.903  1.00  0.00     0.008 A 
ATOM     19  C   UNL A   1      33.786  26.880  25.766  1.00  0.00     0.008 A 
BRANCH  15  20
ATOM     20  O   UNL A   1      33.077  30.366  26.829  1.00  0.00    -0.497 OA
ATOM     21  C   UNL A   1      34.209  30.822  27.558  1.00  0.00     0.278 C 
ENDBRANCH  15  20
ENDBRANCH  13  14
ENDBRANCH  12  13
ENDBRANCH   7  12
ENDBRANCH   3   6
ENDBRANCH   1   2
BRANCH   1  22
ATOM     22  C   UNL A   1      35.201  23.383  25.580  1.00  0.00     0.042 C 
BRANCH  22  23
ATOM     23  C   UNL A   1      36.636  23.829  25.287  1.00  0.00     0.118 C 
BRANCH  23  24
ATOM     24  N   UNL A   1      37.608  22.798  25.624  1.00  0.00    -0.352 N 
ATOM     25  C   UNL A   1      38.846  22.910  26.208  1.00  0.00     0.251 C 
ATOM     26  H   UNL A   1      37.335  21.880  25.398  1.00  0.00     0.163 HD
ATOM     27  O   UNL A   1      39.604  21.945  26.188  1.00  0.00    -0.269 OA
BRANCH  25  28
ATOM     28  C   UNL A   1      39.272  24.174  26.849  1.00  0.00     0.039 A 
ATOM     29  C   UNL A   1      38.872  24.430  28.164  1.00  0.00     0.014 A 
ATOM     30  C   UNL A   1      40.011  25.130  26.146  1.00  0.00     0.014 A 
ATOM     31  C   UNL A   1      39.253  25.620  28.790  1.00  0.00     0.010 A 
ATOM     32  C   UNL A   1      40.441  26.289  26.791  1.00  0.00     0.010 A 
ATOM     33  C   UNL A   1      40.064  26.549  28.117  1.00  0.00    -0.014 A 
BRANCH  33  34
ATOM     34  C   UNL A   1      40.529  27.790  28.786  1.00  0.00     0.031 A 
ATOM     35  C   UNL A   1      41.903  27.857  29.398  1.00  0.00     0.074 A 
ATOM     36  C   UNL A   1      39.688  28.838  28.902  1.00  0.00     0.049 A 
ATOM     37  N   UNL A   1      42.455  28.828  30.080  1.00  0.00    -0.248 NA
ATOM     38  C   UNL A   1      42.758  26.669  29.243  1.00  0.00     0.031 C 
ATOM     39  C   UNL A   1      38.318  28.883  28.386  1.00  0.00     0.029 A 
ATOM     40  N   UNL A   1      39.858  30.061  29.499  1.00  0.00    -0.354 N 
ATOM     41  C   UNL A   1      43.711  28.362  30.455  1.00  0.00     0.074 A 
ATOM     42  C   UNL A   1      43.823  27.008  29.957  1.00  0.00     0.031 C 
ATOM     43  C   UNL A   1      37.779  30.080  28.673  1.00  0.00     0.029 A 
ATOM     44  C   UNL A   1      38.749  30.870  29.425  1.00  0.00     0.049 A 
ATOM     45  H   UNL A   1      40.695  30.333  29.940  1.00  0.00     0.167 HD
ATOM     46  C   UNL A   1      44.685  29.007  31.140  1.00  0.00     0.031 A 
ATOM     47  C   UNL A   1      38.530  32.107  29.913  1.00  0.00     0.031 A 
ATOM     48  C   UNL A   1      44.576  30.359  31.620  1.00  0.00     0.049 A 
ATOM     49  C   UNL A   1      39.629  32.805  30.664  1.00  0.00     0.074 A 
ATOM     50  C   UNL A   1      45.531  31.121  32.269  1.00  0.00     0.029 A 
ATOM     51  N   UNL A   1      43.444  31.151  31.505  1.00  0.00    -0.354 N 
ATOM     52  N   UNL A   1      40.832  32.370  30.953  1.00  0.00    -0.248 NA
ATOM     53  C   UNL A   1      39.348  34.166  31.140  1.00  0.00     0.031 C 
ATOM     54  C   UNL A   1      44.962  32.359  32.589  1.00  0.00     0.029 A 
ATOM     55  C   UNL A   1      43.669  32.386  32.089  1.00  0.00     0.049 A 
ATOM     56  H   UNL A   1      42.604  30.876  31.071  1.00  0.00     0.167 HD
ATOM     57  C   UNL A   1      41.459  33.412  31.627  1.00  0.00     0.074 A 
ATOM     58  C   UNL A   1      40.508  34.504  31.688  1.00  0.00     0.031 C 
ATOM     59  C   UNL A   1      42.711  33.462  32.146  1.00  0.00     0.031 A 
BRANCH  46  60
ATOM     60  C   UNL A   1      45.959  28.251  31.418  1.00  0.00    -0.014 A 
ATOM     61  C   UNL A   1      46.110  27.484  32.588  1.00  0.00     0.010 A 
ATOM     62  C   UNL A   1      47.005  28.275  30.478  1.00  0.00     0.010 A 
ATOM     63  C   UNL A   1      47.298  26.792  32.832  1.00  0.00     0.020 A 
ATOM     64  C   UNL A   1      48.186  27.562  30.706  1.00  0.00     0.020 A 
ATOM     65  C   UNL A   1      48.332  26.839  31.891  1.00  0.00     0.054 A 
BRANCH  65  66
ATOM     66  S   UNL A   1      49.857  25.915  32.226  1.00  0.00     0.124 S 
ATOM     67  O   UNL A   1      50.704  26.943  32.827  1.00  0.00    -0.237 OA
ATOM     68  O   UNL A   1      49.404  24.866  33.137  1.00  0.00    -0.237 OA
ATOM     69  O   UNL A   1      50.279  25.452  30.907  1.00  0.00    -0.744 OA
ENDBRANCH  65  66
ENDBRANCH  46  60
BRANCH  47  70
ATOM     70  C   UNL A   1      37.215  32.766  29.690  1.00  0.00    -0.014 A 
ATOM     71  C   UNL A   1      36.203  32.685  30.662  1.00  0.00     0.010 A 
ATOM     72  C   UNL A   1      36.978  33.503  28.516  1.00  0.00     0.010 A 
ATOM     73  C   UNL A   1      34.975  33.321  30.460  1.00  0.00     0.020 A 
ATOM     74  C   UNL A   1      35.761  34.162  28.322  1.00  0.00     0.020 A 
ATOM     75  C   UNL A   1      34.763  34.059  29.292  1.00  0.00     0.054 A 
BRANCH  75  76
ATOM     76  S   UNL A   1      33.187  34.933  29.082  1.00  0.00     0.124 S 
ATOM     77  O   UNL A   1      33.628  36.265  28.685  1.00  0.00    -0.237 OA
ATOM     78  O   UNL A   1      32.526  34.148  28.041  1.00  0.00    -0.237 OA
ATOM     79  O   UNL A   1      32.569  34.843  30.403  1.00  0.00    -0.744 OA
ENDBRANCH  75  76
ENDBRANCH  47  70
BRANCH  59  80
ATOM     80  C   UNL A   1      43.138  34.747  32.801  1.00  0.00    -0.014 A 
ATOM     81  C   UNL A   1      43.805  35.749  32.074  1.00  0.00     0.010 A 
ATOM     82  C   UNL A   1      42.819  34.976  34.152  1.00  0.00     0.010 A 
ATOM     83  C   UNL A   1      44.171  36.946  32.695  1.00  0.00     0.020 A 
ATOM     84  C   UNL A   1      43.160  36.182  34.769  1.00  0.00     0.020 A 
ATOM     85  C   UNL A   1      43.847  37.155  34.039  1.00  0.00     0.054 A 
BRANCH  85  86
ATOM     86  S   UNL A   1      44.293  38.734  34.812  1.00  0.00     0.124 S 
ATOM     87  O   UNL A   1      44.029  38.467  36.222  1.00  0.00    -0.237 OA
ATOM     88  O   UNL A   1      45.703  38.879  34.454  1.00  0.00    -0.237 OA
ATOM     89  O   UNL A   1      43.394  39.696  34.178  1.00  0.00    -0.744 OA
ENDBRANCH  85  86
ENDBRANCH  59  80
ENDBRANCH  33  34
ENDBRANCH  25  28
ENDBRANCH  23  24
ENDBRANCH  22  23
ENDBRANCH   1  22
TORSDOF 17
ENDMDL
MODEL 3
REMARK VINA RESULT:     -10.5      4.314     10.376
REMARK SMILES COc1ccc(CSc2ncccc2C(=O)NCCCNC(=O)c2ccc(-c3c4nc(c(-c5ccc(S(=O)(=O)[O-])cc5)c5ccc([nH]5)c(-c5ccc(S(=O)(=O)[O-])cc5)c5nc(c(-c6ccc(S(=O)(=O)[O-])cc6)c6ccc3[nH]6)C=C5)C=C4)cc2)cc1
REMARK SMILES IDX 18 1 17 2 15 3 16 4 14 6 9 7 10 8 11 9 13 10 12 11 8 12 7 13
REMARK SMILES IDX 6 14 3 15 4 16 85 17 5 18 84 19 2 20 1 21 19 22 20 23 21 24
REMARK SMILES IDX 22 25 23 27 24 28 25 29 83 30 26 31 82 32 27 33 28 34 29 35
REMARK SMILES IDX 76 36 30 37 81 38 75 39 77 40 31 41 80 42 74 43 73 44 32 46
REMARK SMILES IDX 62 47 43 48 61 49 44 50 47 51 60 52 78 53 45 54 46 55 59 57
REMARK SMILES IDX 79 58 48 59 33 60 34 61 42 62 35 63 41 64 36 65 37 66 38 67
REMARK SMILES IDX 39 68 40 69 63 70 64 71 72 72 65 73 71 74 66 75 67 76 68 77
REMARK SMILES IDX 69 78 70 79 49 80 50 81 58 82 51 83 57 84 52 85 53 86 54 87
REMARK SMILES IDX 55 88 56 89
REMARK H PARENT 17 5 21 26 77 45 47 56
REMARK Flexibility Score: inf
ROOT
ATOM      1  C   UNL A   1      36.072  23.631  25.623  1.00  0.00     0.118 C 
ENDROOT
BRANCH   1   2
ATOM      2  N   UNL A   1      35.281  23.252  26.781  1.00  0.00    -0.352 N 
ATOM      3  C   UNL A   1      34.256  22.369  27.017  1.00  0.00     0.254 C 
ATOM      4  O   UNL A   1      33.795  22.418  28.155  1.00  0.00    -0.269 OA
ATOM      5  H   UNL A   1      35.543  23.746  27.591  1.00  0.00     0.163 HD
BRANCH   3   6
ATOM      6  C   UNL A   1      33.754  21.375  26.020  1.00  0.00     0.072 A 
ATOM      7  C   UNL A   1      32.428  21.397  25.552  1.00  0.00     0.109 A 
ATOM      8  N   UNL A   1      31.933  20.448  24.705  1.00  0.00    -0.249 NA
ATOM      9  C   UNL A   1      32.755  19.477  24.272  1.00  0.00     0.112 A 
ATOM     10  C   UNL A   1      34.590  20.392  25.472  1.00  0.00     0.018 A 
ATOM     11  C   UNL A   1      34.088  19.419  24.608  1.00  0.00     0.021 A 
BRANCH   7  12
ATOM     12  S   UNL A   1      31.221  22.682  25.841  1.00  0.00    -0.101 SA
BRANCH  12  13
ATOM     13  C   UNL A   1      31.829  23.959  24.704  1.00  0.00     0.112 C 
BRANCH  13  14
ATOM     14  C   UNL A   1      32.218  25.254  25.379  1.00  0.00    -0.037 A 
ATOM     15  C   UNL A   1      32.952  27.683  26.605  1.00  0.00     0.118 A 
ATOM     16  C   UNL A   1      31.736  27.075  26.913  1.00  0.00     0.047 A 
ATOM     17  C   UNL A   1      33.805  27.075  25.684  1.00  0.00     0.047 A 
ATOM     18  C   UNL A   1      31.362  25.882  26.294  1.00  0.00     0.008 A 
ATOM     19  C   UNL A   1      33.440  25.868  25.075  1.00  0.00     0.008 A 
BRANCH  15  20
ATOM     20  O   UNL A   1      33.204  28.844  27.283  1.00  0.00    -0.497 OA
ATOM     21  C   UNL A   1      32.382  29.954  26.950  1.00  0.00     0.278 C 
ENDBRANCH  15  20
ENDBRANCH  13  14
ENDBRANCH  12  13
ENDBRANCH   7  12
ENDBRANCH   3   6
ENDBRANCH   1   2
BRANCH   1  22
ATOM     22  C   UNL A   1      37.529  23.196  25.799  1.00  0.00     0.042 C 
BRANCH  22  23
ATOM     23  C   UNL A   1      38.410  24.265  26.451  1.00  0.00     0.118 C 
BRANCH  23  24
ATOM     24  N   UNL A   1      39.802  24.152  26.037  1.00  0.00    -0.352 N 
ATOM     25  C   UNL A   1      40.886  24.926  26.370  1.00  0.00     0.251 C 
ATOM     26  H   UNL A   1      39.994  23.407  25.423  1.00  0.00     0.163 HD
ATOM     27  O   UNL A   1      41.925  24.806  25.727  1.00  0.00    -0.269 OA
BRANCH  25  28
ATOM     28  C   UNL A   1      40.812  25.899  27.483  1.00  0.00     0.039 A 
ATOM     29  C   UNL A   1      41.725  26.957  27.514  1.00  0.00     0.014 A 
ATOM     30  C   UNL A   1      39.891  25.742  28.523  1.00  0.00     0.014 A 
ATOM     31  C   UNL A   1      41.683  27.885  28.559  1.00  0.00     0.010 A 
ATOM     32  C   UNL A   1      39.809  26.701  29.531  1.00  0.00     0.010 A 
ATOM     33  C   UNL A   1      40.707  27.780  29.563  1.00  0.00    -0.014 A 
BRANCH  33  34
ATOM     34  C   UNL A   1      40.608  28.789  30.647  1.00  0.00     0.031 A 
ATOM     35  C   UNL A   1      41.496  28.694  31.860  1.00  0.00     0.074 A 
ATOM     36  C   UNL A   1      39.670  29.755  30.572  1.00  0.00     0.049 A 
ATOM     37  N   UNL A   1      41.506  29.441  32.934  1.00  0.00    -0.248 NA
ATOM     38  C   UNL A   1      42.485  27.604  31.876  1.00  0.00     0.031 C 
ATOM     39  C   UNL A   1      38.724  29.931  29.469  1.00  0.00     0.029 A 
ATOM     40  N   UNL A   1      39.353  30.765  31.446  1.00  0.00    -0.354 N 
ATOM     41  C   UNL A   1      42.482  28.900  33.764  1.00  0.00     0.074 A 
ATOM     42  C   UNL A   1      43.017  27.740  33.083  1.00  0.00     0.031 C 
ATOM     43  C   UNL A   1      37.944  30.995  29.723  1.00  0.00     0.029 A 
ATOM     44  C   UNL A   1      38.309  31.553  31.022  1.00  0.00     0.049 A 
ATOM     45  H   UNL A   1      39.827  30.910  32.296  1.00  0.00     0.167 HD
ATOM     46  C   UNL A   1      42.904  29.336  34.974  1.00  0.00     0.031 A 
ATOM     47  C   UNL A   1      37.704  32.601  31.614  1.00  0.00     0.031 A 
ATOM     48  C   UNL A   1      42.381  30.499  35.642  1.00  0.00     0.049 A 
ATOM     49  C   UNL A   1      38.195  33.072  32.954  1.00  0.00     0.074 A 
ATOM     50  C   UNL A   1      42.787  31.059  36.841  1.00  0.00     0.029 A 
ATOM     51  N   UNL A   1      41.340  31.282  35.167  1.00  0.00    -0.354 N 
ATOM     52  N   UNL A   1      39.163  32.584  33.693  1.00  0.00    -0.248 NA
ATOM     53  C   UNL A   1      37.523  34.243  33.533  1.00  0.00     0.031 C 
ATOM     54  C   UNL A   1      41.959  32.153  37.116  1.00  0.00     0.029 A 
ATOM     55  C   UNL A   1      41.074  32.307  36.060  1.00  0.00     0.049 A 
ATOM     56  H   UNL A   1      40.860  31.132  34.321  1.00  0.00     0.167 HD
ATOM     57  C   UNL A   1      39.231  33.402  34.815  1.00  0.00     0.074 A 
ATOM     58  C   UNL A   1      38.217  34.425  34.650  1.00  0.00     0.031 C 
ATOM     59  C   UNL A   1      40.059  33.316  35.884  1.00  0.00     0.031 A 
BRANCH  46  60
ATOM     60  C   UNL A   1      43.986  28.544  35.663  1.00  0.00    -0.014 A 
ATOM     61  C   UNL A   1      43.670  27.480  36.528  1.00  0.00     0.010 A 
ATOM     62  C   UNL A   1      45.338  28.841  35.411  1.00  0.00     0.010 A 
ATOM     63  C   UNL A   1      44.684  26.758  37.161  1.00  0.00     0.020 A 
ATOM     64  C   UNL A   1      46.356  28.103  36.022  1.00  0.00     0.020 A 
ATOM     65  C   UNL A   1      46.022  27.077  36.908  1.00  0.00     0.054 A 
BRANCH  65  66
ATOM     66  S   UNL A   1      47.319  26.110  37.729  1.00  0.00     0.124 S 
ATOM     67  O   UNL A   1      46.579  24.930  38.170  1.00  0.00    -0.237 OA
ATOM     68  O   UNL A   1      48.280  25.882  36.653  1.00  0.00    -0.237 OA
ATOM     69  O   UNL A   1      47.782  26.990  38.799  1.00  0.00    -0.744 OA
ENDBRANCH  65  66
ENDBRANCH  46  60
BRANCH  47  70
ATOM     70  C   UNL A   1      36.575  33.285  30.927  1.00  0.00    -0.014 A 
ATOM     71  C   UNL A   1      35.292  33.293  31.501  1.00  0.00     0.010 A 
ATOM     72  C   UNL A   1      36.784  33.957  29.709  1.00  0.00     0.010 A 
ATOM     73  C   UNL A   1      34.236  33.952  30.865  1.00  0.00     0.020 A 
ATOM     74  C   UNL A   1      35.737  34.639  29.083  1.00  0.00     0.020 A 
ATOM     75  C   UNL A   1      34.467  34.624  29.661  1.00  0.00     0.054 A 
BRANCH  75  76
ATOM     76  S   UNL A   1      33.098  35.531  28.888  1.00  0.00     0.124 S 
ATOM     77  O   UNL A   1      33.804  36.540  28.107  1.00  0.00    -0.237 OA
ATOM     78  O   UNL A   1      32.424  34.489  28.116  1.00  0.00    -0.237 OA
ATOM     79  O   UNL A   1      32.338  36.038  30.029  1.00  0.00    -0.744 OA
ENDBRANCH  75  76
ENDBRANCH  47  70
BRANCH  59  80
ATOM     80  C   UNL A   1      39.928  34.371  36.949  1.00  0.00    -0.014 A 
ATOM     81  C   UNL A   1      39.107  34.173  38.074  1.00  0.00     0.010 A 
ATOM     82  C   UNL A   1      40.680  35.556  36.848  1.00  0.00     0.010 A 
ATOM     83  C   UNL A   1      39.020  35.154  39.064  1.00  0.00     0.020 A 
ATOM     84  C   UNL A   1      40.614  36.528  37.848  1.00  0.00     0.020 A 
ATOM     85  C   UNL A   1      39.773  36.326  38.945  1.00  0.00     0.054 A 
BRANCH  85  86
ATOM     86  S   UNL A   1      39.676  37.566  40.265  1.00  0.00     0.124 S 
ATOM     87  O   UNL A   1      39.982  36.773  41.451  1.00  0.00    -0.237 OA
ATOM     88  O   UNL A   1      40.701  38.532  39.873  1.00  0.00    -0.237 OA
ATOM     89  O   UNL A   1      38.302  38.057  40.179  1.00  0.00    -0.744 OA
ENDBRANCH  85  86
ENDBRANCH  59  80
ENDBRANCH  33  34
ENDBRANCH  25  28
ENDBRANCH  23  24
ENDBRANCH  22  23
ENDBRANCH   1  22
TORSDOF 17
ENDMDL
