MODEL 1
REMARK VINA RESULT:     -10.3      0.000      0.000
REMARK SMILES Cc1ccc(-c2nc(C)c(C(=O)N3CCC(C(=O)NCCCNC(=O)c4ccc(-c5c6nc(c(-c7ccc(S(=O)(=O)[O-])cc7)c7ccc([nH]7)c(-c7ccc(S(=O)(=O)[O-])cc7)c7nc(c(-c8ccc(S(=O)(=O)[O-])cc8)c8ccc5[nH]8)C=C7)C=C6)cc4)CC3)s2)o1
REMARK SMILES IDX 21 1 20 2 19 3 17 4 18 5 16 7 11 8 12 9 13 10 14 11 87 12
REMARK SMILES IDX 15 13 86 14 10 15 6 16 7 17 88 18 8 19 9 20 5 21 1 22 2 23
REMARK SMILES IDX 3 24 89 25 4 26 22 27 23 28 24 29 25 31 26 32 27 33 85 34
REMARK SMILES IDX 28 35 84 36 29 37 30 38 31 39 78 40 32 41 83 42 77 43 79 44
REMARK SMILES IDX 33 45 82 46 76 47 75 48 34 50 64 51 45 52 63 53 46 54 49 55
REMARK SMILES IDX 62 56 80 57 47 58 48 59 61 61 81 62 50 63 35 64 36 65 44 66
REMARK SMILES IDX 37 67 43 68 38 69 39 70 40 71 41 72 42 73 65 74 66 75 74 76
REMARK SMILES IDX 67 77 73 78 68 79 69 80 70 81 71 82 72 83 51 84 52 85 60 86
REMARK SMILES IDX 53 87 59 88 54 89 55 90 56 91 57 92 58 93
REMARK H PARENT 19 6 23 30 79 49 49 60
REMARK Flexibility Score: inf
ROOT
ATOM      1  C   UNL A   1      40.800  20.129  26.411  1.00  0.00     0.042 C 
ENDROOT
BRANCH   1   2
ATOM      2  C   UNL A   1      42.261  19.848  26.721  1.00  0.00     0.117 C 
BRANCH   2   3
ATOM      3  N   UNL A   1      43.104  19.922  25.535  1.00  0.00    -0.356 N 
ATOM      4  C   UNL A   1      43.998  20.867  25.138  1.00  0.00     0.223 C 
ATOM      5  O   UNL A   1      44.593  20.697  24.071  1.00  0.00    -0.275 OA
ATOM      6  H   UNL A   1      43.011  19.160  24.919  1.00  0.00     0.163 HD
BRANCH   4   7
ATOM      7  C   UNL A   1      44.279  22.094  25.989  1.00  0.00     0.082 C 
ATOM      8  C   UNL A   1      45.719  25.891  25.388  1.00  0.00     0.265 C 
ATOM      9  O   UNL A   1      46.630  25.688  24.585  1.00  0.00    -0.268 OA
ATOM     10  N   UNL A   1      45.175  24.812  26.082  1.00  0.00    -0.338 N 
ATOM     11  C   UNL A   1      46.068  23.787  26.593  1.00  0.00     0.120 C 
ATOM     12  C   UNL A   1      43.749  24.574  26.235  1.00  0.00     0.120 C 
ATOM     13  C   UNL A   1      45.776  22.426  25.998  1.00  0.00     0.035 C 
ATOM     14  C   UNL A   1      43.336  23.249  25.611  1.00  0.00     0.035 C 
BRANCH   8  15
ATOM     15  C   UNL A   1      45.261  27.228  25.746  1.00  0.00     0.115 A 
ATOM     16  C   UNL A   1      45.020  29.367  26.884  1.00  0.00     0.159 A 
ATOM     17  N   UNL A   1      43.924  29.091  26.216  1.00  0.00    -0.237 NA
ATOM     18  S   UNL A   1      46.291  28.240  26.699  1.00  0.00    -0.105 S 
ATOM     19  C   UNL A   1      44.037  27.866  25.581  1.00  0.00     0.062 A 
ATOM     20  C   UNL A   1      42.810  27.398  24.887  1.00  0.00     0.068 C 
BRANCH  16  21
ATOM     21  C   UNL A   1      45.097  30.523  27.731  1.00  0.00     0.162 A 
ATOM     22  C   UNL A   1      43.437  33.477  28.904  1.00  0.00     0.087 C 
ATOM     23  C   UNL A   1      44.437  32.417  28.668  1.00  0.00     0.101 A 
ATOM     24  C   UNL A   1      45.712  32.187  29.131  1.00  0.00     0.046 A 
ATOM     25  O   UNL A   1      44.067  31.430  27.812  1.00  0.00    -0.459 OA
ATOM     26  C   UNL A   1      46.128  30.963  28.546  1.00  0.00     0.054 A 
ENDBRANCH  16  21
ENDBRANCH   8  15
ENDBRANCH   4   7
ENDBRANCH   2   3
ENDBRANCH   1   2
BRANCH   1  27
ATOM     27  C   UNL A   1      40.367  21.541  26.765  1.00  0.00     0.118 C 
BRANCH  27  28
ATOM     28  N   UNL A   1      39.267  22.010  25.932  1.00  0.00    -0.352 N 
ATOM     29  C   UNL A   1      38.600  23.208  25.952  1.00  0.00     0.251 C 
ATOM     30  H   UNL A   1      38.957  21.370  25.252  1.00  0.00     0.163 HD
ATOM     31  O   UNL A   1      37.556  23.328  25.314  1.00  0.00    -0.269 OA
BRANCH  29  32
ATOM     32  C   UNL A   1      39.124  24.338  26.746  1.00  0.00     0.039 A 
ATOM     33  C   UNL A   1      39.960  25.270  26.130  1.00  0.00     0.014 A 
ATOM     34  C   UNL A   1      38.800  24.475  28.099  1.00  0.00     0.014 A 
ATOM     35  C   UNL A   1      40.424  26.368  26.857  1.00  0.00     0.010 A 
ATOM     36  C   UNL A   1      39.172  25.623  28.789  1.00  0.00     0.010 A 
ATOM     37  C   UNL A   1      40.004  26.572  28.183  1.00  0.00    -0.014 A 
BRANCH  37  38
ATOM     38  C   UNL A   1      40.443  27.764  28.953  1.00  0.00     0.031 A 
ATOM     39  C   UNL A   1      41.803  27.790  29.600  1.00  0.00     0.074 A 
ATOM     40  C   UNL A   1      39.599  28.804  29.105  1.00  0.00     0.049 A 
ATOM     41  N   UNL A   1      42.356  28.736  30.317  1.00  0.00    -0.248 NA
ATOM     42  C   UNL A   1      42.642  26.589  29.449  1.00  0.00     0.031 C 
ATOM     43  C   UNL A   1      38.236  28.876  28.571  1.00  0.00     0.029 A 
ATOM     44  N   UNL A   1      39.766  30.005  29.747  1.00  0.00    -0.354 N 
ATOM     45  C   UNL A   1      43.594  28.239  30.709  1.00  0.00     0.074 A 
ATOM     46  C   UNL A   1      43.686  26.887  30.208  1.00  0.00     0.031 C 
ATOM     47  C   UNL A   1      37.708  30.074  28.871  1.00  0.00     0.029 A 
ATOM     48  C   UNL A   1      38.675  30.837  29.653  1.00  0.00     0.049 A 
ATOM     49  H   UNL A   1      40.588  30.248  30.231  1.00  0.00     0.167 HD
ATOM     50  C   UNL A   1      44.578  28.861  31.401  1.00  0.00     0.031 A 
ATOM     51  C   UNL A   1      38.475  32.077  30.139  1.00  0.00     0.031 A 
ATOM     52  C   UNL A   1      44.486  30.211  31.889  1.00  0.00     0.049 A 
ATOM     53  C   UNL A   1      39.583  32.746  30.906  1.00  0.00     0.074 A 
ATOM     54  C   UNL A   1      45.447  30.953  32.554  1.00  0.00     0.029 A 
ATOM     55  N   UNL A   1      43.367  31.021  31.768  1.00  0.00    -0.354 N 
ATOM     56  N   UNL A   1      40.774  32.286  31.205  1.00  0.00    -0.248 NA
ATOM     57  C   UNL A   1      39.324  34.110  31.387  1.00  0.00     0.031 C 
ATOM     58  C   UNL A   1      44.889  32.191  32.886  1.00  0.00     0.029 A 
ATOM     59  C   UNL A   1      43.605  32.247  32.366  1.00  0.00     0.049 A 
ATOM     60  H   UNL A   1      42.528  30.764  31.322  1.00  0.00     0.167 HD
ATOM     61  C   UNL A   1      41.419  33.317  31.881  1.00  0.00     0.074 A 
ATOM     62  C   UNL A   1      40.491  34.428  31.928  1.00  0.00     0.031 C 
ATOM     63  C   UNL A   1      42.668  33.343  32.410  1.00  0.00     0.031 A 
BRANCH  50  64
ATOM     64  C   UNL A   1      45.841  28.081  31.672  1.00  0.00    -0.014 A 
ATOM     65  C   UNL A   1      47.001  28.281  30.901  1.00  0.00     0.010 A 
ATOM     66  C   UNL A   1      45.880  27.162  32.736  1.00  0.00     0.010 A 
ATOM     67  C   UNL A   1      48.161  27.547  31.162  1.00  0.00     0.020 A 
ATOM     68  C   UNL A   1      47.049  26.449  33.022  1.00  0.00     0.020 A 
ATOM     69  C   UNL A   1      48.177  26.635  32.220  1.00  0.00     0.054 A 
BRANCH  69  70
ATOM     70  S   UNL A   1      49.706  25.717  32.552  1.00  0.00     0.124 S 
ATOM     71  O   UNL A   1      49.813  24.872  31.366  1.00  0.00    -0.237 OA
ATOM     72  O   UNL A   1      50.701  26.781  32.657  1.00  0.00    -0.237 OA
ATOM     73  O   UNL A   1      49.423  25.007  33.797  1.00  0.00    -0.744 OA
ENDBRANCH  69  70
ENDBRANCH  50  64
BRANCH  51  74
ATOM     74  C   UNL A   1      37.182  32.775  29.891  1.00  0.00    -0.014 A 
ATOM     75  C   UNL A   1      36.196  32.832  30.893  1.00  0.00     0.010 A 
ATOM     76  C   UNL A   1      36.934  33.396  28.654  1.00  0.00     0.010 A 
ATOM     77  C   UNL A   1      34.977  33.474  30.652  1.00  0.00     0.020 A 
ATOM     78  C   UNL A   1      35.730  34.067  28.420  1.00  0.00     0.020 A 
ATOM     79  C   UNL A   1      34.753  34.089  29.417  1.00  0.00     0.054 A 
BRANCH  79  80
ATOM     80  S   UNL A   1      33.181  34.952  29.143  1.00  0.00     0.124 S 
ATOM     81  O   UNL A   1      33.630  36.256  28.665  1.00  0.00    -0.237 OA
ATOM     82  O   UNL A   1      32.526  34.105  28.148  1.00  0.00    -0.237 OA
ATOM     83  O   UNL A   1      32.554  34.951  30.462  1.00  0.00    -0.744 OA
ENDBRANCH  79  80
ENDBRANCH  51  74
BRANCH  63  84
ATOM     84  C   UNL A   1      43.119  34.629  33.052  1.00  0.00    -0.014 A 
ATOM     85  C   UNL A   1      42.960  34.859  34.430  1.00  0.00     0.010 A 
ATOM     86  C   UNL A   1      43.743  35.612  32.262  1.00  0.00     0.010 A 
ATOM     87  C   UNL A   1      43.370  36.068  34.996  1.00  0.00     0.020 A 
ATOM     88  C   UNL A   1      44.187  36.808  32.830  1.00  0.00     0.020 A 
ATOM     89  C   UNL A   1      43.979  37.037  34.191  1.00  0.00     0.054 A 
BRANCH  89  90
ATOM     90  S   UNL A   1      44.521  38.591  34.953  1.00  0.00     0.124 S 
ATOM     91  O   UNL A   1      43.783  39.583  34.175  1.00  0.00    -0.237 OA
ATOM     92  O   UNL A   1      44.091  38.433  36.341  1.00  0.00    -0.237 OA
ATOM     93  O   UNL A   1      45.968  38.591  34.751  1.00  0.00    -0.744 OA
ENDBRANCH  89  90
ENDBRANCH  63  84
ENDBRANCH  37  38
ENDBRANCH  29  32
ENDBRANCH  27  28
ENDBRANCH   1  27
TORSDOF 15
ENDMDL
MODEL 2
REMARK VINA RESULT:     -10.3      5.098      8.814
REMARK SMILES Cc1ccc(-c2nc(C)c(C(=O)N3CCC(C(=O)NCCCNC(=O)c4ccc(-c5c6nc(c(-c7ccc(S(=O)(=O)[O-])cc7)c7ccc([nH]7)c(-c7ccc(S(=O)(=O)[O-])cc7)c7nc(c(-c8ccc(S(=O)(=O)[O-])cc8)c8ccc5[nH]8)C=C7)C=C6)cc4)CC3)s2)o1
REMARK SMILES IDX 21 1 20 2 19 3 17 4 18 5 16 7 11 8 12 9 13 10 14 11 87 12
REMARK SMILES IDX 15 13 86 14 10 15 6 16 7 17 88 18 8 19 9 20 5 21 1 22 2 23
REMARK SMILES IDX 3 24 89 25 4 26 22 27 23 28 24 29 25 31 26 32 27 33 85 34
REMARK SMILES IDX 28 35 84 36 29 37 30 38 31 39 78 40 32 41 83 42 77 43 79 44
REMARK SMILES IDX 33 45 82 46 76 47 75 48 34 50 64 51 45 52 63 53 46 54 49 55
REMARK SMILES IDX 62 56 80 57 47 58 48 59 61 61 81 62 50 63 35 64 36 65 44 66
REMARK SMILES IDX 37 67 43 68 38 69 39 70 40 71 41 72 42 73 65 74 66 75 74 76
REMARK SMILES IDX 67 77 73 78 68 79 69 80 70 81 71 82 72 83 51 84 52 85 60 86
REMARK SMILES IDX 53 87 59 88 54 89 55 90 56 91 57 92 58 93
REMARK H PARENT 19 6 23 30 79 49 49 60
REMARK Flexibility Score: inf
ROOT
ATOM      1  C   UNL A   1      38.340  19.627  25.163  1.00  0.00     0.042 C 
ENDROOT
BRANCH   1   2
ATOM      2  C   UNL A   1      37.301  20.683  24.824  1.00  0.00     0.117 C 
BRANCH   2   3
ATOM      3  N   UNL A   1      36.440  20.997  25.956  1.00  0.00    -0.356 N 
ATOM      4  C   UNL A   1      35.399  21.866  26.067  1.00  0.00     0.223 C 
ATOM      5  O   UNL A   1      34.824  21.953  27.155  1.00  0.00    -0.275 OA
ATOM      6  H   UNL A   1      36.646  20.496  26.778  1.00  0.00     0.163 HD
BRANCH   4   7
ATOM      7  C   UNL A   1      34.937  22.697  24.883  1.00  0.00     0.082 C 
ATOM      8  C   UNL A   1      31.457  24.504  23.667  1.00  0.00     0.265 C 
ATOM      9  O   UNL A   1      30.616  23.657  23.971  1.00  0.00    -0.268 OA
ATOM     10  N   UNL A   1      32.802  24.143  23.635  1.00  0.00    -0.338 N 
ATOM     11  C   UNL A   1      33.168  22.855  23.072  1.00  0.00     0.120 C 
ATOM     12  C   UNL A   1      33.871  24.921  24.239  1.00  0.00     0.120 C 
ATOM     13  C   UNL A   1      33.854  21.963  24.084  1.00  0.00     0.035 C 
ATOM     14  C   UNL A   1      34.592  24.131  25.322  1.00  0.00     0.035 C 
BRANCH   8  15
ATOM     15  C   UNL A   1      31.104  25.843  23.211  1.00  0.00     0.115 A 
ATOM     16  C   UNL A   1      29.933  27.958  22.920  1.00  0.00     0.159 A 
ATOM     17  N   UNL A   1      30.704  27.728  21.882  1.00  0.00    -0.237 NA
ATOM     18  S   UNL A   1      30.034  26.803  24.175  1.00  0.00    -0.105 S 
ATOM     19  C   UNL A   1      31.360  26.518  22.022  1.00  0.00     0.062 A 
ATOM     20  C   UNL A   1      32.174  26.100  20.852  1.00  0.00     0.068 C 
BRANCH  16  21
ATOM     21  C   UNL A   1      29.050  29.090  22.947  1.00  0.00     0.162 A 
ATOM     22  C   UNL A   1      28.786  32.664  23.046  1.00  0.00     0.087 C 
ATOM     23  C   UNL A   1      28.466  31.224  23.028  1.00  0.00     0.101 A 
ATOM     24  C   UNL A   1      27.293  30.505  23.047  1.00  0.00     0.046 A 
ATOM     25  O   UNL A   1      29.528  30.379  22.986  1.00  0.00    -0.459 OA
ATOM     26  C   UNL A   1      27.666  29.138  22.976  1.00  0.00     0.054 A 
ENDBRANCH  16  21
ENDBRANCH   8  15
ENDBRANCH   4   7
ENDBRANCH   2   3
ENDBRANCH   1   2
BRANCH   1  27
ATOM     27  C   UNL A   1      39.529  20.173  25.936  1.00  0.00     0.118 C 
BRANCH  27  28
ATOM     28  N   UNL A   1      40.570  19.173  26.132  1.00  0.00    -0.352 N 
ATOM     29  C   UNL A   1      41.922  19.333  26.295  1.00  0.00     0.251 C 
ATOM     30  H   UNL A   1      40.255  18.241  26.151  1.00  0.00     0.163 HD
ATOM     31  O   UNL A   1      42.660  18.352  26.227  1.00  0.00    -0.269 OA
BRANCH  29  32
ATOM     32  C   UNL A   1      42.487  20.677  26.535  1.00  0.00     0.039 A 
ATOM     33  C   UNL A   1      42.949  21.423  25.449  1.00  0.00     0.014 A 
ATOM     34  C   UNL A   1      42.572  21.199  27.829  1.00  0.00     0.014 A 
ATOM     35  C   UNL A   1      43.441  22.712  25.658  1.00  0.00     0.010 A 
ATOM     36  C   UNL A   1      42.959  22.520  28.021  1.00  0.00     0.010 A 
ATOM     37  C   UNL A   1      43.418  23.285  26.941  1.00  0.00    -0.014 A 
BRANCH  37  38
ATOM     38  C   UNL A   1      43.886  24.675  27.171  1.00  0.00     0.031 A 
ATOM     39  C   UNL A   1      45.335  25.032  26.966  1.00  0.00     0.074 A 
ATOM     40  C   UNL A   1      43.013  25.607  27.606  1.00  0.00     0.049 A 
ATOM     41  N   UNL A   1      45.930  26.186  27.125  1.00  0.00    -0.248 NA
ATOM     42  C   UNL A   1      46.242  23.945  26.557  1.00  0.00     0.031 C 
ATOM     43  C   UNL A   1      41.595  25.373  27.892  1.00  0.00     0.029 A 
ATOM     44  N   UNL A   1      43.189  26.940  27.876  1.00  0.00    -0.354 N 
ATOM     45  C   UNL A   1      47.274  25.961  26.849  1.00  0.00     0.074 A 
ATOM     46  C   UNL A   1      47.420  24.550  26.577  1.00  0.00     0.031 C 
ATOM     47  C   UNL A   1      41.023  26.531  28.256  1.00  0.00     0.029 A 
ATOM     48  C   UNL A   1      42.037  27.580  28.271  1.00  0.00     0.049 A 
ATOM     49  H   UNL A   1      44.058  27.396  27.797  1.00  0.00     0.167 HD
ATOM     50  C   UNL A   1      48.292  26.853  26.800  1.00  0.00     0.031 A 
ATOM     51  C   UNL A   1      41.820  28.866  28.605  1.00  0.00     0.031 A 
ATOM     52  C   UNL A   1      48.140  28.260  27.062  1.00  0.00     0.049 A 
ATOM     53  C   UNL A   1      42.967  29.838  28.544  1.00  0.00     0.074 A 
ATOM     54  C   UNL A   1      49.095  29.258  26.985  1.00  0.00     0.029 A 
ATOM     55  N   UNL A   1      46.956  28.868  27.452  1.00  0.00    -0.354 N 
ATOM     56  N   UNL A   1      44.217  29.619  28.211  1.00  0.00    -0.248 NA
ATOM     57  C   UNL A   1      42.670  31.235  28.888  1.00  0.00     0.031 C 
ATOM     58  C   UNL A   1      48.504  30.460  27.387  1.00  0.00     0.029 A 
ATOM     59  C   UNL A   1      47.163  30.224  27.644  1.00  0.00     0.049 A 
ATOM     60  H   UNL A   1      46.096  28.406  27.574  1.00  0.00     0.167 HD
ATOM     61  C   UNL A   1      44.848  30.858  28.274  1.00  0.00     0.074 A 
ATOM     62  C   UNL A   1      43.836  31.821  28.658  1.00  0.00     0.031 C 
ATOM     63  C   UNL A   1      46.145  31.170  28.032  1.00  0.00     0.031 A 
BRANCH  50  64
ATOM     64  C   UNL A   1      49.663  26.329  26.451  1.00  0.00    -0.014 A 
ATOM     65  C   UNL A   1      50.155  26.395  25.135  1.00  0.00     0.010 A 
ATOM     66  C   UNL A   1      50.486  25.799  27.461  1.00  0.00     0.010 A 
ATOM     67  C   UNL A   1      51.426  25.901  24.827  1.00  0.00     0.020 A 
ATOM     68  C   UNL A   1      51.771  25.332  27.163  1.00  0.00     0.020 A 
ATOM     69  C   UNL A   1      52.225  25.372  25.844  1.00  0.00     0.054 A 
BRANCH  69  70
ATOM     70  S   UNL A   1      53.880  24.764  25.419  1.00  0.00     0.124 S 
ATOM     71  O   UNL A   1      54.602  24.953  26.675  1.00  0.00    -0.237 OA
ATOM     72  O   UNL A   1      53.624  23.375  25.046  1.00  0.00    -0.237 OA
ATOM     73  O   UNL A   1      54.300  25.633  24.323  1.00  0.00    -0.744 OA
ENDBRANCH  69  70
ENDBRANCH  50  64
BRANCH  51  74
ATOM     74  C   UNL A   1      40.455  29.314  29.001  1.00  0.00    -0.014 A 
ATOM     75  C   UNL A   1      40.129  29.500  30.356  1.00  0.00     0.010 A 
ATOM     76  C   UNL A   1      39.476  29.564  28.023  1.00  0.00     0.010 A 
ATOM     77  C   UNL A   1      38.842  29.904  30.726  1.00  0.00     0.020 A 
ATOM     78  C   UNL A   1      38.199  30.000  28.386  1.00  0.00     0.020 A 
ATOM     79  C   UNL A   1      37.886  30.154  29.738  1.00  0.00     0.054 A 
BRANCH  79  80
ATOM     80  S   UNL A   1      36.236  30.719  30.239  1.00  0.00     0.124 S 
ATOM     81  O   UNL A   1      35.873  29.734  31.253  1.00  0.00    -0.237 OA
ATOM     82  O   UNL A   1      36.502  32.068  30.733  1.00  0.00    -0.237 OA
ATOM     83  O   UNL A   1      35.462  30.657  29.002  1.00  0.00    -0.744 OA
ENDBRANCH  79  80
ENDBRANCH  51  74
BRANCH  63  84
ATOM     84  C   UNL A   1      46.537  32.621  28.136  1.00  0.00    -0.014 A 
ATOM     85  C   UNL A   1      46.448  33.488  27.033  1.00  0.00     0.010 A 
ATOM     86  C   UNL A   1      46.972  33.131  29.374  1.00  0.00     0.010 A 
ATOM     87  C   UNL A   1      46.835  34.825  27.152  1.00  0.00     0.020 A 
ATOM     88  C   UNL A   1      47.326  34.476  29.507  1.00  0.00     0.020 A 
ATOM     89  C   UNL A   1      47.274  35.309  28.388  1.00  0.00     0.054 A 
BRANCH  89  90
ATOM     90  S   UNL A   1      47.753  37.054  28.523  1.00  0.00     0.124 S 
ATOM     91  O   UNL A   1      46.785  37.702  27.643  1.00  0.00    -0.237 OA
ATOM     92  O   UNL A   1      47.585  37.322  29.950  1.00  0.00    -0.237 OA
ATOM     93  O   UNL A   1      49.136  37.072  28.051  1.00  0.00    -0.744 OA
ENDBRANCH  89  90
ENDBRANCH  63  84
ENDBRANCH  37  38
ENDBRANCH  29  32
ENDBRANCH  27  28
ENDBRANCH   1  27
TORSDOF 15
ENDMDL
MODEL 3
REMARK VINA RESULT:     -10.2      5.014      8.037
REMARK SMILES Cc1ccc(-c2nc(C)c(C(=O)N3CCC(C(=O)NCCCNC(=O)c4ccc(-c5c6nc(c(-c7ccc(S(=O)(=O)[O-])cc7)c7ccc([nH]7)c(-c7ccc(S(=O)(=O)[O-])cc7)c7nc(c(-c8ccc(S(=O)(=O)[O-])cc8)c8ccc5[nH]8)C=C7)C=C6)cc4)CC3)s2)o1
REMARK SMILES IDX 21 1 20 2 19 3 17 4 18 5 16 7 11 8 12 9 13 10 14 11 87 12
REMARK SMILES IDX 15 13 86 14 10 15 6 16 7 17 88 18 8 19 9 20 5 21 1 22 2 23
REMARK SMILES IDX 3 24 89 25 4 26 22 27 23 28 24 29 25 31 26 32 27 33 85 34
REMARK SMILES IDX 28 35 84 36 29 37 30 38 31 39 78 40 32 41 83 42 77 43 79 44
REMARK SMILES IDX 33 45 82 46 76 47 75 48 34 50 64 51 45 52 63 53 46 54 49 55
REMARK SMILES IDX 62 56 80 57 47 58 48 59 61 61 81 62 50 63 35 64 36 65 44 66
REMARK SMILES IDX 37 67 43 68 38 69 39 70 40 71 41 72 42 73 65 74 66 75 74 76
REMARK SMILES IDX 67 77 73 78 68 79 69 80 70 81 71 82 72 83 51 84 52 85 60 86
REMARK SMILES IDX 53 87 59 88 54 89 55 90 56 91 57 92 58 93
REMARK H PARENT 19 6 23 30 79 49 49 60
REMARK Flexibility Score: inf
ROOT
ATOM      1  C   UNL A   1      38.989  22.618  26.433  1.00  0.00     0.042 C 
ENDROOT
BRANCH   1   2
ATOM      2  C   UNL A   1      37.904  22.209  25.451  1.00  0.00     0.117 C 
BRANCH   2   3
ATOM      3  N   UNL A   1      36.752  21.613  26.114  1.00  0.00    -0.356 N 
ATOM      4  C   UNL A   1      35.422  21.717  25.849  1.00  0.00     0.223 C 
ATOM      5  O   UNL A   1      34.632  21.106  26.574  1.00  0.00    -0.275 OA
ATOM      6  H   UNL A   1      36.974  21.039  26.883  1.00  0.00     0.163 HD
BRANCH   4   7
ATOM      7  C   UNL A   1      34.913  22.543  24.682  1.00  0.00     0.082 C 
ATOM      8  C   UNL A   1      31.432  24.468  23.665  1.00  0.00     0.265 C 
ATOM      9  O   UNL A   1      30.581  23.662  24.044  1.00  0.00    -0.268 OA
ATOM     10  N   UNL A   1      32.756  24.051  23.550  1.00  0.00    -0.338 N 
ATOM     11  C   UNL A   1      33.031  22.739  22.991  1.00  0.00     0.120 C 
ATOM     12  C   UNL A   1      33.894  24.797  24.063  1.00  0.00     0.120 C 
ATOM     13  C   UNL A   1      33.749  21.839  23.974  1.00  0.00     0.035 C 
ATOM     14  C   UNL A   1      34.655  23.998  25.112  1.00  0.00     0.035 C 
BRANCH   8  15
ATOM     15  C   UNL A   1      31.101  25.812  23.205  1.00  0.00     0.115 A 
ATOM     16  C   UNL A   1      29.959  27.939  22.895  1.00  0.00     0.159 A 
ATOM     17  N   UNL A   1      30.747  27.703  21.872  1.00  0.00    -0.237 NA
ATOM     18  S   UNL A   1      30.024  26.781  24.150  1.00  0.00    -0.105 S 
ATOM     19  C   UNL A   1      31.387  26.485  22.022  1.00  0.00     0.062 A 
ATOM     20  C   UNL A   1      32.219  26.060  20.867  1.00  0.00     0.068 C 
BRANCH  16  21
ATOM     21  C   UNL A   1      29.088  29.080  22.909  1.00  0.00     0.162 A 
ATOM     22  C   UNL A   1      28.860  32.658  22.894  1.00  0.00     0.087 C 
ATOM     23  C   UNL A   1      28.526  31.221  22.933  1.00  0.00     0.101 A 
ATOM     24  C   UNL A   1      27.347  30.516  23.008  1.00  0.00     0.046 A 
ATOM     25  O   UNL A   1      29.579  30.365  22.891  1.00  0.00    -0.459 OA
ATOM     26  C   UNL A   1      27.705  29.144  22.973  1.00  0.00     0.054 A 
ENDBRANCH  16  21
ENDBRANCH   8  15
ENDBRANCH   4   7
ENDBRANCH   2   3
ENDBRANCH   1   2
BRANCH   1  27
ATOM     27  C   UNL A   1      39.202  24.120  26.511  1.00  0.00     0.118 C 
BRANCH  27  28
ATOM     28  N   UNL A   1      40.411  24.546  25.820  1.00  0.00    -0.352 N 
ATOM     29  C   UNL A   1      41.148  25.694  25.966  1.00  0.00     0.251 C 
ATOM     30  H   UNL A   1      40.751  23.914  25.146  1.00  0.00     0.163 HD
ATOM     31  O   UNL A   1      42.011  25.967  25.135  1.00  0.00    -0.269 OA
BRANCH  29  32
ATOM     32  C   UNL A   1      40.894  26.600  27.104  1.00  0.00     0.039 A 
ATOM     33  C   UNL A   1      40.070  26.168  28.145  1.00  0.00     0.014 A 
ATOM     34  C   UNL A   1      41.458  27.878  27.144  1.00  0.00     0.014 A 
ATOM     35  C   UNL A   1      39.861  26.997  29.249  1.00  0.00     0.010 A 
ATOM     36  C   UNL A   1      41.338  28.656  28.289  1.00  0.00     0.010 A 
ATOM     37  C   UNL A   1      40.521  28.234  29.346  1.00  0.00    -0.014 A 
BRANCH  37  38
ATOM     38  C   UNL A   1      40.354  29.103  30.538  1.00  0.00     0.031 A 
ATOM     39  C   UNL A   1      41.216  28.895  31.755  1.00  0.00     0.074 A 
ATOM     40  C   UNL A   1      39.395  30.051  30.540  1.00  0.00     0.049 A 
ATOM     41  N   UNL A   1      41.210  29.547  32.890  1.00  0.00    -0.248 NA
ATOM     42  C   UNL A   1      42.195  27.795  31.705  1.00  0.00     0.031 C 
ATOM     43  C   UNL A   1      38.461  30.315  29.443  1.00  0.00     0.029 A 
ATOM     44  N   UNL A   1      39.052  30.975  31.495  1.00  0.00    -0.354 N 
ATOM     45  C   UNL A   1      42.168  28.929  33.687  1.00  0.00     0.074 A 
ATOM     46  C   UNL A   1      42.690  27.812  32.933  1.00  0.00     0.031 C 
ATOM     47  C   UNL A   1      37.681  31.358  29.769  1.00  0.00     0.029 A 
ATOM     48  C   UNL A   1      38.029  31.810  31.112  1.00  0.00     0.049 A 
ATOM     49  H   UNL A   1      39.495  31.033  32.372  1.00  0.00     0.167 HD
ATOM     50  C   UNL A   1      42.595  29.275  34.925  1.00  0.00     0.031 A 
ATOM     51  C   UNL A   1      37.437  32.828  31.767  1.00  0.00     0.031 A 
ATOM     52  C   UNL A   1      42.079  30.395  35.668  1.00  0.00     0.049 A 
ATOM     53  C   UNL A   1      37.928  33.192  33.141  1.00  0.00     0.074 A 
ATOM     54  C   UNL A   1      42.481  30.864  36.906  1.00  0.00     0.029 A 
ATOM     55  N   UNL A   1      41.048  31.219  35.242  1.00  0.00    -0.354 N 
ATOM     56  N   UNL A   1      38.885  32.640  33.850  1.00  0.00    -0.248 NA
ATOM     57  C   UNL A   1      37.270  34.329  33.798  1.00  0.00     0.031 C 
ATOM     58  C   UNL A   1      41.653  31.936  37.256  1.00  0.00     0.029 A 
ATOM     59  C   UNL A   1      40.784  32.179  36.204  1.00  0.00     0.049 A 
ATOM     60  H   UNL A   1      40.574  31.134  34.384  1.00  0.00     0.167 HD
ATOM     61  C   UNL A   1      38.965  33.384  35.022  1.00  0.00     0.074 A 
ATOM     62  C   UNL A   1      37.972  34.435  34.917  1.00  0.00     0.031 C 
ATOM     63  C   UNL A   1      39.788  33.216  36.087  1.00  0.00     0.031 A 
BRANCH  50  64
ATOM     64  C   UNL A   1      43.675  28.429  35.553  1.00  0.00    -0.014 A 
ATOM     65  C   UNL A   1      45.037  28.704  35.333  1.00  0.00     0.010 A 
ATOM     66  C   UNL A   1      43.323  27.368  36.406  1.00  0.00     0.010 A 
ATOM     67  C   UNL A   1      46.025  27.908  35.919  1.00  0.00     0.020 A 
ATOM     68  C   UNL A   1      44.308  26.588  37.020  1.00  0.00     0.020 A 
ATOM     69  C   UNL A   1      45.654  26.854  36.758  1.00  0.00     0.054 A 
BRANCH  69  70
ATOM     70  S   UNL A   1      46.958  25.855  37.526  1.00  0.00     0.124 S 
ATOM     71  O   UNL A   1      46.603  25.932  38.941  1.00  0.00    -0.237 OA
ATOM     72  O   UNL A   1      46.769  24.549  36.902  1.00  0.00    -0.237 OA
ATOM     73  O   UNL A   1      48.191  26.548  37.156  1.00  0.00    -0.744 OA
ENDBRANCH  69  70
ENDBRANCH  50  64
BRANCH  51  74
ATOM     74  C   UNL A   1      36.333  33.589  31.119  1.00  0.00    -0.014 A 
ATOM     75  C   UNL A   1      35.152  33.878  31.826  1.00  0.00     0.010 A 
ATOM     76  C   UNL A   1      36.461  34.038  29.792  1.00  0.00     0.010 A 
ATOM     77  C   UNL A   1      34.110  34.578  31.210  1.00  0.00     0.020 A 
ATOM     78  C   UNL A   1      35.435  34.767  29.183  1.00  0.00     0.020 A 
ATOM     79  C   UNL A   1      34.260  35.021  29.892  1.00  0.00     0.054 A 
BRANCH  79  80
ATOM     80  S   UNL A   1      32.913  35.965  29.128  1.00  0.00     0.124 S 
ATOM     81  O   UNL A   1      32.257  34.951  28.309  1.00  0.00    -0.237 OA
ATOM     82  O   UNL A   1      32.155  36.428  30.289  1.00  0.00    -0.237 OA
ATOM     83  O   UNL A   1      33.607  37.016  28.388  1.00  0.00    -0.744 OA
ENDBRANCH  79  80
ENDBRANCH  51  74
BRANCH  63  84
ATOM     84  C   UNL A   1      39.678  34.215  37.209  1.00  0.00    -0.014 A 
ATOM     85  C   UNL A   1      38.973  33.922  38.390  1.00  0.00     0.010 A 
ATOM     86  C   UNL A   1      40.321  35.462  37.088  1.00  0.00     0.010 A 
ATOM     87  C   UNL A   1      38.872  34.874  39.407  1.00  0.00     0.020 A 
ATOM     88  C   UNL A   1      40.252  36.403  38.117  1.00  0.00     0.020 A 
ATOM     89  C   UNL A   1      39.509  36.110  39.262  1.00  0.00     0.054 A 
BRANCH  89  90
ATOM     90  S   UNL A   1      39.379  37.323  40.604  1.00  0.00     0.124 S 
ATOM     91  O   UNL A   1      38.867  36.507  41.702  1.00  0.00    -0.237 OA
ATOM     92  O   UNL A   1      40.758  37.785  40.753  1.00  0.00    -0.237 OA
ATOM     93  O   UNL A   1      38.448  38.321  40.082  1.00  0.00    -0.744 OA
ENDBRANCH  89  90
ENDBRANCH  63  84
ENDBRANCH  37  38
ENDBRANCH  29  32
ENDBRANCH  27  28
ENDBRANCH   1  27
TORSDOF 15
ENDMDL
