MODEL 1
REMARK VINA RESULT:     -10.4      0.000      0.000
REMARK SMILES Cc1cc(F)c(C(=O)NCCCNC(=O)c2ccc(-c3c4nc(c(-c5ccc(S(=O)(=O)[O-])cc5)c5ccc([nH]5)c(-c5ccc(S(=O)(=O)[O-])cc5)c5nc(c(-c6ccc(S(=O)(=O)[O-])cc6)c6ccc3[nH]6)C=C5)C=C4)cc2)cc1F
REMARK SMILES IDX 13 1 14 2 15 3 12 5 11 6 10 7 9 8 7 9 8 10 6 12 1 13 2 14
REMARK SMILES IDX 3 15 77 16 4 17 76 18 78 19 5 20 16 21 17 22 75 23 18 24
REMARK SMILES IDX 74 25 19 26 20 27 21 28 68 29 22 30 73 31 67 32 69 33 23 34
REMARK SMILES IDX 72 35 66 36 65 37 24 39 54 40 35 41 53 42 36 43 39 44 52 45
REMARK SMILES IDX 70 46 37 47 38 48 51 50 71 51 40 52 25 53 26 54 34 55 27 56
REMARK SMILES IDX 33 57 28 58 29 59 30 60 31 61 32 62 55 63 56 64 64 65 57 66
REMARK SMILES IDX 63 67 58 68 59 69 60 70 61 71 62 72 41 73 42 74 50 75 43 76
REMARK SMILES IDX 49 77 44 78 45 79 46 80 47 81 48 82
REMARK H PARENT 13 4 9 11 69 38 39 49
REMARK Flexibility Score: inf
ROOT
ATOM      1  N   UNL A   1      39.815  21.507  26.570  1.00  0.00    -0.352 N 
ATOM      2  C   UNL A   1      39.097  22.613  26.167  1.00  0.00     0.251 C 
ATOM      3  O   UNL A   1      38.212  22.471  25.329  1.00  0.00    -0.269 OA
ATOM      4  H   UNL A   1      39.624  20.694  26.049  1.00  0.00     0.163 HD
ENDROOT
BRANCH   1   5
ATOM      5  C   UNL A   1      40.803  21.318  27.626  1.00  0.00     0.118 C 
BRANCH   5   6
ATOM      6  C   UNL A   1      42.160  20.848  27.118  1.00  0.00     0.042 C 
BRANCH   6   7
ATOM      7  C   UNL A   1      43.092  21.962  26.656  1.00  0.00     0.118 C 
BRANCH   7   8
ATOM      8  N   UNL A   1      43.465  21.865  25.250  1.00  0.00    -0.352 N 
ATOM      9  C   UNL A   1      44.047  22.747  24.372  1.00  0.00     0.254 C 
ATOM     10  O   UNL A   1      44.241  22.366  23.218  1.00  0.00    -0.269 OA
ATOM     11  H   UNL A   1      43.256  20.992  24.847  1.00  0.00     0.163 HD
BRANCH   9  12
ATOM     12  C   UNL A   1      44.455  24.112  24.766  1.00  0.00     0.078 A 
ATOM     13  C   UNL A   1      45.779  28.087  25.800  1.00  0.00     0.047 C 
ATOM     14  C   UNL A   1      45.330  26.689  25.503  1.00  0.00    -0.012 A 
ATOM     15  C   UNL A   1      46.249  25.645  25.367  1.00  0.00     0.046 A 
ATOM     16  C   UNL A   1      43.975  26.413  25.308  1.00  0.00     0.127 A 
ATOM     17  C   UNL A   1      45.811  24.371  25.000  1.00  0.00     0.136 A 
ATOM     18  C   UNL A   1      43.530  25.134  24.981  1.00  0.00     0.056 A 
ATOM     19  F   UNL A   1      43.070  27.393  25.436  1.00  0.00    -0.207 F 
ATOM     20  F   UNL A   1      46.738  23.410  24.862  1.00  0.00    -0.206 F 
ENDBRANCH   9  12
ENDBRANCH   7   8
ENDBRANCH   6   7
ENDBRANCH   5   6
ENDBRANCH   1   5
BRANCH   2  21
ATOM     21  C   UNL A   1      39.340  23.950  26.758  1.00  0.00     0.039 A 
ATOM     22  C   UNL A   1      39.998  24.951  26.051  1.00  0.00     0.014 A 
ATOM     23  C   UNL A   1      38.879  24.217  28.053  1.00  0.00     0.014 A 
ATOM     24  C   UNL A   1      40.395  26.116  26.702  1.00  0.00     0.010 A 
ATOM     25  C   UNL A   1      39.175  25.439  28.669  1.00  0.00     0.010 A 
ATOM     26  C   UNL A   1      39.995  26.375  28.023  1.00  0.00    -0.014 A 
BRANCH  26  27
ATOM     27  C   UNL A   1      40.458  27.621  28.695  1.00  0.00     0.031 A 
ATOM     28  C   UNL A   1      41.913  27.818  29.037  1.00  0.00     0.074 A 
ATOM     29  C   UNL A   1      39.581  28.622  28.913  1.00  0.00     0.049 A 
ATOM     30  N   UNL A   1      42.498  28.862  29.566  1.00  0.00    -0.248 NA
ATOM     31  C   UNL A   1      42.831  26.704  28.750  1.00  0.00     0.031 C 
ATOM     32  C   UNL A   1      38.152  28.566  28.597  1.00  0.00     0.029 A 
ATOM     33  N   UNL A   1      39.765  29.893  29.396  1.00  0.00    -0.354 N 
ATOM     34  C   UNL A   1      43.843  28.531  29.681  1.00  0.00     0.074 A 
ATOM     35  C   UNL A   1      43.983  27.172  29.208  1.00  0.00     0.031 C 
ATOM     36  C   UNL A   1      37.611  29.774  28.806  1.00  0.00     0.029 A 
ATOM     37  C   UNL A   1      38.630  30.668  29.350  1.00  0.00     0.049 A 
ATOM     38  H   UNL A   1      40.628  30.219  29.743  1.00  0.00     0.167 HD
ATOM     39  C   UNL A   1      44.872  29.294  30.123  1.00  0.00     0.031 A 
ATOM     40  C   UNL A   1      38.417  31.952  29.702  1.00  0.00     0.031 A 
ATOM     41  C   UNL A   1      44.731  30.646  30.595  1.00  0.00     0.049 A 
ATOM     42  C   UNL A   1      39.556  32.761  30.247  1.00  0.00     0.074 A 
ATOM     43  C   UNL A   1      45.710  31.488  31.092  1.00  0.00     0.029 A 
ATOM     44  N   UNL A   1      43.541  31.359  30.621  1.00  0.00    -0.354 N 
ATOM     45  N   UNL A   1      40.812  32.412  30.388  1.00  0.00    -0.248 NA
ATOM     46  C   UNL A   1      39.254  34.129  30.689  1.00  0.00     0.031 C 
ATOM     47  C   UNL A   1      45.105  32.691  31.464  1.00  0.00     0.029 A 
ATOM     48  C   UNL A   1      43.760  32.624  31.141  1.00  0.00     0.049 A 
ATOM     49  H   UNL A   1      42.670  31.016  30.315  1.00  0.00     0.167 HD
ATOM     50  C   UNL A   1      41.452  33.514  30.941  1.00  0.00     0.074 A 
ATOM     51  C   UNL A   1      40.449  34.551  31.085  1.00  0.00     0.031 C 
ATOM     52  C   UNL A   1      42.752  33.645  31.300  1.00  0.00     0.031 A 
BRANCH  39  53
ATOM     53  C   UNL A   1      46.251  28.682  30.124  1.00  0.00    -0.014 A 
ATOM     54  C   UNL A   1      47.092  28.842  29.007  1.00  0.00     0.010 A 
ATOM     55  C   UNL A   1      46.691  27.892  31.202  1.00  0.00     0.010 A 
ATOM     56  C   UNL A   1      48.344  28.221  28.965  1.00  0.00     0.020 A 
ATOM     57  C   UNL A   1      47.953  27.293  31.175  1.00  0.00     0.020 A 
ATOM     58  C   UNL A   1      48.766  27.448  30.050  1.00  0.00     0.054 A 
BRANCH  58  59
ATOM     59  S   UNL A   1      50.407  26.675  29.998  1.00  0.00     0.124 S 
ATOM     60  O   UNL A   1      51.043  27.377  28.887  1.00  0.00    -0.237 OA
ATOM     61  O   UNL A   1      50.945  26.971  31.324  1.00  0.00    -0.237 OA
ATOM     62  O   UNL A   1      50.109  25.264  29.760  1.00  0.00    -0.744 OA
ENDBRANCH  58  59
ENDBRANCH  39  53
BRANCH  40  63
ATOM     63  C   UNL A   1      37.057  32.524  29.511  1.00  0.00    -0.014 A 
ATOM     64  C   UNL A   1      36.724  33.174  28.307  1.00  0.00     0.010 A 
ATOM     65  C   UNL A   1      36.148  32.563  30.583  1.00  0.00     0.010 A 
ATOM     66  C   UNL A   1      35.552  33.926  28.207  1.00  0.00     0.020 A 
ATOM     67  C   UNL A   1      34.959  33.290  30.476  1.00  0.00     0.020 A 
ATOM     68  C   UNL A   1      34.690  34.001  29.304  1.00  0.00     0.054 A 
BRANCH  68  69
ATOM     69  S   UNL A   1      33.236  35.082  29.196  1.00  0.00     0.124 S 
ATOM     70  O   UNL A   1      32.404  34.366  28.233  1.00  0.00    -0.237 OA
ATOM     71  O   UNL A   1      32.741  35.092  30.571  1.00  0.00    -0.237 OA
ATOM     72  O   UNL A   1      33.788  36.350  28.726  1.00  0.00    -0.744 OA
ENDBRANCH  68  69
ENDBRANCH  40  63
BRANCH  52  73
ATOM     73  C   UNL A   1      43.190  34.949  31.911  1.00  0.00    -0.014 A 
ATOM     74  C   UNL A   1      42.962  35.193  33.278  1.00  0.00     0.010 A 
ATOM     75  C   UNL A   1      43.699  35.983  31.105  1.00  0.00     0.010 A 
ATOM     76  C   UNL A   1      43.198  36.457  33.821  1.00  0.00     0.020 A 
ATOM     77  C   UNL A   1      43.960  37.243  31.651  1.00  0.00     0.020 A 
ATOM     78  C   UNL A   1      43.683  37.479  33.000  1.00  0.00     0.054 A 
BRANCH  78  79
ATOM     79  S   UNL A   1      43.941  39.127  33.712  1.00  0.00     0.124 S 
ATOM     80  O   UNL A   1      44.146  38.821  35.126  1.00  0.00    -0.237 OA
ATOM     81  O   UNL A   1      45.120  39.608  32.995  1.00  0.00    -0.237 OA
ATOM     82  O   UNL A   1      42.700  39.833  33.399  1.00  0.00    -0.744 OA
ENDBRANCH  78  79
ENDBRANCH  52  73
ENDBRANCH  26  27
ENDBRANCH   2  21
TORSDOF 13
ENDMDL
MODEL 2
REMARK VINA RESULT:     -10.3      3.246      5.286
REMARK SMILES Cc1cc(F)c(C(=O)NCCCNC(=O)c2ccc(-c3c4nc(c(-c5ccc(S(=O)(=O)[O-])cc5)c5ccc([nH]5)c(-c5ccc(S(=O)(=O)[O-])cc5)c5nc(c(-c6ccc(S(=O)(=O)[O-])cc6)c6ccc3[nH]6)C=C5)C=C4)cc2)cc1F
REMARK SMILES IDX 13 1 14 2 15 3 12 5 11 6 10 7 9 8 7 9 8 10 6 12 1 13 2 14
REMARK SMILES IDX 3 15 77 16 4 17 76 18 78 19 5 20 16 21 17 22 75 23 18 24
REMARK SMILES IDX 74 25 19 26 20 27 21 28 68 29 22 30 73 31 67 32 69 33 23 34
REMARK SMILES IDX 72 35 66 36 65 37 24 39 54 40 35 41 53 42 36 43 39 44 52 45
REMARK SMILES IDX 70 46 37 47 38 48 51 50 71 51 40 52 25 53 26 54 34 55 27 56
REMARK SMILES IDX 33 57 28 58 29 59 30 60 31 61 32 62 55 63 56 64 64 65 57 66
REMARK SMILES IDX 63 67 58 68 59 69 60 70 61 71 62 72 41 73 42 74 50 75 43 76
REMARK SMILES IDX 49 77 44 78 45 79 46 80 47 81 48 82
REMARK H PARENT 13 4 9 11 69 38 39 49
REMARK Flexibility Score: inf
ROOT
ATOM      1  N   UNL A   1      38.122  22.441  25.387  1.00  0.00    -0.352 N 
ATOM      2  C   UNL A   1      39.262  22.720  26.109  1.00  0.00     0.251 C 
ATOM      3  O   UNL A   1      40.120  21.851  26.220  1.00  0.00    -0.269 OA
ATOM      4  H   UNL A   1      38.042  21.499  25.111  1.00  0.00     0.163 HD
ENDROOT
BRANCH   1   5
ATOM      5  C   UNL A   1      37.011  23.283  24.954  1.00  0.00     0.118 C 
BRANCH   5   6
ATOM      6  C   UNL A   1      36.612  23.070  23.500  1.00  0.00     0.042 C 
BRANCH   6   7
ATOM      7  C   UNL A   1      35.111  23.078  23.240  1.00  0.00     0.118 C 
BRANCH   7   8
ATOM      8  N   UNL A   1      34.306  23.042  24.455  1.00  0.00    -0.352 N 
ATOM      9  C   UNL A   1      33.657  22.030  25.119  1.00  0.00     0.254 C 
ATOM     10  O   UNL A   1      33.044  22.318  26.146  1.00  0.00    -0.269 OA
ATOM     11  H   UNL A   1      34.208  23.921  24.887  1.00  0.00     0.163 HD
BRANCH   9  12
ATOM     12  C   UNL A   1      33.681  20.628  24.654  1.00  0.00     0.078 A 
ATOM     13  C   UNL A   1      33.812  16.483  23.457  1.00  0.00     0.047 C 
ATOM     14  C   UNL A   1      33.809  17.935  23.824  1.00  0.00    -0.012 A 
ATOM     15  C   UNL A   1      34.874  18.509  24.525  1.00  0.00     0.046 A 
ATOM     16  C   UNL A   1      32.709  18.737  23.513  1.00  0.00     0.127 A 
ATOM     17  C   UNL A   1      34.805  19.842  24.934  1.00  0.00     0.136 A 
ATOM     18  C   UNL A   1      32.653  20.078  23.886  1.00  0.00     0.056 A 
ATOM     19  F   UNL A   1      31.674  18.216  22.840  1.00  0.00    -0.207 F 
ATOM     20  F   UNL A   1      35.846  20.336  25.622  1.00  0.00    -0.206 F 
ENDBRANCH   9  12
ENDBRANCH   7   8
ENDBRANCH   6   7
ENDBRANCH   5   6
ENDBRANCH   1   5
BRANCH   2  21
ATOM     21  C   UNL A   1      39.490  24.057  26.707  1.00  0.00     0.039 A 
ATOM     22  C   UNL A   1      40.096  25.084  25.988  1.00  0.00     0.014 A 
ATOM     23  C   UNL A   1      39.068  24.298  28.020  1.00  0.00     0.014 A 
ATOM     24  C   UNL A   1      40.483  26.252  26.639  1.00  0.00     0.010 A 
ATOM     25  C   UNL A   1      39.352  25.521  28.639  1.00  0.00     0.010 A 
ATOM     26  C   UNL A   1      40.123  26.486  27.975  1.00  0.00    -0.014 A 
BRANCH  26  27
ATOM     27  C   UNL A   1      40.576  27.737  28.646  1.00  0.00     0.031 A 
ATOM     28  C   UNL A   1      42.033  27.957  28.966  1.00  0.00     0.074 A 
ATOM     29  C   UNL A   1      39.686  28.723  28.881  1.00  0.00     0.049 A 
ATOM     30  N   UNL A   1      42.609  29.009  29.489  1.00  0.00    -0.248 NA
ATOM     31  C   UNL A   1      42.965  26.860  28.659  1.00  0.00     0.031 C 
ATOM     32  C   UNL A   1      38.254  28.644  28.588  1.00  0.00     0.029 A 
ATOM     33  N   UNL A   1      39.856  29.994  29.367  1.00  0.00    -0.354 N 
ATOM     34  C   UNL A   1      43.961  28.701  29.582  1.00  0.00     0.074 A 
ATOM     35  C   UNL A   1      44.116  27.346  29.101  1.00  0.00     0.031 C 
ATOM     36  C   UNL A   1      37.695  29.841  28.810  1.00  0.00     0.029 A 
ATOM     37  C   UNL A   1      38.707  30.751  29.342  1.00  0.00     0.049 A 
ATOM     38  H   UNL A   1      40.719  30.334  29.702  1.00  0.00     0.167 HD
ATOM     39  C   UNL A   1      44.984  29.478  30.011  1.00  0.00     0.031 A 
ATOM     40  C   UNL A   1      38.479  32.029  29.703  1.00  0.00     0.031 A 
ATOM     41  C   UNL A   1      44.827  30.827  30.490  1.00  0.00     0.049 A 
ATOM     42  C   UNL A   1      39.612  32.855  30.233  1.00  0.00     0.074 A 
ATOM     43  C   UNL A   1      45.800  31.683  30.975  1.00  0.00     0.029 A 
ATOM     44  N   UNL A   1      43.626  31.519  30.538  1.00  0.00    -0.354 N 
ATOM     45  N   UNL A   1      40.876  32.527  30.352  1.00  0.00    -0.248 NA
ATOM     46  C   UNL A   1      39.294  34.216  30.685  1.00  0.00     0.031 C 
ATOM     47  C   UNL A   1      45.181  32.874  31.362  1.00  0.00     0.029 A 
ATOM     48  C   UNL A   1      43.831  32.786  31.060  1.00  0.00     0.049 A 
ATOM     49  H   UNL A   1      42.756  31.163  30.244  1.00  0.00     0.167 HD
ATOM     50  C   UNL A   1      41.506  33.637  30.900  1.00  0.00     0.074 A 
ATOM     51  C   UNL A   1      40.488  34.657  31.064  1.00  0.00     0.031 C 
ATOM     52  C   UNL A   1      42.809  33.789  31.239  1.00  0.00     0.031 A 
BRANCH  39  53
ATOM     53  C   UNL A   1      46.372  28.890  29.987  1.00  0.00    -0.014 A 
ATOM     54  C   UNL A   1      47.154  28.977  28.821  1.00  0.00     0.010 A 
ATOM     55  C   UNL A   1      46.880  28.192  31.098  1.00  0.00     0.010 A 
ATOM     56  C   UNL A   1      48.414  28.375  28.761  1.00  0.00     0.020 A 
ATOM     57  C   UNL A   1      48.152  27.612  31.052  1.00  0.00     0.020 A 
ATOM     58  C   UNL A   1      48.904  27.694  29.879  1.00  0.00     0.054 A 
BRANCH  58  59
ATOM     59  S   UNL A   1      50.555  26.944  29.801  1.00  0.00     0.124 S 
ATOM     60  O   UNL A   1      50.301  25.588  30.275  1.00  0.00    -0.237 OA
ATOM     61  O   UNL A   1      50.898  27.067  28.385  1.00  0.00    -0.237 OA
ATOM     62  O   UNL A   1      51.350  27.783  30.697  1.00  0.00    -0.744 OA
ENDBRANCH  58  59
ENDBRANCH  39  53
BRANCH  40  63
ATOM     63  C   UNL A   1      37.106  32.579  29.535  1.00  0.00    -0.014 A 
ATOM     64  C   UNL A   1      36.708  33.126  28.300  1.00  0.00     0.010 A 
ATOM     65  C   UNL A   1      36.253  32.703  30.645  1.00  0.00     0.010 A 
ATOM     66  C   UNL A   1      35.526  33.863  28.200  1.00  0.00     0.020 A 
ATOM     67  C   UNL A   1      35.054  33.415  30.541  1.00  0.00     0.020 A 
ATOM     68  C   UNL A   1      34.721  34.026  29.330  1.00  0.00     0.054 A 
BRANCH  68  69
ATOM     69  S   UNL A   1      33.255  35.089  29.208  1.00  0.00     0.124 S 
ATOM     70  O   UNL A   1      33.833  36.337  28.716  1.00  0.00    -0.237 OA
ATOM     71  O   UNL A   1      32.414  34.367  28.257  1.00  0.00    -0.237 OA
ATOM     72  O   UNL A   1      32.749  35.131  30.578  1.00  0.00    -0.744 OA
ENDBRANCH  68  69
ENDBRANCH  40  63
BRANCH  52  73
ATOM     73  C   UNL A   1      43.235  35.098  31.848  1.00  0.00    -0.014 A 
ATOM     74  C   UNL A   1      43.078  35.310  33.231  1.00  0.00     0.010 A 
ATOM     75  C   UNL A   1      43.659  36.163  31.034  1.00  0.00     0.010 A 
ATOM     76  C   UNL A   1      43.300  36.573  33.783  1.00  0.00     0.020 A 
ATOM     77  C   UNL A   1      43.906  37.423  31.589  1.00  0.00     0.020 A 
ATOM     78  C   UNL A   1      43.699  37.626  32.955  1.00  0.00     0.054 A 
BRANCH  78  79
ATOM     79  S   UNL A   1      43.939  39.270  33.682  1.00  0.00     0.124 S 
ATOM     80  O   UNL A   1      45.231  39.665  33.128  1.00  0.00    -0.237 OA
ATOM     81  O   UNL A   1      42.786  40.015  33.184  1.00  0.00    -0.237 OA
ATOM     82  O   UNL A   1      43.930  39.011  35.121  1.00  0.00    -0.744 OA
ENDBRANCH  78  79
ENDBRANCH  52  73
ENDBRANCH  26  27
ENDBRANCH   2  21
TORSDOF 13
ENDMDL
MODEL 3
REMARK VINA RESULT:     -10.3      3.954     10.717
REMARK SMILES Cc1cc(F)c(C(=O)NCCCNC(=O)c2ccc(-c3c4nc(c(-c5ccc(S(=O)(=O)[O-])cc5)c5ccc([nH]5)c(-c5ccc(S(=O)(=O)[O-])cc5)c5nc(c(-c6ccc(S(=O)(=O)[O-])cc6)c6ccc3[nH]6)C=C5)C=C4)cc2)cc1F
REMARK SMILES IDX 13 1 14 2 15 3 12 5 11 6 10 7 9 8 7 9 8 10 6 12 1 13 2 14
REMARK SMILES IDX 3 15 77 16 4 17 76 18 78 19 5 20 16 21 17 22 75 23 18 24
REMARK SMILES IDX 74 25 19 26 20 27 21 28 68 29 22 30 73 31 67 32 69 33 23 34
REMARK SMILES IDX 72 35 66 36 65 37 24 39 54 40 35 41 53 42 36 43 39 44 52 45
REMARK SMILES IDX 70 46 37 47 38 48 51 50 71 51 40 52 25 53 26 54 34 55 27 56
REMARK SMILES IDX 33 57 28 58 29 59 30 60 31 61 32 62 55 63 56 64 64 65 57 66
REMARK SMILES IDX 63 67 58 68 59 69 60 70 61 71 62 72 41 73 42 74 50 75 43 76
REMARK SMILES IDX 49 77 44 78 45 79 46 80 47 81 48 82
REMARK H PARENT 13 4 9 11 69 38 39 49
REMARK Flexibility Score: inf
ROOT
ATOM      1  N   UNL A   1      33.137  30.025  27.605  1.00  0.00    -0.352 N 
ATOM      2  C   UNL A   1      34.230  30.788  27.955  1.00  0.00     0.251 C 
ATOM      3  O   UNL A   1      34.091  32.000  28.077  1.00  0.00    -0.269 OA
ATOM      4  H   UNL A   1      32.341  30.551  27.365  1.00  0.00     0.163 HD
ENDROOT
BRANCH   1   5
ATOM      5  C   UNL A   1      32.941  28.581  27.526  1.00  0.00     0.118 C 
BRANCH   5   6
ATOM      6  C   UNL A   1      33.100  28.018  26.119  1.00  0.00     0.042 C 
BRANCH   6   7
ATOM      7  C   UNL A   1      31.897  27.239  25.602  1.00  0.00     0.118 C 
BRANCH   7   8
ATOM      8  N   UNL A   1      31.543  26.092  26.430  1.00  0.00    -0.352 N 
ATOM      9  C   UNL A   1      32.038  24.814  26.522  1.00  0.00     0.254 C 
ATOM     10  O   UNL A   1      31.518  24.054  27.337  1.00  0.00    -0.269 OA
ATOM     11  H   UNL A   1      30.798  26.270  27.048  1.00  0.00     0.163 HD
BRANCH   9  12
ATOM     12  C   UNL A   1      33.165  24.334  25.695  1.00  0.00     0.078 A 
ATOM     13  C   UNL A   1      36.380  23.011  23.138  1.00  0.00     0.047 C 
ATOM     14  C   UNL A   1      35.251  23.407  24.039  1.00  0.00    -0.012 A 
ATOM     15  C   UNL A   1      33.919  23.289  23.629  1.00  0.00     0.046 A 
ATOM     16  C   UNL A   1      35.513  23.953  25.297  1.00  0.00     0.127 A 
ATOM     17  C   UNL A   1      32.890  23.751  24.452  1.00  0.00     0.136 A 
ATOM     18  C   UNL A   1      34.487  24.379  26.137  1.00  0.00     0.056 A 
ATOM     19  F   UNL A   1      36.779  24.076  25.719  1.00  0.00    -0.207 F 
ATOM     20  F   UNL A   1      31.632  23.632  24.001  1.00  0.00    -0.206 F 
ENDBRANCH   9  12
ENDBRANCH   7   8
ENDBRANCH   6   7
ENDBRANCH   5   6
ENDBRANCH   1   5
BRANCH   2  21
ATOM     21  C   UNL A   1      35.548  30.170  28.231  1.00  0.00     0.039 A 
ATOM     22  C   UNL A   1      35.853  29.627  29.476  1.00  0.00     0.014 A 
ATOM     23  C   UNL A   1      36.502  30.112  27.207  1.00  0.00     0.014 A 
ATOM     24  C   UNL A   1      37.160  29.246  29.766  1.00  0.00     0.010 A 
ATOM     25  C   UNL A   1      37.785  29.616  27.467  1.00  0.00     0.010 A 
ATOM     26  C   UNL A   1      38.148  29.240  28.768  1.00  0.00    -0.014 A 
BRANCH  26  27
ATOM     27  C   UNL A   1      39.541  28.849  29.121  1.00  0.00     0.031 A 
ATOM     28  C   UNL A   1      40.368  29.696  30.054  1.00  0.00     0.074 A 
ATOM     29  C   UNL A   1      40.032  27.674  28.678  1.00  0.00     0.049 A 
ATOM     30  N   UNL A   1      41.572  29.474  30.516  1.00  0.00    -0.248 NA
ATOM     31  C   UNL A   1      39.770  30.954  30.533  1.00  0.00     0.031 C 
ATOM     32  C   UNL A   1      39.319  26.749  27.795  1.00  0.00     0.029 A 
ATOM     33  N   UNL A   1      41.215  27.032  28.945  1.00  0.00    -0.354 N 
ATOM     34  C   UNL A   1      41.878  30.559  31.329  1.00  0.00     0.074 A 
ATOM     35  C   UNL A   1      40.752  31.463  31.264  1.00  0.00     0.031 C 
ATOM     36  C   UNL A   1      40.034  25.623  27.670  1.00  0.00     0.029 A 
ATOM     37  C   UNL A   1      41.295  25.774  28.393  1.00  0.00     0.049 A 
ATOM     38  H   UNL A   1      41.937  27.432  29.482  1.00  0.00     0.167 HD
ATOM     39  C   UNL A   1      42.987  30.777  32.075  1.00  0.00     0.031 A 
ATOM     40  C   UNL A   1      42.265  24.840  28.451  1.00  0.00     0.031 A 
ATOM     41  C   UNL A   1      44.109  29.877  32.137  1.00  0.00     0.049 A 
ATOM     42  C   UNL A   1      43.512  25.125  29.233  1.00  0.00     0.074 A 
ATOM     43  C   UNL A   1      45.291  30.027  32.841  1.00  0.00     0.029 A 
ATOM     44  N   UNL A   1      44.187  28.657  31.482  1.00  0.00    -0.354 N 
ATOM     45  N   UNL A   1      43.798  26.179  29.958  1.00  0.00    -0.248 NA
ATOM     46  C   UNL A   1      44.570  24.107  29.199  1.00  0.00     0.031 C 
ATOM     47  C   UNL A   1      46.103  28.922  32.572  1.00  0.00     0.029 A 
ATOM     48  C   UNL A   1      45.403  28.053  31.751  1.00  0.00     0.049 A 
ATOM     49  H   UNL A   1      43.481  28.278  30.909  1.00  0.00     0.167 HD
ATOM     50  C   UNL A   1      45.072  25.957  30.464  1.00  0.00     0.074 A 
ATOM     51  C   UNL A   1      45.492  24.655  29.983  1.00  0.00     0.031 C 
ATOM     52  C   UNL A   1      45.822  26.765  31.252  1.00  0.00     0.031 A 
BRANCH  39  53
ATOM     53  C   UNL A   1      43.050  32.047  32.887  1.00  0.00    -0.014 A 
ATOM     54  C   UNL A   1      42.516  32.076  34.189  1.00  0.00     0.010 A 
ATOM     55  C   UNL A   1      43.577  33.230  32.340  1.00  0.00     0.010 A 
ATOM     56  C   UNL A   1      42.503  33.264  34.926  1.00  0.00     0.020 A 
ATOM     57  C   UNL A   1      43.592  34.413  33.084  1.00  0.00     0.020 A 
ATOM     58  C   UNL A   1      43.040  34.426  34.367  1.00  0.00     0.054 A 
BRANCH  58  59
ATOM     59  S   UNL A   1      43.048  35.954  35.347  1.00  0.00     0.124 S 
ATOM     60  O   UNL A   1      41.624  36.246  35.475  1.00  0.00    -0.237 OA
ATOM     61  O   UNL A   1      43.724  35.545  36.577  1.00  0.00    -0.237 OA
ATOM     62  O   UNL A   1      43.807  36.887  34.515  1.00  0.00    -0.744 OA
ENDBRANCH  58  59
ENDBRANCH  39  53
BRANCH  40  63
ATOM     63  C   UNL A   1      42.045  23.544  27.752  1.00  0.00    -0.014 A 
ATOM     64  C   UNL A   1      41.382  22.489  28.407  1.00  0.00     0.010 A 
ATOM     65  C   UNL A   1      42.633  23.309  26.497  1.00  0.00     0.010 A 
ATOM     66  C   UNL A   1      41.389  21.203  27.865  1.00  0.00     0.020 A 
ATOM     67  C   UNL A   1      42.616  22.028  25.936  1.00  0.00     0.020 A 
ATOM     68  C   UNL A   1      42.031  20.975  26.645  1.00  0.00     0.054 A 
BRANCH  68  69
ATOM     69  S   UNL A   1      42.135  19.275  26.019  1.00  0.00     0.124 S 
ATOM     70  O   UNL A   1      40.732  18.971  25.750  1.00  0.00    -0.237 OA
ATOM     71  O   UNL A   1      42.986  19.419  24.840  1.00  0.00    -0.237 OA
ATOM     72  O   UNL A   1      42.733  18.539  27.130  1.00  0.00    -0.744 OA
ENDBRANCH  68  69
ENDBRANCH  40  63
BRANCH  52  73
ATOM     73  C   UNL A   1      47.198  26.294  31.642  1.00  0.00    -0.014 A 
ATOM     74  C   UNL A   1      48.249  26.355  30.708  1.00  0.00     0.010 A 
ATOM     75  C   UNL A   1      47.416  25.668  32.882  1.00  0.00     0.010 A 
ATOM     76  C   UNL A   1      49.482  25.764  30.990  1.00  0.00     0.020 A 
ATOM     77  C   UNL A   1      48.658  25.096  33.177  1.00  0.00     0.020 A 
ATOM     78  C   UNL A   1      49.674  25.125  32.219  1.00  0.00     0.054 A 
BRANCH  78  79
ATOM     79  S   UNL A   1      51.267  24.323  32.550  1.00  0.00     0.124 S 
ATOM     80  O   UNL A   1      51.029  22.962  32.077  1.00  0.00    -0.237 OA
ATOM     81  O   UNL A   1      52.199  25.113  31.750  1.00  0.00    -0.237 OA
ATOM     82  O   UNL A   1      51.426  24.463  33.996  1.00  0.00    -0.744 OA
ENDBRANCH  78  79
ENDBRANCH  52  73
ENDBRANCH  26  27
ENDBRANCH   2  21
TORSDOF 13
ENDMDL
