MODEL 1
REMARK VINA RESULT:     -12.4      0.000      0.000
REMARK SMILES O=C(NCCCNC(=O)[C@H]1CC2(CCN(C(=O)C3CC3)CC2)CN1C(=O)CCn1cccn1)c1ccc(-c2c3nc(c(-c4ccc(S(=O)(=O)[O-])cc4)c4ccc([nH]4)c(-c4ccc(S(=O)(=O)[O-])cc4)c4nc(c(-c5ccc(S(=O)(=O)[O-])cc5)c5ccc2[nH]5)C=C4)C=C3)cc1
REMARK SMILES IDX 5 1 4 2 3 3 1 4 2 5 34 7 35 8 93 9 36 10 92 11 37 12 38 13
REMARK SMILES IDX 39 14 86 15 40 16 91 17 85 18 87 19 41 20 90 21 84 22 83 23
REMARK SMILES IDX 42 25 72 26 53 27 71 28 54 29 57 30 70 31 88 32 55 33 56 34
REMARK SMILES IDX 69 36 89 37 58 38 43 39 44 40 52 41 45 42 51 43 46 44 47 45
REMARK SMILES IDX 48 46 49 47 50 48 73 49 74 50 82 51 75 52 81 53 76 54 77 55
REMARK SMILES IDX 78 56 79 57 80 58 59 59 60 60 68 61 61 62 67 63 62 64 63 65
REMARK SMILES IDX 64 66 65 67 66 68 6 69 7 70 8 71 9 73 10 74 11 75 24 76
REMARK SMILES IDX 12 77 23 78 13 79 22 80 14 81 21 82 15 83 16 84 17 85 25 86
REMARK SMILES IDX 26 87 27 88 28 89 29 90 30 91 33 92 31 93 32 94 18 95 19 96
REMARK SMILES IDX 20 97
REMARK H PARENT 3 6 87 24 57 35 7 72
REMARK Flexibility Score: inf
ROOT
ATOM      1  C   UNL A   1      33.271  28.293  25.849  1.00  0.00     0.042 C 
ENDROOT
BRANCH   1   2
ATOM      2  C   UNL A   1      32.890  28.747  27.261  1.00  0.00     0.118 C 
BRANCH   2   3
ATOM      3  N   UNL A   1      33.026  30.152  27.574  1.00  0.00    -0.352 N 
ATOM      4  O   UNL A   1      33.865  32.203  27.641  1.00  0.00    -0.269 OA
ATOM      5  C   UNL A   1      34.104  30.995  27.641  1.00  0.00     0.251 C 
ATOM      6  H   UNL A   1      32.172  30.592  27.783  1.00  0.00     0.163 HD
BRANCH   5   7
ATOM      7  C   UNL A   1      35.497  30.530  27.839  1.00  0.00     0.039 A 
ATOM      8  C   UNL A   1      35.957  29.231  27.617  1.00  0.00     0.014 A 
ATOM      9  C   UNL A   1      36.383  31.490  28.357  1.00  0.00     0.014 A 
ATOM     10  C   UNL A   1      37.212  28.852  28.076  1.00  0.00     0.010 A 
ATOM     11  C   UNL A   1      37.653  31.126  28.778  1.00  0.00     0.010 A 
ATOM     12  C   UNL A   1      38.039  29.792  28.695  1.00  0.00    -0.014 A 
BRANCH  12  13
ATOM     13  C   UNL A   1      39.391  29.394  29.069  1.00  0.00     0.031 A 
ATOM     14  C   UNL A   1      39.633  29.444  30.539  1.00  0.00     0.074 A 
ATOM     15  C   UNL A   1      40.284  28.871  28.202  1.00  0.00     0.049 A 
ATOM     16  N   UNL A   1      40.437  30.220  31.188  1.00  0.00    -0.248 NA
ATOM     17  C   UNL A   1      38.745  28.649  31.406  1.00  0.00     0.031 C 
ATOM     18  C   UNL A   1      40.070  28.513  26.797  1.00  0.00     0.029 A 
ATOM     19  N   UNL A   1      41.552  28.430  28.432  1.00  0.00    -0.354 N 
ATOM     20  C   UNL A   1      40.328  29.845  32.526  1.00  0.00     0.074 A 
ATOM     21  C   UNL A   1      39.148  29.024  32.619  1.00  0.00     0.031 C 
ATOM     22  C   UNL A   1      41.065  27.691  26.388  1.00  0.00     0.029 A 
ATOM     23  C   UNL A   1      42.052  27.577  27.449  1.00  0.00     0.049 A 
ATOM     24  H   UNL A   1      42.073  28.692  29.225  1.00  0.00     0.167 HD
ATOM     25  C   UNL A   1      41.361  30.013  33.401  1.00  0.00     0.031 A 
ATOM     26  C   UNL A   1      43.158  26.788  27.530  1.00  0.00     0.031 A 
ATOM     27  C   UNL A   1      42.346  30.927  32.886  1.00  0.00     0.049 A 
ATOM     28  C   UNL A   1      44.003  27.332  28.621  1.00  0.00     0.074 A 
ATOM     29  C   UNL A   1      42.347  32.251  32.495  1.00  0.00     0.029 A 
ATOM     30  N   UNL A   1      43.483  30.373  32.348  1.00  0.00    -0.354 N 
ATOM     31  N   UNL A   1      44.579  28.499  28.562  1.00  0.00    -0.248 NA
ATOM     32  C   UNL A   1      43.816  26.793  29.958  1.00  0.00     0.031 C 
ATOM     33  C   UNL A   1      43.208  32.296  31.360  1.00  0.00     0.029 A 
ATOM     34  C   UNL A   1      43.743  31.020  31.171  1.00  0.00     0.049 A 
ATOM     35  H   UNL A   1      44.014  29.641  32.739  1.00  0.00     0.167 HD
ATOM     36  C   UNL A   1      44.420  29.035  29.832  1.00  0.00     0.074 A 
ATOM     37  C   UNL A   1      44.020  27.904  30.672  1.00  0.00     0.031 C 
ATOM     38  C   UNL A   1      44.355  30.385  30.025  1.00  0.00     0.031 A 
BRANCH  25  39
ATOM     39  C   UNL A   1      41.706  29.011  34.483  1.00  0.00    -0.014 A 
ATOM     40  C   UNL A   1      42.287  29.490  35.677  1.00  0.00     0.010 A 
ATOM     41  C   UNL A   1      41.780  27.622  34.254  1.00  0.00     0.010 A 
ATOM     42  C   UNL A   1      43.010  28.644  36.527  1.00  0.00     0.020 A 
ATOM     43  C   UNL A   1      42.460  26.761  35.119  1.00  0.00     0.020 A 
ATOM     44  C   UNL A   1      43.110  27.286  36.226  1.00  0.00     0.054 A 
BRANCH  44  45
ATOM     45  S   UNL A   1      44.157  26.228  37.253  1.00  0.00     0.124 S 
ATOM     46  O   UNL A   1      43.806  26.678  38.597  1.00  0.00    -0.237 OA
ATOM     47  O   UNL A   1      43.695  24.892  36.888  1.00  0.00    -0.237 OA
ATOM     48  O   UNL A   1      45.510  26.559  36.812  1.00  0.00    -0.744 OA
ENDBRANCH  44  45
ENDBRANCH  25  39
BRANCH  26  49
ATOM     49  C   UNL A   1      43.359  25.417  26.982  1.00  0.00    -0.014 A 
ATOM     50  C   UNL A   1      42.807  25.028  25.744  1.00  0.00     0.010 A 
ATOM     51  C   UNL A   1      44.346  24.580  27.541  1.00  0.00     0.010 A 
ATOM     52  C   UNL A   1      43.268  23.881  25.068  1.00  0.00     0.020 A 
ATOM     53  C   UNL A   1      44.807  23.436  26.876  1.00  0.00     0.020 A 
ATOM     54  C   UNL A   1      44.282  23.101  25.630  1.00  0.00     0.054 A 
BRANCH  54  55
ATOM     55  S   UNL A   1      45.000  21.725  24.680  1.00  0.00     0.124 S 
ATOM     56  O   UNL A   1      44.326  20.564  25.254  1.00  0.00    -0.237 OA
ATOM     57  O   UNL A   1      44.628  22.056  23.307  1.00  0.00    -0.237 OA
ATOM     58  O   UNL A   1      46.430  21.816  24.970  1.00  0.00    -0.744 OA
ENDBRANCH  54  55
ENDBRANCH  26  49
BRANCH  38  59
ATOM     59  C   UNL A   1      44.745  31.299  28.889  1.00  0.00    -0.014 A 
ATOM     60  C   UNL A   1      43.843  31.797  27.929  1.00  0.00     0.010 A 
ATOM     61  C   UNL A   1      46.059  31.798  28.899  1.00  0.00     0.010 A 
ATOM     62  C   UNL A   1      44.258  32.754  26.989  1.00  0.00     0.020 A 
ATOM     63  C   UNL A   1      46.472  32.763  27.981  1.00  0.00     0.020 A 
ATOM     64  C   UNL A   1      45.573  33.230  27.023  1.00  0.00     0.054 A 
BRANCH  64  65
ATOM     65  S   UNL A   1      46.098  34.501  25.838  1.00  0.00     0.124 S 
ATOM     66  O   UNL A   1      45.788  35.741  26.545  1.00  0.00    -0.237 OA
ATOM     67  O   UNL A   1      47.520  34.214  25.663  1.00  0.00    -0.237 OA
ATOM     68  O   UNL A   1      45.273  34.239  24.659  1.00  0.00    -0.744 OA
ENDBRANCH  64  65
ENDBRANCH  38  59
ENDBRANCH  12  13
ENDBRANCH   5   7
ENDBRANCH   2   3
ENDBRANCH   1   2
BRANCH   1  69
ATOM     69  C   UNL A   1      33.174  26.800  25.531  1.00  0.00     0.117 C 
BRANCH  69  70
ATOM     70  N   UNL A   1      33.805  26.363  24.301  1.00  0.00    -0.354 N 
ATOM     71  C   UNL A   1      34.114  25.094  23.898  1.00  0.00     0.242 C 
ATOM     72  H   UNL A   1      34.045  27.078  23.669  1.00  0.00     0.163 HD
ATOM     73  O   UNL A   1      33.934  24.857  22.699  1.00  0.00    -0.273 OA
BRANCH  71  74
ATOM     74  C   UNL A   1      34.442  23.955  24.887  1.00  0.00     0.175 C 
ATOM     75  C   UNL A   1      34.277  22.544  24.302  1.00  0.00     0.044 C 
ATOM     76  N   UNL A   1      35.618  23.725  25.727  1.00  0.00    -0.330 N 
ATOM     77  C   UNL A   1      34.507  21.610  25.530  1.00  0.00    -0.006 C 
ATOM     78  C   UNL A   1      35.266  22.544  26.533  1.00  0.00     0.127 C 
ATOM     79  C   UNL A   1      35.378  20.374  25.224  1.00  0.00     0.030 C 
ATOM     80  C   UNL A   1      33.145  21.115  26.052  1.00  0.00     0.030 C 
ATOM     81  C   UNL A   1      34.705  19.335  24.326  1.00  0.00     0.120 C 
ATOM     82  C   UNL A   1      32.502  20.116  25.079  1.00  0.00     0.120 C 
ATOM     83  N   UNL A   1      33.377  18.972  24.811  1.00  0.00    -0.342 N 
ATOM     84  C   UNL A   1      32.812  17.698  24.953  1.00  0.00     0.225 C 
ATOM     85  O   UNL A   1      31.688  17.563  25.422  1.00  0.00    -0.275 OA
BRANCH  76  86
ATOM     86  C   UNL A   1      36.938  23.774  25.252  1.00  0.00     0.225 C 
ATOM     87  O   UNL A   1      37.216  23.948  24.064  1.00  0.00    -0.275 OA
BRANCH  86  88
ATOM     88  C   UNL A   1      38.051  23.442  26.215  1.00  0.00     0.124 C 
BRANCH  88  89
ATOM     89  C   UNL A   1      38.836  22.166  25.959  1.00  0.00     0.154 C 
BRANCH  89  90
ATOM     90  N   UNL A   1      40.006  21.970  26.792  1.00  0.00    -0.272 N 
ATOM     91  C   UNL A   1      40.594  22.885  27.620  1.00  0.00     0.108 A 
ATOM     92  N   UNL A   1      40.558  20.747  26.886  1.00  0.00    -0.182 NA
ATOM     93  C   UNL A   1      41.660  22.239  28.207  1.00  0.00     0.042 A 
ATOM     94  C   UNL A   1      41.586  20.924  27.721  1.00  0.00     0.135 A 
ENDBRANCH  89  90
ENDBRANCH  88  89
ENDBRANCH  86  88
ENDBRANCH  76  86
BRANCH  84  95
ATOM     95  C   UNL A   1      33.471  16.415  24.554  1.00  0.00     0.079 C 
ATOM     96  C   UNL A   1      34.687  15.722  25.088  1.00  0.00     0.014 C 
ATOM     97  C   UNL A   1      33.319  15.155  25.365  1.00  0.00     0.014 C 
ENDBRANCH  84  95
ENDBRANCH  71  74
ENDBRANCH  69  70
ENDBRANCH   1  69
TORSDOF 18
ENDMDL
MODEL 2
REMARK VINA RESULT:     -12.4      2.345      9.426
REMARK SMILES O=C(NCCCNC(=O)[C@H]1CC2(CCN(C(=O)C3CC3)CC2)CN1C(=O)CCn1cccn1)c1ccc(-c2c3nc(c(-c4ccc(S(=O)(=O)[O-])cc4)c4ccc([nH]4)c(-c4ccc(S(=O)(=O)[O-])cc4)c4nc(c(-c5ccc(S(=O)(=O)[O-])cc5)c5ccc2[nH]5)C=C4)C=C3)cc1
REMARK SMILES IDX 5 1 4 2 3 3 1 4 2 5 34 7 35 8 93 9 36 10 92 11 37 12 38 13
REMARK SMILES IDX 39 14 86 15 40 16 91 17 85 18 87 19 41 20 90 21 84 22 83 23
REMARK SMILES IDX 42 25 72 26 53 27 71 28 54 29 57 30 70 31 88 32 55 33 56 34
REMARK SMILES IDX 69 36 89 37 58 38 43 39 44 40 52 41 45 42 51 43 46 44 47 45
REMARK SMILES IDX 48 46 49 47 50 48 73 49 74 50 82 51 75 52 81 53 76 54 77 55
REMARK SMILES IDX 78 56 79 57 80 58 59 59 60 60 68 61 61 62 67 63 62 64 63 65
REMARK SMILES IDX 64 66 65 67 66 68 6 69 7 70 8 71 9 73 10 74 11 75 24 76
REMARK SMILES IDX 12 77 23 78 13 79 22 80 14 81 21 82 15 83 16 84 17 85 25 86
REMARK SMILES IDX 26 87 27 88 28 89 29 90 30 91 33 92 31 93 32 94 18 95 19 96
REMARK SMILES IDX 20 97
REMARK H PARENT 3 6 87 24 57 35 7 72
REMARK Flexibility Score: inf
ROOT
ATOM      1  C   UNL A   1      39.205  20.967  25.960  1.00  0.00     0.042 C 
ENDROOT
BRANCH   1   2
ATOM      2  C   UNL A   1      40.577  21.478  26.408  1.00  0.00     0.118 C 
BRANCH   2   3
ATOM      3  N   UNL A   1      41.549  21.779  25.381  1.00  0.00    -0.352 N 
ATOM      4  O   UNL A   1      43.411  22.500  24.416  1.00  0.00    -0.269 OA
ATOM      5  C   UNL A   1      42.571  22.687  25.297  1.00  0.00     0.251 C 
ATOM      6  H   UNL A   1      41.457  21.218  24.577  1.00  0.00     0.163 HD
BRANCH   5   7
ATOM      7  C   UNL A   1      42.638  23.923  26.113  1.00  0.00     0.039 A 
ATOM      8  C   UNL A   1      43.410  24.093  27.263  1.00  0.00     0.014 A 
ATOM      9  C   UNL A   1      41.790  24.963  25.699  1.00  0.00     0.014 A 
ATOM     10  C   UNL A   1      43.200  25.196  28.082  1.00  0.00     0.010 A 
ATOM     11  C   UNL A   1      41.608  26.086  26.491  1.00  0.00     0.010 A 
ATOM     12  C   UNL A   1      42.267  26.168  27.714  1.00  0.00    -0.014 A 
BRANCH  12  13
ATOM     13  C   UNL A   1      42.145  27.366  28.537  1.00  0.00     0.031 A 
ATOM     14  C   UNL A   1      43.309  28.287  28.409  1.00  0.00     0.074 A 
ATOM     15  C   UNL A   1      41.026  27.697  29.214  1.00  0.00     0.049 A 
ATOM     16  N   UNL A   1      44.176  28.606  29.313  1.00  0.00    -0.248 NA
ATOM     17  C   UNL A   1      43.647  28.780  27.062  1.00  0.00     0.031 C 
ATOM     18  C   UNL A   1      39.726  27.019  29.192  1.00  0.00     0.029 A 
ATOM     19  N   UNL A   1      40.775  28.795  29.981  1.00  0.00    -0.354 N 
ATOM     20  C   UNL A   1      45.031  29.527  28.711  1.00  0.00     0.074 A 
ATOM     21  C   UNL A   1      44.779  29.443  27.295  1.00  0.00     0.031 C 
ATOM     22  C   UNL A   1      38.780  27.847  29.692  1.00  0.00     0.029 A 
ATOM     23  C   UNL A   1      39.421  29.051  30.194  1.00  0.00     0.049 A 
ATOM     24  H   UNL A   1      41.489  29.359  30.355  1.00  0.00     0.167 HD
ATOM     25  C   UNL A   1      45.686  30.476  29.439  1.00  0.00     0.031 A 
ATOM     26  C   UNL A   1      38.868  30.194  30.683  1.00  0.00     0.031 A 
ATOM     27  C   UNL A   1      45.684  30.159  30.843  1.00  0.00     0.049 A 
ATOM     28  C   UNL A   1      39.943  30.927  31.397  1.00  0.00     0.074 A 
ATOM     29  C   UNL A   1      46.157  29.116  31.614  1.00  0.00     0.029 A 
ATOM     30  N   UNL A   1      44.774  30.828  31.627  1.00  0.00    -0.354 N 
ATOM     31  N   UNL A   1      40.509  30.483  32.484  1.00  0.00    -0.248 NA
ATOM     32  C   UNL A   1      40.711  31.907  30.647  1.00  0.00     0.031 C 
ATOM     33  C   UNL A   1      45.165  28.927  32.620  1.00  0.00     0.029 A 
ATOM     34  C   UNL A   1      44.188  29.910  32.455  1.00  0.00     0.049 A 
ATOM     35  H   UNL A   1      44.580  31.793  31.597  1.00  0.00     0.167 HD
ATOM     36  C   UNL A   1      41.857  30.771  32.321  1.00  0.00     0.074 A 
ATOM     37  C   UNL A   1      41.908  31.725  31.211  1.00  0.00     0.031 C 
ATOM     38  C   UNL A   1      42.818  30.001  32.910  1.00  0.00     0.031 A 
BRANCH  25  39
ATOM     39  C   UNL A   1      45.904  31.894  28.952  1.00  0.00    -0.014 A 
ATOM     40  C   UNL A   1      44.780  32.740  28.835  1.00  0.00     0.010 A 
ATOM     41  C   UNL A   1      47.088  32.318  28.316  1.00  0.00     0.010 A 
ATOM     42  C   UNL A   1      44.808  33.880  28.023  1.00  0.00     0.020 A 
ATOM     43  C   UNL A   1      47.140  33.478  27.539  1.00  0.00     0.020 A 
ATOM     44  C   UNL A   1      45.985  34.226  27.361  1.00  0.00     0.054 A 
BRANCH  44  45
ATOM     45  S   UNL A   1      45.974  35.619  26.207  1.00  0.00     0.124 S 
ATOM     46  O   UNL A   1      44.606  36.110  26.349  1.00  0.00    -0.237 OA
ATOM     47  O   UNL A   1      47.019  36.480  26.754  1.00  0.00    -0.237 OA
ATOM     48  O   UNL A   1      46.290  34.999  24.922  1.00  0.00    -0.744 OA
ENDBRANCH  44  45
ENDBRANCH  25  39
BRANCH  26  49
ATOM     49  C   UNL A   1      37.594  30.853  30.281  1.00  0.00    -0.014 A 
ATOM     50  C   UNL A   1      36.646  31.273  31.237  1.00  0.00     0.010 A 
ATOM     51  C   UNL A   1      37.443  31.338  28.966  1.00  0.00     0.010 A 
ATOM     52  C   UNL A   1      35.626  32.185  30.901  1.00  0.00     0.020 A 
ATOM     53  C   UNL A   1      36.430  32.242  28.624  1.00  0.00     0.020 A 
ATOM     54  C   UNL A   1      35.537  32.681  29.598  1.00  0.00     0.054 A 
BRANCH  54  55
ATOM     55  S   UNL A   1      34.334  33.990  29.207  1.00  0.00     0.124 S 
ATOM     56  O   UNL A   1      33.716  34.244  30.505  1.00  0.00    -0.237 OA
ATOM     57  O   UNL A   1      35.182  35.061  28.692  1.00  0.00    -0.237 OA
ATOM     58  O   UNL A   1      33.458  33.367  28.216  1.00  0.00    -0.744 OA
ENDBRANCH  54  55
ENDBRANCH  26  49
BRANCH  38  59
ATOM     59  C   UNL A   1      42.404  29.012  33.973  1.00  0.00    -0.014 A 
ATOM     60  C   UNL A   1      41.788  27.774  33.703  1.00  0.00     0.010 A 
ATOM     61  C   UNL A   1      42.809  29.289  35.290  1.00  0.00     0.010 A 
ATOM     62  C   UNL A   1      41.563  26.850  34.736  1.00  0.00     0.020 A 
ATOM     63  C   UNL A   1      42.606  28.367  36.316  1.00  0.00     0.020 A 
ATOM     64  C   UNL A   1      41.975  27.155  36.038  1.00  0.00     0.054 A 
BRANCH  64  65
ATOM     65  S   UNL A   1      41.727  25.942  37.364  1.00  0.00     0.124 S 
ATOM     66  O   UNL A   1      40.340  26.180  37.756  1.00  0.00    -0.237 OA
ATOM     67  O   UNL A   1      41.982  24.669  36.693  1.00  0.00    -0.237 OA
ATOM     68  O   UNL A   1      42.725  26.313  38.367  1.00  0.00    -0.744 OA
ENDBRANCH  64  65
ENDBRANCH  38  59
ENDBRANCH  12  13
ENDBRANCH   5   7
ENDBRANCH   2   3
ENDBRANCH   1   2
BRANCH   1  69
ATOM     69  C   UNL A   1      38.147  22.006  25.585  1.00  0.00     0.117 C 
BRANCH  69  70
ATOM     70  N   UNL A   1      37.530  21.853  24.282  1.00  0.00    -0.354 N 
ATOM     71  C   UNL A   1      36.539  22.598  23.708  1.00  0.00     0.242 C 
ATOM     72  H   UNL A   1      37.872  21.110  23.735  1.00  0.00     0.163 HD
ATOM     73  O   UNL A   1      36.667  22.815  22.498  1.00  0.00    -0.273 OA
BRANCH  71  74
ATOM     74  C   UNL A   1      35.452  23.324  24.529  1.00  0.00     0.175 C 
ATOM     75  C   UNL A   1      34.401  24.055  23.678  1.00  0.00     0.044 C 
ATOM     76  N   UNL A   1      34.588  22.848  25.610  1.00  0.00    -0.330 N 
ATOM     77  C   UNL A   1      33.543  24.818  24.734  1.00  0.00    -0.006 C 
ATOM     78  C   UNL A   1      33.867  24.050  26.060  1.00  0.00     0.127 C 
ATOM     79  C   UNL A   1      32.024  24.761  24.468  1.00  0.00     0.030 C 
ATOM     80  C   UNL A   1      33.966  26.299  24.755  1.00  0.00     0.030 C 
ATOM     81  C   UNL A   1      31.567  25.559  23.247  1.00  0.00     0.120 C 
ATOM     82  C   UNL A   1      33.521  27.028  23.478  1.00  0.00     0.120 C 
ATOM     83  N   UNL A   1      32.075  26.927  23.267  1.00  0.00    -0.342 N 
ATOM     84  C   UNL A   1      31.390  28.122  23.014  1.00  0.00     0.225 C 
ATOM     85  O   UNL A   1      31.960  29.202  23.116  1.00  0.00    -0.275 OA
BRANCH  76  86
ATOM     86  C   UNL A   1      33.833  21.667  25.541  1.00  0.00     0.225 C 
ATOM     87  O   UNL A   1      32.712  21.560  26.043  1.00  0.00    -0.275 OA
BRANCH  86  88
ATOM     88  C   UNL A   1      34.491  20.435  24.969  1.00  0.00     0.124 C 
BRANCH  88  89
ATOM     89  C   UNL A   1      33.651  19.554  24.060  1.00  0.00     0.154 C 
BRANCH  89  90
ATOM     90  N   UNL A   1      33.417  18.206  24.533  1.00  0.00    -0.272 N 
ATOM     91  C   UNL A   1      32.766  17.831  25.676  1.00  0.00     0.108 A 
ATOM     92  N   UNL A   1      33.759  17.160  23.759  1.00  0.00    -0.182 NA
ATOM     93  C   UNL A   1      32.783  16.454  25.691  1.00  0.00     0.042 A 
ATOM     94  C   UNL A   1      33.403  16.095  24.484  1.00  0.00     0.135 A 
ENDBRANCH  89  90
ENDBRANCH  88  89
ENDBRANCH  86  88
ENDBRANCH  76  86
BRANCH  84  95
ATOM     95  C   UNL A   1      29.957  28.220  22.593  1.00  0.00     0.079 C 
ATOM     96  C   UNL A   1      28.687  27.989  23.353  1.00  0.00     0.014 C 
ATOM     97  C   UNL A   1      29.091  29.391  22.979  1.00  0.00     0.014 C 
ENDBRANCH  84  95
ENDBRANCH  71  74
ENDBRANCH  69  70
ENDBRANCH   1  69
TORSDOF 18
ENDMDL
MODEL 3
REMARK VINA RESULT:     -12.3      2.204      4.732
REMARK SMILES O=C(NCCCNC(=O)[C@H]1CC2(CCN(C(=O)C3CC3)CC2)CN1C(=O)CCn1cccn1)c1ccc(-c2c3nc(c(-c4ccc(S(=O)(=O)[O-])cc4)c4ccc([nH]4)c(-c4ccc(S(=O)(=O)[O-])cc4)c4nc(c(-c5ccc(S(=O)(=O)[O-])cc5)c5ccc2[nH]5)C=C4)C=C3)cc1
REMARK SMILES IDX 5 1 4 2 3 3 1 4 2 5 34 7 35 8 93 9 36 10 92 11 37 12 38 13
REMARK SMILES IDX 39 14 86 15 40 16 91 17 85 18 87 19 41 20 90 21 84 22 83 23
REMARK SMILES IDX 42 25 72 26 53 27 71 28 54 29 57 30 70 31 88 32 55 33 56 34
REMARK SMILES IDX 69 36 89 37 58 38 43 39 44 40 52 41 45 42 51 43 46 44 47 45
REMARK SMILES IDX 48 46 49 47 50 48 73 49 74 50 82 51 75 52 81 53 76 54 77 55
REMARK SMILES IDX 78 56 79 57 80 58 59 59 60 60 68 61 61 62 67 63 62 64 63 65
REMARK SMILES IDX 64 66 65 67 66 68 6 69 7 70 8 71 9 73 10 74 11 75 24 76
REMARK SMILES IDX 12 77 23 78 13 79 22 80 14 81 21 82 15 83 16 84 17 85 25 86
REMARK SMILES IDX 26 87 27 88 28 89 29 90 30 91 33 92 31 93 32 94 18 95 19 96
REMARK SMILES IDX 20 97
REMARK H PARENT 3 6 87 24 57 35 7 72
REMARK Flexibility Score: inf
ROOT
ATOM      1  C   UNL A   1      33.681  29.015  24.173  1.00  0.00     0.042 C 
ENDROOT
BRANCH   1   2
ATOM      2  C   UNL A   1      33.895  28.919  25.687  1.00  0.00     0.118 C 
BRANCH   2   3
ATOM      3  N   UNL A   1      33.513  30.057  26.492  1.00  0.00    -0.352 N 
ATOM      4  O   UNL A   1      33.655  31.978  27.591  1.00  0.00    -0.269 OA
ATOM      5  C   UNL A   1      34.224  30.934  27.269  1.00  0.00     0.251 C 
ATOM      6  H   UNL A   1      32.546  30.239  26.481  1.00  0.00     0.163 HD
BRANCH   5   7
ATOM      7  C   UNL A   1      35.561  30.632  27.831  1.00  0.00     0.039 A 
ATOM      8  C   UNL A   1      36.451  31.573  28.353  1.00  0.00     0.014 A 
ATOM      9  C   UNL A   1      35.957  29.287  27.754  1.00  0.00     0.014 A 
ATOM     10  C   UNL A   1      37.767  31.212  28.615  1.00  0.00     0.010 A 
ATOM     11  C   UNL A   1      37.257  28.913  28.054  1.00  0.00     0.010 A 
ATOM     12  C   UNL A   1      38.177  29.891  28.423  1.00  0.00    -0.014 A 
BRANCH  12  13
ATOM     13  C   UNL A   1      39.533  29.517  28.808  1.00  0.00     0.031 A 
ATOM     14  C   UNL A   1      39.770  29.599  30.277  1.00  0.00     0.074 A 
ATOM     15  C   UNL A   1      40.434  28.990  27.953  1.00  0.00     0.049 A 
ATOM     16  N   UNL A   1      40.562  30.397  30.913  1.00  0.00    -0.248 NA
ATOM     17  C   UNL A   1      38.890  28.808  31.156  1.00  0.00     0.031 C 
ATOM     18  C   UNL A   1      40.229  28.603  26.554  1.00  0.00     0.029 A 
ATOM     19  N   UNL A   1      41.708  28.571  28.193  1.00  0.00    -0.354 N 
ATOM     20  C   UNL A   1      40.455  30.045  32.257  1.00  0.00     0.074 A 
ATOM     21  C   UNL A   1      39.285  29.211  32.363  1.00  0.00     0.031 C 
ATOM     22  C   UNL A   1      41.236  27.787  26.162  1.00  0.00     0.029 A 
ATOM     23  C   UNL A   1      42.222  27.706  27.228  1.00  0.00     0.049 A 
ATOM     24  H   UNL A   1      42.223  28.855  28.982  1.00  0.00     0.167 HD
ATOM     25  C   UNL A   1      41.482  30.244  33.132  1.00  0.00     0.031 A 
ATOM     26  C   UNL A   1      43.337  26.933  27.326  1.00  0.00     0.031 A 
ATOM     27  C   UNL A   1      42.457  31.161  32.601  1.00  0.00     0.049 A 
ATOM     28  C   UNL A   1      44.172  27.509  28.409  1.00  0.00     0.074 A 
ATOM     29  C   UNL A   1      42.441  32.477  32.186  1.00  0.00     0.029 A 
ATOM     30  N   UNL A   1      43.603  30.612  32.077  1.00  0.00    -0.354 N 
ATOM     31  N   UNL A   1      44.733  28.682  28.329  1.00  0.00    -0.248 NA
ATOM     32  C   UNL A   1      43.989  26.992  29.756  1.00  0.00     0.031 C 
ATOM     33  C   UNL A   1      43.305  32.512  31.052  1.00  0.00     0.029 A 
ATOM     34  C   UNL A   1      43.857  31.240  30.889  1.00  0.00     0.049 A 
ATOM     35  H   UNL A   1      44.142  29.894  32.483  1.00  0.00     0.167 HD
ATOM     36  C   UNL A   1      44.564  29.239  29.589  1.00  0.00     0.074 A 
ATOM     37  C   UNL A   1      44.176  28.119  30.449  1.00  0.00     0.031 C 
ATOM     38  C   UNL A   1      44.480  30.592  29.756  1.00  0.00     0.031 A 
BRANCH  25  39
ATOM     39  C   UNL A   1      41.838  29.266  34.233  1.00  0.00    -0.014 A 
ATOM     40  C   UNL A   1      42.443  28.043  33.870  1.00  0.00     0.010 A 
ATOM     41  C   UNL A   1      41.326  29.357  35.543  1.00  0.00     0.010 A 
ATOM     42  C   UNL A   1      42.419  26.936  34.727  1.00  0.00     0.020 A 
ATOM     43  C   UNL A   1      41.337  28.273  36.423  1.00  0.00     0.020 A 
ATOM     44  C   UNL A   1      41.843  27.056  35.991  1.00  0.00     0.054 A 
BRANCH  44  45
ATOM     45  S   UNL A   1      41.695  25.587  37.037  1.00  0.00     0.124 S 
ATOM     46  O   UNL A   1      41.618  24.521  36.042  1.00  0.00    -0.237 OA
ATOM     47  O   UNL A   1      42.927  25.641  37.818  1.00  0.00    -0.237 OA
ATOM     48  O   UNL A   1      40.469  25.831  37.794  1.00  0.00    -0.744 OA
ENDBRANCH  44  45
ENDBRANCH  25  39
BRANCH  26  49
ATOM     49  C   UNL A   1      43.558  25.555  26.805  1.00  0.00    -0.014 A 
ATOM     50  C   UNL A   1      42.764  25.021  25.769  1.00  0.00     0.010 A 
ATOM     51  C   UNL A   1      44.747  24.869  27.126  1.00  0.00     0.010 A 
ATOM     52  C   UNL A   1      43.175  23.883  25.047  1.00  0.00     0.020 A 
ATOM     53  C   UNL A   1      45.160  23.735  26.415  1.00  0.00     0.020 A 
ATOM     54  C   UNL A   1      44.384  23.258  25.362  1.00  0.00     0.054 A 
BRANCH  54  55
ATOM     55  S   UNL A   1      45.001  21.899  24.319  1.00  0.00     0.124 S 
ATOM     56  O   UNL A   1      44.493  20.719  25.012  1.00  0.00    -0.237 OA
ATOM     57  O   UNL A   1      44.387  22.185  23.026  1.00  0.00    -0.237 OA
ATOM     58  O   UNL A   1      46.453  22.065  24.363  1.00  0.00    -0.744 OA
ENDBRANCH  54  55
ENDBRANCH  26  49
BRANCH  38  59
ATOM     59  C   UNL A   1      44.861  31.490  28.604  1.00  0.00    -0.014 A 
ATOM     60  C   UNL A   1      43.982  31.866  27.570  1.00  0.00     0.010 A 
ATOM     61  C   UNL A   1      46.124  32.103  28.669  1.00  0.00     0.010 A 
ATOM     62  C   UNL A   1      44.372  32.817  26.613  1.00  0.00     0.020 A 
ATOM     63  C   UNL A   1      46.510  33.062  27.733  1.00  0.00     0.020 A 
ATOM     64  C   UNL A   1      45.637  33.408  26.703  1.00  0.00     0.054 A 
BRANCH  64  65
ATOM     65  S   UNL A   1      46.124  34.671  25.494  1.00  0.00     0.124 S 
ATOM     66  O   UNL A   1      45.762  35.914  26.170  1.00  0.00    -0.237 OA
ATOM     67  O   UNL A   1      47.557  34.434  25.336  1.00  0.00    -0.237 OA
ATOM     68  O   UNL A   1      45.319  34.352  24.314  1.00  0.00    -0.744 OA
ENDBRANCH  64  65
ENDBRANCH  38  59
ENDBRANCH  12  13
ENDBRANCH   5   7
ENDBRANCH   2   3
ENDBRANCH   1   2
BRANCH   1  69
ATOM     69  C   UNL A   1      32.371  28.468  23.605  1.00  0.00     0.117 C 
BRANCH  69  70
ATOM     70  N   UNL A   1      32.452  27.825  22.307  1.00  0.00    -0.354 N 
ATOM     71  C   UNL A   1      32.173  26.531  21.971  1.00  0.00     0.242 C 
ATOM     72  H   UNL A   1      32.748  28.401  21.566  1.00  0.00     0.163 HD
ATOM     73  O   UNL A   1      31.605  26.372  20.885  1.00  0.00    -0.273 OA
BRANCH  71  74
ATOM     74  C   UNL A   1      32.333  25.354  22.957  1.00  0.00     0.175 C 
ATOM     75  C   UNL A   1      33.736  25.231  23.572  1.00  0.00     0.044 C 
ATOM     76  N   UNL A   1      31.533  24.960  24.117  1.00  0.00    -0.330 N 
ATOM     77  C   UNL A   1      33.665  23.898  24.380  1.00  0.00    -0.006 C 
ATOM     78  C   UNL A   1      32.124  23.683  24.553  1.00  0.00     0.127 C 
ATOM     79  C   UNL A   1      34.331  23.971  25.769  1.00  0.00     0.030 C 
ATOM     80  C   UNL A   1      34.362  22.783  23.577  1.00  0.00     0.030 C 
ATOM     81  C   UNL A   1      35.855  24.085  25.734  1.00  0.00     0.120 C 
ATOM     82  C   UNL A   1      35.883  22.987  23.538  1.00  0.00     0.120 C 
ATOM     83  N   UNL A   1      36.460  23.065  24.883  1.00  0.00    -0.342 N 
ATOM     84  C   UNL A   1      37.561  22.241  25.146  1.00  0.00     0.225 C 
ATOM     85  O   UNL A   1      37.918  21.397  24.333  1.00  0.00    -0.275 OA
BRANCH  76  86
ATOM     86  C   UNL A   1      31.154  25.843  25.139  1.00  0.00     0.225 C 
ATOM     87  O   UNL A   1      31.829  26.020  26.155  1.00  0.00    -0.275 OA
BRANCH  86  88
ATOM     88  C   UNL A   1      29.786  26.478  25.058  1.00  0.00     0.124 C 
BRANCH  88  89
ATOM     89  C   UNL A   1      29.075  26.431  23.717  1.00  0.00     0.154 C 
BRANCH  89  90
ATOM     90  N   UNL A   1      28.551  27.695  23.239  1.00  0.00    -0.272 N 
ATOM     91  C   UNL A   1      27.372  28.289  23.593  1.00  0.00     0.108 A 
ATOM     92  N   UNL A   1      29.307  28.468  22.439  1.00  0.00    -0.182 NA
ATOM     93  C   UNL A   1      27.316  29.473  22.894  1.00  0.00     0.042 A 
ATOM     94  C   UNL A   1      28.536  29.533  22.203  1.00  0.00     0.135 A 
ENDBRANCH  89  90
ENDBRANCH  88  89
ENDBRANCH  86  88
ENDBRANCH  76  86
BRANCH  84  95
ATOM     95  C   UNL A   1      38.404  22.300  26.381  1.00  0.00     0.079 C 
ATOM     96  C   UNL A   1      39.867  22.050  26.590  1.00  0.00     0.014 C 
ATOM     97  C   UNL A   1      39.330  23.456  26.659  1.00  0.00     0.014 C 
ENDBRANCH  84  95
ENDBRANCH  71  74
ENDBRANCH  69  70
ENDBRANCH   1  69
TORSDOF 18
ENDMDL
