MODEL 1
REMARK VINA RESULT:     -12.0      0.000      0.000
REMARK SMILES C[C@H](C(=O)Nc1ccc(C(=O)NCCCNC(=O)c2ccc(-c3c4nc(c(-c5ccc(S(=O)(=O)[O-])cc5)c5ccc([nH]5)c(-c5ccc(S(=O)(=O)[O-])cc5)c5nc(c(-c6ccc(S(=O)(=O)[O-])cc6)c6ccc3[nH]6)C=C5)C=C4)cc2)cc1)N1C(=O)/C(=C\c2ccco2)SC1=S
REMARK SMILES IDX 13 1 12 2 10 3 11 4 9 6 6 7 7 8 80 9 8 10 79 11 5 12 3 13
REMARK SMILES IDX 4 14 2 16 1 17 81 18 82 19 92 20 83 21 84 22 91 23 93 24
REMARK SMILES IDX 85 25 86 26 87 27 90 28 88 29 89 30 14 31 15 32 16 33 17 34
REMARK SMILES IDX 18 36 19 37 20 38 78 39 21 40 77 41 22 42 23 43 24 44 71 45
REMARK SMILES IDX 25 46 76 47 70 48 72 49 26 50 75 51 69 52 68 53 27 55 57 56
REMARK SMILES IDX 38 57 56 58 39 59 42 60 55 61 73 62 40 63 41 64 54 66 74 67
REMARK SMILES IDX 43 68 28 69 29 70 37 71 30 72 36 73 31 74 32 75 33 76 34 77
REMARK SMILES IDX 35 78 58 79 59 80 67 81 60 82 66 83 61 84 62 85 63 86 64 87
REMARK SMILES IDX 65 88 44 89 45 90 53 91 46 92 52 93 47 94 48 95 49 96 50 97
REMARK SMILES IDX 51 98
REMARK H PARENT 12 5 5 15 16 35 72 54 42 65
REMARK Flexibility Score: inf
ROOT
ATOM      1  C   UNL A   1      31.493  29.296  25.226  1.00  0.00     0.118 C 
ENDROOT
BRANCH   1   2
ATOM      2  N   UNL A   1      30.908  29.623  23.934  1.00  0.00    -0.352 N 
ATOM      3  C   UNL A   1      30.707  28.828  22.831  1.00  0.00     0.251 C 
ATOM      4  O   UNL A   1      30.247  29.316  21.804  1.00  0.00    -0.269 OA
ATOM      5  H   UNL A   1      30.612  30.557  23.835  1.00  0.00     0.163 HD
BRANCH   3   6
ATOM      6  C   UNL A   1      31.106  27.402  22.846  1.00  0.00     0.039 A 
ATOM      7  C   UNL A   1      31.594  24.656  22.663  1.00  0.00     0.041 A 
ATOM      8  C   UNL A   1      30.558  25.135  23.473  1.00  0.00     0.027 A 
ATOM      9  C   UNL A   1      32.473  25.561  22.074  1.00  0.00     0.027 A 
ATOM     10  C   UNL A   1      30.310  26.505  23.560  1.00  0.00     0.016 A 
ATOM     11  C   UNL A   1      32.237  26.934  22.171  1.00  0.00     0.016 A 
BRANCH   7  12
ATOM     12  N   UNL A   1      31.693  23.270  22.519  1.00  0.00    -0.324 N 
ATOM     13  C   UNL A   1      32.343  22.307  23.236  1.00  0.00     0.247 C 
ATOM     14  O   UNL A   1      32.006  21.138  23.001  1.00  0.00    -0.272 OA
ATOM     15  H   UNL A   1      31.195  22.917  21.746  1.00  0.00     0.170 HD
BRANCH  13  16
ATOM     16  C   UNL A   1      33.358  22.620  24.369  1.00  0.00     0.178 C 
ATOM     17  C   UNL A   1      32.628  22.752  25.713  1.00  0.00     0.042 C 
BRANCH  16  18
ATOM     18  N   UNL A   1      34.529  21.727  24.502  1.00  0.00    -0.280 N 
ATOM     19  C   UNL A   1      34.381  20.461  25.054  1.00  0.00     0.267 C 
ATOM     20  C   UNL A   1      35.832  22.150  24.319  1.00  0.00     0.149 C 
ATOM     21  O   UNL A   1      33.352  20.017  25.543  1.00  0.00    -0.268 OA
ATOM     22  C   UNL A   1      35.680  19.732  24.982  1.00  0.00     0.084 C 
ATOM     23  S   UNL A   1      36.948  20.902  24.851  1.00  0.00    -0.054 SA
ATOM     24  S   UNL A   1      36.380  23.588  23.672  1.00  0.00    -0.052 S 
ATOM     25  C   UNL A   1      35.939  18.429  24.811  1.00  0.00     0.068 C 
BRANCH  25  26
ATOM     26  C   UNL A   1      34.957  17.435  24.580  1.00  0.00     0.127 A 
ATOM     27  C   UNL A   1      34.667  16.334  25.382  1.00  0.00     0.050 A 
ATOM     28  O   UNL A   1      34.085  17.412  23.520  1.00  0.00    -0.465 OA
ATOM     29  C   UNL A   1      33.612  15.618  24.775  1.00  0.00     0.042 A 
ATOM     30  C   UNL A   1      33.282  16.328  23.650  1.00  0.00     0.195 A 
ENDBRANCH  25  26
ENDBRANCH  16  18
ENDBRANCH  13  16
ENDBRANCH   7  12
ENDBRANCH   3   6
ENDBRANCH   1   2
BRANCH   1  31
ATOM     31  C   UNL A   1      32.923  28.782  25.145  1.00  0.00     0.042 C 
BRANCH  31  32
ATOM     32  C   UNL A   1      33.717  28.837  26.443  1.00  0.00     0.118 C 
BRANCH  32  33
ATOM     33  N   UNL A   1      33.593  30.108  27.142  1.00  0.00    -0.352 N 
ATOM     34  C   UNL A   1      34.437  30.747  28.020  1.00  0.00     0.251 C 
ATOM     35  H   UNL A   1      32.758  30.594  26.954  1.00  0.00     0.163 HD
ATOM     36  O   UNL A   1      34.037  31.763  28.584  1.00  0.00    -0.269 OA
BRANCH  34  37
ATOM     37  C   UNL A   1      35.793  30.227  28.318  1.00  0.00     0.039 A 
ATOM     38  C   UNL A   1      36.767  30.288  27.315  1.00  0.00     0.014 A 
ATOM     39  C   UNL A   1      36.111  29.645  29.546  1.00  0.00     0.014 A 
ATOM     40  C   UNL A   1      38.069  29.843  27.570  1.00  0.00     0.010 A 
ATOM     41  C   UNL A   1      37.428  29.279  29.827  1.00  0.00     0.010 A 
ATOM     42  C   UNL A   1      38.423  29.375  28.844  1.00  0.00    -0.014 A 
BRANCH  42  43
ATOM     43  C   UNL A   1      39.821  28.987  29.174  1.00  0.00     0.031 A 
ATOM     44  C   UNL A   1      40.756  29.981  29.811  1.00  0.00     0.074 A 
ATOM     45  C   UNL A   1      40.276  27.766  28.832  1.00  0.00     0.049 A 
ATOM     46  N   UNL A   1      42.036  29.864  30.065  1.00  0.00    -0.248 NA
ATOM     47  C   UNL A   1      40.185  31.283  30.190  1.00  0.00     0.031 C 
ATOM     48  C   UNL A   1      39.488  26.714  28.185  1.00  0.00     0.029 A 
ATOM     49  N   UNL A   1      41.523  27.204  28.971  1.00  0.00    -0.354 N 
ATOM     50  C   UNL A   1      42.428  31.084  30.606  1.00  0.00     0.074 A 
ATOM     51  C   UNL A   1      41.258  31.938  30.609  1.00  0.00     0.031 C 
ATOM     52  C   UNL A   1      40.259  25.630  28.008  1.00  0.00     0.029 A 
ATOM     53  C   UNL A   1      41.607  25.921  28.484  1.00  0.00     0.049 A 
ATOM     54  H   UNL A   1      42.282  27.676  29.380  1.00  0.00     0.167 HD
ATOM     55  C   UNL A   1      43.643  31.458  31.073  1.00  0.00     0.031 A 
ATOM     56  C   UNL A   1      42.653  25.075  28.416  1.00  0.00     0.031 A 
ATOM     57  C   UNL A   1      44.802  30.606  31.092  1.00  0.00     0.049 A 
ATOM     58  C   UNL A   1      43.994  25.512  28.934  1.00  0.00     0.074 A 
ATOM     59  C   UNL A   1      46.065  30.881  31.589  1.00  0.00     0.029 A 
ATOM     60  N   UNL A   1      44.840  29.311  30.599  1.00  0.00    -0.354 N 
ATOM     61  N   UNL A   1      44.334  26.659  29.471  1.00  0.00    -0.248 NA
ATOM     62  C   UNL A   1      45.092  24.539  28.838  1.00  0.00     0.031 C 
ATOM     63  C   UNL A   1      46.876  29.762  31.364  1.00  0.00     0.029 A 
ATOM     64  C   UNL A   1      46.107  28.778  30.766  1.00  0.00     0.049 A 
ATOM     65  H   UNL A   1      44.079  28.839  30.190  1.00  0.00     0.167 HD
ATOM     66  C   UNL A   1      45.680  26.538  29.798  1.00  0.00     0.074 A 
ATOM     67  C   UNL A   1      46.089  25.204  29.407  1.00  0.00     0.031 C 
ATOM     68  C   UNL A   1      46.501  27.450  30.373  1.00  0.00     0.031 A 
BRANCH  55  69
ATOM     69  C   UNL A   1      43.778  32.863  31.596  1.00  0.00    -0.014 A 
ATOM     70  C   UNL A   1      44.133  33.923  30.742  1.00  0.00     0.010 A 
ATOM     71  C   UNL A   1      43.530  33.131  32.955  1.00  0.00     0.010 A 
ATOM     72  C   UNL A   1      44.291  35.216  31.248  1.00  0.00     0.020 A 
ATOM     73  C   UNL A   1      43.662  34.428  33.459  1.00  0.00     0.020 A 
ATOM     74  C   UNL A   1      44.064  35.458  32.606  1.00  0.00     0.054 A 
BRANCH  74  75
ATOM     75  S   UNL A   1      44.279  37.144  33.240  1.00  0.00     0.124 S 
ATOM     76  O   UNL A   1      43.038  37.343  33.984  1.00  0.00    -0.237 OA
ATOM     77  O   UNL A   1      45.487  37.032  34.054  1.00  0.00    -0.237 OA
ATOM     78  O   UNL A   1      44.419  37.953  32.031  1.00  0.00    -0.744 OA
ENDBRANCH  74  75
ENDBRANCH  55  69
BRANCH  56  79
ATOM     79  C   UNL A   1      42.465  23.713  27.848  1.00  0.00    -0.014 A 
ATOM     80  C   UNL A   1      42.536  23.512  26.458  1.00  0.00     0.010 A 
ATOM     81  C   UNL A   1      42.237  22.610  28.690  1.00  0.00     0.010 A 
ATOM     82  C   UNL A   1      42.376  22.233  25.919  1.00  0.00     0.020 A 
ATOM     83  C   UNL A   1      42.098  21.326  28.157  1.00  0.00     0.020 A 
ATOM     84  C   UNL A   1      42.159  21.148  26.772  1.00  0.00     0.054 A 
BRANCH  84  85
ATOM     85  S   UNL A   1      42.019  19.485  26.058  1.00  0.00     0.124 S 
ATOM     86  O   UNL A   1      42.491  18.645  27.154  1.00  0.00    -0.237 OA
ATOM     87  O   UNL A   1      40.593  19.388  25.753  1.00  0.00    -0.237 OA
ATOM     88  O   UNL A   1      42.894  19.543  24.890  1.00  0.00    -0.744 OA
ENDBRANCH  84  85
ENDBRANCH  56  79
BRANCH  68  89
ATOM     89  C   UNL A   1      47.920  27.030  30.642  1.00  0.00    -0.014 A 
ATOM     90  C   UNL A   1      48.940  27.279  29.708  1.00  0.00     0.010 A 
ATOM     91  C   UNL A   1      48.245  26.428  31.871  1.00  0.00     0.010 A 
ATOM     92  C   UNL A   1      50.259  26.915  29.990  1.00  0.00     0.020 A 
ATOM     93  C   UNL A   1      49.566  26.081  32.165  1.00  0.00     0.020 A 
ATOM     94  C   UNL A   1      50.563  26.317  31.216  1.00  0.00     0.054 A 
BRANCH  94  95
ATOM     95  S   UNL A   1      52.291  25.899  31.584  1.00  0.00     0.124 S 
ATOM     96  O   UNL A   1      52.931  26.089  30.286  1.00  0.00    -0.237 OA
ATOM     97  O   UNL A   1      52.647  26.877  32.609  1.00  0.00    -0.237 OA
ATOM     98  O   UNL A   1      52.221  24.516  32.050  1.00  0.00    -0.744 OA
ENDBRANCH  94  95
ENDBRANCH  68  89
ENDBRANCH  42  43
ENDBRANCH  34  37
ENDBRANCH  32  33
ENDBRANCH  31  32
ENDBRANCH   1  31
TORSDOF 17
ENDMDL
MODEL 2
REMARK VINA RESULT:     -11.4      2.627      3.185
REMARK SMILES C[C@H](C(=O)Nc1ccc(C(=O)NCCCNC(=O)c2ccc(-c3c4nc(c(-c5ccc(S(=O)(=O)[O-])cc5)c5ccc([nH]5)c(-c5ccc(S(=O)(=O)[O-])cc5)c5nc(c(-c6ccc(S(=O)(=O)[O-])cc6)c6ccc3[nH]6)C=C5)C=C4)cc2)cc1)N1C(=O)/C(=C\c2ccco2)SC1=S
REMARK SMILES IDX 13 1 12 2 10 3 11 4 9 6 6 7 7 8 80 9 8 10 79 11 5 12 3 13
REMARK SMILES IDX 4 14 2 16 1 17 81 18 82 19 92 20 83 21 84 22 91 23 93 24
REMARK SMILES IDX 85 25 86 26 87 27 90 28 88 29 89 30 14 31 15 32 16 33 17 34
REMARK SMILES IDX 18 36 19 37 20 38 78 39 21 40 77 41 22 42 23 43 24 44 71 45
REMARK SMILES IDX 25 46 76 47 70 48 72 49 26 50 75 51 69 52 68 53 27 55 57 56
REMARK SMILES IDX 38 57 56 58 39 59 42 60 55 61 73 62 40 63 41 64 54 66 74 67
REMARK SMILES IDX 43 68 28 69 29 70 37 71 30 72 36 73 31 74 32 75 33 76 34 77
REMARK SMILES IDX 35 78 58 79 59 80 67 81 60 82 66 83 61 84 62 85 63 86 64 87
REMARK SMILES IDX 65 88 44 89 45 90 53 91 46 92 52 93 47 94 48 95 49 96 50 97
REMARK SMILES IDX 51 98
REMARK H PARENT 12 5 5 15 16 35 72 54 42 65
REMARK Flexibility Score: inf
ROOT
ATOM      1  C   UNL A   1      31.706  29.686  25.012  1.00  0.00     0.118 C 
ENDROOT
BRANCH   1   2
ATOM      2  N   UNL A   1      31.021  29.698  23.728  1.00  0.00    -0.352 N 
ATOM      3  C   UNL A   1      30.561  28.651  22.965  1.00  0.00     0.251 C 
ATOM      4  O   UNL A   1      30.056  28.873  21.868  1.00  0.00    -0.269 OA
ATOM      5  H   UNL A   1      30.865  30.592  23.347  1.00  0.00     0.163 HD
BRANCH   3   6
ATOM      6  C   UNL A   1      30.730  27.253  23.421  1.00  0.00     0.039 A 
ATOM      7  C   UNL A   1      30.723  24.566  24.190  1.00  0.00     0.041 A 
ATOM      8  C   UNL A   1      30.116  25.532  25.001  1.00  0.00     0.027 A 
ATOM      9  C   UNL A   1      31.460  24.972  23.081  1.00  0.00     0.027 A 
ATOM     10  C   UNL A   1      30.114  26.873  24.615  1.00  0.00     0.016 A 
ATOM     11  C   UNL A   1      31.473  26.315  22.699  1.00  0.00     0.016 A 
BRANCH   7  12
ATOM     12  N   UNL A   1      30.565  23.232  24.573  1.00  0.00    -0.324 N 
ATOM     13  C   UNL A   1      31.250  22.427  25.437  1.00  0.00     0.247 C 
ATOM     14  O   UNL A   1      30.686  21.370  25.754  1.00  0.00    -0.272 OA
ATOM     15  H   UNL A   1      29.808  22.782  24.132  1.00  0.00     0.170 HD
BRANCH  13  16
ATOM     16  C   UNL A   1      32.597  22.830  26.098  1.00  0.00     0.178 C 
ATOM     17  C   UNL A   1      32.507  22.672  27.622  1.00  0.00     0.042 C 
BRANCH  16  18
ATOM     18  N   UNL A   1      33.827  22.191  25.583  1.00  0.00    -0.280 N 
ATOM     19  C   UNL A   1      34.046  20.834  25.788  1.00  0.00     0.267 C 
ATOM     20  C   UNL A   1      34.907  22.903  25.096  1.00  0.00     0.149 C 
ATOM     21  O   UNL A   1      33.335  20.094  26.453  1.00  0.00    -0.268 OA
ATOM     22  C   UNL A   1      35.297  20.421  25.090  1.00  0.00     0.084 C 
ATOM     23  S   UNL A   1      36.278  21.828  24.864  1.00  0.00    -0.054 SA
ATOM     24  S   UNL A   1      35.001  24.526  24.719  1.00  0.00    -0.052 S 
ATOM     25  C   UNL A   1      35.622  19.265  24.496  1.00  0.00     0.068 C 
BRANCH  25  26
ATOM     26  C   UNL A   1      34.748  18.161  24.346  1.00  0.00     0.127 A 
ATOM     27  C   UNL A   1      34.940  16.865  24.816  1.00  0.00     0.050 A 
ATOM     28  O   UNL A   1      33.523  18.198  23.730  1.00  0.00    -0.465 OA
ATOM     29  C   UNL A   1      33.813  16.096  24.450  1.00  0.00     0.042 A 
ATOM     30  C   UNL A   1      32.970  16.963  23.803  1.00  0.00     0.195 A 
ENDBRANCH  25  26
ENDBRANCH  16  18
ENDBRANCH  13  16
ENDBRANCH   7  12
ENDBRANCH   3   6
ENDBRANCH   1   2
BRANCH   1  31
ATOM     31  C   UNL A   1      33.125  29.140  24.951  1.00  0.00     0.042 C 
BRANCH  31  32
ATOM     32  C   UNL A   1      33.987  29.409  26.177  1.00  0.00     0.118 C 
BRANCH  32  33
ATOM     33  N   UNL A   1      33.786  30.734  26.745  1.00  0.00    -0.352 N 
ATOM     34  C   UNL A   1      34.458  31.406  27.738  1.00  0.00     0.251 C 
ATOM     35  H   UNL A   1      33.037  31.234  26.349  1.00  0.00     0.163 HD
ATOM     36  O   UNL A   1      34.002  32.478  28.133  1.00  0.00    -0.269 OA
BRANCH  34  37
ATOM     37  C   UNL A   1      35.690  30.861  28.355  1.00  0.00     0.039 A 
ATOM     38  C   UNL A   1      36.916  31.459  28.041  1.00  0.00     0.014 A 
ATOM     39  C   UNL A   1      35.668  29.750  29.201  1.00  0.00     0.014 A 
ATOM     40  C   UNL A   1      38.097  30.997  28.633  1.00  0.00     0.010 A 
ATOM     41  C   UNL A   1      36.832  29.345  29.855  1.00  0.00     0.010 A 
ATOM     42  C   UNL A   1      38.060  29.964  29.580  1.00  0.00    -0.014 A 
BRANCH  42  43
ATOM     43  C   UNL A   1      39.284  29.518  30.299  1.00  0.00     0.031 A 
ATOM     44  C   UNL A   1      39.729  30.221  31.554  1.00  0.00     0.074 A 
ATOM     45  C   UNL A   1      40.040  28.528  29.784  1.00  0.00     0.049 A 
ATOM     46  N   UNL A   1      40.825  30.052  32.250  1.00  0.00    -0.248 NA
ATOM     47  C   UNL A   1      38.839  31.268  32.079  1.00  0.00     0.031 C 
ATOM     48  C   UNL A   1      39.743  27.778  28.561  1.00  0.00     0.029 A 
ATOM     49  N   UNL A   1      41.226  27.989  30.220  1.00  0.00    -0.354 N 
ATOM     50  C   UNL A   1      40.769  30.987  33.278  1.00  0.00     0.074 A 
ATOM     51  C   UNL A   1      39.550  31.745  33.091  1.00  0.00     0.031 C 
ATOM     52  C   UNL A   1      40.703  26.862  28.360  1.00  0.00     0.029 A 
ATOM     53  C   UNL A   1      41.708  26.987  29.411  1.00  0.00     0.049 A 
ATOM     54  H   UNL A   1      41.687  28.291  31.035  1.00  0.00     0.167 HD
ATOM     55  C   UNL A   1      41.642  31.189  34.294  1.00  0.00     0.031 A 
ATOM     56  C   UNL A   1      42.837  26.257  29.495  1.00  0.00     0.031 A 
ATOM     57  C   UNL A   1      42.843  30.424  34.496  1.00  0.00     0.049 A 
ATOM     58  C   UNL A   1      43.795  26.502  30.626  1.00  0.00     0.074 A 
ATOM     59  C   UNL A   1      43.766  30.524  35.523  1.00  0.00     0.029 A 
ATOM     60  N   UNL A   1      43.287  29.413  33.658  1.00  0.00    -0.354 N 
ATOM     61  N   UNL A   1      43.707  27.370  31.605  1.00  0.00    -0.248 NA
ATOM     62  C   UNL A   1      45.004  25.668  30.665  1.00  0.00     0.031 C 
ATOM     63  C   UNL A   1      44.787  29.596  35.287  1.00  0.00     0.029 A 
ATOM     64  C   UNL A   1      44.477  28.890  34.137  1.00  0.00     0.049 A 
ATOM     65  H   UNL A   1      42.825  29.110  32.843  1.00  0.00     0.167 HD
ATOM     66  C   UNL A   1      44.837  27.170  32.389  1.00  0.00     0.074 A 
ATOM     67  C   UNL A   1      45.589  26.094  31.777  1.00  0.00     0.031 C 
ATOM     68  C   UNL A   1      45.215  27.820  33.517  1.00  0.00     0.031 A 
BRANCH  55  69
ATOM     69  C   UNL A   1      41.326  32.296  35.264  1.00  0.00    -0.014 A 
ATOM     70  C   UNL A   1      41.752  33.614  35.023  1.00  0.00     0.010 A 
ATOM     71  C   UNL A   1      40.578  32.018  36.423  1.00  0.00     0.010 A 
ATOM     72  C   UNL A   1      41.484  34.625  35.950  1.00  0.00     0.020 A 
ATOM     73  C   UNL A   1      40.286  33.032  37.340  1.00  0.00     0.020 A 
ATOM     74  C   UNL A   1      40.761  34.324  37.108  1.00  0.00     0.054 A 
BRANCH  74  75
ATOM     75  S   UNL A   1      40.428  35.653  38.299  1.00  0.00     0.124 S 
ATOM     76  O   UNL A   1      39.810  36.667  37.448  1.00  0.00    -0.237 OA
ATOM     77  O   UNL A   1      39.533  35.010  39.259  1.00  0.00    -0.237 OA
ATOM     78  O   UNL A   1      41.751  35.993  38.816  1.00  0.00    -0.744 OA
ENDBRANCH  74  75
ENDBRANCH  55  69
BRANCH  56  79
ATOM     79  C   UNL A   1      43.114  25.207  28.479  1.00  0.00    -0.014 A 
ATOM     80  C   UNL A   1      42.794  23.865  28.744  1.00  0.00     0.010 A 
ATOM     81  C   UNL A   1      43.676  25.545  27.234  1.00  0.00     0.010 A 
ATOM     82  C   UNL A   1      43.037  22.876  27.788  1.00  0.00     0.020 A 
ATOM     83  C   UNL A   1      43.901  24.563  26.266  1.00  0.00     0.020 A 
ATOM     84  C   UNL A   1      43.588  23.232  26.553  1.00  0.00     0.054 A 
BRANCH  84  85
ATOM     85  S   UNL A   1      43.835  21.944  25.299  1.00  0.00     0.124 S 
ATOM     86  O   UNL A   1      43.601  22.679  24.061  1.00  0.00    -0.237 OA
ATOM     87  O   UNL A   1      45.216  21.527  25.538  1.00  0.00    -0.237 OA
ATOM     88  O   UNL A   1      42.825  20.943  25.636  1.00  0.00    -0.744 OA
ENDBRANCH  84  85
ENDBRANCH  56  79
BRANCH  68  89
ATOM     89  C   UNL A   1      46.487  27.367  34.182  1.00  0.00    -0.014 A 
ATOM     90  C   UNL A   1      47.689  28.073  34.005  1.00  0.00     0.010 A 
ATOM     91  C   UNL A   1      46.463  26.253  35.040  1.00  0.00     0.010 A 
ATOM     92  C   UNL A   1      48.852  27.659  34.659  1.00  0.00     0.020 A 
ATOM     93  C   UNL A   1      47.619  25.849  35.712  1.00  0.00     0.020 A 
ATOM     94  C   UNL A   1      48.810  26.549  35.507  1.00  0.00     0.054 A 
BRANCH  94  95
ATOM     95  S   UNL A   1      50.320  26.060  36.388  1.00  0.00     0.124 S 
ATOM     96  O   UNL A   1      50.900  27.354  36.735  1.00  0.00    -0.237 OA
ATOM     97  O   UNL A   1      49.801  25.284  37.511  1.00  0.00    -0.237 OA
ATOM     98  O   UNL A   1      51.064  25.288  35.397  1.00  0.00    -0.744 OA
ENDBRANCH  94  95
ENDBRANCH  68  89
ENDBRANCH  42  43
ENDBRANCH  34  37
ENDBRANCH  32  33
ENDBRANCH  31  32
ENDBRANCH   1  31
TORSDOF 17
ENDMDL
MODEL 3
REMARK VINA RESULT:     -11.3      2.759      3.493
REMARK SMILES C[C@H](C(=O)Nc1ccc(C(=O)NCCCNC(=O)c2ccc(-c3c4nc(c(-c5ccc(S(=O)(=O)[O-])cc5)c5ccc([nH]5)c(-c5ccc(S(=O)(=O)[O-])cc5)c5nc(c(-c6ccc(S(=O)(=O)[O-])cc6)c6ccc3[nH]6)C=C5)C=C4)cc2)cc1)N1C(=O)/C(=C\c2ccco2)SC1=S
REMARK SMILES IDX 13 1 12 2 10 3 11 4 9 6 6 7 7 8 80 9 8 10 79 11 5 12 3 13
REMARK SMILES IDX 4 14 2 16 1 17 81 18 82 19 92 20 83 21 84 22 91 23 93 24
REMARK SMILES IDX 85 25 86 26 87 27 90 28 88 29 89 30 14 31 15 32 16 33 17 34
REMARK SMILES IDX 18 36 19 37 20 38 78 39 21 40 77 41 22 42 23 43 24 44 71 45
REMARK SMILES IDX 25 46 76 47 70 48 72 49 26 50 75 51 69 52 68 53 27 55 57 56
REMARK SMILES IDX 38 57 56 58 39 59 42 60 55 61 73 62 40 63 41 64 54 66 74 67
REMARK SMILES IDX 43 68 28 69 29 70 37 71 30 72 36 73 31 74 32 75 33 76 34 77
REMARK SMILES IDX 35 78 58 79 59 80 67 81 60 82 66 83 61 84 62 85 63 86 64 87
REMARK SMILES IDX 65 88 44 89 45 90 53 91 46 92 52 93 47 94 48 95 49 96 50 97
REMARK SMILES IDX 51 98
REMARK H PARENT 12 5 5 15 16 35 72 54 42 65
REMARK Flexibility Score: inf
ROOT
ATOM      1  C   UNL A   1      33.210  29.053  27.427  1.00  0.00     0.118 C 
ENDROOT
BRANCH   1   2
ATOM      2  N   UNL A   1      32.303  29.770  26.543  1.00  0.00    -0.352 N 
ATOM      3  C   UNL A   1      31.679  29.350  25.392  1.00  0.00     0.251 C 
ATOM      4  O   UNL A   1      30.989  30.138  24.751  1.00  0.00    -0.269 OA
ATOM      5  H   UNL A   1      32.107  30.697  26.810  1.00  0.00     0.163 HD
BRANCH   3   6
ATOM      6  C   UNL A   1      31.888  27.977  24.878  1.00  0.00     0.039 A 
ATOM      7  C   UNL A   1      32.013  25.445  23.702  1.00  0.00     0.041 A 
ATOM      8  C   UNL A   1      31.039  25.726  24.667  1.00  0.00     0.027 A 
ATOM      9  C   UNL A   1      33.010  26.383  23.446  1.00  0.00     0.027 A 
ATOM     10  C   UNL A   1      30.972  26.992  25.251  1.00  0.00     0.016 A 
ATOM     11  C   UNL A   1      32.955  27.646  24.039  1.00  0.00     0.016 A 
BRANCH   7  12
ATOM     12  N   UNL A   1      31.931  24.205  23.065  1.00  0.00    -0.324 N 
ATOM     13  C   UNL A   1      32.181  22.929  23.483  1.00  0.00     0.247 C 
ATOM     14  O   UNL A   1      31.749  22.026  22.752  1.00  0.00    -0.272 OA
ATOM     15  H   UNL A   1      31.633  24.261  22.128  1.00  0.00     0.170 HD
BRANCH  13  16
ATOM     16  C   UNL A   1      32.854  22.588  24.840  1.00  0.00     0.178 C 
ATOM     17  C   UNL A   1      31.836  21.939  25.788  1.00  0.00     0.042 C 
BRANCH  16  18
ATOM     18  N   UNL A   1      34.103  21.798  24.803  1.00  0.00    -0.280 N 
ATOM     19  C   UNL A   1      34.115  20.489  25.269  1.00  0.00     0.267 C 
ATOM     20  C   UNL A   1      35.344  22.348  24.538  1.00  0.00     0.149 C 
ATOM     21  O   UNL A   1      33.177  19.923  25.811  1.00  0.00    -0.268 OA
ATOM     22  C   UNL A   1      35.458  19.887  25.029  1.00  0.00     0.084 C 
ATOM     23  S   UNL A   1      36.606  21.173  24.876  1.00  0.00    -0.054 SA
ATOM     24  S   UNL A   1      35.706  23.870  23.956  1.00  0.00    -0.052 S 
ATOM     25  C   UNL A   1      35.808  18.627  24.739  1.00  0.00     0.068 C 
BRANCH  25  26
ATOM     26  C   UNL A   1      34.895  17.567  24.520  1.00  0.00     0.127 A 
ATOM     27  C   UNL A   1      34.013  17.423  23.453  1.00  0.00     0.050 A 
ATOM     28  O   UNL A   1      34.752  16.464  25.324  1.00  0.00    -0.465 OA
ATOM     29  C   UNL A   1      33.303  16.215  23.634  1.00  0.00     0.042 A 
ATOM     30  C   UNL A   1      33.805  15.660  24.782  1.00  0.00     0.195 A 
ENDBRANCH  25  26
ENDBRANCH  16  18
ENDBRANCH  13  16
ENDBRANCH   7  12
ENDBRANCH   3   6
ENDBRANCH   1   2
BRANCH   1  31
ATOM     31  C   UNL A   1      34.673  29.141  27.015  1.00  0.00     0.042 C 
BRANCH  31  32
ATOM     32  C   UNL A   1      35.471  30.266  27.659  1.00  0.00     0.118 C 
BRANCH  32  33
ATOM     33  N   UNL A   1      35.416  30.255  29.113  1.00  0.00    -0.352 N 
ATOM     34  C   UNL A   1      36.373  29.966  30.056  1.00  0.00     0.251 C 
ATOM     35  H   UNL A   1      34.537  30.496  29.486  1.00  0.00     0.163 HD
ATOM     36  O   UNL A   1      36.034  29.896  31.236  1.00  0.00    -0.269 OA
BRANCH  34  37
ATOM     37  C   UNL A   1      37.785  29.710  29.683  1.00  0.00     0.039 A 
ATOM     38  C   UNL A   1      38.707  29.441  30.701  1.00  0.00     0.014 A 
ATOM     39  C   UNL A   1      38.225  29.769  28.359  1.00  0.00     0.014 A 
ATOM     40  C   UNL A   1      40.041  29.157  30.385  1.00  0.00     0.010 A 
ATOM     41  C   UNL A   1      39.533  29.404  28.039  1.00  0.00     0.010 A 
ATOM     42  C   UNL A   1      40.456  29.092  29.047  1.00  0.00    -0.014 A 
BRANCH  42  43
ATOM     43  C   UNL A   1      41.842  28.696  28.677  1.00  0.00     0.031 A 
ATOM     44  C   UNL A   1      42.940  29.726  28.627  1.00  0.00     0.074 A 
ATOM     45  C   UNL A   1      42.101  27.425  28.312  1.00  0.00     0.049 A 
ATOM     46  N   UNL A   1      44.176  29.593  28.217  1.00  0.00    -0.248 NA
ATOM     47  C   UNL A   1      42.596  31.085  29.072  1.00  0.00     0.031 C 
ATOM     48  C   UNL A   1      41.126  26.331  28.288  1.00  0.00     0.029 A 
ATOM     49  N   UNL A   1      43.265  26.838  27.877  1.00  0.00    -0.354 N 
ATOM     50  C   UNL A   1      44.750  30.856  28.329  1.00  0.00     0.074 A 
ATOM     51  C   UNL A   1      43.714  31.746  28.809  1.00  0.00     0.031 C 
ATOM     52  C   UNL A   1      41.737  25.205  27.888  1.00  0.00     0.029 A 
ATOM     53  C   UNL A   1      43.132  25.502  27.582  1.00  0.00     0.049 A 
ATOM     54  H   UNL A   1      44.113  27.329  27.786  1.00  0.00     0.167 HD
ATOM     55  C   UNL A   1      46.023  31.239  28.071  1.00  0.00     0.031 A 
ATOM     56  C   UNL A   1      44.028  24.615  27.107  1.00  0.00     0.031 A 
ATOM     57  C   UNL A   1      47.060  30.352  27.614  1.00  0.00     0.049 A 
ATOM     58  C   UNL A   1      45.434  25.062  26.821  1.00  0.00     0.074 A 
ATOM     59  C   UNL A   1      48.393  30.639  27.371  1.00  0.00     0.029 A 
ATOM     60  N   UNL A   1      46.885  29.005  27.338  1.00  0.00    -0.354 N 
ATOM     61  N   UNL A   1      45.963  26.254  26.964  1.00  0.00    -0.248 NA
ATOM     62  C   UNL A   1      46.364  24.045  26.313  1.00  0.00     0.031 C 
ATOM     63  C   UNL A   1      49.015  29.472  26.914  1.00  0.00     0.029 A 
ATOM     64  C   UNL A   1      48.081  28.450  26.913  1.00  0.00     0.049 A 
ATOM     65  H   UNL A   1      46.037  28.515  27.430  1.00  0.00     0.167 HD
ATOM     66  C   UNL A   1      47.294  26.124  26.584  1.00  0.00     0.074 A 
ATOM     67  C   UNL A   1      47.492  24.737  26.215  1.00  0.00     0.031 C 
ATOM     68  C   UNL A   1      48.264  27.069  26.548  1.00  0.00     0.031 A 
BRANCH  55  69
ATOM     69  C   UNL A   1      46.360  32.692  28.271  1.00  0.00    -0.014 A 
ATOM     70  C   UNL A   1      46.215  33.620  27.225  1.00  0.00     0.010 A 
ATOM     71  C   UNL A   1      46.809  33.139  29.527  1.00  0.00     0.010 A 
ATOM     72  C   UNL A   1      46.566  34.960  27.414  1.00  0.00     0.020 A 
ATOM     73  C   UNL A   1      47.137  34.483  29.727  1.00  0.00     0.020 A 
ATOM     74  C   UNL A   1      47.034  35.380  28.662  1.00  0.00     0.054 A 
BRANCH  74  75
ATOM     75  S   UNL A   1      47.487  37.124  28.883  1.00  0.00     0.124 S 
ATOM     76  O   UNL A   1      48.242  37.392  27.661  1.00  0.00    -0.237 OA
ATOM     77  O   UNL A   1      46.189  37.786  28.976  1.00  0.00    -0.237 OA
ATOM     78  O   UNL A   1      48.273  37.123  30.114  1.00  0.00    -0.744 OA
ENDBRANCH  74  75
ENDBRANCH  55  69
BRANCH  56  79
ATOM     79  C   UNL A   1      43.621  23.201  26.888  1.00  0.00    -0.014 A 
ATOM     80  C   UNL A   1      43.255  22.394  27.979  1.00  0.00     0.010 A 
ATOM     81  C   UNL A   1      43.576  22.662  25.589  1.00  0.00     0.010 A 
ATOM     82  C   UNL A   1      42.857  21.070  27.778  1.00  0.00     0.020 A 
ATOM     83  C   UNL A   1      43.157  21.345  25.382  1.00  0.00     0.020 A 
ATOM     84  C   UNL A   1      42.809  20.554  26.479  1.00  0.00     0.054 A 
BRANCH  84  85
ATOM     85  S   UNL A   1      42.227  18.854  26.232  1.00  0.00     0.124 S 
ATOM     86  O   UNL A   1      40.838  19.064  25.835  1.00  0.00    -0.237 OA
ATOM     87  O   UNL A   1      43.118  18.360  25.184  1.00  0.00    -0.237 OA
ATOM     88  O   UNL A   1      42.418  18.235  27.542  1.00  0.00    -0.744 OA
ENDBRANCH  84  85
ENDBRANCH  56  79
BRANCH  68  89
ATOM     89  C   UNL A   1      49.638  26.633  26.120  1.00  0.00    -0.014 A 
ATOM     90  C   UNL A   1      50.059  26.765  24.786  1.00  0.00     0.010 A 
ATOM     91  C   UNL A   1      50.539  26.136  27.079  1.00  0.00     0.010 A 
ATOM     92  C   UNL A   1      51.352  26.389  24.413  1.00  0.00     0.020 A 
ATOM     93  C   UNL A   1      51.839  25.777  26.715  1.00  0.00     0.020 A 
ATOM     94  C   UNL A   1      52.233  25.895  25.380  1.00  0.00     0.054 A 
BRANCH  94  95
ATOM     95  S   UNL A   1      53.924  25.462  24.885  1.00  0.00     0.124 S 
ATOM     96  O   UNL A   1      53.839  24.010  24.755  1.00  0.00    -0.237 OA
ATOM     97  O   UNL A   1      54.092  26.195  23.633  1.00  0.00    -0.237 OA
ATOM     98  O   UNL A   1      54.743  25.943  25.995  1.00  0.00    -0.744 OA
ENDBRANCH  94  95
ENDBRANCH  68  89
ENDBRANCH  42  43
ENDBRANCH  34  37
ENDBRANCH  32  33
ENDBRANCH  31  32
ENDBRANCH   1  31
TORSDOF 17
ENDMDL
