MODEL 1
REMARK VINA RESULT:     -10.3      0.000      0.000
REMARK SMILES CN(C)c1oc(/C=N/c2ccc(O)c(C(=O)NCCCNC(=O)c3ccc(-c4c5nc(c(-c6ccc(S(=O)(=O)[O-])cc6)c6ccc([nH]6)c(-c6ccc(S(=O)(=O)[O-])cc6)c6nc(c(-c7ccc(S(=O)(=O)[O-])cc7)c7ccc4[nH]7)C=C6)C=C5)cc3)c2)cc1Br
REMARK SMILES IDX 19 1 18 2 17 3 15 4 16 5 14 7 9 8 10 9 84 10 11 11 12 12
REMARK SMILES IDX 8 13 7 14 6 15 4 16 5 17 86 18 85 19 87 20 2 21 1 22 3 23
REMARK SMILES IDX 13 24 20 26 21 27 22 28 23 30 24 31 25 32 83 33 26 34 82 35
REMARK SMILES IDX 27 36 28 37 29 38 76 39 30 40 81 41 75 42 77 43 31 44 80 45
REMARK SMILES IDX 74 46 73 47 32 49 62 50 43 51 61 52 44 53 47 54 60 55 78 56
REMARK SMILES IDX 45 57 46 58 59 60 79 61 48 62 33 63 34 64 42 65 35 66 41 67
REMARK SMILES IDX 36 68 37 69 38 70 39 71 40 72 63 73 64 74 72 75 65 76 71 77
REMARK SMILES IDX 66 78 67 79 68 80 69 81 70 82 49 83 50 84 58 85 51 86 57 87
REMARK SMILES IDX 52 88 53 89 54 90 55 91 56 92
REMARK H PARENT 17 6 13 25 21 29 77 48 47 59
REMARK Flexibility Score: inf
ROOT
ATOM      1  C   UNL A   1      40.923  21.480  27.671  1.00  0.00     0.042 C 
ENDROOT
BRANCH   1   2
ATOM      2  C   UNL A   1      41.019  21.094  26.192  1.00  0.00     0.118 C 
BRANCH   2   3
ATOM      3  N   UNL A   1      41.996  20.044  25.988  1.00  0.00    -0.352 N 
ATOM      4  C   UNL A   1      43.310  20.049  25.603  1.00  0.00     0.255 C 
ATOM      5  O   UNL A   1      43.851  18.940  25.545  1.00  0.00    -0.269 OA
ATOM      6  H   UNL A   1      41.643  19.141  26.162  1.00  0.00     0.163 HD
BRANCH   4   7
ATOM      7  C   UNL A   1      44.144  21.260  25.322  1.00  0.00     0.083 A 
ATOM      8  C   UNL A   1      45.206  23.202  26.402  1.00  0.00     0.064 A 
ATOM      9  C   UNL A   1      45.815  23.538  25.195  1.00  0.00     0.032 A 
ATOM     10  C   UNL A   1      44.365  22.086  26.446  1.00  0.00     0.046 A 
ATOM     11  C   UNL A   1      45.617  22.743  24.068  1.00  0.00     0.049 A 
ATOM     12  C   UNL A   1      44.821  21.591  24.141  1.00  0.00     0.128 A 
BRANCH   8  13
ATOM     13  N   UNL A   1      45.563  23.816  27.605  1.00  0.00    -0.253 NA
ATOM     14  C   UNL A   1      44.684  24.473  28.287  1.00  0.00     0.158 C 
BRANCH  14  15
ATOM     15  C   UNL A   1      45.120  25.194  29.449  1.00  0.00     0.149 A 
ATOM     16  C   UNL A   1      45.466  25.497  31.610  1.00  0.00     0.210 A 
ATOM     17  O   UNL A   1      45.123  24.567  30.660  1.00  0.00    -0.438 OA
ATOM     18  C   UNL A   1      45.722  26.697  30.976  1.00  0.00     0.082 A 
ATOM     19  C   UNL A   1      45.519  26.507  29.598  1.00  0.00     0.070 A 
ATOM     20  Br  UNL A   1      46.277  28.343  31.682  1.00  0.00    -0.045 Br
BRANCH  16  21
ATOM     21  N   UNL A   1      45.453  25.075  32.902  1.00  0.00    -0.348 N 
ATOM     22  C   UNL A   1      44.371  24.257  33.413  1.00  0.00     0.146 C 
ATOM     23  C   UNL A   1      46.574  25.377  33.773  1.00  0.00     0.146 C 
ENDBRANCH  16  21
ENDBRANCH  14  15
ENDBRANCH   8  13
BRANCH  12  24
ATOM     24  O   UNL A   1      44.812  20.783  23.045  1.00  0.00    -0.507 OA
ATOM     25  H   UNL A   1      44.974  21.144  22.195  1.00  0.00     0.293 HD
ENDBRANCH  12  24
ENDBRANCH   4   7
ENDBRANCH   2   3
ENDBRANCH   1   2
BRANCH   1  26
ATOM     26  C   UNL A   1      41.191  22.958  27.946  1.00  0.00     0.118 C 
BRANCH  26  27
ATOM     27  N   UNL A   1      41.266  23.735  26.719  1.00  0.00    -0.352 N 
ATOM     28  C   UNL A   1      41.033  25.070  26.500  1.00  0.00     0.251 C 
ATOM     29  H   UNL A   1      41.526  23.223  25.919  1.00  0.00     0.163 HD
ATOM     30  O   UNL A   1      40.932  25.474  25.344  1.00  0.00    -0.269 OA
BRANCH  28  31
ATOM     31  C   UNL A   1      40.893  26.023  27.628  1.00  0.00     0.039 A 
ATOM     32  C   UNL A   1      41.950  26.900  27.897  1.00  0.00     0.014 A 
ATOM     33  C   UNL A   1      39.770  26.020  28.460  1.00  0.00     0.014 A 
ATOM     34  C   UNL A   1      41.863  27.799  28.964  1.00  0.00     0.010 A 
ATOM     35  C   UNL A   1      39.658  26.958  29.489  1.00  0.00     0.010 A 
ATOM     36  C   UNL A   1      40.705  27.853  29.755  1.00  0.00    -0.014 A 
BRANCH  36  37
ATOM     37  C   UNL A   1      40.577  28.838  30.861  1.00  0.00     0.031 A 
ATOM     38  C   UNL A   1      41.441  28.724  32.089  1.00  0.00     0.074 A 
ATOM     39  C   UNL A   1      39.645  29.808  30.782  1.00  0.00     0.049 A 
ATOM     40  N   UNL A   1      41.433  29.458  33.173  1.00  0.00    -0.248 NA
ATOM     41  C   UNL A   1      42.428  27.632  32.111  1.00  0.00     0.031 C 
ATOM     42  C   UNL A   1      38.722  30.007  29.663  1.00  0.00     0.029 A 
ATOM     43  N   UNL A   1      39.315  30.807  31.665  1.00  0.00    -0.354 N 
ATOM     44  C   UNL A   1      42.397  28.909  34.011  1.00  0.00     0.074 A 
ATOM     45  C   UNL A   1      42.945  27.757  33.325  1.00  0.00     0.031 C 
ATOM     46  C   UNL A   1      37.944  31.072  29.918  1.00  0.00     0.029 A 
ATOM     47  C   UNL A   1      38.286  31.610  31.230  1.00  0.00     0.049 A 
ATOM     48  H   UNL A   1      39.770  30.935  32.528  1.00  0.00     0.167 HD
ATOM     49  C   UNL A   1      42.802  29.331  35.234  1.00  0.00     0.031 A 
ATOM     50  C   UNL A   1      37.681  32.657  31.823  1.00  0.00     0.031 A 
ATOM     51  C   UNL A   1      42.267  30.483  35.910  1.00  0.00     0.049 A 
ATOM     52  C   UNL A   1      38.148  33.107  33.179  1.00  0.00     0.074 A 
ATOM     53  C   UNL A   1      42.648  31.020  37.128  1.00  0.00     0.029 A 
ATOM     54  N   UNL A   1      41.238  31.277  35.429  1.00  0.00    -0.354 N 
ATOM     55  N   UNL A   1      39.100  32.606  33.930  1.00  0.00    -0.248 NA
ATOM     56  C   UNL A   1      37.466  34.271  33.763  1.00  0.00     0.031 C 
ATOM     57  C   UNL A   1      41.821  32.115  37.401  1.00  0.00     0.029 A 
ATOM     58  C   UNL A   1      40.958  32.289  36.332  1.00  0.00     0.049 A 
ATOM     59  H   UNL A   1      40.774  31.142  34.571  1.00  0.00     0.167 HD
ATOM     60  C   UNL A   1      39.145  33.407  35.065  1.00  0.00     0.074 A 
ATOM     61  C   UNL A   1      38.137  34.434  34.895  1.00  0.00     0.031 C 
ATOM     62  C   UNL A   1      39.950  33.302  36.150  1.00  0.00     0.031 A 
BRANCH  49  63
ATOM     63  C   UNL A   1      43.879  28.535  35.924  1.00  0.00    -0.014 A 
ATOM     64  C   UNL A   1      43.555  27.444  36.750  1.00  0.00     0.010 A 
ATOM     65  C   UNL A   1      45.233  28.853  35.708  1.00  0.00     0.010 A 
ATOM     66  C   UNL A   1      44.564  26.710  37.381  1.00  0.00     0.020 A 
ATOM     67  C   UNL A   1      46.246  28.106  36.318  1.00  0.00     0.020 A 
ATOM     68  C   UNL A   1      45.904  27.050  37.165  1.00  0.00     0.054 A 
BRANCH  68  69
ATOM     69  S   UNL A   1      47.194  26.068  37.978  1.00  0.00     0.124 S 
ATOM     70  O   UNL A   1      46.404  25.062  38.684  1.00  0.00    -0.237 OA
ATOM     71  O   UNL A   1      47.979  25.570  36.851  1.00  0.00    -0.237 OA
ATOM     72  O   UNL A   1      47.879  27.034  38.832  1.00  0.00    -0.744 OA
ENDBRANCH  68  69
ENDBRANCH  49  63
BRANCH  50  73
ATOM     73  C   UNL A   1      36.569  33.361  31.128  1.00  0.00    -0.014 A 
ATOM     74  C   UNL A   1      36.761  33.906  29.847  1.00  0.00     0.010 A 
ATOM     75  C   UNL A   1      35.308  33.478  31.741  1.00  0.00     0.010 A 
ATOM     76  C   UNL A   1      35.718  34.570  29.196  1.00  0.00     0.020 A 
ATOM     77  C   UNL A   1      34.255  34.121  31.082  1.00  0.00     0.020 A 
ATOM     78  C   UNL A   1      34.471  34.673  29.819  1.00  0.00     0.054 A 
BRANCH  78  79
ATOM     79  S   UNL A   1      33.113  35.489  28.935  1.00  0.00     0.124 S 
ATOM     80  O   UNL A   1      33.820  36.508  28.166  1.00  0.00    -0.237 OA
ATOM     81  O   UNL A   1      32.535  34.396  28.157  1.00  0.00    -0.237 OA
ATOM     82  O   UNL A   1      32.261  35.993  30.010  1.00  0.00    -0.744 OA
ENDBRANCH  78  79
ENDBRANCH  50  73
BRANCH  62  83
ATOM     83  C   UNL A   1      39.793  34.340  37.228  1.00  0.00    -0.014 A 
ATOM     84  C   UNL A   1      39.005  34.091  38.365  1.00  0.00     0.010 A 
ATOM     85  C   UNL A   1      40.480  35.563  37.121  1.00  0.00     0.010 A 
ATOM     86  C   UNL A   1      38.880  35.062  39.364  1.00  0.00     0.020 A 
ATOM     87  C   UNL A   1      40.377  36.526  38.128  1.00  0.00     0.020 A 
ATOM     88  C   UNL A   1      39.565  36.275  39.236  1.00  0.00     0.054 A 
BRANCH  88  89
ATOM     89  S   UNL A   1      39.421  37.505  40.561  1.00  0.00     0.124 S 
ATOM     90  O   UNL A   1      40.759  38.089  40.579  1.00  0.00    -0.237 OA
ATOM     91  O   UNL A   1      38.359  38.383  40.073  1.00  0.00    -0.237 OA
ATOM     92  O   UNL A   1      39.071  36.709  41.736  1.00  0.00    -0.744 OA
ENDBRANCH  88  89
ENDBRANCH  62  83
ENDBRANCH  36  37
ENDBRANCH  28  31
ENDBRANCH  26  27
ENDBRANCH   1  26
TORSDOF 17
ENDMDL
MODEL 2
REMARK VINA RESULT:     -10.3      2.796      5.017
REMARK SMILES CN(C)c1oc(/C=N/c2ccc(O)c(C(=O)NCCCNC(=O)c3ccc(-c4c5nc(c(-c6ccc(S(=O)(=O)[O-])cc6)c6ccc([nH]6)c(-c6ccc(S(=O)(=O)[O-])cc6)c6nc(c(-c7ccc(S(=O)(=O)[O-])cc7)c7ccc4[nH]7)C=C6)C=C5)cc3)c2)cc1Br
REMARK SMILES IDX 19 1 18 2 17 3 15 4 16 5 14 7 9 8 10 9 84 10 11 11 12 12
REMARK SMILES IDX 8 13 7 14 6 15 4 16 5 17 86 18 85 19 87 20 2 21 1 22 3 23
REMARK SMILES IDX 13 24 20 26 21 27 22 28 23 30 24 31 25 32 83 33 26 34 82 35
REMARK SMILES IDX 27 36 28 37 29 38 76 39 30 40 81 41 75 42 77 43 31 44 80 45
REMARK SMILES IDX 74 46 73 47 32 49 62 50 43 51 61 52 44 53 47 54 60 55 78 56
REMARK SMILES IDX 45 57 46 58 59 60 79 61 48 62 33 63 34 64 42 65 35 66 41 67
REMARK SMILES IDX 36 68 37 69 38 70 39 71 40 72 63 73 64 74 72 75 65 76 71 77
REMARK SMILES IDX 66 78 67 79 68 80 69 81 70 82 49 83 50 84 58 85 51 86 57 87
REMARK SMILES IDX 52 88 53 89 54 90 55 91 56 92
REMARK H PARENT 17 6 13 25 21 29 77 48 47 59
REMARK Flexibility Score: inf
ROOT
ATOM      1  C   UNL A   1      44.410  24.517  25.107  1.00  0.00     0.042 C 
ENDROOT
BRANCH   1   2
ATOM      2  C   UNL A   1      44.598  23.133  25.737  1.00  0.00     0.118 C 
BRANCH   2   3
ATOM      3  N   UNL A   1      44.152  23.121  27.114  1.00  0.00    -0.352 N 
ATOM      4  C   UNL A   1      43.128  22.482  27.761  1.00  0.00     0.255 C 
ATOM      5  O   UNL A   1      43.050  22.699  28.975  1.00  0.00    -0.269 OA
ATOM      6  H   UNL A   1      44.697  23.686  27.708  1.00  0.00     0.163 HD
BRANCH   4   7
ATOM      7  C   UNL A   1      42.162  21.515  27.151  1.00  0.00     0.083 A 
ATOM      8  C   UNL A   1      39.801  21.250  26.504  1.00  0.00     0.064 A 
ATOM      9  C   UNL A   1      40.101  20.021  25.920  1.00  0.00     0.032 A 
ATOM     10  C   UNL A   1      40.824  21.968  27.128  1.00  0.00     0.046 A 
ATOM     11  C   UNL A   1      41.411  19.546  25.926  1.00  0.00     0.049 A 
ATOM     12  C   UNL A   1      42.440  20.306  26.501  1.00  0.00     0.128 A 
BRANCH   8  13
ATOM     13  N   UNL A   1      38.568  21.877  26.310  1.00  0.00    -0.253 NA
ATOM     14  C   UNL A   1      37.873  21.634  25.248  1.00  0.00     0.158 C 
BRANCH  14  15
ATOM     15  C   UNL A   1      36.676  22.392  25.025  1.00  0.00     0.149 A 
ATOM     16  C   UNL A   1      34.675  22.779  24.169  1.00  0.00     0.210 A 
ATOM     17  O   UNL A   1      35.640  21.819  24.346  1.00  0.00    -0.438 OA
ATOM     18  C   UNL A   1      35.096  23.942  24.784  1.00  0.00     0.082 A 
ATOM     19  C   UNL A   1      36.362  23.698  25.345  1.00  0.00     0.070 A 
ATOM     20  Br  UNL A   1      34.238  25.601  24.952  1.00  0.00    -0.045 Br
BRANCH  16  21
ATOM     21  N   UNL A   1      33.585  22.415  23.443  1.00  0.00    -0.348 N 
ATOM     22  C   UNL A   1      33.257  23.080  22.197  1.00  0.00     0.146 C 
ATOM     23  C   UNL A   1      32.773  21.292  23.872  1.00  0.00     0.146 C 
ENDBRANCH  16  21
ENDBRANCH  14  15
ENDBRANCH   8  13
BRANCH  12  24
ATOM     24  O   UNL A   1      43.711  19.851  26.321  1.00  0.00    -0.507 OA
ATOM     25  H   UNL A   1      43.870  18.932  26.225  1.00  0.00     0.293 HD
ENDBRANCH  12  24
ENDBRANCH   4   7
ENDBRANCH   2   3
ENDBRANCH   1   2
BRANCH   1  26
ATOM     26  C   UNL A   1      43.383  25.391  25.822  1.00  0.00     0.118 C 
BRANCH  26  27
ATOM     27  N   UNL A   1      42.029  25.128  25.360  1.00  0.00    -0.352 N 
ATOM     28  C   UNL A   1      40.822  25.408  25.951  1.00  0.00     0.251 C 
ATOM     29  H   UNL A   1      41.969  24.678  24.486  1.00  0.00     0.163 HD
ATOM     30  O   UNL A   1      39.804  24.893  25.494  1.00  0.00    -0.269 OA
BRANCH  28  31
ATOM     31  C   UNL A   1      40.728  26.305  27.128  1.00  0.00     0.039 A 
ATOM     32  C   UNL A   1      41.419  27.523  27.095  1.00  0.00     0.014 A 
ATOM     33  C   UNL A   1      40.031  25.938  28.282  1.00  0.00     0.014 A 
ATOM     34  C   UNL A   1      41.371  28.386  28.194  1.00  0.00     0.010 A 
ATOM     35  C   UNL A   1      39.936  26.826  29.355  1.00  0.00     0.010 A 
ATOM     36  C   UNL A   1      40.609  28.056  29.325  1.00  0.00    -0.014 A 
BRANCH  36  37
ATOM     37  C   UNL A   1      40.508  28.987  30.480  1.00  0.00     0.031 A 
ATOM     38  C   UNL A   1      41.406  28.819  31.676  1.00  0.00     0.074 A 
ATOM     39  C   UNL A   1      39.570  29.955  30.473  1.00  0.00     0.049 A 
ATOM     40  N   UNL A   1      41.426  29.501  32.794  1.00  0.00    -0.248 NA
ATOM     41  C   UNL A   1      42.398  27.733  31.618  1.00  0.00     0.031 C 
ATOM     42  C   UNL A   1      38.615  30.202  29.390  1.00  0.00     0.029 A 
ATOM     43  N   UNL A   1      39.261  30.908  31.412  1.00  0.00    -0.354 N 
ATOM     44  C   UNL A   1      42.415  28.918  33.578  1.00  0.00     0.074 A 
ATOM     45  C   UNL A   1      42.949  27.803  32.822  1.00  0.00     0.031 C 
ATOM     46  C   UNL A   1      37.840  31.250  29.718  1.00  0.00     0.029 A 
ATOM     47  C   UNL A   1      38.217  31.726  31.044  1.00  0.00     0.049 A 
ATOM     48  H   UNL A   1      39.740  30.998  32.267  1.00  0.00     0.167 HD
ATOM     49  C   UNL A   1      42.852  29.283  34.807  1.00  0.00     0.031 A 
ATOM     50  C   UNL A   1      37.625  32.741  31.702  1.00  0.00     0.031 A 
ATOM     51  C   UNL A   1      42.333  30.400  35.552  1.00  0.00     0.049 A 
ATOM     52  C   UNL A   1      38.128  33.128  33.065  1.00  0.00     0.074 A 
ATOM     53  C   UNL A   1      42.745  30.880  36.783  1.00  0.00     0.029 A 
ATOM     54  N   UNL A   1      41.287  31.210  35.138  1.00  0.00    -0.354 N 
ATOM     55  N   UNL A   1      39.102  32.597  33.764  1.00  0.00    -0.248 NA
ATOM     56  C   UNL A   1      37.458  34.259  33.722  1.00  0.00     0.031 C 
ATOM     57  C   UNL A   1      41.922  31.957  37.131  1.00  0.00     0.029 A 
ATOM     58  C   UNL A   1      41.029  32.176  36.096  1.00  0.00     0.049 A 
ATOM     59  H   UNL A   1      40.800  31.113  34.288  1.00  0.00     0.167 HD
ATOM     60  C   UNL A   1      39.176  33.344  34.934  1.00  0.00     0.074 A 
ATOM     61  C   UNL A   1      38.160  34.373  34.842  1.00  0.00     0.031 C 
ATOM     62  C   UNL A   1      40.012  33.191  35.991  1.00  0.00     0.031 A 
BRANCH  49  63
ATOM     63  C   UNL A   1      43.952  28.462  35.428  1.00  0.00    -0.014 A 
ATOM     64  C   UNL A   1      45.302  28.712  35.123  1.00  0.00     0.010 A 
ATOM     65  C   UNL A   1      43.636  27.459  36.362  1.00  0.00     0.010 A 
ATOM     66  C   UNL A   1      46.314  27.946  35.709  1.00  0.00     0.020 A 
ATOM     67  C   UNL A   1      44.647  26.706  36.969  1.00  0.00     0.020 A 
ATOM     68  C   UNL A   1      45.979  26.944  36.625  1.00  0.00     0.054 A 
BRANCH  68  69
ATOM     69  S   UNL A   1      47.313  25.980  37.389  1.00  0.00     0.124 S 
ATOM     70  O   UNL A   1      48.489  26.778  37.051  1.00  0.00    -0.237 OA
ATOM     71  O   UNL A   1      46.941  25.977  38.801  1.00  0.00    -0.237 OA
ATOM     72  O   UNL A   1      47.228  24.684  36.723  1.00  0.00    -0.744 OA
ENDBRANCH  68  69
ENDBRANCH  49  63
BRANCH  50  73
ATOM     73  C   UNL A   1      36.491  33.471  31.074  1.00  0.00    -0.014 A 
ATOM     74  C   UNL A   1      36.680  34.186  29.878  1.00  0.00     0.010 A 
ATOM     75  C   UNL A   1      35.213  33.443  31.661  1.00  0.00     0.010 A 
ATOM     76  C   UNL A   1      35.616  34.874  29.289  1.00  0.00     0.020 A 
ATOM     77  C   UNL A   1      34.140  34.111  31.061  1.00  0.00     0.020 A 
ATOM     78  C   UNL A   1      34.352  34.832  29.885  1.00  0.00     0.054 A 
BRANCH  78  79
ATOM     79  S   UNL A   1      32.970  35.686  29.076  1.00  0.00     0.124 S 
ATOM     80  O   UNL A   1      32.392  34.622  28.261  1.00  0.00    -0.237 OA
ATOM     81  O   UNL A   1      32.161  36.127  30.210  1.00  0.00    -0.237 OA
ATOM     82  O   UNL A   1      33.624  36.761  28.334  1.00  0.00    -0.744 OA
ENDBRANCH  78  79
ENDBRANCH  50  73
BRANCH  62  83
ATOM     83  C   UNL A   1      39.881  34.176  37.121  1.00  0.00    -0.014 A 
ATOM     84  C   UNL A   1      40.463  35.453  37.042  1.00  0.00     0.010 A 
ATOM     85  C   UNL A   1      39.128  33.833  38.258  1.00  0.00     0.010 A 
ATOM     86  C   UNL A   1      40.321  36.360  38.096  1.00  0.00     0.020 A 
ATOM     87  C   UNL A   1      38.964  34.744  39.304  1.00  0.00     0.020 A 
ATOM     88  C   UNL A   1      39.574  35.998  39.222  1.00  0.00     0.054 A 
BRANCH  88  89
ATOM     89  S   UNL A   1      39.369  37.204  40.562  1.00  0.00     0.124 S 
ATOM     90  O   UNL A   1      38.546  36.463  41.512  1.00  0.00    -0.237 OA
ATOM     91  O   UNL A   1      40.746  37.455  40.984  1.00  0.00    -0.237 OA
ATOM     92  O   UNL A   1      38.708  38.333  39.912  1.00  0.00    -0.744 OA
ENDBRANCH  88  89
ENDBRANCH  62  83
ENDBRANCH  36  37
ENDBRANCH  28  31
ENDBRANCH  26  27
ENDBRANCH   1  26
TORSDOF 17
ENDMDL
MODEL 3
REMARK VINA RESULT:     -10.0      4.361      5.960
REMARK SMILES CN(C)c1oc(/C=N/c2ccc(O)c(C(=O)NCCCNC(=O)c3ccc(-c4c5nc(c(-c6ccc(S(=O)(=O)[O-])cc6)c6ccc([nH]6)c(-c6ccc(S(=O)(=O)[O-])cc6)c6nc(c(-c7ccc(S(=O)(=O)[O-])cc7)c7ccc4[nH]7)C=C6)C=C5)cc3)c2)cc1Br
REMARK SMILES IDX 19 1 18 2 17 3 15 4 16 5 14 7 9 8 10 9 84 10 11 11 12 12
REMARK SMILES IDX 8 13 7 14 6 15 4 16 5 17 86 18 85 19 87 20 2 21 1 22 3 23
REMARK SMILES IDX 13 24 20 26 21 27 22 28 23 30 24 31 25 32 83 33 26 34 82 35
REMARK SMILES IDX 27 36 28 37 29 38 76 39 30 40 81 41 75 42 77 43 31 44 80 45
REMARK SMILES IDX 74 46 73 47 32 49 62 50 43 51 61 52 44 53 47 54 60 55 78 56
REMARK SMILES IDX 45 57 46 58 59 60 79 61 48 62 33 63 34 64 42 65 35 66 41 67
REMARK SMILES IDX 36 68 37 69 38 70 39 71 40 72 63 73 64 74 72 75 65 76 71 77
REMARK SMILES IDX 66 78 67 79 68 80 69 81 70 82 49 83 50 84 58 85 51 86 57 87
REMARK SMILES IDX 52 88 53 89 54 90 55 91 56 92
REMARK H PARENT 17 6 13 25 21 29 77 48 47 59
REMARK Flexibility Score: inf
ROOT
ATOM      1  C   UNL A   1      41.631  20.837  26.571  1.00  0.00     0.042 C 
ENDROOT
BRANCH   1   2
ATOM      2  C   UNL A   1      42.428  21.791  25.676  1.00  0.00     0.118 C 
BRANCH   2   3
ATOM      3  N   UNL A   1      43.566  21.121  25.081  1.00  0.00    -0.352 N 
ATOM      4  C   UNL A   1      44.881  21.470  24.924  1.00  0.00     0.255 C 
ATOM      5  O   UNL A   1      45.592  20.627  24.368  1.00  0.00    -0.269 OA
ATOM      6  H   UNL A   1      43.351  20.232  24.716  1.00  0.00     0.163 HD
BRANCH   4   7
ATOM      7  C   UNL A   1      45.528  22.726  25.419  1.00  0.00     0.083 A 
ATOM      8  C   UNL A   1      45.872  24.086  27.443  1.00  0.00     0.064 A 
ATOM      9  C   UNL A   1      46.726  24.925  26.732  1.00  0.00     0.032 A 
ATOM     10  C   UNL A   1      45.269  23.016  26.777  1.00  0.00     0.046 A 
ATOM     11  C   UNL A   1      47.002  24.667  25.390  1.00  0.00     0.049 A 
ATOM     12  C   UNL A   1      46.439  23.553  24.751  1.00  0.00     0.128 A 
BRANCH   8  13
ATOM     13  N   UNL A   1      45.758  24.156  28.834  1.00  0.00    -0.253 NA
ATOM     14  C   UNL A   1      44.608  23.992  29.402  1.00  0.00     0.158 C 
BRANCH  14  15
ATOM     15  C   UNL A   1      44.510  24.198  30.819  1.00  0.00     0.149 A 
ATOM     16  C   UNL A   1      44.858  25.270  32.720  1.00  0.00     0.210 A 
ATOM     17  O   UNL A   1      44.956  25.371  31.354  1.00  0.00    -0.438 OA
ATOM     18  C   UNL A   1      44.303  24.043  33.029  1.00  0.00     0.082 A 
ATOM     19  C   UNL A   1      44.064  23.363  31.822  1.00  0.00     0.070 A 
ATOM     20  Br  UNL A   1      43.861  23.301  34.694  1.00  0.00    -0.045 Br
BRANCH  16  21
ATOM     21  N   UNL A   1      45.326  26.322  33.440  1.00  0.00    -0.348 N 
ATOM     22  C   UNL A   1      46.747  26.600  33.526  1.00  0.00     0.146 C 
ATOM     23  C   UNL A   1      44.396  27.237  34.074  1.00  0.00     0.146 C 
ENDBRANCH  16  21
ENDBRANCH  14  15
ENDBRANCH   8  13
BRANCH  12  24
ATOM     24  O   UNL A   1      46.886  23.279  23.494  1.00  0.00    -0.507 OA
ATOM     25  H   UNL A   1      47.807  23.224  23.325  1.00  0.00     0.293 HD
ENDBRANCH  12  24
ENDBRANCH   4   7
ENDBRANCH   2   3
ENDBRANCH   1   2
BRANCH   1  26
ATOM     26  C   UNL A   1      40.557  21.524  27.411  1.00  0.00     0.118 C 
BRANCH  26  27
ATOM     27  N   UNL A   1      39.379  21.854  26.623  1.00  0.00    -0.352 N 
ATOM     28  C   UNL A   1      38.735  23.055  26.453  1.00  0.00     0.251 C 
ATOM     29  H   UNL A   1      38.980  21.097  26.136  1.00  0.00     0.163 HD
ATOM     30  O   UNL A   1      37.625  23.064  25.927  1.00  0.00    -0.269 OA
BRANCH  28  31
ATOM     31  C   UNL A   1      39.349  24.329  26.898  1.00  0.00     0.039 A 
ATOM     32  C   UNL A   1      39.181  24.721  28.232  1.00  0.00     0.014 A 
ATOM     33  C   UNL A   1      40.025  25.172  26.012  1.00  0.00     0.014 A 
ATOM     34  C   UNL A   1      39.728  25.926  28.684  1.00  0.00     0.010 A 
ATOM     35  C   UNL A   1      40.621  26.346  26.477  1.00  0.00     0.010 A 
ATOM     36  C   UNL A   1      40.474  26.738  27.816  1.00  0.00    -0.014 A 
BRANCH  36  37
ATOM     37  C   UNL A   1      41.103  27.996  28.295  1.00  0.00     0.031 A 
ATOM     38  C   UNL A   1      42.597  28.174  28.237  1.00  0.00     0.074 A 
ATOM     39  C   UNL A   1      40.332  28.963  28.831  1.00  0.00     0.049 A 
ATOM     40  N   UNL A   1      43.325  29.178  28.655  1.00  0.00    -0.248 NA
ATOM     41  C   UNL A   1      43.377  27.072  27.650  1.00  0.00     0.031 C 
ATOM     42  C   UNL A   1      38.876  28.901  28.978  1.00  0.00     0.029 A 
ATOM     43  N   UNL A   1      40.666  30.185  29.360  1.00  0.00    -0.354 N 
ATOM     44  C   UNL A   1      44.645  28.824  28.400  1.00  0.00     0.074 A 
ATOM     45  C   UNL A   1      44.621  27.496  27.823  1.00  0.00     0.031 C 
ATOM     46  C   UNL A   1      38.441  30.041  29.540  1.00  0.00     0.029 A 
ATOM     47  C   UNL A   1      39.586  30.899  29.826  1.00  0.00     0.049 A 
ATOM     48  H   UNL A   1      41.591  30.519  29.403  1.00  0.00     0.167 HD
ATOM     49  C   UNL A   1      45.775  29.542  28.611  1.00  0.00     0.031 A 
ATOM     50  C   UNL A   1      39.524  32.104  30.423  1.00  0.00     0.031 A 
ATOM     51  C   UNL A   1      45.798  30.868  29.171  1.00  0.00     0.049 A 
ATOM     52  C   UNL A   1      40.790  32.883  30.645  1.00  0.00     0.074 A 
ATOM     53  C   UNL A   1      46.888  31.696  29.377  1.00  0.00     0.029 A 
ATOM     54  N   UNL A   1      44.682  31.560  29.616  1.00  0.00    -0.354 N 
ATOM     55  N   UNL A   1      42.023  32.551  30.346  1.00  0.00    -0.248 NA
ATOM     56  C   UNL A   1      40.656  34.202  31.278  1.00  0.00     0.031 C 
ATOM     57  C   UNL A   1      46.436  32.873  29.982  1.00  0.00     0.029 A 
ATOM     58  C   UNL A   1      45.058  32.797  30.110  1.00  0.00     0.049 A 
ATOM     59  H   UNL A   1      43.758  31.221  29.585  1.00  0.00     0.167 HD
ATOM     60  C   UNL A   1      42.808  33.631  30.734  1.00  0.00     0.074 A 
ATOM     61  C   UNL A   1      41.910  34.631  31.274  1.00  0.00     0.031 C 
ATOM     62  C   UNL A   1      44.153  33.781  30.648  1.00  0.00     0.031 A 
BRANCH  49  63
ATOM     63  C   UNL A   1      47.086  28.904  28.235  1.00  0.00    -0.014 A 
ATOM     64  C   UNL A   1      47.815  28.144  29.168  1.00  0.00     0.010 A 
ATOM     65  C   UNL A   1      47.575  29.027  26.921  1.00  0.00     0.010 A 
ATOM     66  C   UNL A   1      49.028  27.552  28.806  1.00  0.00     0.020 A 
ATOM     67  C   UNL A   1      48.777  28.416  26.548  1.00  0.00     0.020 A 
ATOM     68  C   UNL A   1      49.504  27.697  27.498  1.00  0.00     0.054 A 
BRANCH  68  69
ATOM     69  S   UNL A   1      51.070  26.900  27.048  1.00  0.00     0.124 S 
ATOM     70  O   UNL A   1      51.258  25.963  28.154  1.00  0.00    -0.237 OA
ATOM     71  O   UNL A   1      50.764  26.291  25.756  1.00  0.00    -0.237 OA
ATOM     72  O   UNL A   1      52.022  28.006  27.002  1.00  0.00    -0.744 OA
ENDBRANCH  68  69
ENDBRANCH  49  63
BRANCH  50  73
ATOM     73  C   UNL A   1      38.207  32.656  30.844  1.00  0.00    -0.014 A 
ATOM     74  C   UNL A   1      37.749  32.479  32.161  1.00  0.00     0.010 A 
ATOM     75  C   UNL A   1      37.412  33.374  29.932  1.00  0.00     0.010 A 
ATOM     76  C   UNL A   1      36.512  32.995  32.555  1.00  0.00     0.020 A 
ATOM     77  C   UNL A   1      36.184  33.912  30.330  1.00  0.00     0.020 A 
ATOM     78  C   UNL A   1      35.737  33.709  31.637  1.00  0.00     0.054 A 
BRANCH  78  79
ATOM     79  S   UNL A   1      34.159  34.418  32.182  1.00  0.00     0.124 S 
ATOM     80  O   UNL A   1      34.593  35.627  32.874  1.00  0.00    -0.237 OA
ATOM     81  O   UNL A   1      33.451  34.629  30.922  1.00  0.00    -0.237 OA
ATOM     82  O   UNL A   1      33.594  33.375  33.035  1.00  0.00    -0.744 OA
ENDBRANCH  78  79
ENDBRANCH  50  73
BRANCH  62  83
ATOM     83  C   UNL A   1      44.734  35.084  31.126  1.00  0.00    -0.014 A 
ATOM     84  C   UNL A   1      44.860  36.183  30.259  1.00  0.00     0.010 A 
ATOM     85  C   UNL A   1      45.116  35.223  32.472  1.00  0.00     0.010 A 
ATOM     86  C   UNL A   1      45.390  37.391  30.723  1.00  0.00     0.020 A 
ATOM     87  C   UNL A   1      45.623  36.435  32.946  1.00  0.00     0.020 A 
ATOM     88  C   UNL A   1      45.771  37.508  32.064  1.00  0.00     0.054 A 
BRANCH  88  89
ATOM     89  S   UNL A   1      46.419  39.095  32.655  1.00  0.00     0.124 S 
ATOM     90  O   UNL A   1      47.386  38.670  33.663  1.00  0.00    -0.237 OA
ATOM     91  O   UNL A   1      46.990  39.682  31.444  1.00  0.00    -0.237 OA
ATOM     92  O   UNL A   1      45.237  39.780  33.174  1.00  0.00    -0.744 OA
ENDBRANCH  88  89
ENDBRANCH  62  83
ENDBRANCH  36  37
ENDBRANCH  28  31
ENDBRANCH  26  27
ENDBRANCH   1  26
TORSDOF 17
ENDMDL
