MODEL 1
REMARK VINA RESULT:     -10.8      0.000      0.000
REMARK SMILES C[C@@H](Sc1nc2ccccc2c(=O)n1N)C(=O)NCCCNC(=O)c1ccc(-c2c3nc(c(-c4ccc(S(=O)(=O)[O-])cc4)c4ccc([nH]4)c(-c4ccc(S(=O)(=O)[O-])cc4)c4nc(c(-c5ccc(S(=O)(=O)[O-])cc5)c5ccc2[nH]5)C=C4)C=C3)cc1
REMARK SMILES IDX 20 1 19 2 18 3 16 4 17 5 2 7 1 8 3 9 4 10 5 11 14 12 6 13
REMARK SMILES IDX 12 14 7 15 11 16 13 17 8 18 10 19 9 20 15 21 21 24 22 25
REMARK SMILES IDX 23 26 24 28 25 29 26 30 84 31 27 32 83 33 28 34 29 35 30 36
REMARK SMILES IDX 77 37 31 38 82 39 76 40 78 41 32 42 81 43 75 44 74 45 33 47
REMARK SMILES IDX 63 48 44 49 62 50 45 51 48 52 61 53 79 54 46 55 47 56 60 58
REMARK SMILES IDX 80 59 49 60 34 61 35 62 43 63 36 64 42 65 37 66 38 67 39 68
REMARK SMILES IDX 40 69 41 70 64 71 65 72 73 73 66 74 72 75 67 76 68 77 69 78
REMARK SMILES IDX 70 79 71 80 50 81 51 82 59 83 52 84 58 85 53 86 54 87 55 88
REMARK SMILES IDX 56 89 57 90
REMARK H PARENT 18 6 15 22 15 23 22 27 78 46 48 57
REMARK Flexibility Score: inf
ROOT
ATOM      1  C   UNL A   1      33.886  27.924  25.937  1.00  0.00     0.042 C 
ENDROOT
BRANCH   1   2
ATOM      2  C   UNL A   1      33.218  26.671  25.391  1.00  0.00     0.117 C 
BRANCH   2   3
ATOM      3  N   UNL A   1      31.788  26.670  25.647  1.00  0.00    -0.355 N 
ATOM      4  C   UNL A   1      30.879  25.655  25.606  1.00  0.00     0.233 C 
ATOM      5  O   UNL A   1      29.711  25.928  25.900  1.00  0.00    -0.274 OA
ATOM      6  H   UNL A   1      31.412  27.548  25.890  1.00  0.00     0.163 HD
BRANCH   4   7
ATOM      7  C   UNL A   1      31.274  24.226  25.225  1.00  0.00     0.141 C 
ATOM      8  C   UNL A   1      32.135  24.178  23.968  1.00  0.00     0.030 C 
BRANCH   7   9
ATOM      9  S   UNL A   1      31.938  23.406  26.721  1.00  0.00    -0.073 SA
BRANCH   9  10
ATOM     10  C   UNL A   1      33.458  22.780  26.143  1.00  0.00     0.191 A 
ATOM     11  N   UNL A   1      34.509  23.513  26.324  1.00  0.00    -0.222 NA
ATOM     12  N   UNL A   1      33.485  21.497  25.610  1.00  0.00    -0.202 N 
ATOM     13  C   UNL A   1      35.757  22.974  25.979  1.00  0.00     0.079 A 
ATOM     14  C   UNL A   1      34.687  20.871  25.282  1.00  0.00     0.280 A 
ATOM     15  C   UNL A   1      36.902  23.745  26.190  1.00  0.00     0.029 A 
ATOM     16  C   UNL A   1      35.905  21.679  25.480  1.00  0.00     0.068 A 
ATOM     17  O   UNL A   1      34.762  19.706  24.889  1.00  0.00    -0.267 OA
ATOM     18  C   UNL A   1      38.171  23.225  25.912  1.00  0.00     0.002 A 
ATOM     19  C   UNL A   1      37.169  21.150  25.197  1.00  0.00     0.016 A 
ATOM     20  C   UNL A   1      38.304  21.928  25.418  1.00  0.00     0.001 A 
BRANCH  12  21
ATOM     21  N   UNL A   1      32.286  20.737  25.408  1.00  0.00    -0.334 N 
ATOM     22  H   UNL A   1      32.319  19.754  25.418  1.00  0.00     0.178 HD
ATOM     23  H   UNL A   1      31.430  21.201  25.261  1.00  0.00     0.178 HD
ENDBRANCH  12  21
ENDBRANCH   9  10
ENDBRANCH   7   9
ENDBRANCH   4   7
ENDBRANCH   2   3
ENDBRANCH   1   2
BRANCH   1  24
ATOM     24  C   UNL A   1      33.380  28.326  27.316  1.00  0.00     0.118 C 
BRANCH  24  25
ATOM     25  N   UNL A   1      33.365  29.772  27.504  1.00  0.00    -0.352 N 
ATOM     26  C   UNL A   1      34.324  30.600  28.030  1.00  0.00     0.251 C 
ATOM     27  H   UNL A   1      32.541  30.223  27.210  1.00  0.00     0.163 HD
ATOM     28  O   UNL A   1      34.039  31.766  28.299  1.00  0.00    -0.269 OA
BRANCH  26  29
ATOM     29  C   UNL A   1      35.686  30.090  28.291  1.00  0.00     0.039 A 
ATOM     30  C   UNL A   1      36.628  30.108  27.259  1.00  0.00     0.014 A 
ATOM     31  C   UNL A   1      36.035  29.593  29.549  1.00  0.00     0.014 A 
ATOM     32  C   UNL A   1      37.937  29.693  27.511  1.00  0.00     0.010 A 
ATOM     33  C   UNL A   1      37.359  29.267  29.823  1.00  0.00     0.010 A 
ATOM     34  C   UNL A   1      38.324  29.309  28.805  1.00  0.00    -0.014 A 
BRANCH  34  35
ATOM     35  C   UNL A   1      39.730  28.951  29.119  1.00  0.00     0.031 A 
ATOM     36  C   UNL A   1      40.653  29.972  29.730  1.00  0.00     0.074 A 
ATOM     37  C   UNL A   1      40.197  27.729  28.790  1.00  0.00     0.049 A 
ATOM     38  N   UNL A   1      41.926  29.868  30.012  1.00  0.00    -0.248 NA
ATOM     39  C   UNL A   1      40.075  31.290  30.043  1.00  0.00     0.031 C 
ATOM     40  C   UNL A   1      39.412  26.665  28.158  1.00  0.00     0.029 A 
ATOM     41  N   UNL A   1      41.444  27.177  28.936  1.00  0.00    -0.354 N 
ATOM     42  C   UNL A   1      42.305  31.107  30.517  1.00  0.00     0.074 A 
ATOM     43  C   UNL A   1      41.141  31.963  30.453  1.00  0.00     0.031 C 
ATOM     44  C   UNL A   1      40.189  25.582  27.997  1.00  0.00     0.029 A 
ATOM     45  C   UNL A   1      41.536  25.887  28.468  1.00  0.00     0.049 A 
ATOM     46  H   UNL A   1      42.203  27.659  29.338  1.00  0.00     0.167 HD
ATOM     47  C   UNL A   1      43.507  31.492  31.007  1.00  0.00     0.031 A 
ATOM     48  C   UNL A   1      42.587  25.046  28.411  1.00  0.00     0.031 A 
ATOM     49  C   UNL A   1      44.660  30.633  31.073  1.00  0.00     0.049 A 
ATOM     50  C   UNL A   1      43.919  25.505  28.940  1.00  0.00     0.074 A 
ATOM     51  C   UNL A   1      45.909  30.911  31.602  1.00  0.00     0.029 A 
ATOM     52  N   UNL A   1      44.711  29.334  30.591  1.00  0.00    -0.354 N 
ATOM     53  N   UNL A   1      44.239  26.659  29.476  1.00  0.00    -0.248 NA
ATOM     54  C   UNL A   1      45.029  24.545  28.865  1.00  0.00     0.031 C 
ATOM     55  C   UNL A   1      46.732  29.803  31.383  1.00  0.00     0.029 A 
ATOM     56  C   UNL A   1      45.977  28.807  30.783  1.00  0.00     0.049 A 
ATOM     57  H   UNL A   1      43.957  28.856  30.174  1.00  0.00     0.167 HD
ATOM     58  C   UNL A   1      45.580  26.552  29.830  1.00  0.00     0.074 A 
ATOM     59  C   UNL A   1      46.005  25.217  29.461  1.00  0.00     0.031 C 
ATOM     60  C   UNL A   1      46.386  27.475  30.410  1.00  0.00     0.031 A 
BRANCH  47  61
ATOM     61  C   UNL A   1      43.639  32.909  31.504  1.00  0.00    -0.014 A 
ATOM     62  C   UNL A   1      43.805  33.983  30.611  1.00  0.00     0.010 A 
ATOM     63  C   UNL A   1      43.554  33.176  32.883  1.00  0.00     0.010 A 
ATOM     64  C   UNL A   1      43.924  35.290  31.088  1.00  0.00     0.020 A 
ATOM     65  C   UNL A   1      43.641  34.486  33.363  1.00  0.00     0.020 A 
ATOM     66  C   UNL A   1      43.842  35.534  32.462  1.00  0.00     0.054 A 
BRANCH  66  67
ATOM     67  S   UNL A   1      43.975  37.244  33.050  1.00  0.00     0.124 S 
ATOM     68  O   UNL A   1      43.990  37.993  31.795  1.00  0.00    -0.237 OA
ATOM     69  O   UNL A   1      42.767  37.398  33.858  1.00  0.00    -0.237 OA
ATOM     70  O   UNL A   1      45.229  37.259  33.798  1.00  0.00    -0.744 OA
ENDBRANCH  66  67
ENDBRANCH  47  61
BRANCH  48  71
ATOM     71  C   UNL A   1      42.420  23.682  27.837  1.00  0.00    -0.014 A 
ATOM     72  C   UNL A   1      42.557  23.465  26.455  1.00  0.00     0.010 A 
ATOM     73  C   UNL A   1      42.134  22.587  28.674  1.00  0.00     0.010 A 
ATOM     74  C   UNL A   1      42.392  22.185  25.917  1.00  0.00     0.020 A 
ATOM     75  C   UNL A   1      42.000  21.301  28.145  1.00  0.00     0.020 A 
ATOM     76  C   UNL A   1      42.118  21.110  26.767  1.00  0.00     0.054 A 
BRANCH  76  77
ATOM     77  S   UNL A   1      41.956  19.449  26.054  1.00  0.00     0.124 S 
ATOM     78  O   UNL A   1      42.432  18.602  27.143  1.00  0.00    -0.237 OA
ATOM     79  O   UNL A   1      40.526  19.369  25.766  1.00  0.00    -0.237 OA
ATOM     80  O   UNL A   1      42.818  19.498  24.875  1.00  0.00    -0.744 OA
ENDBRANCH  76  77
ENDBRANCH  48  71
BRANCH  60  81
ATOM     81  C   UNL A   1      47.802  27.067  30.720  1.00  0.00    -0.014 A 
ATOM     82  C   UNL A   1      48.856  27.350  29.835  1.00  0.00     0.010 A 
ATOM     83  C   UNL A   1      48.089  26.444  31.949  1.00  0.00     0.010 A 
ATOM     84  C   UNL A   1      50.168  26.991  30.160  1.00  0.00     0.020 A 
ATOM     85  C   UNL A   1      49.402  26.113  32.292  1.00  0.00     0.020 A 
ATOM     86  C   UNL A   1      50.431  26.376  31.388  1.00  0.00     0.054 A 
BRANCH  86  87
ATOM     87  S   UNL A   1      52.148  25.967  31.807  1.00  0.00     0.124 S 
ATOM     88  O   UNL A   1      52.861  26.368  30.597  1.00  0.00    -0.237 OA
ATOM     89  O   UNL A   1      52.396  26.794  32.986  1.00  0.00    -0.237 OA
ATOM     90  O   UNL A   1      52.111  24.528  32.060  1.00  0.00    -0.744 OA
ENDBRANCH  86  87
ENDBRANCH  60  81
ENDBRANCH  34  35
ENDBRANCH  26  29
ENDBRANCH  24  25
ENDBRANCH   1  24
TORSDOF 16
ENDMDL
MODEL 2
REMARK VINA RESULT:     -10.6      1.659      3.048
REMARK SMILES C[C@@H](Sc1nc2ccccc2c(=O)n1N)C(=O)NCCCNC(=O)c1ccc(-c2c3nc(c(-c4ccc(S(=O)(=O)[O-])cc4)c4ccc([nH]4)c(-c4ccc(S(=O)(=O)[O-])cc4)c4nc(c(-c5ccc(S(=O)(=O)[O-])cc5)c5ccc2[nH]5)C=C4)C=C3)cc1
REMARK SMILES IDX 20 1 19 2 18 3 16 4 17 5 2 7 1 8 3 9 4 10 5 11 14 12 6 13
REMARK SMILES IDX 12 14 7 15 11 16 13 17 8 18 10 19 9 20 15 21 21 24 22 25
REMARK SMILES IDX 23 26 24 28 25 29 26 30 84 31 27 32 83 33 28 34 29 35 30 36
REMARK SMILES IDX 77 37 31 38 82 39 76 40 78 41 32 42 81 43 75 44 74 45 33 47
REMARK SMILES IDX 63 48 44 49 62 50 45 51 48 52 61 53 79 54 46 55 47 56 60 58
REMARK SMILES IDX 80 59 49 60 34 61 35 62 43 63 36 64 42 65 37 66 38 67 39 68
REMARK SMILES IDX 40 69 41 70 64 71 65 72 73 73 66 74 72 75 67 76 68 77 69 78
REMARK SMILES IDX 70 79 71 80 50 81 51 82 59 83 52 84 58 85 53 86 54 87 55 88
REMARK SMILES IDX 56 89 57 90
REMARK H PARENT 18 6 15 22 15 23 22 27 78 46 48 57
REMARK Flexibility Score: inf
ROOT
ATOM      1  C   UNL A   1      32.561  27.727  26.240  1.00  0.00     0.042 C 
ENDROOT
BRANCH   1   2
ATOM      2  C   UNL A   1      32.905  26.245  26.214  1.00  0.00     0.117 C 
BRANCH   2   3
ATOM      3  N   UNL A   1      31.829  25.436  26.762  1.00  0.00    -0.355 N 
ATOM      4  C   UNL A   1      31.526  24.120  26.578  1.00  0.00     0.233 C 
ATOM      5  O   UNL A   1      30.556  23.670  27.197  1.00  0.00    -0.274 OA
ATOM      6  H   UNL A   1      31.218  25.918  27.367  1.00  0.00     0.163 HD
BRANCH   4   7
ATOM      7  C   UNL A   1      32.349  23.218  25.655  1.00  0.00     0.141 C 
ATOM      8  C   UNL A   1      32.848  21.964  26.364  1.00  0.00     0.030 C 
BRANCH   7   9
ATOM      9  S   UNL A   1      31.400  22.978  24.108  1.00  0.00    -0.073 SA
BRANCH   9  10
ATOM     10  C   UNL A   1      31.404  24.584  23.431  1.00  0.00     0.191 A 
ATOM     11  N   UNL A   1      30.366  25.323  23.653  1.00  0.00    -0.222 NA
ATOM     12  N   UNL A   1      32.550  25.024  22.778  1.00  0.00    -0.202 N 
ATOM     13  C   UNL A   1      30.403  26.658  23.224  1.00  0.00     0.079 A 
ATOM     14  C   UNL A   1      32.685  26.347  22.359  1.00  0.00     0.280 A 
ATOM     15  C   UNL A   1      29.298  27.475  23.476  1.00  0.00     0.029 A 
ATOM     16  C   UNL A   1      31.519  27.217  22.600  1.00  0.00     0.068 A 
ATOM     17  O   UNL A   1      33.714  26.798  21.856  1.00  0.00    -0.267 OA
ATOM     18  C   UNL A   1      29.315  28.826  23.117  1.00  0.00     0.002 A 
ATOM     19  C   UNL A   1      31.546  28.568  22.235  1.00  0.00     0.016 A 
ATOM     20  C   UNL A   1      30.440  29.372  22.498  1.00  0.00     0.001 A 
BRANCH  12  21
ATOM     21  N   UNL A   1      33.663  24.153  22.538  1.00  0.00    -0.334 N 
ATOM     22  H   UNL A   1      33.765  23.329  23.065  1.00  0.00     0.178 HD
ATOM     23  H   UNL A   1      34.325  24.380  21.845  1.00  0.00     0.178 HD
ENDBRANCH  12  21
ENDBRANCH   9  10
ENDBRANCH   7   9
ENDBRANCH   4   7
ENDBRANCH   2   3
ENDBRANCH   1   2
BRANCH   1  24
ATOM     24  C   UNL A   1      33.776  28.631  26.082  1.00  0.00     0.118 C 
BRANCH  24  25
ATOM     25  N   UNL A   1      33.582  29.938  26.700  1.00  0.00    -0.352 N 
ATOM     26  C   UNL A   1      34.346  30.592  27.632  1.00  0.00     0.251 C 
ATOM     27  H   UNL A   1      32.779  30.424  26.403  1.00  0.00     0.163 HD
ATOM     28  O   UNL A   1      33.901  31.597  28.185  1.00  0.00    -0.269 OA
BRANCH  26  29
ATOM     29  C   UNL A   1      35.687  30.084  27.985  1.00  0.00     0.039 A 
ATOM     30  C   UNL A   1      36.730  30.221  27.065  1.00  0.00     0.014 A 
ATOM     31  C   UNL A   1      35.918  29.470  29.218  1.00  0.00     0.014 A 
ATOM     32  C   UNL A   1      38.017  29.806  27.413  1.00  0.00     0.010 A 
ATOM     33  C   UNL A   1      37.215  29.142  29.598  1.00  0.00     0.010 A 
ATOM     34  C   UNL A   1      38.278  29.302  28.698  1.00  0.00    -0.014 A 
BRANCH  34  35
ATOM     35  C   UNL A   1      39.654  28.940  29.123  1.00  0.00     0.031 A 
ATOM     36  C   UNL A   1      40.514  29.946  29.840  1.00  0.00     0.074 A 
ATOM     37  C   UNL A   1      40.154  27.730  28.801  1.00  0.00     0.049 A 
ATOM     38  N   UNL A   1      41.758  29.838  30.228  1.00  0.00    -0.248 NA
ATOM     39  C   UNL A   1      39.905  31.253  30.138  1.00  0.00     0.031 C 
ATOM     40  C   UNL A   1      39.434  26.681  28.073  1.00  0.00     0.029 A 
ATOM     41  N   UNL A   1      41.387  27.177  29.040  1.00  0.00    -0.354 N 
ATOM     42  C   UNL A   1      42.086  31.063  30.799  1.00  0.00     0.074 A 
ATOM     43  C   UNL A   1      40.927  31.917  30.658  1.00  0.00     0.031 C 
ATOM     44  C   UNL A   1      40.228  25.606  27.951  1.00  0.00     0.029 A 
ATOM     45  C   UNL A   1      41.527  25.901  28.545  1.00  0.00     0.049 A 
ATOM     46  H   UNL A   1      42.106  27.650  29.519  1.00  0.00     0.167 HD
ATOM     47  C   UNL A   1      43.239  31.438  31.402  1.00  0.00     0.031 A 
ATOM     48  C   UNL A   1      42.584  25.066  28.556  1.00  0.00     0.031 A 
ATOM     49  C   UNL A   1      44.386  30.581  31.544  1.00  0.00     0.049 A 
ATOM     50  C   UNL A   1      43.862  25.514  29.212  1.00  0.00     0.074 A 
ATOM     51  C   UNL A   1      45.582  30.848  32.187  1.00  0.00     0.029 A 
ATOM     52  N   UNL A   1      44.486  29.296  31.032  1.00  0.00    -0.354 N 
ATOM     53  N   UNL A   1      44.128  26.653  29.806  1.00  0.00    -0.248 NA
ATOM     54  C   UNL A   1      44.980  24.560  29.207  1.00  0.00     0.031 C 
ATOM     55  C   UNL A   1      46.428  29.749  32.010  1.00  0.00     0.029 A 
ATOM     56  C   UNL A   1      45.733  28.768  31.319  1.00  0.00     0.049 A 
ATOM     57  H   UNL A   1      43.774  28.828  30.538  1.00  0.00     0.167 HD
ATOM     58  C   UNL A   1      45.433  26.540  30.272  1.00  0.00     0.074 A 
ATOM     59  C   UNL A   1      45.896  25.218  29.904  1.00  0.00     0.031 C 
ATOM     60  C   UNL A   1      46.181  27.449  30.946  1.00  0.00     0.031 A 
BRANCH  47  61
ATOM     61  C   UNL A   1      43.319  32.841  31.949  1.00  0.00    -0.014 A 
ATOM     62  C   UNL A   1      43.747  33.913  31.146  1.00  0.00     0.010 A 
ATOM     63  C   UNL A   1      42.919  33.098  33.274  1.00  0.00     0.010 A 
ATOM     64  C   UNL A   1      43.814  35.207  31.667  1.00  0.00     0.020 A 
ATOM     65  C   UNL A   1      42.954  34.396  33.790  1.00  0.00     0.020 A 
ATOM     66  C   UNL A   1      43.418  35.441  32.987  1.00  0.00     0.054 A 
BRANCH  66  67
ATOM     67  S   UNL A   1      43.492  37.136  33.629  1.00  0.00     0.124 S 
ATOM     68  O   UNL A   1      43.616  37.917  32.400  1.00  0.00    -0.237 OA
ATOM     69  O   UNL A   1      42.217  37.267  34.329  1.00  0.00    -0.237 OA
ATOM     70  O   UNL A   1      44.674  37.133  34.486  1.00  0.00    -0.744 OA
ENDBRANCH  66  67
ENDBRANCH  47  61
BRANCH  48  71
ATOM     71  C   UNL A   1      42.475  23.718  27.931  1.00  0.00    -0.014 A 
ATOM     72  C   UNL A   1      42.860  23.515  26.595  1.00  0.00     0.010 A 
ATOM     73  C   UNL A   1      41.996  22.624  28.676  1.00  0.00     0.010 A 
ATOM     74  C   UNL A   1      42.749  22.251  26.008  1.00  0.00     0.020 A 
ATOM     75  C   UNL A   1      41.914  21.352  28.105  1.00  0.00     0.020 A 
ATOM     76  C   UNL A   1      42.280  21.176  26.769  1.00  0.00     0.054 A 
BRANCH  76  77
ATOM     77  S   UNL A   1      42.191  19.534  26.002  1.00  0.00     0.124 S 
ATOM     78  O   UNL A   1      42.680  18.671  27.072  1.00  0.00    -0.237 OA
ATOM     79  O   UNL A   1      40.770  19.411  25.688  1.00  0.00    -0.237 OA
ATOM     80  O   UNL A   1      43.070  19.651  24.841  1.00  0.00    -0.744 OA
ENDBRANCH  76  77
ENDBRANCH  48  71
BRANCH  60  81
ATOM     81  C   UNL A   1      47.567  27.037  31.367  1.00  0.00    -0.014 A 
ATOM     82  C   UNL A   1      48.687  27.303  30.560  1.00  0.00     0.010 A 
ATOM     83  C   UNL A   1      47.757  26.427  32.621  1.00  0.00     0.010 A 
ATOM     84  C   UNL A   1      49.968  26.941  30.987  1.00  0.00     0.020 A 
ATOM     85  C   UNL A   1      49.037  26.093  33.065  1.00  0.00     0.020 A 
ATOM     86  C   UNL A   1      50.134  26.339  32.238  1.00  0.00     0.054 A 
BRANCH  86  87
ATOM     87  S   UNL A   1      51.811  25.926  32.790  1.00  0.00     0.124 S 
ATOM     88  O   UNL A   1      52.165  24.828  31.893  1.00  0.00    -0.237 OA
ATOM     89  O   UNL A   1      52.537  27.175  32.572  1.00  0.00    -0.237 OA
ATOM     90  O   UNL A   1      51.634  25.552  34.192  1.00  0.00    -0.744 OA
ENDBRANCH  86  87
ENDBRANCH  60  81
ENDBRANCH  34  35
ENDBRANCH  26  29
ENDBRANCH  24  25
ENDBRANCH   1  24
TORSDOF 16
ENDMDL
MODEL 3
REMARK VINA RESULT:     -10.6      1.100      2.043
REMARK SMILES C[C@@H](Sc1nc2ccccc2c(=O)n1N)C(=O)NCCCNC(=O)c1ccc(-c2c3nc(c(-c4ccc(S(=O)(=O)[O-])cc4)c4ccc([nH]4)c(-c4ccc(S(=O)(=O)[O-])cc4)c4nc(c(-c5ccc(S(=O)(=O)[O-])cc5)c5ccc2[nH]5)C=C4)C=C3)cc1
REMARK SMILES IDX 20 1 19 2 18 3 16 4 17 5 2 7 1 8 3 9 4 10 5 11 14 12 6 13
REMARK SMILES IDX 12 14 7 15 11 16 13 17 8 18 10 19 9 20 15 21 21 24 22 25
REMARK SMILES IDX 23 26 24 28 25 29 26 30 84 31 27 32 83 33 28 34 29 35 30 36
REMARK SMILES IDX 77 37 31 38 82 39 76 40 78 41 32 42 81 43 75 44 74 45 33 47
REMARK SMILES IDX 63 48 44 49 62 50 45 51 48 52 61 53 79 54 46 55 47 56 60 58
REMARK SMILES IDX 80 59 49 60 34 61 35 62 43 63 36 64 42 65 37 66 38 67 39 68
REMARK SMILES IDX 40 69 41 70 64 71 65 72 73 73 66 74 72 75 67 76 68 77 69 78
REMARK SMILES IDX 70 79 71 80 50 81 51 82 59 83 52 84 58 85 53 86 54 87 55 88
REMARK SMILES IDX 56 89 57 90
REMARK H PARENT 18 6 15 22 15 23 22 27 78 46 48 57
REMARK Flexibility Score: inf
ROOT
ATOM      1  C   UNL A   1      34.085  27.875  26.031  1.00  0.00     0.042 C 
ENDROOT
BRANCH   1   2
ATOM      2  C   UNL A   1      33.177  27.135  25.061  1.00  0.00     0.117 C 
BRANCH   2   3
ATOM      3  N   UNL A   1      33.925  26.214  24.221  1.00  0.00    -0.355 N 
ATOM      4  C   UNL A   1      33.627  24.952  23.802  1.00  0.00     0.233 C 
ATOM      5  O   UNL A   1      34.440  24.395  23.058  1.00  0.00    -0.274 OA
ATOM      6  H   UNL A   1      34.791  26.559  23.902  1.00  0.00     0.163 HD
BRANCH   4   7
ATOM      7  C   UNL A   1      32.335  24.243  24.216  1.00  0.00     0.141 C 
ATOM      8  C   UNL A   1      31.854  23.252  23.163  1.00  0.00     0.030 C 
BRANCH   7   9
ATOM      9  S   UNL A   1      32.562  23.604  25.917  1.00  0.00    -0.073 SA
BRANCH   9  10
ATOM     10  C   UNL A   1      33.361  22.083  25.625  1.00  0.00     0.191 A 
ATOM     11  N   UNL A   1      32.613  21.068  25.332  1.00  0.00    -0.222 NA
ATOM     12  N   UNL A   1      34.750  22.054  25.624  1.00  0.00    -0.202 N 
ATOM     13  C   UNL A   1      33.242  19.867  24.973  1.00  0.00     0.079 A 
ATOM     14  C   UNL A   1      35.453  20.914  25.237  1.00  0.00     0.280 A 
ATOM     15  C   UNL A   1      32.449  18.769  24.633  1.00  0.00     0.029 A 
ATOM     16  C   UNL A   1      34.630  19.740  24.894  1.00  0.00     0.068 A 
ATOM     17  O   UNL A   1      36.680  20.873  25.139  1.00  0.00    -0.267 OA
ATOM     18  C   UNL A   1      33.035  17.571  24.214  1.00  0.00     0.002 A 
ATOM     19  C   UNL A   1      35.227  18.544  24.477  1.00  0.00     0.016 A 
ATOM     20  C   UNL A   1      34.423  17.459  24.135  1.00  0.00     0.001 A 
BRANCH  12  21
ATOM     21  N   UNL A   1      35.529  23.204  25.981  1.00  0.00    -0.334 N 
ATOM     22  H   UNL A   1      36.316  23.103  26.563  1.00  0.00     0.178 HD
ATOM     23  H   UNL A   1      35.277  24.093  25.642  1.00  0.00     0.178 HD
ENDBRANCH  12  21
ENDBRANCH   9  10
ENDBRANCH   7   9
ENDBRANCH   4   7
ENDBRANCH   2   3
ENDBRANCH   1   2
BRANCH   1  24
ATOM     24  C   UNL A   1      33.384  28.290  27.318  1.00  0.00     0.118 C 
BRANCH  24  25
ATOM     25  N   UNL A   1      33.366  29.737  27.500  1.00  0.00    -0.352 N 
ATOM     26  C   UNL A   1      34.321  30.569  28.024  1.00  0.00     0.251 C 
ATOM     27  H   UNL A   1      32.541  30.184  27.202  1.00  0.00     0.163 HD
ATOM     28  O   UNL A   1      34.033  31.735  28.287  1.00  0.00    -0.269 OA
BRANCH  26  29
ATOM     29  C   UNL A   1      35.684  30.064  28.290  1.00  0.00     0.039 A 
ATOM     30  C   UNL A   1      36.637  30.109  27.269  1.00  0.00     0.014 A 
ATOM     31  C   UNL A   1      36.022  29.544  29.542  1.00  0.00     0.014 A 
ATOM     32  C   UNL A   1      37.946  29.698  27.528  1.00  0.00     0.010 A 
ATOM     33  C   UNL A   1      37.345  29.222  29.824  1.00  0.00     0.010 A 
ATOM     34  C   UNL A   1      38.321  29.291  28.819  1.00  0.00    -0.014 A 
BRANCH  34  35
ATOM     35  C   UNL A   1      39.727  28.937  29.142  1.00  0.00     0.031 A 
ATOM     36  C   UNL A   1      40.639  29.956  29.769  1.00  0.00     0.074 A 
ATOM     37  C   UNL A   1      40.201  27.720  28.806  1.00  0.00     0.049 A 
ATOM     38  N   UNL A   1      41.910  29.855  30.060  1.00  0.00    -0.248 NA
ATOM     39  C   UNL A   1      40.053  31.269  30.088  1.00  0.00     0.031 C 
ATOM     40  C   UNL A   1      39.427  26.657  28.158  1.00  0.00     0.029 A 
ATOM     41  N   UNL A   1      41.450  27.172  28.958  1.00  0.00    -0.354 N 
ATOM     42  C   UNL A   1      42.280  31.091  30.579  1.00  0.00     0.074 A 
ATOM     43  C   UNL A   1      41.113  31.943  30.512  1.00  0.00     0.031 C 
ATOM     44  C   UNL A   1      40.210  25.579  27.995  1.00  0.00     0.029 A 
ATOM     45  C   UNL A   1      41.551  25.886  28.479  1.00  0.00     0.049 A 
ATOM     46  H   UNL A   1      42.203  27.654  29.370  1.00  0.00     0.167 HD
ATOM     47  C   UNL A   1      43.476  31.478  31.082  1.00  0.00     0.031 A 
ATOM     48  C   UNL A   1      42.607  25.050  28.424  1.00  0.00     0.031 A 
ATOM     49  C   UNL A   1      44.632  30.624  31.150  1.00  0.00     0.049 A 
ATOM     50  C   UNL A   1      43.933  25.511  28.968  1.00  0.00     0.074 A 
ATOM     51  C   UNL A   1      45.875  30.902  31.692  1.00  0.00     0.029 A 
ATOM     52  N   UNL A   1      44.693  29.328  30.658  1.00  0.00    -0.354 N 
ATOM     53  N   UNL A   1      44.243  26.661  29.517  1.00  0.00    -0.248 NA
ATOM     54  C   UNL A   1      45.047  24.556  28.894  1.00  0.00     0.031 C 
ATOM     55  C   UNL A   1      46.705  29.800  31.471  1.00  0.00     0.029 A 
ATOM     56  C   UNL A   1      45.960  28.806  30.856  1.00  0.00     0.049 A 
ATOM     57  H   UNL A   1      43.945  28.851  30.231  1.00  0.00     0.167 HD
ATOM     58  C   UNL A   1      45.581  26.557  29.881  1.00  0.00     0.074 A 
ATOM     59  C   UNL A   1      46.015  25.228  29.504  1.00  0.00     0.031 C 
ATOM     60  C   UNL A   1      46.378  27.479  30.476  1.00  0.00     0.031 A 
BRANCH  47  61
ATOM     61  C   UNL A   1      43.598  32.891  31.592  1.00  0.00    -0.014 A 
ATOM     62  C   UNL A   1      43.213  33.229  32.902  1.00  0.00     0.010 A 
ATOM     63  C   UNL A   1      44.145  33.888  30.763  1.00  0.00     0.010 A 
ATOM     64  C   UNL A   1      43.333  34.544  33.360  1.00  0.00     0.020 A 
ATOM     65  C   UNL A   1      44.297  35.198  31.227  1.00  0.00     0.020 A 
ATOM     66  C   UNL A   1      43.874  35.521  32.519  1.00  0.00     0.054 A 
BRANCH  66  67
ATOM     67  S   UNL A   1      44.041  37.213  33.149  1.00  0.00     0.124 S 
ATOM     68  O   UNL A   1      42.992  37.260  34.165  1.00  0.00    -0.237 OA
ATOM     69  O   UNL A   1      45.410  37.229  33.659  1.00  0.00    -0.237 OA
ATOM     70  O   UNL A   1      43.806  38.047  31.974  1.00  0.00    -0.744 OA
ENDBRANCH  66  67
ENDBRANCH  47  61
BRANCH  48  71
ATOM     71  C   UNL A   1      42.451  23.690  27.837  1.00  0.00    -0.014 A 
ATOM     72  C   UNL A   1      42.675  23.472  26.466  1.00  0.00     0.010 A 
ATOM     73  C   UNL A   1      42.087  22.601  28.650  1.00  0.00     0.010 A 
ATOM     74  C   UNL A   1      42.520  22.196  25.916  1.00  0.00     0.020 A 
ATOM     75  C   UNL A   1      41.963  21.318  28.111  1.00  0.00     0.020 A 
ATOM     76  C   UNL A   1      42.168  21.126  26.744  1.00  0.00     0.054 A 
BRANCH  76  77
ATOM     77  S   UNL A   1      42.021  19.470  26.017  1.00  0.00     0.124 S 
ATOM     78  O   UNL A   1      40.584  19.364  25.788  1.00  0.00    -0.237 OA
ATOM     79  O   UNL A   1      42.848  19.579  24.818  1.00  0.00    -0.237 OA
ATOM     80  O   UNL A   1      42.557  18.592  27.055  1.00  0.00    -0.744 OA
ENDBRANCH  76  77
ENDBRANCH  48  71
BRANCH  60  81
ATOM     81  C   UNL A   1      47.793  27.075  30.794  1.00  0.00    -0.014 A 
ATOM     82  C   UNL A   1      48.843  27.310  29.890  1.00  0.00     0.010 A 
ATOM     83  C   UNL A   1      48.084  26.505  32.048  1.00  0.00     0.010 A 
ATOM     84  C   UNL A   1      50.155  26.956  30.222  1.00  0.00     0.020 A 
ATOM     85  C   UNL A   1      49.397  26.180  32.396  1.00  0.00     0.020 A 
ATOM     86  C   UNL A   1      50.422  26.395  31.474  1.00  0.00     0.054 A 
BRANCH  86  87
ATOM     87  S   UNL A   1      52.139  25.992  31.900  1.00  0.00     0.124 S 
ATOM     88  O   UNL A   1      52.346  26.784  33.109  1.00  0.00    -0.237 OA
ATOM     89  O   UNL A   1      52.089  24.545  32.096  1.00  0.00    -0.237 OA
ATOM     90  O   UNL A   1      52.898  26.430  30.731  1.00  0.00    -0.744 OA
ENDBRANCH  86  87
ENDBRANCH  60  81
ENDBRANCH  34  35
ENDBRANCH  26  29
ENDBRANCH  24  25
ENDBRANCH   1  24
TORSDOF 16
ENDMDL
