MODEL 1
REMARK VINA RESULT:     -10.6      0.000      0.000
REMARK SMILES C[C@@H]1CCC[C@]1(Sc1ccc(F)cc1)C(=O)NCCCNC(=O)c1ccc(-c2c3nc(c(-c4ccc(S(=O)(=O)[O-])cc4)c4ccc([nH]4)c(-c4ccc(S(=O)(=O)[O-])cc4)c4nc(c(-c5ccc(S(=O)(=O)[O-])cc5)c5ccc2[nH]5)C=C4)C=C3)cc1
REMARK SMILES IDX 19 1 18 2 17 3 15 4 16 5 6 7 1 8 2 9 3 10 4 11 5 12 7 13
REMARK SMILES IDX 8 14 9 15 14 16 10 17 13 18 11 19 12 20 20 21 21 22 22 23
REMARK SMILES IDX 23 25 24 26 25 27 83 28 26 29 82 30 27 31 28 32 29 33 76 34
REMARK SMILES IDX 30 35 81 36 75 37 77 38 31 39 80 40 74 41 73 42 32 44 62 45
REMARK SMILES IDX 43 46 61 47 44 48 47 49 60 50 78 51 45 52 46 53 59 55 79 56
REMARK SMILES IDX 48 57 33 58 34 59 42 60 35 61 41 62 36 63 37 64 38 65 39 66
REMARK SMILES IDX 40 67 63 68 64 69 72 70 65 71 71 72 66 73 67 74 68 75 69 76
REMARK SMILES IDX 70 77 49 78 50 79 58 80 51 81 57 82 52 83 53 84 54 85 55 86
REMARK SMILES IDX 56 87
REMARK H PARENT 17 6 21 24 77 43 47 54
REMARK Flexibility Score: inf
ROOT
ATOM      1  C   UNL A   1      35.754  23.376  25.819  1.00  0.00     0.042 C 
ENDROOT
BRANCH   1   2
ATOM      2  C   UNL A   1      34.602  24.255  25.361  1.00  0.00     0.117 C 
BRANCH   2   3
ATOM      3  N   UNL A   1      33.715  23.590  24.418  1.00  0.00    -0.355 N 
ATOM      4  C   UNL A   1      32.534  24.004  23.859  1.00  0.00     0.236 C 
ATOM      5  O   UNL A   1      32.046  23.272  22.992  1.00  0.00    -0.273 OA
ATOM      6  H   UNL A   1      34.012  22.695  24.135  1.00  0.00     0.163 HD
BRANCH   4   7
ATOM      7  C   UNL A   1      31.846  25.326  24.316  1.00  0.00     0.102 C 
ATOM      8  C   UNL A   1      31.016  23.890  26.315  1.00  0.00     0.009 C 
ATOM      9  C   UNL A   1      31.459  25.283  25.820  1.00  0.00     0.012 C 
ATOM     10  C   UNL A   1      30.247  26.217  25.960  1.00  0.00     0.005 C 
ATOM     11  C   UNL A   1      29.594  26.292  24.587  1.00  0.00     0.002 C 
ATOM     12  C   UNL A   1      30.475  25.497  23.628  1.00  0.00     0.028 C 
BRANCH   7  13
ATOM     13  S   UNL A   1      33.020  26.665  23.654  1.00  0.00    -0.109 SA
BRANCH  13  14
ATOM     14  C   UNL A   1      33.078  27.972  24.844  1.00  0.00     0.008 A 
ATOM     15  C   UNL A   1      32.193  29.054  24.814  1.00  0.00     0.018 A 
ATOM     16  C   UNL A   1      33.937  27.822  25.940  1.00  0.00     0.018 A 
ATOM     17  C   UNL A   1      32.240  30.029  25.813  1.00  0.00     0.040 A 
ATOM     18  C   UNL A   1      33.963  28.781  26.954  1.00  0.00     0.040 A 
ATOM     19  C   UNL A   1      33.128  29.886  26.870  1.00  0.00     0.123 A 
ATOM     20  F   UNL A   1      33.167  30.815  27.833  1.00  0.00    -0.207 F 
ENDBRANCH  13  14
ENDBRANCH   7  13
ENDBRANCH   4   7
ENDBRANCH   2   3
ENDBRANCH   1   2
BRANCH   1  21
ATOM     21  C   UNL A   1      37.057  23.625  25.076  1.00  0.00     0.118 C 
BRANCH  21  22
ATOM     22  N   UNL A   1      38.104  22.685  25.452  1.00  0.00    -0.352 N 
ATOM     23  C   UNL A   1      39.286  22.897  26.118  1.00  0.00     0.251 C 
ATOM     24  H   UNL A   1      37.939  21.751  25.186  1.00  0.00     0.163 HD
ATOM     25  O   UNL A   1      40.124  21.998  26.161  1.00  0.00    -0.269 OA
BRANCH  23  26
ATOM     26  C   UNL A   1      39.563  24.200  26.761  1.00  0.00     0.039 A 
ATOM     27  C   UNL A   1      39.097  24.427  28.059  1.00  0.00     0.014 A 
ATOM     28  C   UNL A   1      40.270  25.201  26.090  1.00  0.00     0.014 A 
ATOM     29  C   UNL A   1      39.402  25.626  28.706  1.00  0.00     0.010 A 
ATOM     30  C   UNL A   1      40.651  26.355  26.768  1.00  0.00     0.010 A 
ATOM     31  C   UNL A   1      40.219  26.584  28.083  1.00  0.00    -0.014 A 
BRANCH  31  32
ATOM     32  C   UNL A   1      40.640  27.821  28.792  1.00  0.00     0.031 A 
ATOM     33  C   UNL A   1      41.986  27.890  29.465  1.00  0.00     0.074 A 
ATOM     34  C   UNL A   1      39.781  28.856  28.891  1.00  0.00     0.049 A 
ATOM     35  N   UNL A   1      42.499  28.858  30.180  1.00  0.00    -0.248 NA
ATOM     36  C   UNL A   1      42.861  26.710  29.343  1.00  0.00     0.031 C 
ATOM     37  C   UNL A   1      38.430  28.894  28.325  1.00  0.00     0.029 A 
ATOM     38  N   UNL A   1      39.911  30.074  29.513  1.00  0.00    -0.354 N 
ATOM     39  C   UNL A   1      43.737  28.396  30.613  1.00  0.00     0.074 A 
ATOM     40  C   UNL A   1      43.885  27.048  30.114  1.00  0.00     0.031 C 
ATOM     41  C   UNL A   1      37.866  30.081  28.605  1.00  0.00     0.029 A 
ATOM     42  C   UNL A   1      38.792  30.870  29.410  1.00  0.00     0.049 A 
ATOM     43  H   UNL A   1      40.726  30.351  29.988  1.00  0.00     0.167 HD
ATOM     44  C   UNL A   1      44.672  29.043  31.351  1.00  0.00     0.031 A 
ATOM     45  C   UNL A   1      38.534  32.091  29.918  1.00  0.00     0.031 A 
ATOM     46  C   UNL A   1      44.532  30.394  31.823  1.00  0.00     0.049 A 
ATOM     47  C   UNL A   1      39.593  32.784  30.732  1.00  0.00     0.074 A 
ATOM     48  C   UNL A   1      45.461  31.165  32.500  1.00  0.00     0.029 A 
ATOM     49  N   UNL A   1      43.394  31.174  31.678  1.00  0.00    -0.354 N 
ATOM     50  N   UNL A   1      40.796  32.367  31.045  1.00  0.00    -0.248 NA
ATOM     51  C   UNL A   1      39.264  34.119  31.255  1.00  0.00     0.031 C 
ATOM     52  C   UNL A   1      44.861  32.385  32.827  1.00  0.00     0.029 A 
ATOM     53  C   UNL A   1      43.585  32.402  32.289  1.00  0.00     0.049 A 
ATOM     54  H   UNL A   1      42.574  30.895  31.210  1.00  0.00     0.167 HD
ATOM     55  C   UNL A   1      41.377  33.401  31.772  1.00  0.00     0.074 A 
ATOM     56  C   UNL A   1      40.403  34.469  31.835  1.00  0.00     0.031 C 
ATOM     57  C   UNL A   1      42.608  33.460  32.338  1.00  0.00     0.031 A 
BRANCH  44  58
ATOM     58  C   UNL A   1      45.933  28.301  31.711  1.00  0.00    -0.014 A 
ATOM     59  C   UNL A   1      47.086  28.383  30.912  1.00  0.00     0.010 A 
ATOM     60  C   UNL A   1      45.989  27.584  32.921  1.00  0.00     0.010 A 
ATOM     61  C   UNL A   1      48.267  27.748  31.305  1.00  0.00     0.020 A 
ATOM     62  C   UNL A   1      47.175  26.970  33.333  1.00  0.00     0.020 A 
ATOM     63  C   UNL A   1      48.305  27.049  32.517  1.00  0.00     0.054 A 
BRANCH  63  64
ATOM     64  S   UNL A   1      49.869  26.289  33.032  1.00  0.00     0.124 S 
ATOM     65  O   UNL A   1      49.454  24.922  33.338  1.00  0.00    -0.237 OA
ATOM     66  O   UNL A   1      50.704  26.441  31.843  1.00  0.00    -0.237 OA
ATOM     67  O   UNL A   1      50.281  27.087  34.185  1.00  0.00    -0.744 OA
ENDBRANCH  63  64
ENDBRANCH  44  58
BRANCH  45  68
ATOM     68  C   UNL A   1      37.210  32.738  29.688  1.00  0.00    -0.014 A 
ATOM     69  C   UNL A   1      36.979  33.523  28.545  1.00  0.00     0.010 A 
ATOM     70  C   UNL A   1      36.179  32.597  30.637  1.00  0.00     0.010 A 
ATOM     71  C   UNL A   1      35.761  34.187  28.374  1.00  0.00     0.020 A 
ATOM     72  C   UNL A   1      34.947  33.230  30.452  1.00  0.00     0.020 A 
ATOM     73  C   UNL A   1      34.753  34.039  29.331  1.00  0.00     0.054 A 
BRANCH  73  74
ATOM     74  S   UNL A   1      33.177  34.902  29.086  1.00  0.00     0.124 S 
ATOM     75  O   UNL A   1      33.619  36.217  28.632  1.00  0.00    -0.237 OA
ATOM     76  O   UNL A   1      32.517  34.073  28.080  1.00  0.00    -0.237 OA
ATOM     77  O   UNL A   1      32.561  34.869  30.410  1.00  0.00    -0.744 OA
ENDBRANCH  73  74
ENDBRANCH  45  68
BRANCH  57  78
ATOM     78  C   UNL A   1      42.992  34.736  33.039  1.00  0.00    -0.014 A 
ATOM     79  C   UNL A   1      42.861  34.877  34.431  1.00  0.00     0.010 A 
ATOM     80  C   UNL A   1      43.549  35.792  32.293  1.00  0.00     0.010 A 
ATOM     81  C   UNL A   1      43.246  36.064  35.061  1.00  0.00     0.020 A 
ATOM     82  C   UNL A   1      43.966  36.967  32.923  1.00  0.00     0.020 A 
ATOM     83  C   UNL A   1      43.798  37.101  34.301  1.00  0.00     0.054 A 
BRANCH  83  84
ATOM     84  S   UNL A   1      44.331  38.613  35.149  1.00  0.00     0.124 S 
ATOM     85  O   UNL A   1      43.866  38.378  36.513  1.00  0.00    -0.237 OA
ATOM     86  O   UNL A   1      45.780  38.588  34.967  1.00  0.00    -0.237 OA
ATOM     87  O   UNL A   1      43.636  39.678  34.428  1.00  0.00    -0.744 OA
ENDBRANCH  83  84
ENDBRANCH  57  78
ENDBRANCH  31  32
ENDBRANCH  23  26
ENDBRANCH  21  22
ENDBRANCH   1  21
TORSDOF 15
ENDMDL
MODEL 2
REMARK VINA RESULT:     -10.4      1.344      2.054
REMARK SMILES C[C@@H]1CCC[C@]1(Sc1ccc(F)cc1)C(=O)NCCCNC(=O)c1ccc(-c2c3nc(c(-c4ccc(S(=O)(=O)[O-])cc4)c4ccc([nH]4)c(-c4ccc(S(=O)(=O)[O-])cc4)c4nc(c(-c5ccc(S(=O)(=O)[O-])cc5)c5ccc2[nH]5)C=C4)C=C3)cc1
REMARK SMILES IDX 19 1 18 2 17 3 15 4 16 5 6 7 1 8 2 9 3 10 4 11 5 12 7 13
REMARK SMILES IDX 8 14 9 15 14 16 10 17 13 18 11 19 12 20 20 21 21 22 22 23
REMARK SMILES IDX 23 25 24 26 25 27 83 28 26 29 82 30 27 31 28 32 29 33 76 34
REMARK SMILES IDX 30 35 81 36 75 37 77 38 31 39 80 40 74 41 73 42 32 44 62 45
REMARK SMILES IDX 43 46 61 47 44 48 47 49 60 50 78 51 45 52 46 53 59 55 79 56
REMARK SMILES IDX 48 57 33 58 34 59 42 60 35 61 41 62 36 63 37 64 38 65 39 66
REMARK SMILES IDX 40 67 63 68 64 69 72 70 65 71 71 72 66 73 67 74 68 75 69 76
REMARK SMILES IDX 70 77 49 78 50 79 58 80 51 81 57 82 52 83 53 84 54 85 55 86
REMARK SMILES IDX 56 87
REMARK H PARENT 17 6 21 24 77 43 47 54
REMARK Flexibility Score: inf
ROOT
ATOM      1  C   UNL A   1      36.527  23.320  23.560  1.00  0.00     0.042 C 
ENDROOT
BRANCH   1   2
ATOM      2  C   UNL A   1      35.019  23.190  23.422  1.00  0.00     0.117 C 
BRANCH   2   3
ATOM      3  N   UNL A   1      34.509  21.913  23.900  1.00  0.00    -0.355 N 
ATOM      4  C   UNL A   1      33.328  21.599  24.520  1.00  0.00     0.236 C 
ATOM      5  O   UNL A   1      33.108  20.400  24.716  1.00  0.00    -0.273 OA
ATOM      6  H   UNL A   1      35.111  21.148  23.753  1.00  0.00     0.163 HD
BRANCH   4   7
ATOM      7  C   UNL A   1      32.331  22.712  24.966  1.00  0.00     0.102 C 
ATOM      8  C   UNL A   1      33.889  22.908  27.035  1.00  0.00     0.009 C 
ATOM      9  C   UNL A   1      32.948  23.636  26.052  1.00  0.00     0.012 C 
ATOM     10  C   UNL A   1      31.757  24.158  26.872  1.00  0.00     0.005 C 
ATOM     11  C   UNL A   1      30.632  23.149  26.698  1.00  0.00     0.002 C 
ATOM     12  C   UNL A   1      31.120  22.101  25.702  1.00  0.00     0.028 C 
BRANCH   7  13
ATOM     13  S   UNL A   1      31.729  23.428  23.312  1.00  0.00    -0.109 SA
BRANCH  13  14
ATOM     14  C   UNL A   1      31.353  25.137  23.565  1.00  0.00     0.008 A 
ATOM     15  C   UNL A   1      32.292  26.151  23.350  1.00  0.00     0.018 A 
ATOM     16  C   UNL A   1      30.023  25.483  23.832  1.00  0.00     0.018 A 
ATOM     17  C   UNL A   1      31.928  27.491  23.505  1.00  0.00     0.040 A 
ATOM     18  C   UNL A   1      29.652  26.823  23.956  1.00  0.00     0.040 A 
ATOM     19  C   UNL A   1      30.613  27.814  23.811  1.00  0.00     0.123 A 
ATOM     20  F   UNL A   1      30.261  29.098  23.950  1.00  0.00    -0.207 F 
ENDBRANCH  13  14
ENDBRANCH   7  13
ENDBRANCH   4   7
ENDBRANCH   2   3
ENDBRANCH   1   2
BRANCH   1  21
ATOM     21  C   UNL A   1      36.997  23.609  24.977  1.00  0.00     0.118 C 
BRANCH  21  22
ATOM     22  N   UNL A   1      37.959  22.628  25.458  1.00  0.00    -0.352 N 
ATOM     23  C   UNL A   1      39.109  22.801  26.188  1.00  0.00     0.251 C 
ATOM     24  H   UNL A   1      37.753  21.694  25.223  1.00  0.00     0.163 HD
ATOM     25  O   UNL A   1      39.886  21.857  26.323  1.00  0.00    -0.269 OA
BRANCH  23  26
ATOM     26  C   UNL A   1      39.428  24.114  26.790  1.00  0.00     0.039 A 
ATOM     27  C   UNL A   1      39.001  24.382  28.093  1.00  0.00     0.014 A 
ATOM     28  C   UNL A   1      40.133  25.085  26.075  1.00  0.00     0.014 A 
ATOM     29  C   UNL A   1      39.345  25.591  28.702  1.00  0.00     0.010 A 
ATOM     30  C   UNL A   1      40.554  26.248  26.714  1.00  0.00     0.010 A 
ATOM     31  C   UNL A   1      40.162  26.518  28.033  1.00  0.00    -0.014 A 
BRANCH  31  32
ATOM     32  C   UNL A   1      40.624  27.764  28.699  1.00  0.00     0.031 A 
ATOM     33  C   UNL A   1      41.999  27.833  29.311  1.00  0.00     0.074 A 
ATOM     34  C   UNL A   1      39.779  28.809  28.815  1.00  0.00     0.049 A 
ATOM     35  N   UNL A   1      42.551  28.810  29.984  1.00  0.00    -0.248 NA
ATOM     36  C   UNL A   1      42.857  26.643  29.174  1.00  0.00     0.031 C 
ATOM     37  C   UNL A   1      38.404  28.849  28.309  1.00  0.00     0.029 A 
ATOM     38  N   UNL A   1      39.946  30.036  29.407  1.00  0.00    -0.354 N 
ATOM     39  C   UNL A   1      43.803  28.344  30.371  1.00  0.00     0.074 A 
ATOM     40  C   UNL A   1      43.918  26.986  29.892  1.00  0.00     0.031 C 
ATOM     41  C   UNL A   1      37.864  30.046  28.589  1.00  0.00     0.029 A 
ATOM     42  C   UNL A   1      38.831  30.841  29.338  1.00  0.00     0.049 A 
ATOM     43  H   UNL A   1      40.784  30.315  29.841  1.00  0.00     0.167 HD
ATOM     44  C   UNL A   1      44.774  28.996  31.055  1.00  0.00     0.031 A 
ATOM     45  C   UNL A   1      38.606  32.074  29.833  1.00  0.00     0.031 A 
ATOM     46  C   UNL A   1      44.667  30.358  31.506  1.00  0.00     0.049 A 
ATOM     47  C   UNL A   1      39.705  32.772  30.587  1.00  0.00     0.074 A 
ATOM     48  C   UNL A   1      45.631  31.132  32.128  1.00  0.00     0.029 A 
ATOM     49  N   UNL A   1      43.531  31.145  31.397  1.00  0.00    -0.354 N 
ATOM     50  N   UNL A   1      40.918  32.350  30.855  1.00  0.00    -0.248 NA
ATOM     51  C   UNL A   1      39.411  34.119  31.097  1.00  0.00     0.031 C 
ATOM     52  C   UNL A   1      45.057  32.363  32.456  1.00  0.00     0.029 A 
ATOM     53  C   UNL A   1      43.759  32.382  31.974  1.00  0.00     0.049 A 
ATOM     54  H   UNL A   1      42.688  30.865  30.971  1.00  0.00     0.167 HD
ATOM     55  C   UNL A   1      41.539  33.392  31.536  1.00  0.00     0.074 A 
ATOM     56  C   UNL A   1      40.577  34.470  31.621  1.00  0.00     0.031 C 
ATOM     57  C   UNL A   1      42.794  33.450  32.046  1.00  0.00     0.031 A 
BRANCH  44  58
ATOM     58  C   UNL A   1      46.044  28.249  31.374  1.00  0.00    -0.014 A 
ATOM     59  C   UNL A   1      46.169  27.484  32.547  1.00  0.00     0.010 A 
ATOM     60  C   UNL A   1      47.094  28.241  30.437  1.00  0.00     0.010 A 
ATOM     61  C   UNL A   1      47.327  26.739  32.786  1.00  0.00     0.020 A 
ATOM     62  C   UNL A   1      48.242  27.476  30.658  1.00  0.00     0.020 A 
ATOM     63  C   UNL A   1      48.354  26.736  31.836  1.00  0.00     0.054 A 
BRANCH  63  64
ATOM     64  S   UNL A   1      49.818  25.709  32.144  1.00  0.00     0.124 S 
ATOM     65  O   UNL A   1      50.102  25.182  30.812  1.00  0.00    -0.237 OA
ATOM     66  O   UNL A   1      50.784  26.677  32.656  1.00  0.00    -0.237 OA
ATOM     67  O   UNL A   1      49.352  24.723  33.117  1.00  0.00    -0.744 OA
ENDBRANCH  63  64
ENDBRANCH  44  58
BRANCH  45  68
ATOM     68  C   UNL A   1      37.278  32.728  29.650  1.00  0.00    -0.014 A 
ATOM     69  C   UNL A   1      36.829  33.101  28.370  1.00  0.00     0.010 A 
ATOM     70  C   UNL A   1      36.469  33.014  30.765  1.00  0.00     0.010 A 
ATOM     71  C   UNL A   1      35.618  33.782  28.213  1.00  0.00     0.020 A 
ATOM     72  C   UNL A   1      35.240  33.662  30.610  1.00  0.00     0.020 A 
ATOM     73  C   UNL A   1      34.833  34.061  29.336  1.00  0.00     0.054 A 
BRANCH  73  74
ATOM     74  S   UNL A   1      33.260  34.937  29.110  1.00  0.00     0.124 S 
ATOM     75  O   UNL A   1      32.686  34.879  30.450  1.00  0.00    -0.237 OA
ATOM     76  O   UNL A   1      33.696  36.258  28.664  1.00  0.00    -0.237 OA
ATOM     77  O   UNL A   1      32.570  34.142  28.096  1.00  0.00    -0.744 OA
ENDBRANCH  73  74
ENDBRANCH  45  68
BRANCH  57  78
ATOM     78  C   UNL A   1      43.219  34.736  32.704  1.00  0.00    -0.014 A 
ATOM     79  C   UNL A   1      43.732  35.809  31.955  1.00  0.00     0.010 A 
ATOM     80  C   UNL A   1      43.049  34.890  34.093  1.00  0.00     0.010 A 
ATOM     81  C   UNL A   1      44.098  37.001  32.587  1.00  0.00     0.020 A 
ATOM     82  C   UNL A   1      43.382  36.091  34.723  1.00  0.00     0.020 A 
ATOM     83  C   UNL A   1      43.918  37.134  33.967  1.00  0.00     0.054 A 
BRANCH  83  84
ATOM     84  S   UNL A   1      44.360  38.706  34.756  1.00  0.00     0.124 S 
ATOM     85  O   UNL A   1      43.458  39.643  34.092  1.00  0.00    -0.237 OA
ATOM     86  O   UNL A   1      44.074  38.449  36.165  1.00  0.00    -0.237 OA
ATOM     87  O   UNL A   1      45.776  38.870  34.434  1.00  0.00    -0.744 OA
ENDBRANCH  83  84
ENDBRANCH  57  78
ENDBRANCH  31  32
ENDBRANCH  23  26
ENDBRANCH  21  22
ENDBRANCH   1  21
TORSDOF 15
ENDMDL
MODEL 3
REMARK VINA RESULT:     -10.4      2.990      9.317
REMARK SMILES C[C@@H]1CCC[C@]1(Sc1ccc(F)cc1)C(=O)NCCCNC(=O)c1ccc(-c2c3nc(c(-c4ccc(S(=O)(=O)[O-])cc4)c4ccc([nH]4)c(-c4ccc(S(=O)(=O)[O-])cc4)c4nc(c(-c5ccc(S(=O)(=O)[O-])cc5)c5ccc2[nH]5)C=C4)C=C3)cc1
REMARK SMILES IDX 19 1 18 2 17 3 15 4 16 5 6 7 1 8 2 9 3 10 4 11 5 12 7 13
REMARK SMILES IDX 8 14 9 15 14 16 10 17 13 18 11 19 12 20 20 21 21 22 22 23
REMARK SMILES IDX 23 25 24 26 25 27 83 28 26 29 82 30 27 31 28 32 29 33 76 34
REMARK SMILES IDX 30 35 81 36 75 37 77 38 31 39 80 40 74 41 73 42 32 44 62 45
REMARK SMILES IDX 43 46 61 47 44 48 47 49 60 50 78 51 45 52 46 53 59 55 79 56
REMARK SMILES IDX 48 57 33 58 34 59 42 60 35 61 41 62 36 63 37 64 38 65 39 66
REMARK SMILES IDX 40 67 63 68 64 69 72 70 65 71 71 72 66 73 67 74 68 75 69 76
REMARK SMILES IDX 70 77 49 78 50 79 58 80 51 81 57 82 52 83 53 84 54 85 55 86
REMARK SMILES IDX 56 87
REMARK H PARENT 17 6 21 24 77 43 47 54
REMARK Flexibility Score: inf
ROOT
ATOM      1  C   UNL A   1      33.770  27.884  25.535  1.00  0.00     0.042 C 
ENDROOT
BRANCH   1   2
ATOM      2  C   UNL A   1      33.110  26.592  25.081  1.00  0.00     0.117 C 
BRANCH   2   3
ATOM      3  N   UNL A   1      33.143  25.547  26.094  1.00  0.00    -0.355 N 
ATOM      4  C   UNL A   1      33.258  24.187  25.969  1.00  0.00     0.236 C 
ATOM      5  O   UNL A   1      33.373  23.543  27.017  1.00  0.00    -0.273 OA
ATOM      6  H   UNL A   1      33.070  25.870  27.021  1.00  0.00     0.163 HD
BRANCH   4   7
ATOM      7  C   UNL A   1      33.228  23.500  24.570  1.00  0.00     0.102 C 
ATOM      8  C   UNL A   1      30.654  23.769  24.789  1.00  0.00     0.009 C 
ATOM      9  C   UNL A   1      31.874  23.732  23.844  1.00  0.00     0.012 C 
ATOM     10  C   UNL A   1      31.690  22.518  22.920  1.00  0.00     0.005 C 
ATOM     11  C   UNL A   1      32.520  21.389  23.512  1.00  0.00     0.002 C 
ATOM     12  C   UNL A   1      33.267  21.964  24.712  1.00  0.00     0.028 C 
BRANCH   7  13
ATOM     13  S   UNL A   1      34.860  24.072  23.782  1.00  0.00    -0.109 SA
BRANCH  13  14
ATOM     14  C   UNL A   1      36.187  23.327  24.682  1.00  0.00     0.008 A 
ATOM     15  C   UNL A   1      36.749  22.101  24.313  1.00  0.00     0.018 A 
ATOM     16  C   UNL A   1      36.794  24.077  25.698  1.00  0.00     0.018 A 
ATOM     17  C   UNL A   1      37.836  21.583  25.021  1.00  0.00     0.040 A 
ATOM     18  C   UNL A   1      37.900  23.575  26.385  1.00  0.00     0.040 A 
ATOM     19  C   UNL A   1      38.398  22.323  26.052  1.00  0.00     0.123 A 
ATOM     20  F   UNL A   1      39.447  21.833  26.725  1.00  0.00    -0.207 F 
ENDBRANCH  13  14
ENDBRANCH   7  13
ENDBRANCH   4   7
ENDBRANCH   2   3
ENDBRANCH   1   2
BRANCH   1  21
ATOM     21  C   UNL A   1      33.705  28.119  27.036  1.00  0.00     0.118 C 
BRANCH  21  22
ATOM     22  N   UNL A   1      33.632  29.532  27.379  1.00  0.00    -0.352 N 
ATOM     23  C   UNL A   1      34.551  30.338  28.005  1.00  0.00     0.251 C 
ATOM     24  H   UNL A   1      32.793  29.980  27.122  1.00  0.00     0.163 HD
ATOM     25  O   UNL A   1      34.213  31.461  28.378  1.00  0.00    -0.269 OA
BRANCH  23  26
ATOM     26  C   UNL A   1      35.929  29.860  28.252  1.00  0.00     0.039 A 
ATOM     27  C   UNL A   1      36.870  29.948  27.223  1.00  0.00     0.014 A 
ATOM     28  C   UNL A   1      36.294  29.315  29.485  1.00  0.00     0.014 A 
ATOM     29  C   UNL A   1      38.191  29.559  27.456  1.00  0.00     0.010 A 
ATOM     30  C   UNL A   1      37.629  29.015  29.744  1.00  0.00     0.010 A 
ATOM     31  C   UNL A   1      38.593  29.130  28.732  1.00  0.00    -0.014 A 
BRANCH  31  32
ATOM     32  C   UNL A   1      40.014  28.809  29.028  1.00  0.00     0.031 A 
ATOM     33  C   UNL A   1      40.930  29.864  29.591  1.00  0.00     0.074 A 
ATOM     34  C   UNL A   1      40.497  27.586  28.723  1.00  0.00     0.049 A 
ATOM     35  N   UNL A   1      42.209  29.787  29.855  1.00  0.00    -0.248 NA
ATOM     36  C   UNL A   1      40.342  31.186  29.870  1.00  0.00     0.031 C 
ATOM     37  C   UNL A   1      39.724  26.493  28.128  1.00  0.00     0.029 A 
ATOM     38  N   UNL A   1      41.758  27.061  28.860  1.00  0.00    -0.354 N 
ATOM     39  C   UNL A   1      42.581  31.050  30.302  1.00  0.00     0.074 A 
ATOM     40  C   UNL A   1      41.405  31.886  30.240  1.00  0.00     0.031 C 
ATOM     41  C   UNL A   1      40.520  25.422  27.974  1.00  0.00     0.029 A 
ATOM     42  C   UNL A   1      41.869  25.763  28.412  1.00  0.00     0.049 A 
ATOM     43  H   UNL A   1      42.513  27.563  29.242  1.00  0.00     0.167 HD
ATOM     44  C   UNL A   1      43.794  31.470  30.737  1.00  0.00     0.031 A 
ATOM     45  C   UNL A   1      42.938  24.946  28.345  1.00  0.00     0.031 A 
ATOM     46  C   UNL A   1      44.956  30.627  30.822  1.00  0.00     0.049 A 
ATOM     47  C   UNL A   1      44.271  25.442  28.837  1.00  0.00     0.074 A 
ATOM     48  C   UNL A   1      46.204  30.938  31.334  1.00  0.00     0.029 A 
ATOM     49  N   UNL A   1      45.021  29.314  30.380  1.00  0.00    -0.354 N 
ATOM     50  N   UNL A   1      44.577  26.610  29.350  1.00  0.00    -0.248 NA
ATOM     51  C   UNL A   1      45.402  24.506  28.752  1.00  0.00     0.031 C 
ATOM     52  C   UNL A   1      47.043  29.838  31.137  1.00  0.00     0.029 A 
ATOM     53  C   UNL A   1      46.299  28.816  30.571  1.00  0.00     0.049 A 
ATOM     54  H   UNL A   1      44.269  28.812  29.989  1.00  0.00     0.167 HD
ATOM     55  C   UNL A   1      45.928  26.536  29.677  1.00  0.00     0.074 A 
ATOM     56  C   UNL A   1      46.373  25.205  29.324  1.00  0.00     0.031 C 
ATOM     57  C   UNL A   1      46.727  27.486  30.221  1.00  0.00     0.031 A 
BRANCH  44  58
ATOM     58  C   UNL A   1      43.942  32.912  31.147  1.00  0.00    -0.014 A 
ATOM     59  C   UNL A   1      43.722  33.324  32.473  1.00  0.00     0.010 A 
ATOM     60  C   UNL A   1      44.399  33.853  30.205  1.00  0.00     0.010 A 
ATOM     61  C   UNL A   1      43.939  34.653  32.846  1.00  0.00     0.020 A 
ATOM     62  C   UNL A   1      44.644  35.178  30.580  1.00  0.00     0.020 A 
ATOM     63  C   UNL A   1      44.404  35.570  31.898  1.00  0.00     0.054 A 
BRANCH  63  64
ATOM     64  S   UNL A   1      44.737  37.273  32.428  1.00  0.00     0.124 S 
ATOM     65  O   UNL A   1      43.841  38.038  31.564  1.00  0.00    -0.237 OA
ATOM     66  O   UNL A   1      44.372  37.244  33.842  1.00  0.00    -0.237 OA
ATOM     67  O   UNL A   1      46.162  37.449  32.158  1.00  0.00    -0.744 OA
ENDBRANCH  63  64
ENDBRANCH  44  58
BRANCH  45  68
ATOM     68  C   UNL A   1      42.802  23.574  27.777  1.00  0.00    -0.014 A 
ATOM     69  C   UNL A   1      42.983  23.342  26.402  1.00  0.00     0.010 A 
ATOM     70  C   UNL A   1      42.456  22.493  28.609  1.00  0.00     0.010 A 
ATOM     71  C   UNL A   1      42.781  22.067  25.864  1.00  0.00     0.020 A 
ATOM     72  C   UNL A   1      42.288  21.210  28.082  1.00  0.00     0.020 A 
ATOM     73  C   UNL A   1      42.430  21.010  26.708  1.00  0.00     0.054 A 
BRANCH  73  74
ATOM     74  S   UNL A   1      42.181  19.362  25.992  1.00  0.00     0.124 S 
ATOM     75  O   UNL A   1      40.742  19.349  25.755  1.00  0.00    -0.237 OA
ATOM     76  O   UNL A   1      43.020  19.407  24.796  1.00  0.00    -0.237 OA
ATOM     77  O   UNL A   1      42.653  18.460  27.040  1.00  0.00    -0.744 OA
ENDBRANCH  73  74
ENDBRANCH  45  68
BRANCH  57  78
ATOM     78  C   UNL A   1      48.156  27.112  30.510  1.00  0.00    -0.014 A 
ATOM     79  C   UNL A   1      49.212  27.561  29.698  1.00  0.00     0.010 A 
ATOM     80  C   UNL A   1      48.451  26.341  31.651  1.00  0.00     0.010 A 
ATOM     81  C   UNL A   1      50.533  27.219  30.001  1.00  0.00     0.020 A 
ATOM     82  C   UNL A   1      49.772  26.025  31.976  1.00  0.00     0.020 A 
ATOM     83  C   UNL A   1      50.803  26.454  31.140  1.00  0.00     0.054 A 
BRANCH  83  84
ATOM     84  S   UNL A   1      52.529  26.060  31.536  1.00  0.00     0.124 S 
ATOM     85  O   UNL A   1      53.142  26.015  30.211  1.00  0.00    -0.237 OA
ATOM     86  O   UNL A   1      52.930  27.187  32.375  1.00  0.00    -0.237 OA
ATOM     87  O   UNL A   1      52.443  24.775  32.227  1.00  0.00    -0.744 OA
ENDBRANCH  83  84
ENDBRANCH  57  78
ENDBRANCH  31  32
ENDBRANCH  23  26
ENDBRANCH  21  22
ENDBRANCH   1  21
TORSDOF 15
ENDMDL
