MODEL 1
REMARK VINA RESULT:     -10.7      0.000      0.000
REMARK SMILES CN(C(=O)C[C@](C)(C(=O)NCCCNC(=O)c1ccc(-c2c3nc(c(-c4ccc(S(=O)(=O)[O-])cc4)c4ccc([nH]4)c(-c4ccc(S(=O)(=O)[O-])cc4)c4nc(c(-c5ccc(S(=O)(=O)[O-])cc5)c5ccc2[nH]5)C=C4)C=C3)cc1)c1ccccc1)[C@@H]1CCSC1
REMARK SMILES IDX 11 1 10 2 8 3 9 4 6 6 7 7 5 8 3 9 4 10 2 11 1 12 83 13 84 14
REMARK SMILES IDX 87 15 85 16 86 17 77 18 78 19 82 20 79 21 81 22 80 23 12 24
REMARK SMILES IDX 13 25 14 26 15 27 16 29 17 30 18 31 76 32 19 33 75 34 20 35
REMARK SMILES IDX 21 36 22 37 69 38 23 39 74 40 68 41 70 42 24 43 73 44 67 45
REMARK SMILES IDX 66 46 25 48 55 49 36 50 54 51 37 52 40 53 53 54 71 55 38 56
REMARK SMILES IDX 39 57 52 59 72 60 41 61 26 62 27 63 35 64 28 65 34 66 29 67
REMARK SMILES IDX 30 68 31 69 32 70 33 71 56 72 57 73 65 74 58 75 64 76 59 77
REMARK SMILES IDX 60 78 61 79 62 80 63 81 42 82 43 83 51 84 44 85 50 86 45 87
REMARK SMILES IDX 46 88 47 89 48 90 49 91
REMARK H PARENT 10 5 14 28 70 47 40 58
REMARK Flexibility Score: inf
ROOT
ATOM      1  C   UNL A   1      34.114  24.498  24.742  1.00  0.00     0.117 C 
ENDROOT
BRANCH   1   2
ATOM      2  N   UNL A   1      33.586  24.193  26.063  1.00  0.00    -0.355 N 
ATOM      3  C   UNL A   1      32.408  23.691  26.519  1.00  0.00     0.230 C 
ATOM      4  O   UNL A   1      32.344  23.594  27.751  1.00  0.00    -0.274 OA
ATOM      5  H   UNL A   1      34.224  24.394  26.786  1.00  0.00     0.163 HD
BRANCH   3   6
ATOM      6  C   UNL A   1      31.235  23.234  25.592  1.00  0.00     0.080 C 
ATOM      7  C   UNL A   1      30.068  22.752  26.492  1.00  0.00     0.027 C 
BRANCH   6   8
ATOM      8  C   UNL A   1      30.796  24.444  24.701  1.00  0.00     0.121 C 
BRANCH   8   9
ATOM      9  C   UNL A   1      30.541  25.778  25.408  1.00  0.00     0.224 C 
ATOM     10  O   UNL A   1      29.944  25.727  26.486  1.00  0.00    -0.275 OA
BRANCH   9  11
ATOM     11  N   UNL A   1      31.004  26.968  24.853  1.00  0.00    -0.342 N 
ATOM     12  C   UNL A   1      30.255  27.690  23.832  1.00  0.00     0.147 C 
BRANCH  11  13
ATOM     13  C   UNL A   1      32.307  27.602  25.193  1.00  0.00     0.095 C 
ATOM     14  C   UNL A   1      32.833  27.559  26.630  1.00  0.00     0.037 C 
ATOM     15  C   UNL A   1      32.376  29.093  24.805  1.00  0.00     0.094 C 
ATOM     16  C   UNL A   1      32.122  28.639  27.432  1.00  0.00     0.072 C 
ATOM     17  S   UNL A   1      31.930  30.035  26.289  1.00  0.00    -0.160 SA
ENDBRANCH  11  13
ENDBRANCH   9  11
ENDBRANCH   8   9
ENDBRANCH   6   8
BRANCH   6  18
ATOM     18  C   UNL A   1      31.746  22.067  24.686  1.00  0.00    -0.032 A 
ATOM     19  C   UNL A   1      32.167  20.828  25.202  1.00  0.00     0.005 A 
ATOM     20  C   UNL A   1      31.789  22.218  23.283  1.00  0.00     0.005 A 
ATOM     21  C   UNL A   1      32.478  19.757  24.357  1.00  0.00     0.000 A 
ATOM     22  C   UNL A   1      32.065  21.140  22.438  1.00  0.00     0.000 A 
ATOM     23  C   UNL A   1      32.387  19.902  22.976  1.00  0.00     0.000 A 
ENDBRANCH   6  18
ENDBRANCH   3   6
ENDBRANCH   1   2
BRANCH   1  24
ATOM     24  C   UNL A   1      35.530  23.966  24.556  1.00  0.00     0.042 C 
BRANCH  24  25
ATOM     25  C   UNL A   1      36.390  24.010  25.816  1.00  0.00     0.118 C 
BRANCH  25  26
ATOM     26  N   UNL A   1      37.374  22.936  25.874  1.00  0.00    -0.352 N 
ATOM     27  C   UNL A   1      38.686  22.961  26.275  1.00  0.00     0.251 C 
ATOM     28  H   UNL A   1      37.047  22.056  25.577  1.00  0.00     0.163 HD
ATOM     29  O   UNL A   1      39.398  21.976  26.075  1.00  0.00    -0.269 OA
BRANCH  27  30
ATOM     30  C   UNL A   1      39.251  24.163  26.922  1.00  0.00     0.039 A 
ATOM     31  C   UNL A   1      40.023  25.044  26.160  1.00  0.00     0.014 A 
ATOM     32  C   UNL A   1      39.031  24.420  28.278  1.00  0.00     0.014 A 
ATOM     33  C   UNL A   1      40.514  26.216  26.741  1.00  0.00     0.010 A 
ATOM     34  C   UNL A   1      39.446  25.629  28.831  1.00  0.00     0.010 A 
ATOM     35  C   UNL A   1      40.195  26.539  28.070  1.00  0.00    -0.014 A 
BRANCH  35  36
ATOM     36  C   UNL A   1      40.631  27.823  28.679  1.00  0.00     0.031 A 
ATOM     37  C   UNL A   1      42.019  27.961  29.247  1.00  0.00     0.074 A 
ATOM     38  C   UNL A   1      39.757  28.844  28.780  1.00  0.00     0.049 A 
ATOM     39  N   UNL A   1      42.560  28.981  29.864  1.00  0.00    -0.248 NA
ATOM     40  C   UNL A   1      42.907  26.794  29.129  1.00  0.00     0.031 C 
ATOM     41  C   UNL A   1      38.370  28.822  28.308  1.00  0.00     0.029 A 
ATOM     42  N   UNL A   1      39.900  30.098  29.320  1.00  0.00    -0.354 N 
ATOM     43  C   UNL A   1      43.840  28.573  30.221  1.00  0.00     0.074 A 
ATOM     44  C   UNL A   1      43.976  27.196  29.801  1.00  0.00     0.031 C 
ATOM     45  C   UNL A   1      37.803  30.014  28.548  1.00  0.00     0.029 A 
ATOM     46  C   UNL A   1      38.766  30.870  29.236  1.00  0.00     0.049 A 
ATOM     47  H   UNL A   1      40.739  30.416  29.728  1.00  0.00     0.167 HD
ATOM     48  C   UNL A   1      44.822  29.285  30.825  1.00  0.00     0.031 A 
ATOM     49  C   UNL A   1      38.520  32.122  29.669  1.00  0.00     0.031 A 
ATOM     50  C   UNL A   1      44.682  30.658  31.238  1.00  0.00     0.049 A 
ATOM     51  C   UNL A   1      39.619  32.888  30.354  1.00  0.00     0.074 A 
ATOM     52  C   UNL A   1      45.634  31.483  31.809  1.00  0.00     0.029 A 
ATOM     53  N   UNL A   1      43.517  31.403  31.133  1.00  0.00    -0.354 N 
ATOM     54  N   UNL A   1      40.846  32.507  30.620  1.00  0.00    -0.248 NA
ATOM     55  C   UNL A   1      39.303  34.255  30.788  1.00  0.00     0.031 C 
ATOM     56  C   UNL A   1      45.026  32.708  32.107  1.00  0.00     0.029 A 
ATOM     57  C   UNL A   1      43.717  32.670  31.654  1.00  0.00     0.049 A 
ATOM     58  H   UNL A   1      42.672  31.079  30.744  1.00  0.00     0.167 HD
ATOM     59  C   UNL A   1      41.457  33.599  31.227  1.00  0.00     0.074 A 
ATOM     60  C   UNL A   1      40.469  34.658  31.273  1.00  0.00     0.031 C 
ATOM     61  C   UNL A   1      42.724  33.714  31.699  1.00  0.00     0.031 A 
BRANCH  48  62
ATOM     62  C   UNL A   1      46.131  28.585  31.085  1.00  0.00    -0.014 A 
ATOM     63  C   UNL A   1      47.171  28.604  30.136  1.00  0.00     0.010 A 
ATOM     64  C   UNL A   1      46.339  27.922  32.309  1.00  0.00     0.010 A 
ATOM     65  C   UNL A   1      48.372  27.934  30.386  1.00  0.00     0.020 A 
ATOM     66  C   UNL A   1      47.552  27.280  32.577  1.00  0.00     0.020 A 
ATOM     67  C   UNL A   1      48.553  27.274  31.604  1.00  0.00     0.054 A 
BRANCH  67  68
ATOM     68  S   UNL A   1      50.127  26.424  31.904  1.00  0.00     0.124 S 
ATOM     69  O   UNL A   1      50.429  26.824  33.276  1.00  0.00    -0.237 OA
ATOM     70  O   UNL A   1      49.771  25.019  31.724  1.00  0.00    -0.237 OA
ATOM     71  O   UNL A   1      51.019  26.973  30.885  1.00  0.00    -0.744 OA
ENDBRANCH  67  68
ENDBRANCH  48  62
BRANCH  49  72
ATOM     72  C   UNL A   1      37.179  32.731  29.452  1.00  0.00    -0.014 A 
ATOM     73  C   UNL A   1      36.279  32.882  30.522  1.00  0.00     0.010 A 
ATOM     74  C   UNL A   1      36.801  33.187  28.175  1.00  0.00     0.010 A 
ATOM     75  C   UNL A   1      35.025  33.464  30.318  1.00  0.00     0.020 A 
ATOM     76  C   UNL A   1      35.561  33.798  27.972  1.00  0.00     0.020 A 
ATOM     77  C   UNL A   1      34.675  33.924  29.044  1.00  0.00     0.054 A 
BRANCH  77  78
ATOM     78  S   UNL A   1      33.066  34.732  28.817  1.00  0.00     0.124 S 
ATOM     79  O   UNL A   1      33.453  36.043  28.308  1.00  0.00    -0.237 OA
ATOM     80  O   UNL A   1      32.404  33.850  27.859  1.00  0.00    -0.237 OA
ATOM     81  O   UNL A   1      32.489  34.725  30.160  1.00  0.00    -0.744 OA
ENDBRANCH  77  78
ENDBRANCH  49  72
BRANCH  61  82
ATOM     82  C   UNL A   1      43.131  35.044  32.279  1.00  0.00    -0.014 A 
ATOM     83  C   UNL A   1      43.779  36.018  31.499  1.00  0.00     0.010 A 
ATOM     84  C   UNL A   1      42.809  35.343  33.616  1.00  0.00     0.010 A 
ATOM     85  C   UNL A   1      44.123  37.254  32.053  1.00  0.00     0.020 A 
ATOM     86  C   UNL A   1      43.123  36.588  34.165  1.00  0.00     0.020 A 
ATOM     87  C   UNL A   1      43.791  37.531  33.383  1.00  0.00     0.054 A 
BRANCH  87  88
ATOM     88  S   UNL A   1      44.209  39.159  34.065  1.00  0.00     0.124 S 
ATOM     89  O   UNL A   1      45.365  39.539  33.257  1.00  0.00    -0.237 OA
ATOM     90  O   UNL A   1      42.992  39.929  33.822  1.00  0.00    -0.237 OA
ATOM     91  O   UNL A   1      44.496  38.884  35.471  1.00  0.00    -0.744 OA
ENDBRANCH  87  88
ENDBRANCH  61  82
ENDBRANCH  35  36
ENDBRANCH  27  30
ENDBRANCH  25  26
ENDBRANCH  24  25
ENDBRANCH   1  24
TORSDOF 18
ENDMDL
MODEL 2
REMARK VINA RESULT:     -10.4      3.780      9.183
REMARK SMILES CN(C(=O)C[C@](C)(C(=O)NCCCNC(=O)c1ccc(-c2c3nc(c(-c4ccc(S(=O)(=O)[O-])cc4)c4ccc([nH]4)c(-c4ccc(S(=O)(=O)[O-])cc4)c4nc(c(-c5ccc(S(=O)(=O)[O-])cc5)c5ccc2[nH]5)C=C4)C=C3)cc1)c1ccccc1)[C@@H]1CCSC1
REMARK SMILES IDX 11 1 10 2 8 3 9 4 6 6 7 7 5 8 3 9 4 10 2 11 1 12 83 13 84 14
REMARK SMILES IDX 87 15 85 16 86 17 77 18 78 19 82 20 79 21 81 22 80 23 12 24
REMARK SMILES IDX 13 25 14 26 15 27 16 29 17 30 18 31 76 32 19 33 75 34 20 35
REMARK SMILES IDX 21 36 22 37 69 38 23 39 74 40 68 41 70 42 24 43 73 44 67 45
REMARK SMILES IDX 66 46 25 48 55 49 36 50 54 51 37 52 40 53 53 54 71 55 38 56
REMARK SMILES IDX 39 57 52 59 72 60 41 61 26 62 27 63 35 64 28 65 34 66 29 67
REMARK SMILES IDX 30 68 31 69 32 70 33 71 56 72 57 73 65 74 58 75 64 76 59 77
REMARK SMILES IDX 60 78 61 79 62 80 63 81 42 82 43 83 51 84 44 85 50 86 45 87
REMARK SMILES IDX 46 88 47 89 48 90 49 91
REMARK H PARENT 10 5 14 28 70 47 40 58
REMARK Flexibility Score: inf
ROOT
ATOM      1  C   UNL A   1      36.474  20.536  25.017  1.00  0.00     0.117 C 
ENDROOT
BRANCH   1   2
ATOM      2  N   UNL A   1      35.728  21.081  26.141  1.00  0.00    -0.355 N 
ATOM      3  C   UNL A   1      34.475  21.585  26.291  1.00  0.00     0.230 C 
ATOM      4  O   UNL A   1      34.219  21.969  27.439  1.00  0.00    -0.274 OA
ATOM      5  H   UNL A   1      36.246  21.084  26.979  1.00  0.00     0.163 HD
BRANCH   3   6
ATOM      6  C   UNL A   1      33.416  21.652  25.143  1.00  0.00     0.080 C 
ATOM      7  C   UNL A   1      32.190  22.444  25.662  1.00  0.00     0.027 C 
BRANCH   6   8
ATOM      8  C   UNL A   1      34.060  22.361  23.905  1.00  0.00     0.121 C 
BRANCH   8   9
ATOM      9  C   UNL A   1      34.525  23.808  24.089  1.00  0.00     0.224 C 
ATOM     10  O   UNL A   1      35.616  23.973  24.642  1.00  0.00    -0.275 OA
BRANCH   9  11
ATOM     11  N   UNL A   1      33.749  24.863  23.614  1.00  0.00    -0.342 N 
ATOM     12  C   UNL A   1      32.932  24.744  22.413  1.00  0.00     0.147 C 
BRANCH  11  13
ATOM     13  C   UNL A   1      33.700  26.215  24.234  1.00  0.00     0.095 C 
ATOM     14  C   UNL A   1      33.569  26.362  25.752  1.00  0.00     0.037 C 
ATOM     15  C   UNL A   1      32.575  27.103  23.665  1.00  0.00     0.094 C 
ATOM     16  C   UNL A   1      32.109  26.161  26.128  1.00  0.00     0.072 C 
ATOM     17  S   UNL A   1      31.159  26.924  24.784  1.00  0.00    -0.160 SA
ENDBRANCH  11  13
ENDBRANCH   9  11
ENDBRANCH   8   9
ENDBRANCH   6   8
BRANCH   6  18
ATOM     18  C   UNL A   1      33.005  20.192  24.763  1.00  0.00    -0.032 A 
ATOM     19  C   UNL A   1      32.726  19.796  23.442  1.00  0.00     0.005 A 
ATOM     20  C   UNL A   1      32.912  19.195  25.757  1.00  0.00     0.005 A 
ATOM     21  C   UNL A   1      32.505  18.453  23.118  1.00  0.00     0.000 A 
ATOM     22  C   UNL A   1      32.727  17.849  25.431  1.00  0.00     0.000 A 
ATOM     23  C   UNL A   1      32.547  17.475  24.106  1.00  0.00     0.000 A 
ENDBRANCH   6  18
ENDBRANCH   3   6
ENDBRANCH   1   2
BRANCH   1  24
ATOM     24  C   UNL A   1      37.789  21.273  24.794  1.00  0.00     0.042 C 
BRANCH  24  25
ATOM     25  C   UNL A   1      38.731  21.259  25.995  1.00  0.00     0.118 C 
BRANCH  25  26
ATOM     26  N   UNL A   1      39.632  20.114  26.000  1.00  0.00    -0.352 N 
ATOM     27  C   UNL A   1      41.000  20.066  26.105  1.00  0.00     0.251 C 
ATOM     28  H   UNL A   1      39.191  19.237  25.914  1.00  0.00     0.163 HD
ATOM     29  O   UNL A   1      41.585  19.001  25.907  1.00  0.00    -0.269 OA
BRANCH  27  30
ATOM     30  C   UNL A   1      41.771  21.283  26.432  1.00  0.00     0.039 A 
ATOM     31  C   UNL A   1      42.195  22.117  25.394  1.00  0.00     0.014 A 
ATOM     32  C   UNL A   1      42.086  21.601  27.755  1.00  0.00     0.014 A 
ATOM     33  C   UNL A   1      42.872  23.303  25.689  1.00  0.00     0.010 A 
ATOM     34  C   UNL A   1      42.682  22.824  28.052  1.00  0.00     0.010 A 
ATOM     35  C   UNL A   1      43.085  23.687  27.022  1.00  0.00    -0.014 A 
BRANCH  35  36
ATOM     36  C   UNL A   1      43.723  24.987  27.359  1.00  0.00     0.031 A 
ATOM     37  C   UNL A   1      42.896  26.118  27.910  1.00  0.00     0.074 A 
ATOM     38  C   UNL A   1      45.035  25.171  27.108  1.00  0.00     0.049 A 
ATOM     39  N   UNL A   1      43.263  27.337  28.212  1.00  0.00    -0.248 NA
ATOM     40  C   UNL A   1      41.465  25.854  28.128  1.00  0.00     0.031 C 
ATOM     41  C   UNL A   1      45.936  24.168  26.536  1.00  0.00     0.029 A 
ATOM     42  N   UNL A   1      45.839  26.267  27.295  1.00  0.00    -0.354 N 
ATOM     43  C   UNL A   1      42.110  27.987  28.636  1.00  0.00     0.074 A 
ATOM     44  C   UNL A   1      41.022  27.045  28.502  1.00  0.00     0.031 C 
ATOM     45  C   UNL A   1      47.172  24.684  26.449  1.00  0.00     0.029 A 
ATOM     46  C   UNL A   1      47.144  26.069  26.912  1.00  0.00     0.049 A 
ATOM     47  H   UNL A   1      45.511  27.118  27.670  1.00  0.00     0.167 HD
ATOM     48  C   UNL A   1      41.972  29.247  29.115  1.00  0.00     0.031 A 
ATOM     49  C   UNL A   1      48.200  26.905  26.921  1.00  0.00     0.031 A 
ATOM     50  C   UNL A   1      43.060  30.181  29.250  1.00  0.00     0.049 A 
ATOM     51  C   UNL A   1      48.019  28.306  27.439  1.00  0.00     0.074 A 
ATOM     52  C   UNL A   1      43.033  31.461  29.773  1.00  0.00     0.029 A 
ATOM     53  N   UNL A   1      44.366  29.939  28.852  1.00  0.00    -0.354 N 
ATOM     54  N   UNL A   1      46.933  28.879  27.901  1.00  0.00    -0.248 NA
ATOM     55  C   UNL A   1      49.208  29.169  27.447  1.00  0.00     0.031 C 
ATOM     56  C   UNL A   1      44.310  32.016  29.634  1.00  0.00     0.029 A 
ATOM     57  C   UNL A   1      45.149  31.055  29.091  1.00  0.00     0.049 A 
ATOM     58  H   UNL A   1      44.690  29.096  28.458  1.00  0.00     0.167 HD
ATOM     59  C   UNL A   1      47.316  30.161  28.281  1.00  0.00     0.074 A 
ATOM     60  C   UNL A   1      48.735  30.272  28.009  1.00  0.00     0.031 C 
ATOM     61  C   UNL A   1      46.559  31.156  28.812  1.00  0.00     0.031 A 
BRANCH  48  62
ATOM     62  C   UNL A   1      40.588  29.692  29.517  1.00  0.00    -0.014 A 
ATOM     63  C   UNL A   1      40.239  29.861  30.870  1.00  0.00     0.010 A 
ATOM     64  C   UNL A   1      39.629  29.975  28.526  1.00  0.00     0.010 A 
ATOM     65  C   UNL A   1      38.946  30.256  31.225  1.00  0.00     0.020 A 
ATOM     66  C   UNL A   1      38.345  30.404  28.876  1.00  0.00     0.020 A 
ATOM     67  C   UNL A   1      38.007  30.522  30.226  1.00  0.00     0.054 A 
BRANCH  67  68
ATOM     68  S   UNL A   1      36.342  31.045  30.718  1.00  0.00     0.124 S 
ATOM     69  O   UNL A   1      35.612  30.956  29.456  1.00  0.00    -0.237 OA
ATOM     70  O   UNL A   1      35.979  30.051  31.725  1.00  0.00    -0.237 OA
ATOM     71  O   UNL A   1      36.539  32.400  31.228  1.00  0.00    -0.744 OA
ENDBRANCH  67  68
ENDBRANCH  48  62
BRANCH  49  72
ATOM     72  C   UNL A   1      49.526  26.430  26.437  1.00  0.00    -0.014 A 
ATOM     73  C   UNL A   1      49.940  26.687  25.118  1.00  0.00     0.010 A 
ATOM     74  C   UNL A   1      50.394  25.736  27.301  1.00  0.00     0.010 A 
ATOM     75  C   UNL A   1      51.190  26.250  24.669  1.00  0.00     0.020 A 
ATOM     76  C   UNL A   1      51.657  25.324  26.866  1.00  0.00     0.020 A 
ATOM     77  C   UNL A   1      52.043  25.575  25.548  1.00  0.00     0.054 A 
BRANCH  77  78
ATOM     78  S   UNL A   1      53.684  25.072  24.960  1.00  0.00     0.124 S 
ATOM     79  O   UNL A   1      54.551  25.545  26.034  1.00  0.00    -0.237 OA
ATOM     80  O   UNL A   1      53.546  23.622  24.849  1.00  0.00    -0.237 OA
ATOM     81  O   UNL A   1      53.821  25.776  23.687  1.00  0.00    -0.744 OA
ENDBRANCH  77  78
ENDBRANCH  49  72
BRANCH  61  82
ATOM     82  C   UNL A   1      47.255  32.444  29.167  1.00  0.00    -0.014 A 
ATOM     83  C   UNL A   1      47.292  33.529  28.274  1.00  0.00     0.010 A 
ATOM     84  C   UNL A   1      47.835  32.587  30.441  1.00  0.00     0.010 A 
ATOM     85  C   UNL A   1      47.921  34.723  28.638  1.00  0.00     0.020 A 
ATOM     86  C   UNL A   1      48.437  33.789  30.821  1.00  0.00     0.020 A 
ATOM     87  C   UNL A   1      48.489  34.845  29.910  1.00  0.00     0.054 A 
BRANCH  87  88
ATOM     88  S   UNL A   1      49.260  36.420  30.374  1.00  0.00     0.124 S 
ATOM     89  O   UNL A   1      50.675  36.060  30.431  1.00  0.00    -0.237 OA
ATOM     90  O   UNL A   1      48.880  37.298  29.270  1.00  0.00    -0.237 OA
ATOM     91  O   UNL A   1      48.648  36.743  31.660  1.00  0.00    -0.744 OA
ENDBRANCH  87  88
ENDBRANCH  61  82
ENDBRANCH  35  36
ENDBRANCH  27  30
ENDBRANCH  25  26
ENDBRANCH  24  25
ENDBRANCH   1  24
TORSDOF 18
ENDMDL
MODEL 3
REMARK VINA RESULT:     -10.4      3.587      4.472
REMARK SMILES CN(C(=O)C[C@](C)(C(=O)NCCCNC(=O)c1ccc(-c2c3nc(c(-c4ccc(S(=O)(=O)[O-])cc4)c4ccc([nH]4)c(-c4ccc(S(=O)(=O)[O-])cc4)c4nc(c(-c5ccc(S(=O)(=O)[O-])cc5)c5ccc2[nH]5)C=C4)C=C3)cc1)c1ccccc1)[C@@H]1CCSC1
REMARK SMILES IDX 11 1 10 2 8 3 9 4 6 6 7 7 5 8 3 9 4 10 2 11 1 12 83 13 84 14
REMARK SMILES IDX 87 15 85 16 86 17 77 18 78 19 82 20 79 21 81 22 80 23 12 24
REMARK SMILES IDX 13 25 14 26 15 27 16 29 17 30 18 31 76 32 19 33 75 34 20 35
REMARK SMILES IDX 21 36 22 37 69 38 23 39 74 40 68 41 70 42 24 43 73 44 67 45
REMARK SMILES IDX 66 46 25 48 55 49 36 50 54 51 37 52 40 53 53 54 71 55 38 56
REMARK SMILES IDX 39 57 52 59 72 60 41 61 26 62 27 63 35 64 28 65 34 66 29 67
REMARK SMILES IDX 30 68 31 69 32 70 33 71 56 72 57 73 65 74 58 75 64 76 59 77
REMARK SMILES IDX 60 78 61 79 62 80 63 81 42 82 43 83 51 84 44 85 50 86 45 87
REMARK SMILES IDX 46 88 47 89 48 90 49 91
REMARK H PARENT 10 5 14 28 70 47 40 58
REMARK Flexibility Score: inf
ROOT
ATOM      1  C   UNL A   1      37.737  22.193  25.804  1.00  0.00     0.117 C 
ENDROOT
BRANCH   1   2
ATOM      2  N   UNL A   1      37.498  22.451  24.392  1.00  0.00    -0.355 N 
ATOM      3  C   UNL A   1      36.427  22.885  23.677  1.00  0.00     0.230 C 
ATOM      4  O   UNL A   1      36.631  22.960  22.458  1.00  0.00    -0.274 OA
ATOM      5  H   UNL A   1      38.288  22.272  23.831  1.00  0.00     0.163 HD
BRANCH   3   6
ATOM      6  C   UNL A   1      35.059  23.295  24.312  1.00  0.00     0.080 C 
ATOM      7  C   UNL A   1      35.340  23.921  25.702  1.00  0.00     0.027 C 
BRANCH   6   8
ATOM      8  C   UNL A   1      34.350  24.321  23.366  1.00  0.00     0.121 C 
BRANCH   8   9
ATOM      9  C   UNL A   1      33.488  25.401  24.024  1.00  0.00     0.224 C 
ATOM     10  O   UNL A   1      34.050  26.462  24.306  1.00  0.00    -0.275 OA
BRANCH   9  11
ATOM     11  N   UNL A   1      32.131  25.179  24.247  1.00  0.00    -0.342 N 
ATOM     12  C   UNL A   1      31.629  24.649  25.508  1.00  0.00     0.147 C 
BRANCH  11  13
ATOM     13  C   UNL A   1      31.066  25.406  23.232  1.00  0.00     0.095 C 
ATOM     14  C   UNL A   1      31.349  26.264  21.996  1.00  0.00     0.037 C 
ATOM     15  C   UNL A   1      29.778  26.010  23.829  1.00  0.00     0.094 C 
ATOM     16  C   UNL A   1      31.250  27.728  22.398  1.00  0.00     0.072 C 
ATOM     17  S   UNL A   1      29.892  27.805  23.598  1.00  0.00    -0.160 SA
ENDBRANCH  11  13
ENDBRANCH   9  11
ENDBRANCH   8   9
ENDBRANCH   6   8
BRANCH   6  18
ATOM     18  C   UNL A   1      34.176  22.012  24.458  1.00  0.00    -0.032 A 
ATOM     19  C   UNL A   1      34.270  21.143  25.560  1.00  0.00     0.005 A 
ATOM     20  C   UNL A   1      33.224  21.685  23.470  1.00  0.00     0.005 A 
ATOM     21  C   UNL A   1      33.366  20.088  25.731  1.00  0.00     0.000 A 
ATOM     22  C   UNL A   1      32.299  20.654  23.656  1.00  0.00     0.000 A 
ATOM     23  C   UNL A   1      32.356  19.870  24.800  1.00  0.00     0.000 A 
ENDBRANCH   6  18
ENDBRANCH   3   6
ENDBRANCH   1   2
BRANCH   1  24
ATOM     24  C   UNL A   1      39.224  22.085  26.121  1.00  0.00     0.042 C 
BRANCH  24  25
ATOM     25  C   UNL A   1      39.873  23.397  26.550  1.00  0.00     0.118 C 
BRANCH  25  26
ATOM     26  N   UNL A   1      41.271  23.501  26.149  1.00  0.00    -0.352 N 
ATOM     27  C   UNL A   1      42.206  24.461  26.444  1.00  0.00     0.251 C 
ATOM     28  H   UNL A   1      41.594  22.768  25.576  1.00  0.00     0.163 HD
ATOM     29  O   UNL A   1      43.287  24.453  25.855  1.00  0.00    -0.269 OA
BRANCH  27  30
ATOM     30  C   UNL A   1      41.916  25.509  27.445  1.00  0.00     0.039 A 
ATOM     31  C   UNL A   1      40.792  25.373  28.263  1.00  0.00     0.014 A 
ATOM     32  C   UNL A   1      42.742  26.629  27.573  1.00  0.00     0.014 A 
ATOM     33  C   UNL A   1      40.537  26.324  29.255  1.00  0.00     0.010 A 
ATOM     34  C   UNL A   1      42.535  27.527  28.616  1.00  0.00     0.010 A 
ATOM     35  C   UNL A   1      41.429  27.387  29.467  1.00  0.00    -0.014 A 
BRANCH  35  36
ATOM     36  C   UNL A   1      41.225  28.358  30.574  1.00  0.00     0.031 A 
ATOM     37  C   UNL A   1      42.070  28.281  31.818  1.00  0.00     0.074 A 
ATOM     38  C   UNL A   1      40.234  29.268  30.487  1.00  0.00     0.049 A 
ATOM     39  N   UNL A   1      42.003  29.004  32.906  1.00  0.00    -0.248 NA
ATOM     40  C   UNL A   1      43.111  27.241  31.853  1.00  0.00     0.031 C 
ATOM     41  C   UNL A   1      39.317  29.417  29.354  1.00  0.00     0.029 A 
ATOM     42  N   UNL A   1      39.826  30.236  31.371  1.00  0.00    -0.354 N 
ATOM     43  C   UNL A   1      42.976  28.497  33.759  1.00  0.00     0.074 A 
ATOM     44  C   UNL A   1      43.582  27.371  33.084  1.00  0.00     0.031 C 
ATOM     45  C   UNL A   1      38.478  30.437  29.597  1.00  0.00     0.029 A 
ATOM     46  C   UNL A   1      38.762  30.982  30.921  1.00  0.00     0.049 A 
ATOM     47  H   UNL A   1      40.256  30.384  32.245  1.00  0.00     0.167 HD
ATOM     48  C   UNL A   1      43.347  28.939  34.985  1.00  0.00     0.031 A 
ATOM     49  C   UNL A   1      38.082  31.987  31.508  1.00  0.00     0.031 A 
ATOM     50  C   UNL A   1      42.742  30.063  35.651  1.00  0.00     0.049 A 
ATOM     51  C   UNL A   1      38.499  32.450  32.878  1.00  0.00     0.074 A 
ATOM     52  C   UNL A   1      43.081  30.624  36.870  1.00  0.00     0.029 A 
ATOM     53  N   UNL A   1      41.668  30.792  35.161  1.00  0.00    -0.354 N 
ATOM     54  N   UNL A   1      39.468  32.001  33.639  1.00  0.00    -0.248 NA
ATOM     55  C   UNL A   1      37.737  33.561  33.463  1.00  0.00     0.031 C 
ATOM     56  C   UNL A   1      42.173  31.651  37.145  1.00  0.00     0.029 A 
ATOM     57  C   UNL A   1      41.314  31.779  36.065  1.00  0.00     0.049 A 
ATOM     58  H   UNL A   1      41.224  30.632  34.296  1.00  0.00     0.167 HD
ATOM     59  C   UNL A   1      39.450  32.795  34.781  1.00  0.00     0.074 A 
ATOM     60  C   UNL A   1      38.385  33.760  34.602  1.00  0.00     0.031 C 
ATOM     61  C   UNL A   1      40.248  32.732  35.877  1.00  0.00     0.031 A 
BRANCH  48  62
ATOM     62  C   UNL A   1      44.453  28.196  35.689  1.00  0.00    -0.014 A 
ATOM     63  C   UNL A   1      45.801  28.569  35.529  1.00  0.00     0.010 A 
ATOM     64  C   UNL A   1      44.141  27.126  36.548  1.00  0.00     0.010 A 
ATOM     65  C   UNL A   1      46.816  27.857  36.175  1.00  0.00     0.020 A 
ATOM     66  C   UNL A   1      45.150  26.432  37.223  1.00  0.00     0.020 A 
ATOM     67  C   UNL A   1      46.483  26.791  37.016  1.00  0.00     0.054 A 
BRANCH  67  68
ATOM     68  S   UNL A   1      47.822  25.895  37.850  1.00  0.00     0.124 S 
ATOM     69  O   UNL A   1      48.905  25.997  36.876  1.00  0.00    -0.237 OA
ATOM     70  O   UNL A   1      48.006  26.665  39.077  1.00  0.00    -0.237 OA
ATOM     71  O   UNL A   1      47.277  24.552  38.036  1.00  0.00    -0.744 OA
ENDBRANCH  67  68
ENDBRANCH  48  62
BRANCH  49  72
ATOM     72  C   UNL A   1      36.946  32.630  30.792  1.00  0.00    -0.014 A 
ATOM     73  C   UNL A   1      35.619  32.259  31.075  1.00  0.00     0.010 A 
ATOM     74  C   UNL A   1      37.183  33.637  29.838  1.00  0.00     0.010 A 
ATOM     75  C   UNL A   1      34.553  32.872  30.410  1.00  0.00     0.020 A 
ATOM     76  C   UNL A   1      36.119  34.274  29.193  1.00  0.00     0.020 A 
ATOM     77  C   UNL A   1      34.810  33.880  29.476  1.00  0.00     0.054 A 
BRANCH  77  78
ATOM     78  S   UNL A   1      33.408  34.704  28.671  1.00  0.00     0.124 S 
ATOM     79  O   UNL A   1      32.931  33.669  27.758  1.00  0.00    -0.237 OA
ATOM     80  O   UNL A   1      32.531  35.006  29.799  1.00  0.00    -0.237 OA
ATOM     81  O   UNL A   1      34.016  35.870  28.034  1.00  0.00    -0.744 OA
ENDBRANCH  77  78
ENDBRANCH  49  72
BRANCH  61  82
ATOM     82  C   UNL A   1      40.025  33.756  36.959  1.00  0.00    -0.014 A 
ATOM     83  C   UNL A   1      40.623  35.027  36.901  1.00  0.00     0.010 A 
ATOM     84  C   UNL A   1      39.155  33.458  38.025  1.00  0.00     0.010 A 
ATOM     85  C   UNL A   1      40.379  35.969  37.905  1.00  0.00     0.020 A 
ATOM     86  C   UNL A   1      38.884  34.407  39.012  1.00  0.00     0.020 A 
ATOM     87  C   UNL A   1      39.510  35.653  38.953  1.00  0.00     0.054 A 
BRANCH  87  88
ATOM     88  S   UNL A   1      39.175  36.909  40.219  1.00  0.00     0.124 S 
ATOM     89  O   UNL A   1      38.629  38.004  39.421  1.00  0.00    -0.237 OA
ATOM     90  O   UNL A   1      38.222  36.233  41.095  1.00  0.00    -0.237 OA
ATOM     91  O   UNL A   1      40.486  37.164  40.811  1.00  0.00    -0.744 OA
ENDBRANCH  87  88
ENDBRANCH  61  82
ENDBRANCH  35  36
ENDBRANCH  27  30
ENDBRANCH  25  26
ENDBRANCH  24  25
ENDBRANCH   1  24
TORSDOF 18
ENDMDL
