MODEL 1
REMARK VINA RESULT:     -11.7      0.000      0.000
REMARK SMILES CCc1cc2ccccc2c(=O)n1CC(=O)NCCCNC(=O)c1ccc(-c2c3nc(c(-c4ccc(S(=O)(=O)[O-])cc4)c4ccc([nH]4)c(-c4ccc(S(=O)(=O)[O-])cc4)c4nc(c(-c5ccc(S(=O)(=O)[O-])cc5)c5ccc2[nH]5)C=C4)C=C3)cc1
REMARK SMILES IDX 19 1 18 2 17 3 15 4 16 5 14 7 13 8 3 9 4 10 5 11 11 12 6 13
REMARK SMILES IDX 10 14 12 15 7 16 9 17 8 18 2 19 1 20 20 21 21 22 22 23 23 25
REMARK SMILES IDX 24 26 25 27 83 28 26 29 82 30 27 31 28 32 29 33 76 34 30 35
REMARK SMILES IDX 81 36 75 37 77 38 31 39 80 40 74 41 73 42 32 44 62 45 43 46
REMARK SMILES IDX 61 47 44 48 47 49 60 50 78 51 45 52 46 53 59 55 79 56 48 57
REMARK SMILES IDX 33 58 34 59 42 60 35 61 41 62 36 63 37 64 38 65 39 66 40 67
REMARK SMILES IDX 63 68 64 69 72 70 65 71 71 72 66 73 67 74 68 75 69 76 70 77
REMARK SMILES IDX 49 78 50 79 58 80 51 81 57 82 52 83 53 84 54 85 55 86 56 87
REMARK H PARENT 17 6 21 24 77 43 47 54
REMARK Flexibility Score: inf
ROOT
ATOM      1  C   UNL A   1      31.845  28.079  27.238  1.00  0.00     0.042 C 
ENDROOT
BRANCH   1   2
ATOM      2  C   UNL A   1      31.619  26.921  26.281  1.00  0.00     0.117 C 
BRANCH   2   3
ATOM      3  N   UNL A   1      31.284  25.683  26.946  1.00  0.00    -0.354 N 
ATOM      4  C   UNL A   1      31.631  24.409  26.597  1.00  0.00     0.240 C 
ATOM      5  O   UNL A   1      31.585  23.551  27.484  1.00  0.00    -0.273 OA
ATOM      6  H   UNL A   1      30.733  25.769  27.759  1.00  0.00     0.163 HD
BRANCH   4   7
ATOM      7  C   UNL A   1      32.256  24.103  25.221  1.00  0.00     0.225 C 
BRANCH   7   8
ATOM      8  N   UNL A   1      33.474  23.285  25.249  1.00  0.00    -0.303 N 
ATOM      9  C   UNL A   1      33.497  21.910  24.965  1.00  0.00     0.022 A 
ATOM     10  C   UNL A   1      34.661  21.231  25.014  1.00  0.00     0.030 A 
ATOM     11  C   UNL A   1      35.919  21.895  25.336  1.00  0.00    -0.011 A 
ATOM     12  C   UNL A   1      34.664  24.028  25.416  1.00  0.00     0.259 A 
ATOM     13  C   UNL A   1      37.112  21.174  25.463  1.00  0.00     0.009 A 
ATOM     14  C   UNL A   1      35.936  23.277  25.512  1.00  0.00     0.047 A 
ATOM     15  O   UNL A   1      34.689  25.253  25.510  1.00  0.00    -0.269 OA
ATOM     16  C   UNL A   1      38.306  21.836  25.766  1.00  0.00     0.001 A 
ATOM     17  C   UNL A   1      37.134  23.945  25.805  1.00  0.00     0.014 A 
ATOM     18  C   UNL A   1      38.318  23.221  25.934  1.00  0.00     0.001 A 
BRANCH   9  19
ATOM     19  C   UNL A   1      32.234  21.145  24.613  1.00  0.00     0.051 C 
ATOM     20  C   UNL A   1      32.481  19.832  23.879  1.00  0.00     0.010 C 
ENDBRANCH   9  19
ENDBRANCH   7   8
ENDBRANCH   4   7
ENDBRANCH   2   3
ENDBRANCH   1   2
BRANCH   1  21
ATOM     21  C   UNL A   1      33.266  28.623  27.202  1.00  0.00     0.118 C 
BRANCH  21  22
ATOM     22  N   UNL A   1      33.337  30.052  27.496  1.00  0.00    -0.352 N 
ATOM     23  C   UNL A   1      34.357  30.793  28.049  1.00  0.00     0.251 C 
ATOM     24  H   UNL A   1      32.530  30.565  27.263  1.00  0.00     0.163 HD
ATOM     25  O   UNL A   1      34.164  31.962  28.355  1.00  0.00    -0.269 OA
BRANCH  23  26
ATOM     26  C   UNL A   1      35.670  30.160  28.303  1.00  0.00     0.039 A 
ATOM     27  C   UNL A   1      35.943  29.562  29.533  1.00  0.00     0.014 A 
ATOM     28  C   UNL A   1      36.649  30.193  27.306  1.00  0.00     0.014 A 
ATOM     29  C   UNL A   1      37.242  29.175  29.834  1.00  0.00     0.010 A 
ATOM     30  C   UNL A   1      37.932  29.713  27.579  1.00  0.00     0.010 A 
ATOM     31  C   UNL A   1      38.255  29.252  28.865  1.00  0.00    -0.014 A 
BRANCH  31  32
ATOM     32  C   UNL A   1      39.639  28.856  29.228  1.00  0.00     0.031 A 
ATOM     33  C   UNL A   1      40.478  29.727  30.126  1.00  0.00     0.074 A 
ATOM     34  C   UNL A   1      40.112  27.665  28.808  1.00  0.00     0.049 A 
ATOM     35  N   UNL A   1      41.690  29.516  30.571  1.00  0.00    -0.248 NA
ATOM     36  C   UNL A   1      39.886  30.995  30.584  1.00  0.00     0.031 C 
ATOM     37  C   UNL A   1      39.376  26.723  27.961  1.00  0.00     0.029 A 
ATOM     38  N   UNL A   1      41.296  27.023  29.067  1.00  0.00    -0.354 N 
ATOM     39  C   UNL A   1      42.011  30.625  31.345  1.00  0.00     0.074 A 
ATOM     40  C   UNL A   1      40.880  31.524  31.287  1.00  0.00     0.031 C 
ATOM     41  C   UNL A   1      40.092  25.596  27.832  1.00  0.00     0.029 A 
ATOM     42  C   UNL A   1      41.367  25.762  28.522  1.00  0.00     0.049 A 
ATOM     43  H   UNL A   1      42.024  27.426  29.593  1.00  0.00     0.167 HD
ATOM     44  C   UNL A   1      43.142  30.865  32.049  1.00  0.00     0.031 A 
ATOM     45  C   UNL A   1      42.349  24.839  28.562  1.00  0.00     0.031 A 
ATOM     46  C   UNL A   1      44.256  29.956  32.119  1.00  0.00     0.049 A 
ATOM     47  C   UNL A   1      43.611  25.148  29.311  1.00  0.00     0.074 A 
ATOM     48  C   UNL A   1      45.444  30.110  32.813  1.00  0.00     0.029 A 
ATOM     49  N   UNL A   1      44.320  28.724  31.485  1.00  0.00    -0.354 N 
ATOM     50  N   UNL A   1      43.902  26.213  30.019  1.00  0.00    -0.248 NA
ATOM     51  C   UNL A   1      44.680  24.142  29.262  1.00  0.00     0.031 C 
ATOM     52  C   UNL A   1      46.246  28.997  32.556  1.00  0.00     0.029 A 
ATOM     53  C   UNL A   1      45.536  28.119  31.754  1.00  0.00     0.049 A 
ATOM     54  H   UNL A   1      43.606  28.337  30.929  1.00  0.00     0.167 HD
ATOM     55  C   UNL A   1      45.188  26.006  30.501  1.00  0.00     0.074 A 
ATOM     56  C   UNL A   1      45.610  24.704  30.025  1.00  0.00     0.031 C 
ATOM     57  C   UNL A   1      45.949  26.826  31.265  1.00  0.00     0.031 A 
BRANCH  44  58
ATOM     58  C   UNL A   1      43.250  32.160  32.811  1.00  0.00    -0.014 A 
ATOM     59  C   UNL A   1      42.776  32.232  34.135  1.00  0.00     0.010 A 
ATOM     60  C   UNL A   1      43.715  33.329  32.186  1.00  0.00     0.010 A 
ATOM     61  C   UNL A   1      42.740  33.455  34.810  1.00  0.00     0.020 A 
ATOM     62  C   UNL A   1      43.703  34.551  32.867  1.00  0.00     0.020 A 
ATOM     63  C   UNL A   1      43.196  34.609  34.168  1.00  0.00     0.054 A 
BRANCH  63  64
ATOM     64  S   UNL A   1      43.134  36.192  35.053  1.00  0.00     0.124 S 
ATOM     65  O   UNL A   1      44.510  36.339  35.517  1.00  0.00    -0.237 OA
ATOM     66  O   UNL A   1      42.711  37.127  34.013  1.00  0.00    -0.237 OA
ATOM     67  O   UNL A   1      42.142  35.954  36.101  1.00  0.00    -0.744 OA
ENDBRANCH  63  64
ENDBRANCH  44  58
BRANCH  45  68
ATOM     68  C   UNL A   1      42.142  23.538  27.870  1.00  0.00    -0.014 A 
ATOM     69  C   UNL A   1      41.619  22.436  28.573  1.00  0.00     0.010 A 
ATOM     70  C   UNL A   1      42.567  23.363  26.542  1.00  0.00     0.010 A 
ATOM     71  C   UNL A   1      41.586  21.170  27.986  1.00  0.00     0.020 A 
ATOM     72  C   UNL A   1      42.508  22.101  25.940  1.00  0.00     0.020 A 
ATOM     73  C   UNL A   1      42.049  21.007  26.678  1.00  0.00     0.054 A 
BRANCH  73  74
ATOM     74  S   UNL A   1      42.060  19.343  25.956  1.00  0.00     0.124 S 
ATOM     75  O   UNL A   1      40.647  19.140  25.654  1.00  0.00    -0.237 OA
ATOM     76  O   UNL A   1      42.935  19.503  24.796  1.00  0.00    -0.237 OA
ATOM     77  O   UNL A   1      42.599  18.511  27.028  1.00  0.00    -0.744 OA
ENDBRANCH  73  74
ENDBRANCH  45  68
BRANCH  57  78
ATOM     78  C   UNL A   1      47.332  26.366  31.638  1.00  0.00    -0.014 A 
ATOM     79  C   UNL A   1      48.373  26.450  30.698  1.00  0.00     0.010 A 
ATOM     80  C   UNL A   1      47.563  25.724  32.868  1.00  0.00     0.010 A 
ATOM     81  C   UNL A   1      49.614  25.865  30.962  1.00  0.00     0.020 A 
ATOM     82  C   UNL A   1      48.810  25.159  33.145  1.00  0.00     0.020 A 
ATOM     83  C   UNL A   1      49.819  25.211  32.179  1.00  0.00     0.054 A 
BRANCH  83  84
ATOM     84  S   UNL A   1      51.422  24.418  32.488  1.00  0.00     0.124 S 
ATOM     85  O   UNL A   1      51.172  23.045  32.062  1.00  0.00    -0.237 OA
ATOM     86  O   UNL A   1      52.330  25.186  31.640  1.00  0.00    -0.237 OA
ATOM     87  O   UNL A   1      51.621  24.601  33.925  1.00  0.00    -0.744 OA
ENDBRANCH  83  84
ENDBRANCH  57  78
ENDBRANCH  31  32
ENDBRANCH  23  26
ENDBRANCH  21  22
ENDBRANCH   1  21
TORSDOF 15
ENDMDL
MODEL 2
REMARK VINA RESULT:     -11.2      0.651      8.308
REMARK SMILES CCc1cc2ccccc2c(=O)n1CC(=O)NCCCNC(=O)c1ccc(-c2c3nc(c(-c4ccc(S(=O)(=O)[O-])cc4)c4ccc([nH]4)c(-c4ccc(S(=O)(=O)[O-])cc4)c4nc(c(-c5ccc(S(=O)(=O)[O-])cc5)c5ccc2[nH]5)C=C4)C=C3)cc1
REMARK SMILES IDX 19 1 18 2 17 3 15 4 16 5 14 7 13 8 3 9 4 10 5 11 11 12 6 13
REMARK SMILES IDX 10 14 12 15 7 16 9 17 8 18 2 19 1 20 20 21 21 22 22 23 23 25
REMARK SMILES IDX 24 26 25 27 83 28 26 29 82 30 27 31 28 32 29 33 76 34 30 35
REMARK SMILES IDX 81 36 75 37 77 38 31 39 80 40 74 41 73 42 32 44 62 45 43 46
REMARK SMILES IDX 61 47 44 48 47 49 60 50 78 51 45 52 46 53 59 55 79 56 48 57
REMARK SMILES IDX 33 58 34 59 42 60 35 61 41 62 36 63 37 64 38 65 39 66 40 67
REMARK SMILES IDX 63 68 64 69 72 70 65 71 71 72 66 73 67 74 68 75 69 76 70 77
REMARK SMILES IDX 49 78 50 79 58 80 51 81 57 82 52 83 53 84 54 85 55 86 56 87
REMARK H PARENT 17 6 21 24 77 43 47 54
REMARK Flexibility Score: inf
ROOT
ATOM      1  C   UNL A   1      32.486  27.848  27.349  1.00  0.00     0.042 C 
ENDROOT
BRANCH   1   2
ATOM      2  C   UNL A   1      31.697  26.987  26.377  1.00  0.00     0.117 C 
BRANCH   2   3
ATOM      3  N   UNL A   1      31.309  25.709  26.927  1.00  0.00    -0.354 N 
ATOM      4  C   UNL A   1      31.648  24.459  26.493  1.00  0.00     0.240 C 
ATOM      5  O   UNL A   1      31.545  23.536  27.307  1.00  0.00    -0.273 OA
ATOM      6  H   UNL A   1      30.723  25.744  27.719  1.00  0.00     0.163 HD
BRANCH   4   7
ATOM      7  C   UNL A   1      32.329  24.247  25.126  1.00  0.00     0.225 C 
BRANCH   7   8
ATOM      8  N   UNL A   1      33.538  23.416  25.145  1.00  0.00    -0.303 N 
ATOM      9  C   UNL A   1      33.562  22.066  24.757  1.00  0.00     0.022 A 
ATOM     10  C   UNL A   1      34.716  21.372  24.806  1.00  0.00     0.030 A 
ATOM     11  C   UNL A   1      35.964  21.994  25.234  1.00  0.00    -0.011 A 
ATOM     12  C   UNL A   1      34.725  24.130  25.422  1.00  0.00     0.259 A 
ATOM     13  C   UNL A   1      37.145  21.252  25.357  1.00  0.00     0.009 A 
ATOM     14  C   UNL A   1      35.985  23.359  25.517  1.00  0.00     0.047 A 
ATOM     15  O   UNL A   1      34.756  25.344  25.611  1.00  0.00    -0.269 OA
ATOM     16  C   UNL A   1      38.329  21.875  25.764  1.00  0.00     0.001 A 
ATOM     17  C   UNL A   1      37.174  23.988  25.912  1.00  0.00     0.014 A 
ATOM     18  C   UNL A   1      38.345  23.242  26.038  1.00  0.00     0.001 A 
BRANCH   9  19
ATOM     19  C   UNL A   1      32.310  21.345  24.291  1.00  0.00     0.051 C 
ATOM     20  C   UNL A   1      32.497  19.850  24.062  1.00  0.00     0.010 C 
ENDBRANCH   9  19
ENDBRANCH   7   8
ENDBRANCH   4   7
ENDBRANCH   2   3
ENDBRANCH   1   2
BRANCH   1  21
ATOM     21  C   UNL A   1      33.545  28.707  26.672  1.00  0.00     0.118 C 
BRANCH  21  22
ATOM     22  N   UNL A   1      33.532  30.093  27.128  1.00  0.00    -0.352 N 
ATOM     23  C   UNL A   1      34.467  30.795  27.857  1.00  0.00     0.251 C 
ATOM     24  H   UNL A   1      32.732  30.607  26.874  1.00  0.00     0.163 HD
ATOM     25  O   UNL A   1      34.199  31.916  28.271  1.00  0.00    -0.269 OA
BRANCH  23  26
ATOM     26  C   UNL A   1      35.773  30.175  28.167  1.00  0.00     0.039 A 
ATOM     27  C   UNL A   1      36.016  29.625  29.426  1.00  0.00     0.014 A 
ATOM     28  C   UNL A   1      36.776  30.170  27.193  1.00  0.00     0.014 A 
ATOM     29  C   UNL A   1      37.308  29.251  29.773  1.00  0.00     0.010 A 
ATOM     30  C   UNL A   1      38.053  29.703  27.517  1.00  0.00     0.010 A 
ATOM     31  C   UNL A   1      38.344  29.292  28.826  1.00  0.00    -0.014 A 
BRANCH  31  32
ATOM     32  C   UNL A   1      39.719  28.912  29.239  1.00  0.00     0.031 A 
ATOM     33  C   UNL A   1      40.296  27.576  28.850  1.00  0.00     0.074 A 
ATOM     34  C   UNL A   1      40.477  29.809  29.901  1.00  0.00     0.049 A 
ATOM     35  N   UNL A   1      41.489  27.098  29.095  1.00  0.00    -0.248 NA
ATOM     36  C   UNL A   1      39.430  26.659  28.091  1.00  0.00     0.031 C 
ATOM     37  C   UNL A   1      40.033  31.147  30.302  1.00  0.00     0.029 A 
ATOM     38  N   UNL A   1      41.784  29.755  30.313  1.00  0.00    -0.354 N 
ATOM     39  C   UNL A   1      41.512  25.825  28.536  1.00  0.00     0.074 A 
ATOM     40  C   UNL A   1      40.205  25.589  27.966  1.00  0.00     0.031 C 
ATOM     41  C   UNL A   1      41.069  31.811  30.834  1.00  0.00     0.029 A 
ATOM     42  C   UNL A   1      42.229  30.925  30.882  1.00  0.00     0.049 A 
ATOM     43  H   UNL A   1      42.349  28.955  30.212  1.00  0.00     0.167 HD
ATOM     44  C   UNL A   1      42.535  24.940  28.495  1.00  0.00     0.031 A 
ATOM     45  C   UNL A   1      43.431  31.255  31.394  1.00  0.00     0.031 A 
ATOM     46  C   UNL A   1      43.841  25.189  29.048  1.00  0.00     0.049 A 
ATOM     47  C   UNL A   1      44.535  30.240  31.377  1.00  0.00     0.074 A 
ATOM     48  C   UNL A   1      44.943  24.353  29.048  1.00  0.00     0.029 A 
ATOM     49  N   UNL A   1      44.224  26.358  29.688  1.00  0.00    -0.354 N 
ATOM     50  N   UNL A   1      44.528  29.033  30.862  1.00  0.00    -0.248 NA
ATOM     51  C   UNL A   1      45.803  30.619  32.014  1.00  0.00     0.031 C 
ATOM     52  C   UNL A   1      45.976  24.994  29.734  1.00  0.00     0.029 A 
ATOM     53  C   UNL A   1      45.539  26.255  30.106  1.00  0.00     0.049 A 
ATOM     54  H   UNL A   1      43.647  27.144  29.822  1.00  0.00     0.167 HD
ATOM     55  C   UNL A   1      45.790  28.509  31.113  1.00  0.00     0.074 A 
ATOM     56  C   UNL A   1      46.542  29.537  31.804  1.00  0.00     0.031 C 
ATOM     57  C   UNL A   1      46.275  27.283  30.803  1.00  0.00     0.031 A 
BRANCH  44  58
ATOM     58  C   UNL A   1      42.303  23.608  27.829  1.00  0.00    -0.014 A 
ATOM     59  C   UNL A   1      41.818  22.525  28.585  1.00  0.00     0.010 A 
ATOM     60  C   UNL A   1      42.667  23.397  26.488  1.00  0.00     0.010 A 
ATOM     61  C   UNL A   1      41.727  21.249  28.023  1.00  0.00     0.020 A 
ATOM     62  C   UNL A   1      42.554  22.127  25.913  1.00  0.00     0.020 A 
ATOM     63  C   UNL A   1      42.105  21.057  26.691  1.00  0.00     0.054 A 
BRANCH  63  64
ATOM     64  S   UNL A   1      41.991  19.394  25.976  1.00  0.00     0.124 S 
ATOM     65  O   UNL A   1      42.518  18.559  27.050  1.00  0.00    -0.237 OA
ATOM     66  O   UNL A   1      40.561  19.255  25.709  1.00  0.00    -0.237 OA
ATOM     67  O   UNL A   1      42.829  19.481  24.781  1.00  0.00    -0.744 OA
ENDBRANCH  63  64
ENDBRANCH  44  58
BRANCH  45  68
ATOM     68  C   UNL A   1      43.627  32.622  31.949  1.00  0.00    -0.014 A 
ATOM     69  C   UNL A   1      43.482  32.854  33.330  1.00  0.00     0.010 A 
ATOM     70  C   UNL A   1      43.849  33.712  31.091  1.00  0.00     0.010 A 
ATOM     71  C   UNL A   1      43.488  34.156  33.835  1.00  0.00     0.020 A 
ATOM     72  C   UNL A   1      43.886  35.016  31.599  1.00  0.00     0.020 A 
ATOM     73  C   UNL A   1      43.672  35.231  32.962  1.00  0.00     0.054 A 
BRANCH  73  74
ATOM     74  S   UNL A   1      43.611  36.917  33.628  1.00  0.00     0.124 S 
ATOM     75  O   UNL A   1      43.751  37.720  32.418  1.00  0.00    -0.237 OA
ATOM     76  O   UNL A   1      42.297  36.963  34.265  1.00  0.00    -0.237 OA
ATOM     77  O   UNL A   1      44.746  36.962  34.547  1.00  0.00    -0.744 OA
ENDBRANCH  73  74
ENDBRANCH  45  68
BRANCH  57  78
ATOM     78  C   UNL A   1      47.686  26.955  31.209  1.00  0.00    -0.014 A 
ATOM     79  C   UNL A   1      48.737  27.142  30.294  1.00  0.00     0.010 A 
ATOM     80  C   UNL A   1      47.949  26.334  32.442  1.00  0.00     0.010 A 
ATOM     81  C   UNL A   1      50.022  26.679  30.586  1.00  0.00     0.020 A 
ATOM     82  C   UNL A   1      49.237  25.891  32.749  1.00  0.00     0.020 A 
ATOM     83  C   UNL A   1      50.260  26.042  31.807  1.00  0.00     0.054 A 
BRANCH  83  84
ATOM     84  S   UNL A   1      51.923  25.406  32.154  1.00  0.00     0.124 S 
ATOM     85  O   UNL A   1      51.694  23.966  32.210  1.00  0.00    -0.237 OA
ATOM     86  O   UNL A   1      52.694  25.878  31.005  1.00  0.00    -0.237 OA
ATOM     87  O   UNL A   1      52.270  26.034  33.427  1.00  0.00    -0.744 OA
ENDBRANCH  83  84
ENDBRANCH  57  78
ENDBRANCH  31  32
ENDBRANCH  23  26
ENDBRANCH  21  22
ENDBRANCH   1  21
TORSDOF 15
ENDMDL
MODEL 3
REMARK VINA RESULT:     -11.1      2.712      9.683
REMARK SMILES CCc1cc2ccccc2c(=O)n1CC(=O)NCCCNC(=O)c1ccc(-c2c3nc(c(-c4ccc(S(=O)(=O)[O-])cc4)c4ccc([nH]4)c(-c4ccc(S(=O)(=O)[O-])cc4)c4nc(c(-c5ccc(S(=O)(=O)[O-])cc5)c5ccc2[nH]5)C=C4)C=C3)cc1
REMARK SMILES IDX 19 1 18 2 17 3 15 4 16 5 14 7 13 8 3 9 4 10 5 11 11 12 6 13
REMARK SMILES IDX 10 14 12 15 7 16 9 17 8 18 2 19 1 20 20 21 21 22 22 23 23 25
REMARK SMILES IDX 24 26 25 27 83 28 26 29 82 30 27 31 28 32 29 33 76 34 30 35
REMARK SMILES IDX 81 36 75 37 77 38 31 39 80 40 74 41 73 42 32 44 62 45 43 46
REMARK SMILES IDX 61 47 44 48 47 49 60 50 78 51 45 52 46 53 59 55 79 56 48 57
REMARK SMILES IDX 33 58 34 59 42 60 35 61 41 62 36 63 37 64 38 65 39 66 40 67
REMARK SMILES IDX 63 68 64 69 72 70 65 71 71 72 66 73 67 74 68 75 69 76 70 77
REMARK SMILES IDX 49 78 50 79 58 80 51 81 57 82 52 83 53 84 54 85 55 86 56 87
REMARK H PARENT 17 6 21 24 77 43 47 54
REMARK Flexibility Score: inf
ROOT
ATOM      1  C   UNL A   1      35.816  23.535  25.652  1.00  0.00     0.042 C 
ENDROOT
BRANCH   1   2
ATOM      2  C   UNL A   1      34.566  23.284  24.827  1.00  0.00     0.117 C 
BRANCH   2   3
ATOM      3  N   UNL A   1      34.521  24.054  23.606  1.00  0.00    -0.354 N 
ATOM      4  C   UNL A   1      33.658  25.058  23.264  1.00  0.00     0.240 C 
ATOM      5  O   UNL A   1      34.023  25.832  22.374  1.00  0.00    -0.273 OA
ATOM      6  H   UNL A   1      35.202  23.826  22.930  1.00  0.00     0.163 HD
BRANCH   4   7
ATOM      7  C   UNL A   1      32.392  25.337  24.097  1.00  0.00     0.225 C 
BRANCH   7   8
ATOM      8  N   UNL A   1      32.276  26.697  24.634  1.00  0.00    -0.303 N 
ATOM      9  C   UNL A   1      31.238  27.582  24.299  1.00  0.00     0.022 A 
ATOM     10  C   UNL A   1      31.206  28.818  24.837  1.00  0.00     0.030 A 
ATOM     11  C   UNL A   1      32.219  29.263  25.786  1.00  0.00    -0.011 A 
ATOM     12  C   UNL A   1      33.203  26.995  25.657  1.00  0.00     0.259 A 
ATOM     13  C   UNL A   1      32.228  30.573  26.283  1.00  0.00     0.009 A 
ATOM     14  C   UNL A   1      33.195  28.366  26.216  1.00  0.00     0.047 A 
ATOM     15  O   UNL A   1      34.025  26.185  26.082  1.00  0.00    -0.269 OA
ATOM     16  C   UNL A   1      33.207  30.972  27.197  1.00  0.00     0.001 A 
ATOM     17  C   UNL A   1      34.171  28.761  27.141  1.00  0.00     0.014 A 
ATOM     18  C   UNL A   1      34.176  30.067  27.629  1.00  0.00     0.001 A 
BRANCH   9  19
ATOM     19  C   UNL A   1      30.139  27.194  23.326  1.00  0.00     0.051 C 
ATOM     20  C   UNL A   1      29.206  28.338  22.945  1.00  0.00     0.010 C 
ENDBRANCH   9  19
ENDBRANCH   7   8
ENDBRANCH   4   7
ENDBRANCH   2   3
ENDBRANCH   1   2
BRANCH   1  21
ATOM     21  C   UNL A   1      37.099  23.496  24.832  1.00  0.00     0.118 C 
BRANCH  21  22
ATOM     22  N   UNL A   1      38.085  22.557  25.360  1.00  0.00    -0.352 N 
ATOM     23  C   UNL A   1      39.173  22.780  26.174  1.00  0.00     0.251 C 
ATOM     24  H   UNL A   1      37.950  21.619  25.093  1.00  0.00     0.163 HD
ATOM     25  O   UNL A   1      39.971  21.875  26.384  1.00  0.00    -0.269 OA
BRANCH  23  26
ATOM     26  C   UNL A   1      39.391  24.121  26.759  1.00  0.00     0.039 A 
ATOM     27  C   UNL A   1      40.064  25.107  26.039  1.00  0.00     0.014 A 
ATOM     28  C   UNL A   1      38.939  24.382  28.055  1.00  0.00     0.014 A 
ATOM     29  C   UNL A   1      40.455  26.277  26.678  1.00  0.00     0.010 A 
ATOM     30  C   UNL A   1      39.251  25.601  28.664  1.00  0.00     0.010 A 
ATOM     31  C   UNL A   1      40.060  26.535  28.001  1.00  0.00    -0.014 A 
BRANCH  31  32
ATOM     32  C   UNL A   1      40.518  27.783  28.664  1.00  0.00     0.031 A 
ATOM     33  C   UNL A   1      41.965  27.969  29.036  1.00  0.00     0.074 A 
ATOM     34  C   UNL A   1      39.636  28.783  28.860  1.00  0.00     0.049 A 
ATOM     35  N   UNL A   1      42.542  29.006  29.587  1.00  0.00    -0.248 NA
ATOM     36  C   UNL A   1      42.885  26.853  28.757  1.00  0.00     0.031 C 
ATOM     37  C   UNL A   1      38.214  28.727  28.510  1.00  0.00     0.029 A 
ATOM     38  N   UNL A   1      39.806  30.050  29.356  1.00  0.00    -0.354 N 
ATOM     39  C   UNL A   1      43.882  28.665  29.733  1.00  0.00     0.074 A 
ATOM     40  C   UNL A   1      44.031  27.314  29.243  1.00  0.00     0.031 C 
ATOM     41  C   UNL A   1      37.660  29.928  28.732  1.00  0.00     0.029 A 
ATOM     42  C   UNL A   1      38.664  30.816  29.310  1.00  0.00     0.049 A 
ATOM     43  H   UNL A   1      40.663  30.380  29.712  1.00  0.00     0.167 HD
ATOM     44  C   UNL A   1      44.896  29.417  30.222  1.00  0.00     0.031 A 
ATOM     45  C   UNL A   1      38.439  32.088  29.694  1.00  0.00     0.031 A 
ATOM     46  C   UNL A   1      44.744  30.770  30.690  1.00  0.00     0.049 A 
ATOM     47  C   UNL A   1      39.569  32.885  30.276  1.00  0.00     0.074 A 
ATOM     48  C   UNL A   1      45.716  31.614  31.198  1.00  0.00     0.029 A 
ATOM     49  N   UNL A   1      43.552  31.480  30.701  1.00  0.00    -0.354 N 
ATOM     50  N   UNL A   1      40.825  32.535  30.425  1.00  0.00    -0.248 NA
ATOM     51  C   UNL A   1      39.257  34.240  30.749  1.00  0.00     0.031 C 
ATOM     52  C   UNL A   1      45.103  32.814  31.565  1.00  0.00     0.029 A 
ATOM     53  C   UNL A   1      43.761  32.742  31.227  1.00  0.00     0.049 A 
ATOM     54  H   UNL A   1      42.687  31.137  30.380  1.00  0.00     0.167 HD
ATOM     55  C   UNL A   1      41.454  33.627  31.009  1.00  0.00     0.074 A 
ATOM     56  C   UNL A   1      40.447  34.658  31.165  1.00  0.00     0.031 C 
ATOM     57  C   UNL A   1      42.748  33.757  31.387  1.00  0.00     0.031 A 
BRANCH  44  58
ATOM     58  C   UNL A   1      46.273  28.810  30.282  1.00  0.00    -0.014 A 
ATOM     59  C   UNL A   1      47.064  28.756  29.119  1.00  0.00     0.010 A 
ATOM     60  C   UNL A   1      46.740  28.194  31.456  1.00  0.00     0.010 A 
ATOM     61  C   UNL A   1      48.284  28.075  29.120  1.00  0.00     0.020 A 
ATOM     62  C   UNL A   1      47.972  27.532  31.468  1.00  0.00     0.020 A 
ATOM     63  C   UNL A   1      48.726  27.459  30.294  1.00  0.00     0.054 A 
BRANCH  63  64
ATOM     64  S   UNL A   1      50.308  26.570  30.278  1.00  0.00     0.124 S 
ATOM     65  O   UNL A   1      49.954  25.323  29.608  1.00  0.00    -0.237 OA
ATOM     66  O   UNL A   1      51.177  27.471  29.524  1.00  0.00    -0.237 OA
ATOM     67  O   UNL A   1      50.640  26.446  31.697  1.00  0.00    -0.744 OA
ENDBRANCH  63  64
ENDBRANCH  44  58
BRANCH  45  68
ATOM     68  C   UNL A   1      37.078  32.664  29.518  1.00  0.00    -0.014 A 
ATOM     69  C   UNL A   1      36.655  33.108  28.251  1.00  0.00     0.010 A 
ATOM     70  C   UNL A   1      36.245  32.871  30.630  1.00  0.00     0.010 A 
ATOM     71  C   UNL A   1      35.455  33.808  28.109  1.00  0.00     0.020 A 
ATOM     72  C   UNL A   1      35.028  33.547  30.485  1.00  0.00     0.020 A 
ATOM     73  C   UNL A   1      34.658  34.039  29.232  1.00  0.00     0.054 A 
BRANCH  73  74
ATOM     74  S   UNL A   1      33.136  35.008  29.038  1.00  0.00     0.124 S 
ATOM     75  O   UNL A   1      32.444  34.267  27.988  1.00  0.00    -0.237 OA
ATOM     76  O   UNL A   1      32.533  34.927  30.367  1.00  0.00    -0.237 OA
ATOM     77  O   UNL A   1      33.621  36.331  28.658  1.00  0.00    -0.744 OA
ENDBRANCH  73  74
ENDBRANCH  45  68
BRANCH  57  78
ATOM     78  C   UNL A   1      43.174  35.053  32.021  1.00  0.00    -0.014 A 
ATOM     79  C   UNL A   1      42.915  35.281  33.384  1.00  0.00     0.010 A 
ATOM     80  C   UNL A   1      43.701  36.093  31.236  1.00  0.00     0.010 A 
ATOM     81  C   UNL A   1      43.139  36.540  33.946  1.00  0.00     0.020 A 
ATOM     82  C   UNL A   1      43.950  37.347  31.800  1.00  0.00     0.020 A 
ATOM     83  C   UNL A   1      43.642  37.569  33.146  1.00  0.00     0.054 A 
BRANCH  83  84
ATOM     84  S   UNL A   1      43.885  39.210  33.879  1.00  0.00     0.124 S 
ATOM     85  O   UNL A   1      44.007  38.896  35.299  1.00  0.00    -0.237 OA
ATOM     86  O   UNL A   1      45.108  39.676  33.229  1.00  0.00    -0.237 OA
ATOM     87  O   UNL A   1      42.673  39.936  33.502  1.00  0.00    -0.744 OA
ENDBRANCH  83  84
ENDBRANCH  57  78
ENDBRANCH  31  32
ENDBRANCH  23  26
ENDBRANCH  21  22
ENDBRANCH   1  21
TORSDOF 15
ENDMDL
