MODEL 1
REMARK VINA RESULT:     -11.5      0.000      0.000
REMARK SMILES CC[NH2+][C@@]1(C(=O)NCCCNC(=O)c2ccc(-c3c4nc(c(-c5ccc(S(=O)(=O)[O-])cc5)c5ccc([nH]5)c(-c5ccc(S(=O)(=O)[O-])cc5)c5nc(c(-c6ccc(S(=O)(=O)[O-])cc6)c6ccc3[nH]6)C=C5)C=C4)cc2)CC[C@H](Oc2ccc3c(c2)OCO3)C1
REMARK SMILES IDX 9 1 8 2 7 3 5 4 6 5 4 7 74 8 87 9 75 10 76 11 3 12 2 15 1 16
REMARK SMILES IDX 77 17 78 18 79 19 83 20 80 21 82 22 81 23 84 24 86 25 85 26
REMARK SMILES IDX 10 27 11 28 12 29 13 31 14 32 15 33 73 34 16 35 72 36 17 37
REMARK SMILES IDX 18 38 19 39 66 40 20 41 71 42 65 43 67 44 21 45 70 46 64 47
REMARK SMILES IDX 63 48 22 50 52 51 33 52 51 53 34 54 37 55 50 56 68 57 35 58
REMARK SMILES IDX 36 59 49 61 69 62 38 63 23 64 24 65 32 66 25 67 31 68 26 69
REMARK SMILES IDX 27 70 28 71 29 72 30 73 53 74 54 75 62 76 55 77 61 78 56 79
REMARK SMILES IDX 57 80 58 81 59 82 60 83 39 84 40 85 48 86 41 87 47 88 42 89
REMARK SMILES IDX 43 90 44 91 45 92 46 93
REMARK H PARENT 7 6 3 13 3 14 11 30 67 49 37 60
REMARK Flexibility Score: inf
ROOT
ATOM      1  C   UNL A   1      33.023  28.346  27.188  1.00  0.00     0.042 C 
ENDROOT
BRANCH   1   2
ATOM      2  C   UNL A   1      31.570  28.243  26.752  1.00  0.00     0.118 C 
BRANCH   2   3
ATOM      3  N   UNL A   1      31.084  26.891  26.899  1.00  0.00    -0.351 N 
ATOM      4  C   UNL A   1      30.617  25.999  25.988  1.00  0.00     0.281 C 
ATOM      5  O   UNL A   1      29.775  25.213  26.451  1.00  0.00    -0.268 OA
ATOM      6  H   UNL A   1      31.092  26.556  27.825  1.00  0.00     0.163 HD
BRANCH   4   7
ATOM      7  C   UNL A   1      31.120  25.859  24.487  1.00  0.00     0.179 C 
ATOM      8  C   UNL A   1      32.375  26.616  24.048  1.00  0.00     0.083 C 
ATOM      9  C   UNL A   1      30.033  26.309  23.490  1.00  0.00     0.124 C 
ATOM     10  C   UNL A   1      31.926  27.837  23.247  1.00  0.00     0.052 C 
ATOM     11  C   UNL A   1      30.435  27.690  22.944  1.00  0.00     0.180 C 
BRANCH   7  12
ATOM     12  N   UNL A   1      31.339  24.393  24.261  1.00  0.00    -0.334 N 
ATOM     13  H   UNL A   1      30.750  23.880  24.917  1.00  0.00     0.347 HD
ATOM     14  H   UNL A   1      31.105  24.216  23.284  1.00  0.00     0.347 HD
BRANCH  12  15
ATOM     15  C   UNL A   1      32.717  23.941  24.440  1.00  0.00     0.257 C 
ATOM     16  C   UNL A   1      32.718  22.672  25.279  1.00  0.00     0.071 C 
ENDBRANCH  12  15
ENDBRANCH   7  12
BRANCH  11  17
ATOM     17  O   UNL A   1      29.561  28.608  23.586  1.00  0.00    -0.490 OA
BRANCH  17  18
ATOM     18  C   UNL A   1      29.377  29.898  23.201  1.00  0.00     0.123 A 
ATOM     19  C   UNL A   1      29.460  31.046  24.002  1.00  0.00     0.050 A 
ATOM     20  C   UNL A   1      28.916  30.000  21.881  1.00  0.00     0.097 A 
ATOM     21  C   UNL A   1      28.961  32.272  23.531  1.00  0.00     0.054 A 
ATOM     22  C   UNL A   1      28.429  31.209  21.446  1.00  0.00     0.169 A 
ATOM     23  C   UNL A   1      28.435  32.314  22.257  1.00  0.00     0.166 A 
ATOM     24  O   UNL A   1      27.847  31.443  20.243  1.00  0.00    -0.453 OA
ATOM     25  O   UNL A   1      27.865  33.393  21.659  1.00  0.00    -0.454 OA
ATOM     26  C   UNL A   1      27.590  32.857  20.346  1.00  0.00     0.468 C 
ENDBRANCH  17  18
ENDBRANCH  11  17
ENDBRANCH   4   7
ENDBRANCH   2   3
ENDBRANCH   1   2
BRANCH   1  27
ATOM     27  C   UNL A   1      33.797  29.474  26.529  1.00  0.00     0.118 C 
BRANCH  27  28
ATOM     28  N   UNL A   1      33.878  30.640  27.398  1.00  0.00    -0.352 N 
ATOM     29  C   UNL A   1      34.784  31.020  28.358  1.00  0.00     0.251 C 
ATOM     30  H   UNL A   1      33.140  31.279  27.273  1.00  0.00     0.163 HD
ATOM     31  O   UNL A   1      34.453  31.929  29.120  1.00  0.00    -0.269 OA
BRANCH  29  32
ATOM     32  C   UNL A   1      36.125  30.393  28.515  1.00  0.00     0.039 A 
ATOM     33  C   UNL A   1      36.444  29.801  29.748  1.00  0.00     0.014 A 
ATOM     34  C   UNL A   1      37.115  30.458  27.536  1.00  0.00     0.014 A 
ATOM     35  C   UNL A   1      37.716  29.260  29.977  1.00  0.00     0.010 A 
ATOM     36  C   UNL A   1      38.344  29.823  27.718  1.00  0.00     0.010 A 
ATOM     37  C   UNL A   1      38.675  29.262  28.956  1.00  0.00    -0.014 A 
BRANCH  37  38
ATOM     38  C   UNL A   1      40.077  28.839  29.205  1.00  0.00     0.031 A 
ATOM     39  C   UNL A   1      41.028  29.816  29.847  1.00  0.00     0.074 A 
ATOM     40  C   UNL A   1      40.511  27.621  28.829  1.00  0.00     0.049 A 
ATOM     41  N   UNL A   1      42.296  29.671  30.133  1.00  0.00    -0.248 NA
ATOM     42  C   UNL A   1      40.488  31.145  30.185  1.00  0.00     0.031 C 
ATOM     43  C   UNL A   1      39.703  26.603  28.158  1.00  0.00     0.029 A 
ATOM     44  N   UNL A   1      41.747  27.037  28.950  1.00  0.00    -0.354 N 
ATOM     45  C   UNL A   1      42.702  30.889  30.668  1.00  0.00     0.074 A 
ATOM     46  C   UNL A   1      41.569  31.784  30.599  1.00  0.00     0.031 C 
ATOM     47  C   UNL A   1      40.458  25.510  27.947  1.00  0.00     0.029 A 
ATOM     48  C   UNL A   1      41.810  25.760  28.441  1.00  0.00     0.049 A 
ATOM     49  H   UNL A   1      42.518  27.490  29.362  1.00  0.00     0.167 HD
ATOM     50  C   UNL A   1      43.899  31.229  31.201  1.00  0.00     0.031 A 
ATOM     51  C   UNL A   1      42.840  24.893  28.387  1.00  0.00     0.031 A 
ATOM     52  C   UNL A   1      45.024  30.338  31.276  1.00  0.00     0.049 A 
ATOM     53  C   UNL A   1      44.167  25.291  28.981  1.00  0.00     0.074 A 
ATOM     54  C   UNL A   1      46.268  30.565  31.834  1.00  0.00     0.029 A 
ATOM     55  N   UNL A   1      45.037  29.046  30.775  1.00  0.00    -0.354 N 
ATOM     56  N   UNL A   1      44.510  26.424  29.551  1.00  0.00    -0.248 NA
ATOM     57  C   UNL A   1      45.236  24.285  28.950  1.00  0.00     0.031 C 
ATOM     58  C   UNL A   1      47.052  29.426  31.628  1.00  0.00     0.029 A 
ATOM     59  C   UNL A   1      46.273  28.465  31.000  1.00  0.00     0.049 A 
ATOM     60  H   UNL A   1      44.280  28.606  30.325  1.00  0.00     0.167 HD
ATOM     61  C   UNL A   1      45.820  26.246  29.987  1.00  0.00     0.074 A 
ATOM     62  C   UNL A   1      46.202  24.897  29.622  1.00  0.00     0.031 C 
ATOM     63  C   UNL A   1      46.631  27.116  30.641  1.00  0.00     0.031 A 
BRANCH  50  64
ATOM     64  C   UNL A   1      44.039  32.628  31.745  1.00  0.00    -0.014 A 
ATOM     65  C   UNL A   1      43.761  32.911  33.095  1.00  0.00     0.010 A 
ATOM     66  C   UNL A   1      44.459  33.670  30.900  1.00  0.00     0.010 A 
ATOM     67  C   UNL A   1      43.848  34.219  33.578  1.00  0.00     0.020 A 
ATOM     68  C   UNL A   1      44.579  34.976  31.387  1.00  0.00     0.020 A 
ATOM     69  C   UNL A   1      44.253  35.244  32.718  1.00  0.00     0.054 A 
BRANCH  69  70
ATOM     70  S   UNL A   1      44.369  36.931  33.376  1.00  0.00     0.124 S 
ATOM     71  O   UNL A   1      45.127  37.610  32.328  1.00  0.00    -0.237 OA
ATOM     72  O   UNL A   1      42.969  37.324  33.495  1.00  0.00    -0.237 OA
ATOM     73  O   UNL A   1      45.076  36.760  34.643  1.00  0.00    -0.744 OA
ENDBRANCH  69  70
ENDBRANCH  50  64
BRANCH  51  74
ATOM     74  C   UNL A   1      42.653  23.542  27.784  1.00  0.00    -0.014 A 
ATOM     75  C   UNL A   1      42.082  22.498  28.535  1.00  0.00     0.010 A 
ATOM     76  C   UNL A   1      43.055  23.286  26.462  1.00  0.00     0.010 A 
ATOM     77  C   UNL A   1      41.946  21.219  27.988  1.00  0.00     0.020 A 
ATOM     78  C   UNL A   1      42.894  22.016  25.899  1.00  0.00     0.020 A 
ATOM     79  C   UNL A   1      42.354  20.986  26.671  1.00  0.00     0.054 A 
BRANCH  79  80
ATOM     80  S   UNL A   1      42.134  19.326  25.970  1.00  0.00     0.124 S 
ATOM     81  O   UNL A   1      42.674  18.476  27.025  1.00  0.00    -0.237 OA
ATOM     82  O   UNL A   1      40.687  19.256  25.778  1.00  0.00    -0.237 OA
ATOM     83  O   UNL A   1      42.916  19.369  24.736  1.00  0.00    -0.744 OA
ENDBRANCH  79  80
ENDBRANCH  51  74
BRANCH  63  84
ATOM     84  C   UNL A   1      47.987  26.619  31.066  1.00  0.00    -0.014 A 
ATOM     85  C   UNL A   1      49.133  26.827  30.280  1.00  0.00     0.010 A 
ATOM     86  C   UNL A   1      48.117  25.969  32.309  1.00  0.00     0.010 A 
ATOM     87  C   UNL A   1      50.377  26.353  30.707  1.00  0.00     0.020 A 
ATOM     88  C   UNL A   1      49.364  25.524  32.754  1.00  0.00     0.020 A 
ATOM     89  C   UNL A   1      50.483  25.701  31.940  1.00  0.00     0.054 A 
BRANCH  89  90
ATOM     90  S   UNL A   1      52.111  25.117  32.484  1.00  0.00     0.124 S 
ATOM     91  O   UNL A   1      51.898  23.675  32.584  1.00  0.00    -0.237 OA
ATOM     92  O   UNL A   1      52.987  25.549  31.398  1.00  0.00    -0.237 OA
ATOM     93  O   UNL A   1      52.321  25.806  33.755  1.00  0.00    -0.744 OA
ENDBRANCH  89  90
ENDBRANCH  63  84
ENDBRANCH  37  38
ENDBRANCH  29  32
ENDBRANCH  27  28
ENDBRANCH   1  27
TORSDOF 17
ENDMDL
MODEL 2
REMARK VINA RESULT:     -11.4      1.860      4.150
REMARK SMILES CC[NH2+][C@@]1(C(=O)NCCCNC(=O)c2ccc(-c3c4nc(c(-c5ccc(S(=O)(=O)[O-])cc5)c5ccc([nH]5)c(-c5ccc(S(=O)(=O)[O-])cc5)c5nc(c(-c6ccc(S(=O)(=O)[O-])cc6)c6ccc3[nH]6)C=C5)C=C4)cc2)CC[C@H](Oc2ccc3c(c2)OCO3)C1
REMARK SMILES IDX 9 1 8 2 7 3 5 4 6 5 4 7 74 8 87 9 75 10 76 11 3 12 2 15 1 16
REMARK SMILES IDX 77 17 78 18 79 19 83 20 80 21 82 22 81 23 84 24 86 25 85 26
REMARK SMILES IDX 10 27 11 28 12 29 13 31 14 32 15 33 73 34 16 35 72 36 17 37
REMARK SMILES IDX 18 38 19 39 66 40 20 41 71 42 65 43 67 44 21 45 70 46 64 47
REMARK SMILES IDX 63 48 22 50 52 51 33 52 51 53 34 54 37 55 50 56 68 57 35 58
REMARK SMILES IDX 36 59 49 61 69 62 38 63 23 64 24 65 32 66 25 67 31 68 26 69
REMARK SMILES IDX 27 70 28 71 29 72 30 73 53 74 54 75 62 76 55 77 61 78 56 79
REMARK SMILES IDX 57 80 58 81 59 82 60 83 39 84 40 85 48 86 41 87 47 88 42 89
REMARK SMILES IDX 43 90 44 91 45 92 46 93
REMARK H PARENT 7 6 3 13 3 14 11 30 67 49 37 60
REMARK Flexibility Score: inf
ROOT
ATOM      1  C   UNL A   1      33.117  28.169  27.074  1.00  0.00     0.042 C 
ENDROOT
BRANCH   1   2
ATOM      2  C   UNL A   1      31.623  27.999  26.850  1.00  0.00     0.118 C 
BRANCH   2   3
ATOM      3  N   UNL A   1      31.264  26.600  26.819  1.00  0.00    -0.351 N 
ATOM      4  C   UNL A   1      30.566  25.871  25.910  1.00  0.00     0.281 C 
ATOM      5  O   UNL A   1      29.949  24.917  26.410  1.00  0.00    -0.268 OA
ATOM      6  H   UNL A   1      31.582  26.083  27.594  1.00  0.00     0.163 HD
BRANCH   4   7
ATOM      7  C   UNL A   1      30.567  26.105  24.338  1.00  0.00     0.179 C 
ATOM      8  C   UNL A   1      30.577  24.893  23.404  1.00  0.00     0.083 C 
ATOM      9  C   UNL A   1      31.787  26.939  23.898  1.00  0.00     0.124 C 
ATOM     10  C   UNL A   1      31.997  24.731  22.868  1.00  0.00     0.052 C 
ATOM     11  C   UNL A   1      32.793  25.985  23.230  1.00  0.00     0.180 C 
BRANCH   7  12
ATOM     12  N   UNL A   1      29.348  26.928  24.044  1.00  0.00    -0.334 N 
ATOM     13  H   UNL A   1      28.730  26.379  23.447  1.00  0.00     0.347 HD
ATOM     14  H   UNL A   1      28.935  27.161  24.947  1.00  0.00     0.347 HD
BRANCH  12  15
ATOM     15  C   UNL A   1      29.611  28.200  23.374  1.00  0.00     0.257 C 
ATOM     16  C   UNL A   1      28.287  28.833  22.971  1.00  0.00     0.071 C 
ENDBRANCH  12  15
ENDBRANCH   7  12
BRANCH  11  17
ATOM     17  O   UNL A   1      33.836  25.825  24.180  1.00  0.00    -0.490 OA
BRANCH  17  18
ATOM     18  C   UNL A   1      34.229  24.634  24.705  1.00  0.00     0.123 A 
ATOM     19  C   UNL A   1      33.937  24.128  25.979  1.00  0.00     0.050 A 
ATOM     20  C   UNL A   1      35.140  23.961  23.878  1.00  0.00     0.097 A 
ATOM     21  C   UNL A   1      34.648  23.025  26.479  1.00  0.00     0.054 A 
ATOM     22  C   UNL A   1      35.826  22.889  24.393  1.00  0.00     0.169 A 
ATOM     23  C   UNL A   1      35.599  22.441  25.668  1.00  0.00     0.166 A 
ATOM     24  O   UNL A   1      36.816  22.205  23.763  1.00  0.00    -0.453 OA
ATOM     25  O   UNL A   1      36.414  21.406  26.002  1.00  0.00    -0.454 OA
ATOM     26  C   UNL A   1      37.108  21.198  24.752  1.00  0.00     0.468 C 
ENDBRANCH  17  18
ENDBRANCH  11  17
ENDBRANCH   4   7
ENDBRANCH   2   3
ENDBRANCH   1   2
BRANCH   1  27
ATOM     27  C   UNL A   1      33.734  29.335  26.323  1.00  0.00     0.118 C 
BRANCH  27  28
ATOM     28  N   UNL A   1      33.814  30.524  27.161  1.00  0.00    -0.352 N 
ATOM     29  C   UNL A   1      34.708  30.923  28.123  1.00  0.00     0.251 C 
ATOM     30  H   UNL A   1      33.083  31.166  27.007  1.00  0.00     0.163 HD
ATOM     31  O   UNL A   1      34.375  31.855  28.855  1.00  0.00    -0.269 OA
BRANCH  29  32
ATOM     32  C   UNL A   1      36.042  30.289  28.317  1.00  0.00     0.039 A 
ATOM     33  C   UNL A   1      36.315  29.676  29.550  1.00  0.00     0.014 A 
ATOM     34  C   UNL A   1      37.067  30.367  27.375  1.00  0.00     0.014 A 
ATOM     35  C   UNL A   1      37.577  29.128  29.816  1.00  0.00     0.010 A 
ATOM     36  C   UNL A   1      38.286  29.725  27.589  1.00  0.00     0.010 A 
ATOM     37  C   UNL A   1      38.572  29.143  28.829  1.00  0.00    -0.014 A 
BRANCH  37  38
ATOM     38  C   UNL A   1      39.963  28.712  29.120  1.00  0.00     0.031 A 
ATOM     39  C   UNL A   1      40.897  29.680  29.800  1.00  0.00     0.074 A 
ATOM     40  C   UNL A   1      40.403  27.495  28.749  1.00  0.00     0.049 A 
ATOM     41  N   UNL A   1      42.155  29.527  30.126  1.00  0.00    -0.248 NA
ATOM     42  C   UNL A   1      40.352  31.009  30.130  1.00  0.00     0.031 C 
ATOM     43  C   UNL A   1      39.614  26.485  28.045  1.00  0.00     0.029 A 
ATOM     44  N   UNL A   1      41.632  26.904  28.906  1.00  0.00    -0.354 N 
ATOM     45  C   UNL A   1      42.548  30.739  30.683  1.00  0.00     0.074 A 
ATOM     46  C   UNL A   1      41.422  31.639  30.584  1.00  0.00     0.031 C 
ATOM     47  C   UNL A   1      40.370  25.391  27.850  1.00  0.00     0.029 A 
ATOM     48  C   UNL A   1      41.706  25.631  28.391  1.00  0.00     0.049 A 
ATOM     49  H   UNL A   1      42.392  27.351  29.347  1.00  0.00     0.167 HD
ATOM     50  C   UNL A   1      43.728  31.070  31.258  1.00  0.00     0.031 A 
ATOM     51  C   UNL A   1      42.733  24.759  28.363  1.00  0.00     0.031 A 
ATOM     52  C   UNL A   1      44.846  30.173  31.362  1.00  0.00     0.049 A 
ATOM     53  C   UNL A   1      44.042  25.147  29.003  1.00  0.00     0.074 A 
ATOM     54  C   UNL A   1      46.073  30.390  31.963  1.00  0.00     0.029 A 
ATOM     55  N   UNL A   1      44.870  28.884  30.853  1.00  0.00    -0.354 N 
ATOM     56  N   UNL A   1      44.372  26.274  29.593  1.00  0.00    -0.248 NA
ATOM     57  C   UNL A   1      45.108  24.136  29.000  1.00  0.00     0.031 C 
ATOM     58  C   UNL A   1      46.858  29.248  31.774  1.00  0.00     0.029 A 
ATOM     59  C   UNL A   1      46.095  28.296  31.114  1.00  0.00     0.049 A 
ATOM     60  H   UNL A   1      44.126  28.451  30.375  1.00  0.00     0.167 HD
ATOM     61  C   UNL A   1      45.666  26.087  30.070  1.00  0.00     0.074 A 
ATOM     62  C   UNL A   1      46.053  24.739  29.707  1.00  0.00     0.031 C 
ATOM     63  C   UNL A   1      46.459  26.948  30.756  1.00  0.00     0.031 A 
BRANCH  50  64
ATOM     64  C   UNL A   1      43.857  32.464  31.816  1.00  0.00    -0.014 A 
ATOM     65  C   UNL A   1      43.418  32.765  33.119  1.00  0.00     0.010 A 
ATOM     66  C   UNL A   1      44.427  33.483  31.033  1.00  0.00     0.010 A 
ATOM     67  C   UNL A   1      43.499  34.071  33.610  1.00  0.00     0.020 A 
ATOM     68  C   UNL A   1      44.539  34.785  31.533  1.00  0.00     0.020 A 
ATOM     69  C   UNL A   1      44.056  35.073  32.811  1.00  0.00     0.054 A 
BRANCH  69  70
ATOM     70  S   UNL A   1      44.158  36.756  33.479  1.00  0.00     0.124 S 
ATOM     71  O   UNL A   1      43.233  37.481  32.611  1.00  0.00    -0.237 OA
ATOM     72  O   UNL A   1      43.717  36.579  34.860  1.00  0.00    -0.237 OA
ATOM     73  O   UNL A   1      45.567  37.107  33.319  1.00  0.00    -0.744 OA
ENDBRANCH  69  70
ENDBRANCH  50  64
BRANCH  51  74
ATOM     74  C   UNL A   1      42.560  23.413  27.745  1.00  0.00    -0.014 A 
ATOM     75  C   UNL A   1      42.081  22.333  28.508  1.00  0.00     0.010 A 
ATOM     76  C   UNL A   1      42.885  23.199  26.394  1.00  0.00     0.010 A 
ATOM     77  C   UNL A   1      41.960  21.060  27.943  1.00  0.00     0.020 A 
ATOM     78  C   UNL A   1      42.737  21.935  25.815  1.00  0.00     0.020 A 
ATOM     79  C   UNL A   1      42.289  20.869  26.598  1.00  0.00     0.054 A 
BRANCH  79  80
ATOM     80  S   UNL A   1      42.088  19.215  25.877  1.00  0.00     0.124 S 
ATOM     81  O   UNL A   1      42.584  18.355  26.946  1.00  0.00    -0.237 OA
ATOM     82  O   UNL A   1      40.650  19.154  25.629  1.00  0.00    -0.237 OA
ATOM     83  O   UNL A   1      42.918  19.263  24.675  1.00  0.00    -0.744 OA
ENDBRANCH  79  80
ENDBRANCH  51  74
BRANCH  63  84
ATOM     84  C   UNL A   1      47.798  26.441  31.222  1.00  0.00    -0.014 A 
ATOM     85  C   UNL A   1      47.967  25.845  32.483  1.00  0.00     0.010 A 
ATOM     86  C   UNL A   1      48.901  26.525  30.350  1.00  0.00     0.010 A 
ATOM     87  C   UNL A   1      49.225  25.383  32.882  1.00  0.00     0.020 A 
ATOM     88  C   UNL A   1      50.152  26.034  30.732  1.00  0.00     0.020 A 
ATOM     89  C   UNL A   1      50.310  25.485  32.005  1.00  0.00     0.054 A 
BRANCH  89  90
ATOM     90  S   UNL A   1      51.926  24.858  32.536  1.00  0.00     0.124 S 
ATOM     91  O   UNL A   1      52.830  25.515  31.596  1.00  0.00    -0.237 OA
ATOM     92  O   UNL A   1      52.012  25.320  33.919  1.00  0.00    -0.237 OA
ATOM     93  O   UNL A   1      51.806  23.410  32.377  1.00  0.00    -0.744 OA
ENDBRANCH  89  90
ENDBRANCH  63  84
ENDBRANCH  37  38
ENDBRANCH  29  32
ENDBRANCH  27  28
ENDBRANCH   1  27
TORSDOF 17
ENDMDL
MODEL 3
REMARK VINA RESULT:     -11.3      2.675      3.286
REMARK SMILES CC[NH2+][C@@]1(C(=O)NCCCNC(=O)c2ccc(-c3c4nc(c(-c5ccc(S(=O)(=O)[O-])cc5)c5ccc([nH]5)c(-c5ccc(S(=O)(=O)[O-])cc5)c5nc(c(-c6ccc(S(=O)(=O)[O-])cc6)c6ccc3[nH]6)C=C5)C=C4)cc2)CC[C@H](Oc2ccc3c(c2)OCO3)C1
REMARK SMILES IDX 9 1 8 2 7 3 5 4 6 5 4 7 74 8 87 9 75 10 76 11 3 12 2 15 1 16
REMARK SMILES IDX 77 17 78 18 79 19 83 20 80 21 82 22 81 23 84 24 86 25 85 26
REMARK SMILES IDX 10 27 11 28 12 29 13 31 14 32 15 33 73 34 16 35 72 36 17 37
REMARK SMILES IDX 18 38 19 39 66 40 20 41 71 42 65 43 67 44 21 45 70 46 64 47
REMARK SMILES IDX 63 48 22 50 52 51 33 52 51 53 34 54 37 55 50 56 68 57 35 58
REMARK SMILES IDX 36 59 49 61 69 62 38 63 23 64 24 65 32 66 25 67 31 68 26 69
REMARK SMILES IDX 27 70 28 71 29 72 30 73 53 74 54 75 62 76 55 77 61 78 56 79
REMARK SMILES IDX 57 80 58 81 59 82 60 83 39 84 40 85 48 86 41 87 47 88 42 89
REMARK SMILES IDX 43 90 44 91 45 92 46 93
REMARK H PARENT 7 6 3 13 3 14 11 30 67 49 37 60
REMARK Flexibility Score: inf
ROOT
ATOM      1  C   UNL A   1      32.782  28.626  27.212  1.00  0.00     0.042 C 
ENDROOT
BRANCH   1   2
ATOM      2  C   UNL A   1      31.413  28.286  26.643  1.00  0.00     0.118 C 
BRANCH   2   3
ATOM      3  N   UNL A   1      31.111  26.887  26.835  1.00  0.00    -0.351 N 
ATOM      4  C   UNL A   1      30.803  25.904  25.950  1.00  0.00     0.281 C 
ATOM      5  O   UNL A   1      30.059  25.028  26.421  1.00  0.00    -0.268 OA
ATOM      6  H   UNL A   1      31.130  26.594  27.775  1.00  0.00     0.163 HD
BRANCH   4   7
ATOM      7  C   UNL A   1      31.376  25.775  24.474  1.00  0.00     0.179 C 
ATOM      8  C   UNL A   1      32.564  26.643  24.056  1.00  0.00     0.083 C 
ATOM      9  C   UNL A   1      30.288  26.083  23.424  1.00  0.00     0.124 C 
ATOM     10  C   UNL A   1      32.026  27.789  23.202  1.00  0.00     0.052 C 
ATOM     11  C   UNL A   1      30.570  27.483  22.851  1.00  0.00     0.180 C 
BRANCH   7  12
ATOM     12  N   UNL A   1      31.750  24.333  24.302  1.00  0.00    -0.334 N 
ATOM     13  H   UNL A   1      32.529  24.130  24.928  1.00  0.00     0.347 HD
ATOM     14  H   UNL A   1      30.911  23.792  24.513  1.00  0.00     0.347 HD
BRANCH  12  15
ATOM     15  C   UNL A   1      32.149  23.957  22.947  1.00  0.00     0.257 C 
ATOM     16  C   UNL A   1      33.340  23.014  23.024  1.00  0.00     0.071 C 
ENDBRANCH  12  15
ENDBRANCH   7  12
BRANCH  11  17
ATOM     17  O   UNL A   1      29.584  28.324  23.432  1.00  0.00    -0.490 OA
BRANCH  17  18
ATOM     18  C   UNL A   1      29.427  29.643  23.144  1.00  0.00     0.123 A 
ATOM     19  C   UNL A   1      29.552  30.727  24.024  1.00  0.00     0.050 A 
ATOM     20  C   UNL A   1      28.947  29.852  21.843  1.00  0.00     0.097 A 
ATOM     21  C   UNL A   1      29.078  31.996  23.653  1.00  0.00     0.054 A 
ATOM     22  C   UNL A   1      28.484  31.101  21.506  1.00  0.00     0.169 A 
ATOM     23  C   UNL A   1      28.531  32.144  22.395  1.00  0.00     0.166 A 
ATOM     24  O   UNL A   1      27.888  31.435  20.333  1.00  0.00    -0.453 OA
ATOM     25  O   UNL A   1      27.980  33.277  21.887  1.00  0.00    -0.454 OA
ATOM     26  C   UNL A   1      27.669  32.844  20.543  1.00  0.00     0.468 C 
ENDBRANCH  17  18
ENDBRANCH  11  17
ENDBRANCH   4   7
ENDBRANCH   2   3
ENDBRANCH   1   2
BRANCH   1  27
ATOM     27  C   UNL A   1      33.611  29.551  26.339  1.00  0.00     0.118 C 
BRANCH  27  28
ATOM     28  N   UNL A   1      33.620  30.909  26.864  1.00  0.00    -0.352 N 
ATOM     29  C   UNL A   1      34.406  31.538  27.799  1.00  0.00     0.251 C 
ATOM     30  H   UNL A   1      32.928  31.490  26.472  1.00  0.00     0.163 HD
ATOM     31  O   UNL A   1      34.011  32.619  28.235  1.00  0.00    -0.269 OA
BRANCH  29  32
ATOM     32  C   UNL A   1      35.693  30.979  28.299  1.00  0.00     0.039 A 
ATOM     33  C   UNL A   1      35.655  29.801  29.062  1.00  0.00     0.014 A 
ATOM     34  C   UNL A   1      36.918  31.624  28.137  1.00  0.00     0.014 A 
ATOM     35  C   UNL A   1      36.824  29.269  29.620  1.00  0.00     0.010 A 
ATOM     36  C   UNL A   1      38.099  31.040  28.593  1.00  0.00     0.010 A 
ATOM     37  C   UNL A   1      38.060  29.885  29.382  1.00  0.00    -0.014 A 
BRANCH  37  38
ATOM     38  C   UNL A   1      39.296  29.442  30.076  1.00  0.00     0.031 A 
ATOM     39  C   UNL A   1      39.713  30.150  31.340  1.00  0.00     0.074 A 
ATOM     40  C   UNL A   1      40.061  28.457  29.569  1.00  0.00     0.049 A 
ATOM     41  N   UNL A   1      40.763  29.950  32.094  1.00  0.00    -0.248 NA
ATOM     42  C   UNL A   1      38.847  31.250  31.802  1.00  0.00     0.031 C 
ATOM     43  C   UNL A   1      39.793  27.726  28.331  1.00  0.00     0.029 A 
ATOM     44  N   UNL A   1      41.230  27.906  30.033  1.00  0.00    -0.354 N 
ATOM     45  C   UNL A   1      40.688  30.903  33.103  1.00  0.00     0.074 A 
ATOM     46  C   UNL A   1      39.534  31.728  32.826  1.00  0.00     0.031 C 
ATOM     47  C   UNL A   1      40.756  26.807  28.144  1.00  0.00     0.029 A 
ATOM     48  C   UNL A   1      41.725  26.902  29.234  1.00  0.00     0.049 A 
ATOM     49  H   UNL A   1      41.673  28.203  30.861  1.00  0.00     0.167 HD
ATOM     50  C   UNL A   1      41.486  31.064  34.185  1.00  0.00     0.031 A 
ATOM     51  C   UNL A   1      42.832  26.144  29.370  1.00  0.00     0.031 A 
ATOM     52  C   UNL A   1      42.630  30.240  34.465  1.00  0.00     0.049 A 
ATOM     53  C   UNL A   1      43.711  26.341  30.579  1.00  0.00     0.074 A 
ATOM     54  C   UNL A   1      43.481  30.287  35.553  1.00  0.00     0.029 A 
ATOM     55  N   UNL A   1      43.081  29.217  33.645  1.00  0.00    -0.354 N 
ATOM     56  N   UNL A   1      43.582  27.200  31.564  1.00  0.00    -0.248 NA
ATOM     57  C   UNL A   1      44.869  25.447  30.709  1.00  0.00     0.031 C 
ATOM     58  C   UNL A   1      44.477  29.323  35.368  1.00  0.00     0.029 A 
ATOM     59  C   UNL A   1      44.207  28.632  34.197  1.00  0.00     0.049 A 
ATOM     60  H   UNL A   1      42.663  28.947  32.796  1.00  0.00     0.167 HD
ATOM     61  C   UNL A   1      44.615  26.917  32.452  1.00  0.00     0.074 A 
ATOM     62  C   UNL A   1      45.353  25.803  31.891  1.00  0.00     0.031 C 
ATOM     63  C   UNL A   1      44.921  27.516  33.630  1.00  0.00     0.031 A 
BRANCH  50  64
ATOM     64  C   UNL A   1      41.136  32.174  35.141  1.00  0.00    -0.014 A 
ATOM     65  C   UNL A   1      41.631  33.478  34.949  1.00  0.00     0.010 A 
ATOM     66  C   UNL A   1      40.300  31.916  36.241  1.00  0.00     0.010 A 
ATOM     67  C   UNL A   1      41.340  34.490  35.868  1.00  0.00     0.020 A 
ATOM     68  C   UNL A   1      39.979  32.934  37.146  1.00  0.00     0.020 A 
ATOM     69  C   UNL A   1      40.518  34.209  36.963  1.00  0.00     0.054 A 
BRANCH  69  70
ATOM     70  S   UNL A   1      40.147  35.545  38.132  1.00  0.00     0.124 S 
ATOM     71  O   UNL A   1      38.952  35.037  38.800  1.00  0.00    -0.237 OA
ATOM     72  O   UNL A   1      41.353  35.595  38.953  1.00  0.00    -0.237 OA
ATOM     73  O   UNL A   1      39.934  36.707  37.273  1.00  0.00    -0.744 OA
ENDBRANCH  69  70
ENDBRANCH  50  64
BRANCH  51  74
ATOM     74  C   UNL A   1      43.155  25.098  28.358  1.00  0.00    -0.014 A 
ATOM     75  C   UNL A   1      43.899  25.422  27.209  1.00  0.00     0.010 A 
ATOM     76  C   UNL A   1      42.711  23.775  28.530  1.00  0.00     0.010 A 
ATOM     77  C   UNL A   1      44.166  24.452  26.237  1.00  0.00     0.020 A 
ATOM     78  C   UNL A   1      43.000  22.794  27.575  1.00  0.00     0.020 A 
ATOM     79  C   UNL A   1      43.714  23.143  26.427  1.00  0.00     0.054 A 
BRANCH  79  80
ATOM     80  S   UNL A   1      44.104  21.895  25.169  1.00  0.00     0.124 S 
ATOM     81  O   UNL A   1      43.094  20.875  25.428  1.00  0.00    -0.237 OA
ATOM     82  O   UNL A   1      43.946  22.643  23.924  1.00  0.00    -0.237 OA
ATOM     83  O   UNL A   1      45.479  21.510  25.484  1.00  0.00    -0.744 OA
ENDBRANCH  79  80
ENDBRANCH  51  74
BRANCH  63  84
ATOM     84  C   UNL A   1      46.059  26.939  34.430  1.00  0.00    -0.014 A 
ATOM     85  C   UNL A   1      47.376  27.410  34.292  1.00  0.00     0.010 A 
ATOM     86  C   UNL A   1      45.788  25.932  35.377  1.00  0.00     0.010 A 
ATOM     87  C   UNL A   1      48.408  26.853  35.053  1.00  0.00     0.020 A 
ATOM     88  C   UNL A   1      46.811  25.397  36.162  1.00  0.00     0.020 A 
ATOM     89  C   UNL A   1      48.119  25.847  35.980  1.00  0.00     0.054 A 
BRANCH  89  90
ATOM     90  S   UNL A   1      49.471  25.156  36.972  1.00  0.00     0.124 S 
ATOM     91  O   UNL A   1      49.910  26.319  37.737  1.00  0.00    -0.237 OA
ATOM     92  O   UNL A   1      48.802  24.111  37.743  1.00  0.00    -0.237 OA
ATOM     93  O   UNL A   1      50.421  24.671  35.973  1.00  0.00    -0.744 OA
ENDBRANCH  89  90
ENDBRANCH  63  84
ENDBRANCH  37  38
ENDBRANCH  29  32
ENDBRANCH  27  28
ENDBRANCH   1  27
TORSDOF 17
ENDMDL
