MODEL 1
REMARK VINA RESULT:     -13.4      0.000      0.000
REMARK SMILES O=CN[C@@H](CCS[C@@H]1CCO[C@]2(CCOC2)C1)C(=O)NCCCNC(=O)c1ccc(-c2c3nc(c(-c4ccc(S(=O)(=O)[O-])cc4)c4ccc([nH]4)c(-c4ccc(S(=O)(=O)[O-])cc4)c4nc(c(-c5ccc(S(=O)(=O)[O-])cc5)c5ccc2[nH]5)C=C4)C=C3)cc1
REMARK SMILES IDX 21 1 20 2 18 3 19 4 4 6 3 7 1 8 2 9 5 11 6 12 7 13 8 14 9 15
REMARK SMILES IDX 17 16 10 17 12 18 11 19 13 20 16 21 14 22 15 23 22 24 23 25
REMARK SMILES IDX 24 26 25 27 26 29 27 30 28 31 86 32 29 33 85 34 30 35 31 36
REMARK SMILES IDX 32 37 79 38 33 39 84 40 78 41 80 42 34 43 83 44 77 45 76 46
REMARK SMILES IDX 35 48 65 49 46 50 64 51 47 52 50 53 63 54 81 55 48 56 49 57
REMARK SMILES IDX 62 59 82 60 51 61 36 62 37 63 45 64 38 65 44 66 39 67 40 68
REMARK SMILES IDX 41 69 42 70 43 71 66 72 67 73 75 74 68 75 74 76 69 77 70 78
REMARK SMILES IDX 71 79 72 80 73 81 52 82 53 83 61 84 54 85 60 86 55 87 56 88
REMARK SMILES IDX 57 89 58 90 59 91
REMARK H PARENT 20 5 3 10 24 28 80 47 50 58
REMARK Flexibility Score: inf
ROOT
ATOM      1  C   UNL A   1      35.753  20.049  25.004  1.00  0.00     0.117 C 
ENDROOT
BRANCH   1   2
ATOM      2  N   UNL A   1      34.106  19.578  24.862  1.00  0.00    -0.354 N 
ATOM      3  C   UNL A   1      32.777  19.658  24.902  1.00  0.00     0.242 C 
ATOM      4  O   UNL A   1      32.120  18.644  24.650  1.00  0.00    -0.273 OA
ATOM      5  H   UNL A   1      34.216  18.651  24.551  1.00  0.00     0.163 HD
BRANCH   3   6
ATOM      6  C   UNL A   1      32.153  20.965  24.974  1.00  0.00     0.171 C 
BRANCH   6   7
ATOM      7  N   UNL A   1      32.223  21.165  26.409  1.00  0.00    -0.347 N 
ATOM      8  O   UNL A   1      32.315  22.868  27.962  1.00  0.00    -0.279 OA
ATOM      9  C   UNL A   1      32.616  22.420  26.866  1.00  0.00     0.337 C 
ATOM     10  H   UNL A   1      31.999  20.439  27.036  1.00  0.00     0.164 HD
ENDBRANCH   6   7
BRANCH   6  11
ATOM     11  C   UNL A   1      32.969  21.747  23.912  1.00  0.00     0.046 C 
BRANCH  11  12
ATOM     12  C   UNL A   1      32.397  22.142  22.458  1.00  0.00     0.072 C 
BRANCH  12  13
ATOM     13  S   UNL A   1      32.850  23.840  21.340  1.00  0.00    -0.158 SA
BRANCH  13  14
ATOM     14  C   UNL A   1      33.332  25.409  22.716  1.00  0.00     0.052 C 
ATOM     15  C   UNL A   1      34.424  25.277  24.414  1.00  0.00     0.043 C 
ATOM     16  C   UNL A   1      31.512  25.894  22.924  1.00  0.00     0.052 C 
ATOM     17  C   UNL A   1      33.439  25.605  26.091  1.00  0.00     0.162 C 
ATOM     18  C   UNL A   1      30.895  26.713  24.631  1.00  0.00     0.095 C 
ATOM     19  O   UNL A   1      31.613  25.929  25.979  1.00  0.00    -0.372 OA
ATOM     20  C   UNL A   1      29.156  26.802  23.674  1.00  0.00     0.066 C 
ATOM     21  C   UNL A   1      31.364  28.692  25.025  1.00  0.00     0.195 C 
ATOM     22  C   UNL A   1      28.896  28.648  22.985  1.00  0.00     0.163 C 
ATOM     23  O   UNL A   1      30.327  29.741  23.716  1.00  0.00    -0.378 OA
ENDBRANCH  13  14
ENDBRANCH  12  13
ENDBRANCH  11  12
ENDBRANCH   6  11
ENDBRANCH   3   6
ENDBRANCH   1   2
BRANCH   1  24
ATOM     24  C   UNL A   1      36.287  22.085  25.204  1.00  0.00     0.042 C 
BRANCH  24  25
ATOM     25  C   UNL A   1      37.818  22.791  25.411  1.00  0.00     0.118 C 
BRANCH  25  26
ATOM     26  N   UNL A   1      38.715  21.896  26.571  1.00  0.00    -0.352 N 
ATOM     27  C   UNL A   1      40.364  20.829  26.493  1.00  0.00     0.251 C 
ATOM     28  H   UNL A   1      38.316  21.922  27.470  1.00  0.00     0.163 HD
ATOM     29  O   UNL A   1      40.469  19.636  26.110  1.00  0.00    -0.269 OA
BRANCH  27  30
ATOM     30  C   UNL A   1      42.046  21.487  26.557  1.00  0.00     0.039 A 
ATOM     31  C   UNL A   1      42.501  22.219  25.457  1.00  0.00     0.014 A 
ATOM     32  C   UNL A   1      42.704  21.828  27.766  1.00  0.00     0.014 A 
ATOM     33  C   UNL A   1      43.328  23.355  25.662  1.00  0.00     0.010 A 
ATOM     34  C   UNL A   1      43.050  23.132  27.998  1.00  0.00     0.010 A 
ATOM     35  C   UNL A   1      43.495  23.897  26.953  1.00  0.00    -0.014 A 
BRANCH  35  36
ATOM     36  C   UNL A   1      44.065  25.227  27.303  1.00  0.00     0.031 A 
ATOM     37  C   UNL A   1      45.549  25.540  27.098  1.00  0.00     0.074 A 
ATOM     38  C   UNL A   1      43.280  26.106  27.961  1.00  0.00     0.049 A 
ATOM     39  N   UNL A   1      46.201  26.645  27.369  1.00  0.00    -0.248 NA
ATOM     40  C   UNL A   1      46.438  24.467  26.601  1.00  0.00     0.031 C 
ATOM     41  C   UNL A   1      41.905  25.852  28.403  1.00  0.00     0.029 A 
ATOM     42  N   UNL A   1      43.515  27.396  28.355  1.00  0.00    -0.354 N 
ATOM     43  C   UNL A   1      47.543  26.376  27.100  1.00  0.00     0.074 A 
ATOM     44  C   UNL A   1      47.644  24.977  26.788  1.00  0.00     0.031 C 
ATOM     45  C   UNL A   1      41.378  26.985  28.885  1.00  0.00     0.029 A 
ATOM     46  C   UNL A   1      42.395  28.027  28.847  1.00  0.00     0.049 A 
ATOM     47  H   UNL A   1      44.397  27.828  28.294  1.00  0.00     0.167 HD
ATOM     48  C   UNL A   1      48.596  27.227  27.034  1.00  0.00     0.031 A 
ATOM     49  C   UNL A   1      42.203  29.312  29.194  1.00  0.00     0.031 A 
ATOM     50  C   UNL A   1      48.470  28.632  27.292  1.00  0.00     0.049 A 
ATOM     51  C   UNL A   1      43.354  30.266  29.042  1.00  0.00     0.074 A 
ATOM     52  C   UNL A   1      49.421  29.625  27.161  1.00  0.00     0.029 A 
ATOM     53  N   UNL A   1      47.303  29.240  27.730  1.00  0.00    -0.354 N 
ATOM     54  N   UNL A   1      44.578  30.021  28.637  1.00  0.00    -0.248 NA
ATOM     55  C   UNL A   1      43.094  31.671  29.375  1.00  0.00     0.031 C 
ATOM     56  C   UNL A   1      48.846  30.826  27.585  1.00  0.00     0.029 A 
ATOM     57  C   UNL A   1      47.515  30.592  27.903  1.00  0.00     0.049 A 
ATOM     58  H   UNL A   1      46.450  28.775  27.894  1.00  0.00     0.167 HD
ATOM     59  C   UNL A   1      45.230  31.249  28.641  1.00  0.00     0.074 A 
ATOM     60  C   UNL A   1      44.253  32.233  29.066  1.00  0.00     0.031 C 
ATOM     61  C   UNL A   1      46.517  31.540  28.328  1.00  0.00     0.031 A 
BRANCH  48  62
ATOM     62  C   UNL A   1      49.942  26.669  26.627  1.00  0.00    -0.014 A 
ATOM     63  C   UNL A   1      50.889  26.267  27.591  1.00  0.00     0.010 A 
ATOM     64  C   UNL A   1      50.263  26.516  25.266  1.00  0.00     0.010 A 
ATOM     65  C   UNL A   1      52.142  25.781  27.207  1.00  0.00     0.020 A 
ATOM     66  C   UNL A   1      51.501  25.993  24.876  1.00  0.00     0.020 A 
ATOM     67  C   UNL A   1      52.440  25.647  25.849  1.00  0.00     0.054 A 
BRANCH  67  68
ATOM     68  S   UNL A   1      54.064  24.986  25.381  1.00  0.00     0.124 S 
ATOM     69  O   UNL A   1      53.710  23.683  24.821  1.00  0.00    -0.237 OA
ATOM     70  O   UNL A   1      54.544  25.973  24.417  1.00  0.00    -0.237 OA
ATOM     71  O   UNL A   1      54.798  24.940  26.643  1.00  0.00    -0.744 OA
ENDBRANCH  67  68
ENDBRANCH  48  62
BRANCH  49  72
ATOM     72  C   UNL A   1      40.857  29.768  29.642  1.00  0.00    -0.014 A 
ATOM     73  C   UNL A   1      40.623  30.100  30.989  1.00  0.00     0.010 A 
ATOM     74  C   UNL A   1      39.807  29.912  28.716  1.00  0.00     0.010 A 
ATOM     75  C   UNL A   1      39.361  30.535  31.406  1.00  0.00     0.020 A 
ATOM     76  C   UNL A   1      38.555  30.382  29.121  1.00  0.00     0.020 A 
ATOM     77  C   UNL A   1      38.335  30.676  30.468  1.00  0.00     0.054 A 
BRANCH  77  78
ATOM     78  S   UNL A   1      36.716  31.277  31.026  1.00  0.00     0.124 S 
ATOM     79  O   UNL A   1      36.463  30.431  32.188  1.00  0.00    -0.237 OA
ATOM     80  O   UNL A   1      36.985  32.683  31.313  1.00  0.00    -0.237 OA
ATOM     81  O   UNL A   1      35.846  31.037  29.877  1.00  0.00    -0.744 OA
ENDBRANCH  77  78
ENDBRANCH  49  72
BRANCH  61  82
ATOM     82  C   UNL A   1      46.933  32.982  28.405  1.00  0.00    -0.014 A 
ATOM     83  C   UNL A   1      46.853  33.823  27.283  1.00  0.00     0.010 A 
ATOM     84  C   UNL A   1      47.343  33.513  29.641  1.00  0.00     0.010 A 
ATOM     85  C   UNL A   1      47.210  35.168  27.388  1.00  0.00     0.020 A 
ATOM     86  C   UNL A   1      47.662  34.865  29.759  1.00  0.00     0.020 A 
ATOM     87  C   UNL A   1      47.608  35.680  28.627  1.00  0.00     0.054 A 
BRANCH  87  88
ATOM     88  S   UNL A   1      48.017  37.441  28.745  1.00  0.00     0.124 S 
ATOM     89  O   UNL A   1      46.909  37.957  29.544  1.00  0.00    -0.237 OA
ATOM     90  O   UNL A   1      49.317  37.420  29.411  1.00  0.00    -0.237 OA
ATOM     91  O   UNL A   1      48.043  37.885  27.354  1.00  0.00    -0.744 OA
ENDBRANCH  87  88
ENDBRANCH  61  82
ENDBRANCH  35  36
ENDBRANCH  27  30
ENDBRANCH  25  26
ENDBRANCH  24  25
ENDBRANCH   1  24
TORSDOF 18
ENDMDL
MODEL 2
REMARK VINA RESULT:     -13.2      1.525      2.441
REMARK SMILES O=CN[C@@H](CCS[C@@H]1CCO[C@]2(CCOC2)C1)C(=O)NCCCNC(=O)c1ccc(-c2c3nc(c(-c4ccc(S(=O)(=O)[O-])cc4)c4ccc([nH]4)c(-c4ccc(S(=O)(=O)[O-])cc4)c4nc(c(-c5ccc(S(=O)(=O)[O-])cc5)c5ccc2[nH]5)C=C4)C=C3)cc1
REMARK SMILES IDX 21 1 20 2 18 3 19 4 4 6 3 7 1 8 2 9 5 11 6 12 7 13 8 14 9 15
REMARK SMILES IDX 17 16 10 17 12 18 11 19 13 20 16 21 14 22 15 23 22 24 23 25
REMARK SMILES IDX 24 26 25 27 26 29 27 30 28 31 86 32 29 33 85 34 30 35 31 36
REMARK SMILES IDX 32 37 79 38 33 39 84 40 78 41 80 42 34 43 83 44 77 45 76 46
REMARK SMILES IDX 35 48 65 49 46 50 64 51 47 52 50 53 63 54 81 55 48 56 49 57
REMARK SMILES IDX 62 59 82 60 51 61 36 62 37 63 45 64 38 65 44 66 39 67 40 68
REMARK SMILES IDX 41 69 42 70 43 71 66 72 67 73 75 74 68 75 74 76 69 77 70 78
REMARK SMILES IDX 71 79 72 80 73 81 52 82 53 83 61 84 54 85 60 86 55 87 56 88
REMARK SMILES IDX 57 89 58 90 59 91
REMARK H PARENT 20 5 3 10 24 28 80 47 50 58
REMARK Flexibility Score: inf
ROOT
ATOM      1  C   UNL A   1      34.969  20.812  24.650  1.00  0.00     0.117 C 
ENDROOT
BRANCH   1   2
ATOM      2  N   UNL A   1      33.721  21.438  23.649  1.00  0.00    -0.354 N 
ATOM      3  C   UNL A   1      32.971  22.325  22.995  1.00  0.00     0.242 C 
ATOM      4  O   UNL A   1      31.978  21.917  22.386  1.00  0.00    -0.273 OA
ATOM      5  H   UNL A   1      33.268  20.603  23.392  1.00  0.00     0.163 HD
BRANCH   3   6
ATOM      6  C   UNL A   1      33.481  23.668  22.800  1.00  0.00     0.171 C 
BRANCH   6   7
ATOM      7  N   UNL A   1      32.886  23.945  21.507  1.00  0.00    -0.347 N 
ATOM      8  O   UNL A   1      32.846  25.585  19.885  1.00  0.00    -0.279 OA
ATOM      9  C   UNL A   1      32.894  25.264  21.063  1.00  0.00     0.337 C 
ATOM     10  H   UNL A   1      32.491  23.226  20.963  1.00  0.00     0.164 HD
ENDBRANCH   6   7
BRANCH   6  11
ATOM     11  C   UNL A   1      33.084  24.338  24.141  1.00  0.00     0.046 C 
BRANCH  11  12
ATOM     12  C   UNL A   1      32.429  23.542  25.380  1.00  0.00     0.072 C 
BRANCH  12  13
ATOM     13  S   UNL A   1      30.848  24.160  26.585  1.00  0.00    -0.158 SA
BRANCH  13  14
ATOM     14  C   UNL A   1      30.126  26.018  25.802  1.00  0.00     0.052 C 
ATOM     15  C   UNL A   1      29.261  26.353  24.003  1.00  0.00     0.043 C 
ATOM     16  C   UNL A   1      31.783  26.883  26.111  1.00  0.00     0.052 C 
ATOM     17  C   UNL A   1      30.287  27.491  22.761  1.00  0.00     0.162 C 
ATOM     18  C   UNL A   1      32.337  28.405  24.951  1.00  0.00     0.095 C 
ATOM     19  O   UNL A   1      31.960  28.087  23.306  1.00  0.00    -0.372 OA
ATOM     20  C   UNL A   1      33.905  28.443  26.170  1.00  0.00     0.066 C 
ATOM     21  C   UNL A   1      31.437  30.252  25.216  1.00  0.00     0.195 C 
ATOM     22  C   UNL A   1      33.641  29.887  27.510  1.00  0.00     0.163 C 
ATOM     23  O   UNL A   1      32.061  30.884  26.977  1.00  0.00    -0.378 OA
ENDBRANCH  13  14
ENDBRANCH  12  13
ENDBRANCH  11  12
ENDBRANCH   6  11
ENDBRANCH   3   6
ENDBRANCH   1   2
BRANCH   1  24
ATOM     24  C   UNL A   1      36.972  21.447  24.415  1.00  0.00     0.042 C 
BRANCH  24  25
ATOM     25  C   UNL A   1      37.870  22.569  25.322  1.00  0.00     0.118 C 
BRANCH  25  26
ATOM     26  N   UNL A   1      38.803  21.741  26.504  1.00  0.00    -0.352 N 
ATOM     27  C   UNL A   1      40.473  20.707  26.445  1.00  0.00     0.251 C 
ATOM     28  H   UNL A   1      38.416  21.796  27.407  1.00  0.00     0.163 HD
ATOM     29  O   UNL A   1      40.598  19.501  26.110  1.00  0.00    -0.269 OA
BRANCH  27  30
ATOM     30  C   UNL A   1      42.141  21.402  26.456  1.00  0.00     0.039 A 
ATOM     31  C   UNL A   1      42.532  22.174  25.358  1.00  0.00     0.014 A 
ATOM     32  C   UNL A   1      42.843  21.725  27.644  1.00  0.00     0.014 A 
ATOM     33  C   UNL A   1      43.342  23.323  25.559  1.00  0.00     0.010 A 
ATOM     34  C   UNL A   1      43.170  23.030  27.898  1.00  0.00     0.010 A 
ATOM     35  C   UNL A   1      43.552  23.833  26.857  1.00  0.00    -0.014 A 
BRANCH  35  36
ATOM     36  C   UNL A   1      44.107  25.166  27.220  1.00  0.00     0.031 A 
ATOM     37  C   UNL A   1      45.591  25.493  27.033  1.00  0.00     0.074 A 
ATOM     38  C   UNL A   1      43.308  26.035  27.873  1.00  0.00     0.049 A 
ATOM     39  N   UNL A   1      46.231  26.602  27.316  1.00  0.00    -0.248 NA
ATOM     40  C   UNL A   1      46.494  24.430  26.540  1.00  0.00     0.031 C 
ATOM     41  C   UNL A   1      41.930  25.767  28.300  1.00  0.00     0.029 A 
ATOM     42  N   UNL A   1      43.528  27.325  28.277  1.00  0.00    -0.354 N 
ATOM     43  C   UNL A   1      47.578  26.345  27.060  1.00  0.00     0.074 A 
ATOM     44  C   UNL A   1      47.693  24.949  26.742  1.00  0.00     0.031 C 
ATOM     45  C   UNL A   1      41.389  26.894  28.782  1.00  0.00     0.029 A 
ATOM     46  C   UNL A   1      42.397  27.945  28.760  1.00  0.00     0.049 A 
ATOM     47  H   UNL A   1      44.407  27.765  28.227  1.00  0.00     0.167 HD
ATOM     48  C   UNL A   1      48.624  27.205  27.010  1.00  0.00     0.031 A 
ATOM     49  C   UNL A   1      42.191  29.226  29.111  1.00  0.00     0.031 A 
ATOM     50  C   UNL A   1      48.483  28.608  27.274  1.00  0.00     0.049 A 
ATOM     51  C   UNL A   1      43.335  30.190  28.977  1.00  0.00     0.074 A 
ATOM     52  C   UNL A   1      49.428  29.609  27.157  1.00  0.00     0.029 A 
ATOM     53  N   UNL A   1      47.307  29.204  27.702  1.00  0.00    -0.354 N 
ATOM     54  N   UNL A   1      44.566  29.958  28.583  1.00  0.00    -0.248 NA
ATOM     55  C   UNL A   1      43.060  31.591  29.313  1.00  0.00     0.031 C 
ATOM     56  C   UNL A   1      48.837  30.803  27.581  1.00  0.00     0.029 A 
ATOM     57  C   UNL A   1      47.506  30.557  27.884  1.00  0.00     0.049 A 
ATOM     58  H   UNL A   1      46.456  28.731  27.854  1.00  0.00     0.167 HD
ATOM     59  C   UNL A   1      45.207  31.191  28.601  1.00  0.00     0.074 A 
ATOM     60  C   UNL A   1      44.218  32.165  29.019  1.00  0.00     0.031 C 
ATOM     61  C   UNL A   1      46.495  31.494  28.303  1.00  0.00     0.031 A 
BRANCH  48  62
ATOM     62  C   UNL A   1      49.979  26.661  26.615  1.00  0.00    -0.014 A 
ATOM     63  C   UNL A   1      50.899  26.214  27.585  1.00  0.00     0.010 A 
ATOM     64  C   UNL A   1      50.335  26.566  25.257  1.00  0.00     0.010 A 
ATOM     65  C   UNL A   1      52.161  25.741  27.213  1.00  0.00     0.020 A 
ATOM     66  C   UNL A   1      51.582  26.056  24.877  1.00  0.00     0.020 A 
ATOM     67  C   UNL A   1      52.494  25.664  25.858  1.00  0.00     0.054 A 
BRANCH  67  68
ATOM     68  S   UNL A   1      54.128  25.018  25.405  1.00  0.00     0.124 S 
ATOM     69  O   UNL A   1      54.813  24.994  26.696  1.00  0.00    -0.237 OA
ATOM     70  O   UNL A   1      53.808  23.709  24.841  1.00  0.00    -0.237 OA
ATOM     71  O   UNL A   1      54.638  26.000  24.450  1.00  0.00    -0.744 OA
ENDBRANCH  67  68
ENDBRANCH  48  62
BRANCH  49  72
ATOM     72  C   UNL A   1      40.836  29.669  29.547  1.00  0.00    -0.014 A 
ATOM     73  C   UNL A   1      39.804  29.851  28.608  1.00  0.00     0.010 A 
ATOM     74  C   UNL A   1      40.558  29.875  30.911  1.00  0.00     0.010 A 
ATOM     75  C   UNL A   1      38.532  30.259  29.021  1.00  0.00     0.020 A 
ATOM     76  C   UNL A   1      39.277  30.248  31.331  1.00  0.00     0.020 A 
ATOM     77  C   UNL A   1      38.275  30.452  30.380  1.00  0.00     0.054 A 
BRANCH  77  78
ATOM     78  S   UNL A   1      36.607  30.947  30.894  1.00  0.00     0.124 S 
ATOM     79  O   UNL A   1      36.016  29.669  31.277  1.00  0.00    -0.237 OA
ATOM     80  O   UNL A   1      36.879  31.872  31.992  1.00  0.00    -0.237 OA
ATOM     81  O   UNL A   1      36.045  31.562  29.694  1.00  0.00    -0.744 OA
ENDBRANCH  77  78
ENDBRANCH  49  72
BRANCH  61  82
ATOM     82  C   UNL A   1      46.898  32.939  28.391  1.00  0.00    -0.014 A 
ATOM     83  C   UNL A   1      47.452  33.470  29.567  1.00  0.00     0.010 A 
ATOM     84  C   UNL A   1      46.783  33.754  27.250  1.00  0.00     0.010 A 
ATOM     85  C   UNL A   1      47.853  34.806  29.612  1.00  0.00     0.020 A 
ATOM     86  C   UNL A   1      47.219  35.078  27.279  1.00  0.00     0.020 A 
ATOM     87  C   UNL A   1      47.737  35.600  28.466  1.00  0.00     0.054 A 
BRANCH  87  88
ATOM     88  S   UNL A   1      48.311  37.316  28.539  1.00  0.00     0.124 S 
ATOM     89  O   UNL A   1      47.086  38.058  28.253  1.00  0.00    -0.237 OA
ATOM     90  O   UNL A   1      48.811  37.425  29.907  1.00  0.00    -0.237 OA
ATOM     91  O   UNL A   1      49.336  37.383  27.500  1.00  0.00    -0.744 OA
ENDBRANCH  87  88
ENDBRANCH  61  82
ENDBRANCH  35  36
ENDBRANCH  27  30
ENDBRANCH  25  26
ENDBRANCH  24  25
ENDBRANCH   1  24
TORSDOF 18
ENDMDL
MODEL 3
REMARK VINA RESULT:     -12.9      5.055     10.920
REMARK SMILES O=CN[C@@H](CCS[C@@H]1CCO[C@]2(CCOC2)C1)C(=O)NCCCNC(=O)c1ccc(-c2c3nc(c(-c4ccc(S(=O)(=O)[O-])cc4)c4ccc([nH]4)c(-c4ccc(S(=O)(=O)[O-])cc4)c4nc(c(-c5ccc(S(=O)(=O)[O-])cc5)c5ccc2[nH]5)C=C4)C=C3)cc1
REMARK SMILES IDX 21 1 20 2 18 3 19 4 4 6 3 7 1 8 2 9 5 11 6 12 7 13 8 14 9 15
REMARK SMILES IDX 17 16 10 17 12 18 11 19 13 20 16 21 14 22 15 23 22 24 23 25
REMARK SMILES IDX 24 26 25 27 26 29 27 30 28 31 86 32 29 33 85 34 30 35 31 36
REMARK SMILES IDX 32 37 79 38 33 39 84 40 78 41 80 42 34 43 83 44 77 45 76 46
REMARK SMILES IDX 35 48 65 49 46 50 64 51 47 52 50 53 63 54 81 55 48 56 49 57
REMARK SMILES IDX 62 59 82 60 51 61 36 62 37 63 45 64 38 65 44 66 39 67 40 68
REMARK SMILES IDX 41 69 42 70 43 71 66 72 67 73 75 74 68 75 74 76 69 77 70 78
REMARK SMILES IDX 71 79 72 80 73 81 52 82 53 83 61 84 54 85 60 86 55 87 56 88
REMARK SMILES IDX 57 89 58 90 59 91
REMARK H PARENT 20 5 3 10 24 28 80 47 50 58
REMARK Flexibility Score: inf
ROOT
ATOM      1  C   UNL A   1      37.627  32.288  33.509  1.00  0.00     0.117 C 
ENDROOT
BRANCH   1   2
ATOM      2  N   UNL A   1      37.901  30.597  33.372  1.00  0.00    -0.354 N 
ATOM      3  C   UNL A   1      38.558  29.446  33.230  1.00  0.00     0.242 C 
ATOM      4  O   UNL A   1      37.903  28.403  33.152  1.00  0.00    -0.273 OA
ATOM      5  H   UNL A   1      36.978  30.264  33.443  1.00  0.00     0.163 HD
BRANCH   3   6
ATOM      6  C   UNL A   1      39.993  29.426  33.438  1.00  0.00     0.171 C 
BRANCH   6   7
ATOM      7  N   UNL A   1      40.013  29.692  34.863  1.00  0.00    -0.347 N 
ATOM      8  O   UNL A   1      41.500  29.831  36.622  1.00  0.00    -0.279 OA
ATOM      9  C   UNL A   1      41.149  29.312  35.573  1.00  0.00     0.337 C 
ATOM     10  H   UNL A   1      39.252  30.127  35.312  1.00  0.00     0.164 HD
ENDBRANCH   6   7
BRANCH   6  11
ATOM     11  C   UNL A   1      40.376  28.083  32.763  1.00  0.00     0.046 C 
BRANCH  11  12
ATOM     12  C   UNL A   1      41.850  27.753  32.202  1.00  0.00     0.072 C 
BRANCH  12  13
ATOM     13  S   UNL A   1      43.672  28.129  33.138  1.00  0.00    -0.158 SA
BRANCH  13  14
ATOM     14  C   UNL A   1      44.782  26.297  33.149  1.00  0.00     0.052 C 
ATOM     15  C   UNL A   1      44.658  24.765  31.833  1.00  0.00     0.043 C 
ATOM     16  C   UNL A   1      44.283  25.912  34.935  1.00  0.00     0.052 C 
ATOM     17  C   UNL A   1      43.966  23.068  32.561  1.00  0.00     0.162 C 
ATOM     18  C   UNL A   1      44.160  24.019  35.542  1.00  0.00     0.095 C 
ATOM     19  O   UNL A   1      43.427  23.038  34.339  1.00  0.00    -0.372 OA
ATOM     20  C   UNL A   1      43.723  24.865  37.287  1.00  0.00     0.066 C 
ATOM     21  C   UNL A   1      45.905  22.964  35.908  1.00  0.00     0.195 C 
ATOM     22  C   UNL A   1      45.351  24.862  38.427  1.00  0.00     0.163 C 
ATOM     23  O   UNL A   1      46.699  23.812  37.501  1.00  0.00    -0.378 OA
ENDBRANCH  13  14
ENDBRANCH  12  13
ENDBRANCH  11  12
ENDBRANCH   6  11
ENDBRANCH   3   6
ENDBRANCH   1   2
BRANCH   1  24
ATOM     24  C   UNL A   1      36.902  33.408  31.869  1.00  0.00     0.042 C 
BRANCH  24  25
ATOM     25  C   UNL A   1      35.334  33.985  31.555  1.00  0.00     0.118 C 
BRANCH  25  26
ATOM     26  N   UNL A   1      34.424  32.774  30.746  1.00  0.00    -0.352 N 
ATOM     27  C   UNL A   1      34.641  31.811  29.048  1.00  0.00     0.251 C 
ATOM     28  H   UNL A   1      33.618  32.503  31.242  1.00  0.00     0.163 HD
ATOM     29  O   UNL A   1      34.318  32.223  27.904  1.00  0.00    -0.269 OA
BRANCH  27  30
ATOM     30  C   UNL A   1      35.702  30.371  28.782  1.00  0.00     0.039 A 
ATOM     31  C   UNL A   1      36.440  30.317  27.596  1.00  0.00     0.014 A 
ATOM     32  C   UNL A   1      36.287  29.629  29.838  1.00  0.00     0.014 A 
ATOM     33  C   UNL A   1      37.759  29.791  27.612  1.00  0.00     0.010 A 
ATOM     34  C   UNL A   1      37.649  29.599  29.965  1.00  0.00     0.010 A 
ATOM     35  C   UNL A   1      38.420  29.553  28.835  1.00  0.00    -0.014 A 
BRANCH  35  36
ATOM     36  C   UNL A   1      39.873  29.297  29.035  1.00  0.00     0.031 A 
ATOM     37  C   UNL A   1      40.506  27.951  28.674  1.00  0.00     0.074 A 
ATOM     38  C   UNL A   1      40.600  30.221  29.698  1.00  0.00     0.049 A 
ATOM     39  N   UNL A   1      41.753  27.567  28.804  1.00  0.00    -0.248 NA
ATOM     40  C   UNL A   1      39.631  26.867  28.175  1.00  0.00     0.031 C 
ATOM     41  C   UNL A   1      40.071  31.459  30.282  1.00  0.00     0.029 A 
ATOM     42  N   UNL A   1      41.940  30.276  29.977  1.00  0.00    -0.354 N 
ATOM     43  C   UNL A   1      41.783  26.222  28.433  1.00  0.00     0.074 A 
ATOM     44  C   UNL A   1      40.424  25.810  28.213  1.00  0.00     0.031 C 
ATOM     45  C   UNL A   1      41.089  32.207  30.729  1.00  0.00     0.029 A 
ATOM     46  C   UNL A   1      42.332  31.478  30.523  1.00  0.00     0.049 A 
ATOM     47  H   UNL A   1      42.559  29.532  29.804  1.00  0.00     0.167 HD
ATOM     48  C   UNL A   1      42.847  25.414  28.211  1.00  0.00     0.031 A 
ATOM     49  C   UNL A   1      43.563  31.948  30.794  1.00  0.00     0.031 A 
ATOM     50  C   UNL A   1      44.201  25.857  28.379  1.00  0.00     0.049 A 
ATOM     51  C   UNL A   1      44.742  31.075  30.470  1.00  0.00     0.074 A 
ATOM     52  C   UNL A   1      45.373  25.185  28.091  1.00  0.00     0.029 A 
ATOM     53  N   UNL A   1      44.555  27.101  28.877  1.00  0.00    -0.354 N 
ATOM     54  N   UNL A   1      44.755  29.861  29.972  1.00  0.00    -0.248 NA
ATOM     55  C   UNL A   1      46.071  31.642  30.724  1.00  0.00     0.031 C 
ATOM     56  C   UNL A   1      46.439  26.001  28.479  1.00  0.00     0.029 A 
ATOM     57  C   UNL A   1      45.930  27.209  28.934  1.00  0.00     0.049 A 
ATOM     58  H   UNL A   1      43.921  27.802  29.151  1.00  0.00     0.167 HD
ATOM     59  C   UNL A   1      46.096  29.526  29.830  1.00  0.00     0.074 A 
ATOM     60  C   UNL A   1      46.859  30.678  30.271  1.00  0.00     0.031 C 
ATOM     61  C   UNL A   1      46.652  28.373  29.380  1.00  0.00     0.031 A 
BRANCH  48  62
ATOM     62  C   UNL A   1      42.586  24.006  27.723  1.00  0.00    -0.014 A 
ATOM     63  C   UNL A   1      42.501  22.924  28.623  1.00  0.00     0.010 A 
ATOM     64  C   UNL A   1      42.395  23.756  26.352  1.00  0.00     0.010 A 
ATOM     65  C   UNL A   1      42.290  21.622  28.160  1.00  0.00     0.020 A 
ATOM     66  C   UNL A   1      42.144  22.460  25.887  1.00  0.00     0.020 A 
ATOM     67  C   UNL A   1      42.111  21.398  26.793  1.00  0.00     0.054 A 
BRANCH  67  68
ATOM     68  S   UNL A   1      41.810  19.701  26.227  1.00  0.00     0.124 S 
ATOM     69  O   UNL A   1      42.275  18.914  27.367  1.00  0.00    -0.237 OA
ATOM     70  O   UNL A   1      40.366  19.690  26.006  1.00  0.00    -0.237 OA
ATOM     71  O   UNL A   1      42.625  19.587  25.019  1.00  0.00    -0.744 OA
ENDBRANCH  67  68
ENDBRANCH  48  62
BRANCH  49  72
ATOM     72  C   UNL A   1      43.729  33.329  31.330  1.00  0.00    -0.014 A 
ATOM     73  C   UNL A   1      43.870  33.550  32.712  1.00  0.00     0.010 A 
ATOM     74  C   UNL A   1      43.787  34.431  30.457  1.00  0.00     0.010 A 
ATOM     75  C   UNL A   1      44.034  34.846  33.212  1.00  0.00     0.020 A 
ATOM     76  C   UNL A   1      43.988  35.724  30.950  1.00  0.00     0.020 A 
ATOM     77  C   UNL A   1      44.095  35.925  32.327  1.00  0.00     0.054 A 
BRANCH  77  78
ATOM     78  S   UNL A   1      44.344  37.593  32.996  1.00  0.00     0.124 S 
ATOM     79  O   UNL A   1      44.773  37.311  34.363  1.00  0.00    -0.237 OA
ATOM     80  O   UNL A   1      45.371  38.136  32.110  1.00  0.00    -0.237 OA
ATOM     81  O   UNL A   1      43.028  38.215  32.869  1.00  0.00    -0.744 OA
ENDBRANCH  77  78
ENDBRANCH  49  72
BRANCH  61  82
ATOM     82  C   UNL A   1      48.152  28.313  29.315  1.00  0.00    -0.014 A 
ATOM     83  C   UNL A   1      48.912  27.886  30.416  1.00  0.00     0.010 A 
ATOM     84  C   UNL A   1      48.799  28.623  28.105  1.00  0.00     0.010 A 
ATOM     85  C   UNL A   1      50.301  27.803  30.320  1.00  0.00     0.020 A 
ATOM     86  C   UNL A   1      50.184  28.503  27.993  1.00  0.00     0.020 A 
ATOM     87  C   UNL A   1      50.927  28.108  29.106  1.00  0.00     0.054 A 
BRANCH  87  88
ATOM     88  S   UNL A   1      52.727  27.944  28.995  1.00  0.00     0.124 S 
ATOM     89  O   UNL A   1      53.075  27.502  30.343  1.00  0.00    -0.237 OA
ATOM     90  O   UNL A   1      52.890  26.945  27.942  1.00  0.00    -0.237 OA
ATOM     91  O   UNL A   1      53.177  29.290  28.646  1.00  0.00    -0.744 OA
ENDBRANCH  87  88
ENDBRANCH  61  82
ENDBRANCH  35  36
ENDBRANCH  27  30
ENDBRANCH  25  26
ENDBRANCH  24  25
ENDBRANCH   1  24
TORSDOF 18
ENDMDL
