MODEL 1
REMARK VINA RESULT:     -10.1      0.000      0.000
REMARK SMILES Cc1cc([C@H]([NH3+])C(=O)NCCCNC(=O)c2ccc(-c3c4nc(c(-c5ccc(S(=O)(=O)[O-])cc5)c5ccc([nH]5)c(-c5ccc(S(=O)(=O)[O-])cc5)c5nc(c(-c6ccc(S(=O)(=O)[O-])cc6)c6ccc3[nH]6)C=C5)C=C4)cc2)ccc1F
REMARK SMILES IDX 12 1 11 2 10 3 9 4 7 5 8 6 5 8 4 9 1 10 2 11 3 12 78 13
REMARK SMILES IDX 77 14 79 15 76 16 6 17 13 21 14 22 15 24 16 25 17 26 75 27
REMARK SMILES IDX 18 28 74 29 19 30 20 31 21 32 68 33 22 34 73 35 67 36 69 37
REMARK SMILES IDX 23 38 72 39 66 40 65 41 24 43 54 44 35 45 53 46 36 47 39 48
REMARK SMILES IDX 52 49 70 50 37 51 38 52 51 54 71 55 40 56 25 57 26 58 34 59
REMARK SMILES IDX 27 60 33 61 28 62 29 63 30 64 31 65 32 66 55 67 56 68 64 69
REMARK SMILES IDX 57 70 63 71 58 72 59 73 60 74 61 75 62 76 41 77 42 78 50 79
REMARK SMILES IDX 43 80 49 81 44 82 45 83 46 84 47 85 48 86
REMARK H PARENT 9 7 6 18 6 19 6 20 13 23 69 42 39 53
REMARK Flexibility Score: inf
ROOT
ATOM      1  C   UNL A   1      34.826  33.143  28.874  1.00  0.00     0.118 C 
ENDROOT
BRANCH   1   2
ATOM      2  C   UNL A   1      34.230  34.514  28.628  1.00  0.00     0.042 C 
BRANCH   2   3
ATOM      3  C   UNL A   1      33.038  34.856  29.495  1.00  0.00     0.118 C 
BRANCH   3   4
ATOM      4  N   UNL A   1      33.049  36.188  30.063  1.00  0.00    -0.351 N 
ATOM      5  C   UNL A   1      33.267  36.550  31.367  1.00  0.00     0.283 C 
ATOM      6  O   UNL A   1      33.385  37.759  31.605  1.00  0.00    -0.268 OA
ATOM      7  H   UNL A   1      32.878  36.926  29.434  1.00  0.00     0.163 HD
BRANCH   5   8
ATOM      8  C   UNL A   1      33.362  35.508  32.523  1.00  0.00     0.302 C 
BRANCH   8   9
ATOM      9  C   UNL A   1      34.510  34.521  32.356  1.00  0.00     0.019 A 
ATOM     10  C   UNL A   1      38.303  34.534  31.943  1.00  0.00     0.047 C 
ATOM     11  C   UNL A   1      36.898  34.032  32.084  1.00  0.00    -0.015 A 
ATOM     12  C   UNL A   1      35.825  34.927  32.065  1.00  0.00     0.017 A 
ATOM     13  C   UNL A   1      36.625  32.678  32.239  1.00  0.00     0.126 A 
ATOM     14  C   UNL A   1      35.323  32.229  32.442  1.00  0.00     0.040 A 
ATOM     15  F   UNL A   1      37.623  31.784  32.199  1.00  0.00    -0.207 F 
ATOM     16  C   UNL A   1      34.275  33.148  32.534  1.00  0.00     0.013 A 
ENDBRANCH   8   9
BRANCH   8  17
ATOM     17  N   UNL A   1      32.062  34.859  32.781  1.00  0.00    -0.343 N 
ATOM     18  H   UNL A   1      31.578  34.705  31.897  1.00  0.00     0.345 HD
ATOM     19  H   UNL A   1      31.495  35.460  33.379  1.00  0.00     0.345 HD
ATOM     20  H   UNL A   1      32.215  33.963  33.245  1.00  0.00     0.345 HD
ENDBRANCH   8  17
ENDBRANCH   5   8
ENDBRANCH   3   4
ENDBRANCH   2   3
ENDBRANCH   1   2
BRANCH   1  21
ATOM     21  N   UNL A   1      34.013  32.052  28.354  1.00  0.00    -0.352 N 
ATOM     22  C   UNL A   1      34.335  30.755  28.017  1.00  0.00     0.251 C 
ATOM     23  H   UNL A   1      33.065  32.283  28.217  1.00  0.00     0.163 HD
ATOM     24  O   UNL A   1      33.494  30.057  27.463  1.00  0.00    -0.269 OA
BRANCH  22  25
ATOM     25  C   UNL A   1      35.689  30.210  28.280  1.00  0.00     0.039 A 
ATOM     26  C   UNL A   1      36.621  30.184  27.238  1.00  0.00     0.014 A 
ATOM     27  C   UNL A   1      36.053  29.723  29.534  1.00  0.00     0.014 A 
ATOM     28  C   UNL A   1      37.930  29.760  27.484  1.00  0.00     0.010 A 
ATOM     29  C   UNL A   1      37.383  29.427  29.810  1.00  0.00     0.010 A 
ATOM     30  C   UNL A   1      38.339  29.431  28.787  1.00  0.00    -0.014 A 
BRANCH  30  31
ATOM     31  C   UNL A   1      39.754  29.088  29.096  1.00  0.00     0.031 A 
ATOM     32  C   UNL A   1      40.665  30.107  29.734  1.00  0.00     0.074 A 
ATOM     33  C   UNL A   1      40.237  27.877  28.747  1.00  0.00     0.049 A 
ATOM     34  N   UNL A   1      41.932  29.998  30.046  1.00  0.00    -0.248 NA
ATOM     35  C   UNL A   1      40.090  31.429  30.031  1.00  0.00     0.031 C 
ATOM     36  C   UNL A   1      39.477  26.824  28.067  1.00  0.00     0.029 A 
ATOM     37  N   UNL A   1      41.483  27.327  28.915  1.00  0.00    -0.354 N 
ATOM     38  C   UNL A   1      42.305  31.236  30.556  1.00  0.00     0.074 A 
ATOM     39  C   UNL A   1      41.152  32.101  30.452  1.00  0.00     0.031 C 
ATOM     40  C   UNL A   1      40.258  25.743  27.918  1.00  0.00     0.029 A 
ATOM     41  C   UNL A   1      41.585  26.037  28.448  1.00  0.00     0.049 A 
ATOM     42  H   UNL A   1      42.233  27.810  29.330  1.00  0.00     0.167 HD
ATOM     43  C   UNL A   1      43.491  31.616  31.089  1.00  0.00     0.031 A 
ATOM     44  C   UNL A   1      42.628  25.184  28.445  1.00  0.00     0.031 A 
ATOM     45  C   UNL A   1      44.633  30.748  31.207  1.00  0.00     0.049 A 
ATOM     46  C   UNL A   1      43.934  25.626  29.045  1.00  0.00     0.074 A 
ATOM     47  C   UNL A   1      45.859  31.015  31.790  1.00  0.00     0.029 A 
ATOM     48  N   UNL A   1      44.692  29.447  30.731  1.00  0.00    -0.354 N 
ATOM     49  N   UNL A   1      44.241  26.777  29.596  1.00  0.00    -0.248 NA
ATOM     50  C   UNL A   1      45.030  24.648  29.038  1.00  0.00     0.031 C 
ATOM     51  C   UNL A   1      46.679  29.895  31.614  1.00  0.00     0.029 A 
ATOM     52  C   UNL A   1      45.942  28.907  30.981  1.00  0.00     0.049 A 
ATOM     53  H   UNL A   1      43.953  28.976  30.281  1.00  0.00     0.167 HD
ATOM     54  C   UNL A   1      45.560  26.654  30.019  1.00  0.00     0.074 A 
ATOM     55  C   UNL A   1      45.980  25.308  29.685  1.00  0.00     0.031 C 
ATOM     56  C   UNL A   1      46.351  27.571  30.630  1.00  0.00     0.031 A 
BRANCH  43  57
ATOM     57  C   UNL A   1      43.610  33.034  31.588  1.00  0.00    -0.014 A 
ATOM     58  C   UNL A   1      43.321  33.362  32.925  1.00  0.00     0.010 A 
ATOM     59  C   UNL A   1      44.055  34.046  30.718  1.00  0.00     0.010 A 
ATOM     60  C   UNL A   1      43.429  34.683  33.371  1.00  0.00     0.020 A 
ATOM     61  C   UNL A   1      44.195  35.362  31.168  1.00  0.00     0.020 A 
ATOM     62  C   UNL A   1      43.865  35.675  32.488  1.00  0.00     0.054 A 
BRANCH  62  63
ATOM     63  S   UNL A   1      44.022  37.374  33.103  1.00  0.00     0.124 S 
ATOM     64  O   UNL A   1      42.854  37.487  33.974  1.00  0.00    -0.237 OA
ATOM     65  O   UNL A   1      45.313  37.351  33.784  1.00  0.00    -0.237 OA
ATOM     66  O   UNL A   1      43.974  38.188  31.890  1.00  0.00    -0.744 OA
ENDBRANCH  62  63
ENDBRANCH  43  57
BRANCH  44  67
ATOM     67  C   UNL A   1      42.471  23.817  27.872  1.00  0.00    -0.014 A 
ATOM     68  C   UNL A   1      42.088  22.739  28.687  1.00  0.00     0.010 A 
ATOM     69  C   UNL A   1      42.695  23.590  26.501  1.00  0.00     0.010 A 
ATOM     70  C   UNL A   1      41.948  21.455  28.149  1.00  0.00     0.020 A 
ATOM     71  C   UNL A   1      42.526  22.316  25.953  1.00  0.00     0.020 A 
ATOM     72  C   UNL A   1      42.165  21.254  26.783  1.00  0.00     0.054 A 
BRANCH  72  73
ATOM     73  S   UNL A   1      41.928  19.591  26.097  1.00  0.00     0.124 S 
ATOM     74  O   UNL A   1      42.429  18.743  27.173  1.00  0.00    -0.237 OA
ATOM     75  O   UNL A   1      40.485  19.546  25.872  1.00  0.00    -0.237 OA
ATOM     76  O   UNL A   1      42.739  19.605  24.881  1.00  0.00    -0.744 OA
ENDBRANCH  72  73
ENDBRANCH  44  67
BRANCH  56  77
ATOM     77  C   UNL A   1      47.746  27.140  30.998  1.00  0.00    -0.014 A 
ATOM     78  C   UNL A   1      48.015  26.514  32.229  1.00  0.00     0.010 A 
ATOM     79  C   UNL A   1      48.797  27.333  30.084  1.00  0.00     0.010 A 
ATOM     80  C   UNL A   1      49.319  26.132  32.556  1.00  0.00     0.020 A 
ATOM     81  C   UNL A   1      50.096  26.922  30.394  1.00  0.00     0.020 A 
ATOM     82  C   UNL A   1      50.352  26.342  31.637  1.00  0.00     0.054 A 
BRANCH  82  83
ATOM     83  S   UNL A   1      52.030  25.817  32.077  1.00  0.00     0.124 S 
ATOM     84  O   UNL A   1      51.822  24.424  32.464  1.00  0.00    -0.237 OA
ATOM     85  O   UNL A   1      52.768  26.020  30.832  1.00  0.00    -0.237 OA
ATOM     86  O   UNL A   1      52.401  26.718  33.167  1.00  0.00    -0.744 OA
ENDBRANCH  82  83
ENDBRANCH  56  77
ENDBRANCH  30  31
ENDBRANCH  22  25
ENDBRANCH   1  21
TORSDOF 15
ENDMDL
MODEL 2
REMARK VINA RESULT:     -10.0      3.304      5.257
REMARK SMILES Cc1cc([C@H]([NH3+])C(=O)NCCCNC(=O)c2ccc(-c3c4nc(c(-c5ccc(S(=O)(=O)[O-])cc5)c5ccc([nH]5)c(-c5ccc(S(=O)(=O)[O-])cc5)c5nc(c(-c6ccc(S(=O)(=O)[O-])cc6)c6ccc3[nH]6)C=C5)C=C4)cc2)ccc1F
REMARK SMILES IDX 12 1 11 2 10 3 9 4 7 5 8 6 5 8 4 9 1 10 2 11 3 12 78 13
REMARK SMILES IDX 77 14 79 15 76 16 6 17 13 21 14 22 15 24 16 25 17 26 75 27
REMARK SMILES IDX 18 28 74 29 19 30 20 31 21 32 68 33 22 34 73 35 67 36 69 37
REMARK SMILES IDX 23 38 72 39 66 40 65 41 24 43 54 44 35 45 53 46 36 47 39 48
REMARK SMILES IDX 52 49 70 50 37 51 38 52 51 54 71 55 40 56 25 57 26 58 34 59
REMARK SMILES IDX 27 60 33 61 28 62 29 63 30 64 31 65 32 66 55 67 56 68 64 69
REMARK SMILES IDX 57 70 63 71 58 72 59 73 60 74 61 75 62 76 41 77 42 78 50 79
REMARK SMILES IDX 43 80 49 81 44 82 45 83 46 84 47 85 48 86
REMARK H PARENT 9 7 6 18 6 19 6 20 13 23 69 42 39 53
REMARK Flexibility Score: inf
ROOT
ATOM      1  C   UNL A   1      33.353  28.666  27.132  1.00  0.00     0.118 C 
ENDROOT
BRANCH   1   2
ATOM      2  C   UNL A   1      32.288  28.380  26.093  1.00  0.00     0.042 C 
BRANCH   2   3
ATOM      3  C   UNL A   1      32.274  29.331  24.916  1.00  0.00     0.118 C 
BRANCH   3   4
ATOM      4  N   UNL A   1      31.102  30.177  24.819  1.00  0.00    -0.351 N 
ATOM      5  C   UNL A   1      30.136  30.175  23.847  1.00  0.00     0.283 C 
ATOM      6  O   UNL A   1      29.137  30.880  24.043  1.00  0.00    -0.268 OA
ATOM      7  H   UNL A   1      30.986  30.835  25.542  1.00  0.00     0.163 HD
BRANCH   5   8
ATOM      8  C   UNL A   1      30.262  29.336  22.539  1.00  0.00     0.302 C 
BRANCH   8   9
ATOM      9  C   UNL A   1      30.312  27.834  22.784  1.00  0.00     0.019 A 
ATOM     10  C   UNL A   1      32.593  24.859  22.082  1.00  0.00     0.047 C 
ATOM     11  C   UNL A   1      31.430  25.662  22.580  1.00  0.00    -0.015 A 
ATOM     12  C   UNL A   1      31.291  27.003  22.214  1.00  0.00     0.017 A 
ATOM     13  C   UNL A   1      30.469  25.103  23.414  1.00  0.00     0.126 A 
ATOM     14  C   UNL A   1      29.433  25.876  23.930  1.00  0.00     0.040 A 
ATOM     15  F   UNL A   1      30.535  23.803  23.737  1.00  0.00    -0.207 F 
ATOM     16  C   UNL A   1      29.373  27.241  23.644  1.00  0.00     0.013 A 
ENDBRANCH   8   9
BRANCH   8  17
ATOM     17  N   UNL A   1      31.357  29.828  21.679  1.00  0.00    -0.343 N 
ATOM     18  H   UNL A   1      31.098  29.713  20.700  1.00  0.00     0.345 HD
ATOM     19  H   UNL A   1      32.206  29.296  21.872  1.00  0.00     0.345 HD
ATOM     20  H   UNL A   1      31.524  30.816  21.873  1.00  0.00     0.345 HD
ENDBRANCH   8  17
ENDBRANCH   5   8
ENDBRANCH   3   4
ENDBRANCH   2   3
ENDBRANCH   1   2
BRANCH   1  21
ATOM     21  N   UNL A   1      33.379  30.055  27.572  1.00  0.00    -0.352 N 
ATOM     22  C   UNL A   1      34.361  30.796  28.195  1.00  0.00     0.251 C 
ATOM     23  H   UNL A   1      32.548  30.553  27.394  1.00  0.00     0.163 HD
ATOM     24  O   UNL A   1      34.093  31.923  28.593  1.00  0.00    -0.269 OA
BRANCH  22  25
ATOM     25  C   UNL A   1      35.715  30.234  28.422  1.00  0.00     0.039 A 
ATOM     26  C   UNL A   1      36.645  30.272  27.379  1.00  0.00     0.014 A 
ATOM     27  C   UNL A   1      36.078  29.667  29.642  1.00  0.00     0.014 A 
ATOM     28  C   UNL A   1      37.955  29.831  27.598  1.00  0.00     0.010 A 
ATOM     29  C   UNL A   1      37.408  29.353  29.898  1.00  0.00     0.010 A 
ATOM     30  C   UNL A   1      38.363  29.420  28.877  1.00  0.00    -0.014 A 
BRANCH  30  31
ATOM     31  C   UNL A   1      39.778  29.056  29.163  1.00  0.00     0.031 A 
ATOM     32  C   UNL A   1      40.712  30.058  29.793  1.00  0.00     0.074 A 
ATOM     33  C   UNL A   1      40.239  27.841  28.798  1.00  0.00     0.049 A 
ATOM     34  N   UNL A   1      41.982  29.930  30.085  1.00  0.00    -0.248 NA
ATOM     35  C   UNL A   1      40.159  31.386  30.107  1.00  0.00     0.031 C 
ATOM     36  C   UNL A   1      39.455  26.802  28.123  1.00  0.00     0.029 A 
ATOM     37  N   UNL A   1      41.480  27.272  28.945  1.00  0.00    -0.354 N 
ATOM     38  C   UNL A   1      42.379  31.159  30.598  1.00  0.00     0.074 A 
ATOM     39  C   UNL A   1      41.237  32.041  30.516  1.00  0.00     0.031 C 
ATOM     40  C   UNL A   1      40.218  25.711  27.957  1.00  0.00     0.029 A 
ATOM     41  C   UNL A   1      41.557  25.984  28.468  1.00  0.00     0.049 A 
ATOM     42  H   UNL A   1      42.243  27.743  29.352  1.00  0.00     0.167 HD
ATOM     43  C   UNL A   1      43.578  31.520  31.115  1.00  0.00     0.031 A 
ATOM     44  C   UNL A   1      42.589  25.117  28.445  1.00  0.00     0.031 A 
ATOM     45  C   UNL A   1      44.710  30.636  31.211  1.00  0.00     0.049 A 
ATOM     46  C   UNL A   1      43.909  25.538  29.028  1.00  0.00     0.074 A 
ATOM     47  C   UNL A   1      45.948  30.883  31.777  1.00  0.00     0.029 A 
ATOM     48  N   UNL A   1      44.744  29.338  30.726  1.00  0.00    -0.354 N 
ATOM     49  N   UNL A   1      44.240  26.681  29.581  1.00  0.00    -0.248 NA
ATOM     50  C   UNL A   1      44.991  24.545  28.999  1.00  0.00     0.031 C 
ATOM     51  C   UNL A   1      46.750  29.753  31.582  1.00  0.00     0.029 A 
ATOM     52  C   UNL A   1      45.990  28.779  30.954  1.00  0.00     0.049 A 
ATOM     53  H   UNL A   1      43.992  28.880  30.284  1.00  0.00     0.167 HD
ATOM     54  C   UNL A   1      45.563  26.537  29.984  1.00  0.00     0.074 A 
ATOM     55  C   UNL A   1      45.960  25.188  29.635  1.00  0.00     0.031 C 
ATOM     56  C   UNL A   1      46.376  27.440  30.589  1.00  0.00     0.031 A 
BRANCH  43  57
ATOM     57  C   UNL A   1      43.724  32.933  31.621  1.00  0.00    -0.014 A 
ATOM     58  C   UNL A   1      43.465  33.256  32.965  1.00  0.00     0.010 A 
ATOM     59  C   UNL A   1      44.163  33.946  30.749  1.00  0.00     0.010 A 
ATOM     60  C   UNL A   1      43.598  34.572  33.418  1.00  0.00     0.020 A 
ATOM     61  C   UNL A   1      44.328  35.258  31.205  1.00  0.00     0.020 A 
ATOM     62  C   UNL A   1      44.028  35.565  32.533  1.00  0.00     0.054 A 
BRANCH  62  63
ATOM     63  S   UNL A   1      44.217  37.258  33.155  1.00  0.00     0.124 S 
ATOM     64  O   UNL A   1      44.488  38.001  31.927  1.00  0.00    -0.237 OA
ATOM     65  O   UNL A   1      42.919  37.519  33.772  1.00  0.00    -0.237 OA
ATOM     66  O   UNL A   1      45.339  37.164  34.086  1.00  0.00    -0.744 OA
ENDBRANCH  62  63
ENDBRANCH  43  57
BRANCH  44  67
ATOM     67  C   UNL A   1      42.405  23.757  27.866  1.00  0.00    -0.014 A 
ATOM     68  C   UNL A   1      42.520  23.546  26.481  1.00  0.00     0.010 A 
ATOM     69  C   UNL A   1      42.124  22.660  28.701  1.00  0.00     0.010 A 
ATOM     70  C   UNL A   1      42.340  22.270  25.938  1.00  0.00     0.020 A 
ATOM     71  C   UNL A   1      41.974  21.377  28.167  1.00  0.00     0.020 A 
ATOM     72  C   UNL A   1      42.071  21.192  26.787  1.00  0.00     0.054 A 
BRANCH  72  73
ATOM     73  S   UNL A   1      41.892  19.536  26.067  1.00  0.00     0.124 S 
ATOM     74  O   UNL A   1      42.324  18.678  27.166  1.00  0.00    -0.237 OA
ATOM     75  O   UNL A   1      40.468  19.485  25.745  1.00  0.00    -0.237 OA
ATOM     76  O   UNL A   1      42.784  19.569  24.910  1.00  0.00    -0.744 OA
ENDBRANCH  72  73
ENDBRANCH  44  67
BRANCH  56  77
ATOM     77  C   UNL A   1      47.770  26.987  30.933  1.00  0.00    -0.014 A 
ATOM     78  C   UNL A   1      48.060  26.403  32.180  1.00  0.00     0.010 A 
ATOM     79  C   UNL A   1      48.798  27.119  29.982  1.00  0.00     0.010 A 
ATOM     80  C   UNL A   1      49.363  26.001  32.484  1.00  0.00     0.020 A 
ATOM     81  C   UNL A   1      50.095  26.687  30.271  1.00  0.00     0.020 A 
ATOM     82  C   UNL A   1      50.373  26.148  31.528  1.00  0.00     0.054 A 
BRANCH  82  83
ATOM     83  S   UNL A   1      52.051  25.598  31.941  1.00  0.00     0.124 S 
ATOM     84  O   UNL A   1      52.327  26.353  33.160  1.00  0.00    -0.237 OA
ATOM     85  O   UNL A   1      51.882  24.157  32.118  1.00  0.00    -0.237 OA
ATOM     86  O   UNL A   1      52.840  25.987  30.774  1.00  0.00    -0.744 OA
ENDBRANCH  82  83
ENDBRANCH  56  77
ENDBRANCH  30  31
ENDBRANCH  22  25
ENDBRANCH   1  21
TORSDOF 15
ENDMDL
MODEL 3
REMARK VINA RESULT:      -9.9      1.733      2.703
REMARK SMILES Cc1cc([C@H]([NH3+])C(=O)NCCCNC(=O)c2ccc(-c3c4nc(c(-c5ccc(S(=O)(=O)[O-])cc5)c5ccc([nH]5)c(-c5ccc(S(=O)(=O)[O-])cc5)c5nc(c(-c6ccc(S(=O)(=O)[O-])cc6)c6ccc3[nH]6)C=C5)C=C4)cc2)ccc1F
REMARK SMILES IDX 12 1 11 2 10 3 9 4 7 5 8 6 5 8 4 9 1 10 2 11 3 12 78 13
REMARK SMILES IDX 77 14 79 15 76 16 6 17 13 21 14 22 15 24 16 25 17 26 75 27
REMARK SMILES IDX 18 28 74 29 19 30 20 31 21 32 68 33 22 34 73 35 67 36 69 37
REMARK SMILES IDX 23 38 72 39 66 40 65 41 24 43 54 44 35 45 53 46 36 47 39 48
REMARK SMILES IDX 52 49 70 50 37 51 38 52 51 54 71 55 40 56 25 57 26 58 34 59
REMARK SMILES IDX 27 60 33 61 28 62 29 63 30 64 31 65 32 66 55 67 56 68 64 69
REMARK SMILES IDX 57 70 63 71 58 72 59 73 60 74 61 75 62 76 41 77 42 78 50 79
REMARK SMILES IDX 43 80 49 81 44 82 45 83 46 84 47 85 48 86
REMARK H PARENT 9 7 6 18 6 19 6 20 13 23 69 42 39 53
REMARK Flexibility Score: inf
ROOT
ATOM      1  C   UNL A   1      34.774  32.799  29.260  1.00  0.00     0.118 C 
ENDROOT
BRANCH   1   2
ATOM      2  C   UNL A   1      34.619  32.683  30.763  1.00  0.00     0.042 C 
BRANCH   2   3
ATOM      3  C   UNL A   1      35.780  32.022  31.475  1.00  0.00     0.118 C 
BRANCH   3   4
ATOM      4  N   UNL A   1      35.778  32.157  32.916  1.00  0.00    -0.351 N 
ATOM      5  C   UNL A   1      36.814  32.533  33.731  1.00  0.00     0.283 C 
ATOM      6  O   UNL A   1      36.550  32.733  34.924  1.00  0.00    -0.268 OA
ATOM      7  H   UNL A   1      34.927  31.954  33.367  1.00  0.00     0.163 HD
BRANCH   5   8
ATOM      8  C   UNL A   1      38.274  32.704  33.210  1.00  0.00     0.302 C 
BRANCH   8   9
ATOM      9  C   UNL A   1      39.127  31.453  33.375  1.00  0.00     0.019 A 
ATOM     10  C   UNL A   1      39.054  27.755  32.442  1.00  0.00     0.047 C 
ATOM     11  C   UNL A   1      39.524  29.062  33.004  1.00  0.00    -0.015 A 
ATOM     12  C   UNL A   1      38.676  30.173  33.009  1.00  0.00     0.017 A 
ATOM     13  C   UNL A   1      40.803  29.207  33.528  1.00  0.00     0.126 A 
ATOM     14  C   UNL A   1      41.255  30.442  33.981  1.00  0.00     0.040 A 
ATOM     15  F   UNL A   1      41.623  28.148  33.597  1.00  0.00    -0.207 F 
ATOM     16  C   UNL A   1      40.434  31.567  33.874  1.00  0.00     0.013 A 
ENDBRANCH   8   9
BRANCH   8  17
ATOM     17  N   UNL A   1      38.906  33.923  33.752  1.00  0.00    -0.343 N 
ATOM     18  H   UNL A   1      39.399  33.695  34.615  1.00  0.00     0.345 HD
ATOM     19  H   UNL A   1      38.189  34.622  33.943  1.00  0.00     0.345 HD
ATOM     20  H   UNL A   1      39.569  34.294  33.069  1.00  0.00     0.345 HD
ENDBRANCH   8  17
ENDBRANCH   5   8
ENDBRANCH   3   4
ENDBRANCH   2   3
ENDBRANCH   1   2
BRANCH   1  21
ATOM     21  N   UNL A   1      34.038  31.783  28.518  1.00  0.00    -0.352 N 
ATOM     22  C   UNL A   1      34.437  30.576  27.984  1.00  0.00     0.251 C 
ATOM     23  H   UNL A   1      33.088  31.996  28.372  1.00  0.00     0.163 HD
ATOM     24  O   UNL A   1      33.657  29.953  27.275  1.00  0.00    -0.269 OA
BRANCH  22  25
ATOM     25  C   UNL A   1      35.803  30.048  28.223  1.00  0.00     0.039 A 
ATOM     26  C   UNL A   1      36.768  30.194  27.222  1.00  0.00     0.014 A 
ATOM     27  C   UNL A   1      36.144  29.409  29.413  1.00  0.00     0.014 A 
ATOM     28  C   UNL A   1      38.084  29.786  27.459  1.00  0.00     0.010 A 
ATOM     29  C   UNL A   1      37.475  29.126  29.697  1.00  0.00     0.010 A 
ATOM     30  C   UNL A   1      38.463  29.299  28.721  1.00  0.00    -0.014 A 
BRANCH  30  31
ATOM     31  C   UNL A   1      39.879  28.966  29.034  1.00  0.00     0.031 A 
ATOM     32  C   UNL A   1      40.782  29.994  29.668  1.00  0.00     0.074 A 
ATOM     33  C   UNL A   1      40.370  27.757  28.692  1.00  0.00     0.049 A 
ATOM     34  N   UNL A   1      42.050  29.894  29.982  1.00  0.00    -0.248 NA
ATOM     35  C   UNL A   1      40.199  31.315  29.957  1.00  0.00     0.031 C 
ATOM     36  C   UNL A   1      39.618  26.695  28.016  1.00  0.00     0.029 A 
ATOM     37  N   UNL A   1      41.619  27.215  28.866  1.00  0.00    -0.354 N 
ATOM     38  C   UNL A   1      42.414  31.138  30.487  1.00  0.00     0.074 A 
ATOM     39  C   UNL A   1      41.256  31.995  30.376  1.00  0.00     0.031 C 
ATOM     40  C   UNL A   1      40.405  25.618  27.875  1.00  0.00     0.029 A 
ATOM     41  C   UNL A   1      41.729  25.923  28.406  1.00  0.00     0.049 A 
ATOM     42  H   UNL A   1      42.366  27.705  29.280  1.00  0.00     0.167 HD
ATOM     43  C   UNL A   1      43.597  31.528  31.020  1.00  0.00     0.031 A 
ATOM     44  C   UNL A   1      42.778  25.076  28.409  1.00  0.00     0.031 A 
ATOM     45  C   UNL A   1      44.744  30.667  31.145  1.00  0.00     0.049 A 
ATOM     46  C   UNL A   1      44.081  25.530  29.010  1.00  0.00     0.074 A 
ATOM     47  C   UNL A   1      45.968  30.945  31.729  1.00  0.00     0.029 A 
ATOM     48  N   UNL A   1      44.812  29.364  30.676  1.00  0.00    -0.354 N 
ATOM     49  N   UNL A   1      44.379  26.686  29.554  1.00  0.00    -0.248 NA
ATOM     50  C   UNL A   1      45.182  24.558  29.010  1.00  0.00     0.031 C 
ATOM     51  C   UNL A   1      46.795  29.829  31.561  1.00  0.00     0.029 A 
ATOM     52  C   UNL A   1      46.065  28.833  30.932  1.00  0.00     0.049 A 
ATOM     53  H   UNL A   1      44.076  28.887  30.227  1.00  0.00     0.167 HD
ATOM     54  C   UNL A   1      45.698  26.573  29.981  1.00  0.00     0.074 A 
ATOM     55  C   UNL A   1      46.127  25.228  29.655  1.00  0.00     0.031 C 
ATOM     56  C   UNL A   1      46.482  27.498  30.588  1.00  0.00     0.031 A 
BRANCH  43  57
ATOM     57  C   UNL A   1      43.707  32.949  31.511  1.00  0.00    -0.014 A 
ATOM     58  C   UNL A   1      43.967  34.008  30.623  1.00  0.00     0.010 A 
ATOM     59  C   UNL A   1      43.510  33.235  32.874  1.00  0.00     0.010 A 
ATOM     60  C   UNL A   1      44.073  35.320  31.094  1.00  0.00     0.020 A 
ATOM     61  C   UNL A   1      43.584  34.550  33.345  1.00  0.00     0.020 A 
ATOM     62  C   UNL A   1      43.882  35.583  32.454  1.00  0.00     0.054 A 
BRANCH  62  63
ATOM     63  S   UNL A   1      43.999  37.298  33.031  1.00  0.00     0.124 S 
ATOM     64  O   UNL A   1      44.006  38.038  31.772  1.00  0.00    -0.237 OA
ATOM     65  O   UNL A   1      42.792  37.446  33.840  1.00  0.00    -0.237 OA
ATOM     66  O   UNL A   1      45.254  37.328  33.778  1.00  0.00    -0.744 OA
ENDBRANCH  62  63
ENDBRANCH  43  57
BRANCH  44  67
ATOM     67  C   UNL A   1      42.631  23.706  27.844  1.00  0.00    -0.014 A 
ATOM     68  C   UNL A   1      42.228  22.634  28.659  1.00  0.00     0.010 A 
ATOM     69  C   UNL A   1      42.882  23.468  26.480  1.00  0.00     0.010 A 
ATOM     70  C   UNL A   1      42.097  21.347  28.128  1.00  0.00     0.020 A 
ATOM     71  C   UNL A   1      42.722  22.189  25.938  1.00  0.00     0.020 A 
ATOM     72  C   UNL A   1      42.343  21.135  26.768  1.00  0.00     0.054 A 
BRANCH  72  73
ATOM     73  S   UNL A   1      42.116  19.467  26.090  1.00  0.00     0.124 S 
ATOM     74  O   UNL A   1      42.592  18.626  27.183  1.00  0.00    -0.237 OA
ATOM     75  O   UNL A   1      40.679  19.423  25.835  1.00  0.00    -0.237 OA
ATOM     76  O   UNL A   1      42.953  19.470  24.891  1.00  0.00    -0.744 OA
ENDBRANCH  72  73
ENDBRANCH  44  67
BRANCH  56  77
ATOM     77  C   UNL A   1      47.880  27.077  30.961  1.00  0.00    -0.014 A 
ATOM     78  C   UNL A   1      48.990  27.474  30.194  1.00  0.00     0.010 A 
ATOM     79  C   UNL A   1      48.087  26.302  32.116  1.00  0.00     0.010 A 
ATOM     80  C   UNL A   1      50.277  27.063  30.550  1.00  0.00     0.020 A 
ATOM     81  C   UNL A   1      49.376  25.917  32.495  1.00  0.00     0.020 A 
ATOM     82  C   UNL A   1      50.461  26.284  31.697  1.00  0.00     0.054 A 
BRANCH  82  83
ATOM     83  S   UNL A   1      52.144  25.784  32.150  1.00  0.00     0.124 S 
ATOM     84  O   UNL A   1      51.910  24.510  32.827  1.00  0.00    -0.237 OA
ATOM     85  O   UNL A   1      52.812  25.693  30.853  1.00  0.00    -0.237 OA
ATOM     86  O   UNL A   1      52.610  26.870  33.010  1.00  0.00    -0.744 OA
ENDBRANCH  82  83
ENDBRANCH  56  77
ENDBRANCH  30  31
ENDBRANCH  22  25
ENDBRANCH   1  21
TORSDOF 15
ENDMDL
