MODEL 1
REMARK VINA RESULT:     -11.8      0.000      0.000
REMARK SMILES Cc1cc(C)cc(-c2ccc([C@@H](C)C(=O)NCCCNC(=O)c3ccc(-c4c5nc(c(-c6ccc(S(=O)(=O)[O-])cc6)c6ccc([nH]6)c(-c6ccc(S(=O)(=O)[O-])cc6)c6nc(c(-c7ccc(S(=O)(=O)[O-])cc7)c7ccc4[nH]7)C=C6)C=C5)cc3)cc2F)c1
REMARK SMILES IDX 18 1 17 2 16 3 14 4 15 5 12 7 13 8 11 9 8 10 9 11 84 12
REMARK SMILES IDX 10 13 83 14 85 15 7 16 1 17 2 18 3 19 86 20 4 21 5 22 6 23
REMARK SMILES IDX 19 24 20 25 21 26 22 28 23 29 24 30 82 31 25 32 81 33 26 34
REMARK SMILES IDX 27 35 28 36 75 37 29 38 80 39 74 40 76 41 30 42 79 43 73 44
REMARK SMILES IDX 72 45 31 47 61 48 42 49 60 50 43 51 46 52 59 53 77 54 44 55
REMARK SMILES IDX 45 56 58 58 78 59 47 60 32 61 33 62 41 63 34 64 40 65 35 66
REMARK SMILES IDX 36 67 37 68 38 69 39 70 62 71 63 72 71 73 64 74 70 75 65 76
REMARK SMILES IDX 66 77 67 78 68 79 69 80 48 81 49 82 57 83 50 84 56 85 51 86
REMARK SMILES IDX 52 87 53 88 54 89 55 90
REMARK H PARENT 16 6 20 27 76 46 46 57
REMARK Flexibility Score: inf
ROOT
ATOM      1  C   UNL A   1      33.229  28.647  24.796  1.00  0.00     0.042 C 
ENDROOT
BRANCH   1   2
ATOM      2  C   UNL A   1      31.767  29.067  24.919  1.00  0.00     0.117 C 
BRANCH   2   3
ATOM      3  N   UNL A   1      31.226  29.540  23.660  1.00  0.00    -0.356 N 
ATOM      4  C   UNL A   1      30.464  28.937  22.709  1.00  0.00     0.227 C 
ATOM      5  O   UNL A   1      30.218  29.611  21.700  1.00  0.00    -0.274 OA
ATOM      6  H   UNL A   1      31.453  30.475  23.454  1.00  0.00     0.163 HD
BRANCH   4   7
ATOM      7  C   UNL A   1      29.896  27.514  22.830  1.00  0.00     0.105 C 
ATOM      8  C   UNL A   1      28.582  27.427  23.605  1.00  0.00     0.023 C 
BRANCH   7   9
ATOM      9  C   UNL A   1      30.936  26.465  23.186  1.00  0.00    -0.033 A 
ATOM     10  C   UNL A   1      33.016  24.635  23.911  1.00  0.00     0.017 A 
ATOM     11  C   UNL A   1      31.838  24.759  24.668  1.00  0.00     0.012 A 
ATOM     12  C   UNL A   1      33.104  25.427  22.760  1.00  0.00     0.131 A 
ATOM     13  C   UNL A   1      30.805  25.621  24.291  1.00  0.00     0.005 A 
ATOM     14  C   UNL A   1      32.099  26.338  22.411  1.00  0.00     0.044 A 
ATOM     15  F   UNL A   1      34.169  25.334  21.948  1.00  0.00    -0.206 F 
BRANCH  10  16
ATOM     16  C   UNL A   1      34.082  23.713  24.353  1.00  0.00    -0.015 A 
ATOM     17  C   UNL A   1      37.573  23.800  25.922  1.00  0.00     0.044 C 
ATOM     18  C   UNL A   1      36.274  23.295  25.366  1.00  0.00    -0.050 A 
ATOM     19  C   UNL A   1      36.024  21.918  25.343  1.00  0.00     0.006 A 
ATOM     20  C   UNL A   1      35.303  24.179  24.871  1.00  0.00     0.012 A 
ATOM     21  C   UNL A   1      34.824  21.420  24.831  1.00  0.00    -0.050 A 
ATOM     22  C   UNL A   1      34.557  19.944  24.834  1.00  0.00     0.044 C 
ATOM     23  C   UNL A   1      33.877  22.319  24.327  1.00  0.00     0.012 A 
ENDBRANCH  10  16
ENDBRANCH   7   9
ENDBRANCH   4   7
ENDBRANCH   2   3
ENDBRANCH   1   2
BRANCH   1  24
ATOM     24  C   UNL A   1      34.007  28.768  26.097  1.00  0.00     0.118 C 
BRANCH  24  25
ATOM     25  N   UNL A   1      33.813  30.067  26.731  1.00  0.00    -0.352 N 
ATOM     26  C   UNL A   1      34.551  30.690  27.708  1.00  0.00     0.251 C 
ATOM     27  H   UNL A   1      33.033  30.576  26.409  1.00  0.00     0.163 HD
ATOM     28  O   UNL A   1      34.094  31.680  28.270  1.00  0.00    -0.269 OA
BRANCH  26  29
ATOM     29  C   UNL A   1      35.883  30.166  28.087  1.00  0.00     0.039 A 
ATOM     30  C   UNL A   1      36.927  30.212  27.157  1.00  0.00     0.014 A 
ATOM     31  C   UNL A   1      36.097  29.605  29.348  1.00  0.00     0.014 A 
ATOM     32  C   UNL A   1      38.196  29.750  27.516  1.00  0.00     0.010 A 
ATOM     33  C   UNL A   1      37.379  29.235  29.734  1.00  0.00     0.010 A 
ATOM     34  C   UNL A   1      38.441  29.287  28.818  1.00  0.00    -0.014 A 
BRANCH  34  35
ATOM     35  C   UNL A   1      39.778  28.804  29.247  1.00  0.00     0.031 A 
ATOM     36  C   UNL A   1      40.691  29.732  30.007  1.00  0.00     0.074 A 
ATOM     37  C   UNL A   1      40.200  27.573  28.894  1.00  0.00     0.049 A 
ATOM     38  N   UNL A   1      41.943  29.564  30.346  1.00  0.00    -0.248 NA
ATOM     39  C   UNL A   1      40.131  31.034  30.409  1.00  0.00     0.031 C 
ATOM     40  C   UNL A   1      39.418  26.587  28.145  1.00  0.00     0.029 A 
ATOM     41  N   UNL A   1      41.401  26.944  29.110  1.00  0.00    -0.354 N 
ATOM     42  C   UNL A   1      42.321  30.740  30.984  1.00  0.00     0.074 A 
ATOM     43  C   UNL A   1      41.189  31.637  30.932  1.00  0.00     0.031 C 
ATOM     44  C   UNL A   1      40.151  25.474  27.983  1.00  0.00     0.029 A 
ATOM     45  C   UNL A   1      41.472  25.682  28.567  1.00  0.00     0.049 A 
ATOM     46  H   UNL A   1      42.144  27.359  29.606  1.00  0.00     0.167 HD
ATOM     47  C   UNL A   1      43.498  31.039  31.585  1.00  0.00     0.031 A 
ATOM     48  C   UNL A   1      42.490  24.800  28.532  1.00  0.00     0.031 A 
ATOM     49  C   UNL A   1      44.615  30.137  31.652  1.00  0.00     0.049 A 
ATOM     50  C   UNL A   1      43.801  25.174  29.171  1.00  0.00     0.074 A 
ATOM     51  C   UNL A   1      45.841  30.333  32.260  1.00  0.00     0.029 A 
ATOM     52  N   UNL A   1      44.637  28.865  31.101  1.00  0.00    -0.354 N 
ATOM     53  N   UNL A   1      44.129  26.279  29.799  1.00  0.00    -0.248 NA
ATOM     54  C   UNL A   1      44.880  24.177  29.110  1.00  0.00     0.031 C 
ATOM     55  C   UNL A   1      46.624  29.196  32.039  1.00  0.00     0.029 A 
ATOM     56  C   UNL A   1      45.860  28.267  31.349  1.00  0.00     0.049 A 
ATOM     57  H   UNL A   1      43.894  28.449  30.607  1.00  0.00     0.167 HD
ATOM     58  C   UNL A   1      45.432  26.088  30.247  1.00  0.00     0.074 A 
ATOM     59  C   UNL A   1      45.831  24.762  29.823  1.00  0.00     0.031 C 
ATOM     60  C   UNL A   1      46.226  26.933  30.948  1.00  0.00     0.031 A 
BRANCH  47  61
ATOM     61  C   UNL A   1      43.632  32.392  32.233  1.00  0.00    -0.014 A 
ATOM     62  C   UNL A   1      43.303  32.578  33.588  1.00  0.00     0.010 A 
ATOM     63  C   UNL A   1      44.150  33.475  31.500  1.00  0.00     0.010 A 
ATOM     64  C   UNL A   1      43.464  33.828  34.190  1.00  0.00     0.020 A 
ATOM     65  C   UNL A   1      44.342  34.720  32.108  1.00  0.00     0.020 A 
ATOM     66  C   UNL A   1      43.986  34.890  33.448  1.00  0.00     0.054 A 
BRANCH  66  67
ATOM     67  S   UNL A   1      44.231  36.485  34.274  1.00  0.00     0.124 S 
ATOM     68  O   UNL A   1      43.492  36.296  35.521  1.00  0.00    -0.237 OA
ATOM     69  O   UNL A   1      45.684  36.554  34.409  1.00  0.00    -0.237 OA
ATOM     70  O   UNL A   1      43.648  37.451  33.346  1.00  0.00    -0.744 OA
ENDBRANCH  66  67
ENDBRANCH  47  61
BRANCH  48  71
ATOM     71  C   UNL A   1      42.321  23.475  27.871  1.00  0.00    -0.014 A 
ATOM     72  C   UNL A   1      41.795  22.383  28.585  1.00  0.00     0.010 A 
ATOM     73  C   UNL A   1      42.718  23.285  26.534  1.00  0.00     0.010 A 
ATOM     74  C   UNL A   1      41.712  21.119  27.993  1.00  0.00     0.020 A 
ATOM     75  C   UNL A   1      42.604  22.031  25.927  1.00  0.00     0.020 A 
ATOM     76  C   UNL A   1      42.122  20.951  26.668  1.00  0.00     0.054 A 
BRANCH  76  77
ATOM     77  S   UNL A   1      42.004  19.303  25.917  1.00  0.00     0.124 S 
ATOM     78  O   UNL A   1      42.861  19.443  24.745  1.00  0.00    -0.237 OA
ATOM     79  O   UNL A   1      42.515  18.437  26.976  1.00  0.00    -0.237 OA
ATOM     80  O   UNL A   1      40.577  19.158  25.638  1.00  0.00    -0.744 OA
ENDBRANCH  76  77
ENDBRANCH  48  71
BRANCH  60  81
ATOM     81  C   UNL A   1      47.579  26.431  31.378  1.00  0.00    -0.014 A 
ATOM     82  C   UNL A   1      47.762  25.753  32.596  1.00  0.00     0.010 A 
ATOM     83  C   UNL A   1      48.673  26.574  30.502  1.00  0.00     0.010 A 
ATOM     84  C   UNL A   1      49.018  25.248  32.939  1.00  0.00     0.020 A 
ATOM     85  C   UNL A   1      49.921  26.043  30.827  1.00  0.00     0.020 A 
ATOM     86  C   UNL A   1      50.089  25.391  32.050  1.00  0.00     0.054 A 
BRANCH  86  87
ATOM     87  S   UNL A   1      51.692  24.667  32.490  1.00  0.00     0.124 S 
ATOM     88  O   UNL A   1      52.595  25.339  31.560  1.00  0.00    -0.237 OA
ATOM     89  O   UNL A   1      51.838  25.045  33.894  1.00  0.00    -0.237 OA
ATOM     90  O   UNL A   1      51.506  23.238  32.253  1.00  0.00    -0.744 OA
ENDBRANCH  86  87
ENDBRANCH  60  81
ENDBRANCH  34  35
ENDBRANCH  26  29
ENDBRANCH  24  25
ENDBRANCH   1  24
TORSDOF 15
ENDMDL
MODEL 2
REMARK VINA RESULT:     -11.7      4.403     11.247
REMARK SMILES Cc1cc(C)cc(-c2ccc([C@@H](C)C(=O)NCCCNC(=O)c3ccc(-c4c5nc(c(-c6ccc(S(=O)(=O)[O-])cc6)c6ccc([nH]6)c(-c6ccc(S(=O)(=O)[O-])cc6)c6nc(c(-c7ccc(S(=O)(=O)[O-])cc7)c7ccc4[nH]7)C=C6)C=C5)cc3)cc2F)c1
REMARK SMILES IDX 18 1 17 2 16 3 14 4 15 5 12 7 13 8 11 9 8 10 9 11 84 12
REMARK SMILES IDX 10 13 83 14 85 15 7 16 1 17 2 18 3 19 86 20 4 21 5 22 6 23
REMARK SMILES IDX 19 24 20 25 21 26 22 28 23 29 24 30 82 31 25 32 81 33 26 34
REMARK SMILES IDX 27 35 28 36 75 37 29 38 80 39 74 40 76 41 30 42 79 43 73 44
REMARK SMILES IDX 72 45 31 47 61 48 42 49 60 50 43 51 46 52 59 53 77 54 44 55
REMARK SMILES IDX 45 56 58 58 78 59 47 60 32 61 33 62 41 63 34 64 40 65 35 66
REMARK SMILES IDX 36 67 37 68 38 69 39 70 62 71 63 72 71 73 64 74 70 75 65 76
REMARK SMILES IDX 66 77 67 78 68 79 69 80 48 81 49 82 57 83 50 84 56 85 51 86
REMARK SMILES IDX 52 87 53 88 54 89 55 90
REMARK H PARENT 16 6 20 27 76 46 46 57
REMARK Flexibility Score: inf
ROOT
ATOM      1  C   UNL A   1      42.154  21.100  26.048  1.00  0.00     0.042 C 
ENDROOT
BRANCH   1   2
ATOM      2  C   UNL A   1      42.795  19.723  26.189  1.00  0.00     0.117 C 
BRANCH   2   3
ATOM      3  N   UNL A   1      43.217  19.183  24.911  1.00  0.00    -0.356 N 
ATOM      4  C   UNL A   1      44.364  19.325  24.193  1.00  0.00     0.227 C 
ATOM      5  O   UNL A   1      44.385  18.771  23.087  1.00  0.00    -0.274 OA
ATOM      6  H   UNL A   1      42.548  18.604  24.481  1.00  0.00     0.163 HD
BRANCH   4   7
ATOM      7  C   UNL A   1      45.601  20.096  24.683  1.00  0.00     0.105 C 
ATOM      8  C   UNL A   1      46.422  19.359  25.739  1.00  0.00     0.023 C 
BRANCH   7   9
ATOM      9  C   UNL A   1      45.336  21.565  24.968  1.00  0.00    -0.033 A 
ATOM     10  C   UNL A   1      45.031  24.360  25.509  1.00  0.00     0.017 A 
ATOM     11  C   UNL A   1      44.707  23.806  24.258  1.00  0.00     0.012 A 
ATOM     12  C   UNL A   1      45.477  23.467  26.491  1.00  0.00     0.131 A 
ATOM     13  C   UNL A   1      44.816  22.435  24.008  1.00  0.00     0.005 A 
ATOM     14  C   UNL A   1      45.645  22.103  26.226  1.00  0.00     0.044 A 
ATOM     15  F   UNL A   1      45.756  23.901  27.730  1.00  0.00    -0.206 F 
BRANCH  10  16
ATOM     16  C   UNL A   1      44.904  25.816  25.724  1.00  0.00    -0.015 A 
ATOM     17  C   UNL A   1      42.255  28.579  25.624  1.00  0.00     0.044 C 
ATOM     18  C   UNL A   1      43.559  27.862  25.822  1.00  0.00    -0.050 A 
ATOM     19  C   UNL A   1      44.666  28.569  26.308  1.00  0.00     0.006 A 
ATOM     20  C   UNL A   1      43.687  26.495  25.535  1.00  0.00     0.012 A 
ATOM     21  C   UNL A   1      45.891  27.927  26.501  1.00  0.00    -0.050 A 
ATOM     22  C   UNL A   1      47.064  28.689  27.045  1.00  0.00     0.044 C 
ATOM     23  C   UNL A   1      46.001  26.567  26.191  1.00  0.00     0.012 A 
ENDBRANCH  10  16
ENDBRANCH   7   9
ENDBRANCH   4   7
ENDBRANCH   2   3
ENDBRANCH   1   2
BRANCH   1  24
ATOM     24  C   UNL A   1      40.934  21.295  26.936  1.00  0.00     0.118 C 
BRANCH  24  25
ATOM     25  N   UNL A   1      39.717  21.494  26.158  1.00  0.00    -0.352 N 
ATOM     26  C   UNL A   1      38.858  22.567  26.125  1.00  0.00     0.251 C 
ATOM     27  H   UNL A   1      39.474  20.747  25.565  1.00  0.00     0.163 HD
ATOM     28  O   UNL A   1      37.767  22.448  25.577  1.00  0.00    -0.269 OA
BRANCH  26  29
ATOM     29  C   UNL A   1      39.241  23.850  26.755  1.00  0.00     0.039 A 
ATOM     30  C   UNL A   1      38.854  24.108  28.074  1.00  0.00     0.014 A 
ATOM     31  C   UNL A   1      39.957  24.812  26.039  1.00  0.00     0.014 A 
ATOM     32  C   UNL A   1      39.238  25.302  28.689  1.00  0.00     0.010 A 
ATOM     33  C   UNL A   1      40.418  25.954  26.682  1.00  0.00     0.010 A 
ATOM     34  C   UNL A   1      40.051  26.221  28.009  1.00  0.00    -0.014 A 
BRANCH  34  35
ATOM     35  C   UNL A   1      40.497  27.494  28.630  1.00  0.00     0.031 A 
ATOM     36  C   UNL A   1      41.876  27.580  29.232  1.00  0.00     0.074 A 
ATOM     37  C   UNL A   1      39.648  28.537  28.723  1.00  0.00     0.049 A 
ATOM     38  N   UNL A   1      42.407  28.539  29.946  1.00  0.00    -0.248 NA
ATOM     39  C   UNL A   1      42.762  26.421  29.032  1.00  0.00     0.031 C 
ATOM     40  C   UNL A   1      38.282  28.574  28.196  1.00  0.00     0.029 A 
ATOM     41  N   UNL A   1      39.807  29.770  29.307  1.00  0.00    -0.354 N 
ATOM     42  C   UNL A   1      43.678  28.091  30.291  1.00  0.00     0.074 A 
ATOM     43  C   UNL A   1      43.817  26.753  29.762  1.00  0.00     0.031 C 
ATOM     44  C   UNL A   1      37.738  29.772  28.462  1.00  0.00     0.029 A 
ATOM     45  C   UNL A   1      38.692  30.572  29.224  1.00  0.00     0.049 A 
ATOM     46  H   UNL A   1      40.642  30.053  29.746  1.00  0.00     0.167 HD
ATOM     47  C   UNL A   1      44.654  28.745  30.965  1.00  0.00     0.031 A 
ATOM     48  C   UNL A   1      38.461  31.804  29.718  1.00  0.00     0.031 A 
ATOM     49  C   UNL A   1      44.519  30.083  31.472  1.00  0.00     0.049 A 
ATOM     50  C   UNL A   1      39.549  32.492  30.500  1.00  0.00     0.074 A 
ATOM     51  C   UNL A   1      45.457  30.846  32.144  1.00  0.00     0.029 A 
ATOM     52  N   UNL A   1      43.378  30.862  31.353  1.00  0.00    -0.354 N 
ATOM     53  N   UNL A   1      40.756  32.065  30.787  1.00  0.00    -0.248 NA
ATOM     54  C   UNL A   1      39.250  33.836  31.016  1.00  0.00     0.031 C 
ATOM     55  C   UNL A   1      44.869  32.070  32.473  1.00  0.00     0.029 A 
ATOM     56  C   UNL A   1      43.586  32.094  31.946  1.00  0.00     0.049 A 
ATOM     57  H   UNL A   1      42.544  30.580  30.911  1.00  0.00     0.167 HD
ATOM     58  C   UNL A   1      41.373  33.106  31.473  1.00  0.00     0.074 A 
ATOM     59  C   UNL A   1      40.410  34.184  31.554  1.00  0.00     0.031 C 
ATOM     60  C   UNL A   1      42.626  33.166  31.988  1.00  0.00     0.031 A 
BRANCH  47  61
ATOM     61  C   UNL A   1      45.961  28.028  31.178  1.00  0.00    -0.014 A 
ATOM     62  C   UNL A   1      46.088  27.038  32.169  1.00  0.00     0.010 A 
ATOM     63  C   UNL A   1      47.058  28.301  30.339  1.00  0.00     0.010 A 
ATOM     64  C   UNL A   1      47.293  26.354  32.336  1.00  0.00     0.020 A 
ATOM     65  C   UNL A   1      48.257  27.595  30.482  1.00  0.00     0.020 A 
ATOM     66  C   UNL A   1      48.369  26.633  31.489  1.00  0.00     0.054 A 
BRANCH  66  67
ATOM     67  S   UNL A   1      49.903  25.689  31.698  1.00  0.00     0.124 S 
ATOM     68  O   UNL A   1      49.943  24.902  30.468  1.00  0.00    -0.237 OA
ATOM     69  O   UNL A   1      50.911  26.740  31.805  1.00  0.00    -0.237 OA
ATOM     70  O   UNL A   1      49.676  24.921  32.921  1.00  0.00    -0.744 OA
ENDBRANCH  66  67
ENDBRANCH  47  61
BRANCH  48  71
ATOM     71  C   UNL A   1      37.149  32.475  29.495  1.00  0.00    -0.014 A 
ATOM     72  C   UNL A   1      36.946  33.287  28.365  1.00  0.00     0.010 A 
ATOM     73  C   UNL A   1      36.106  32.337  30.429  1.00  0.00     0.010 A 
ATOM     74  C   UNL A   1      35.746  33.984  28.195  1.00  0.00     0.020 A 
ATOM     75  C   UNL A   1      34.891  33.003  30.245  1.00  0.00     0.020 A 
ATOM     76  C   UNL A   1      34.727  33.840  29.140  1.00  0.00     0.054 A 
BRANCH  76  77
ATOM     77  S   UNL A   1      33.175  34.751  28.900  1.00  0.00     0.124 S 
ATOM     78  O   UNL A   1      32.457  33.884  27.972  1.00  0.00    -0.237 OA
ATOM     79  O   UNL A   1      32.635  34.815  30.256  1.00  0.00    -0.237 OA
ATOM     80  O   UNL A   1      33.614  36.032  28.351  1.00  0.00    -0.744 OA
ENDBRANCH  76  77
ENDBRANCH  48  71
BRANCH  60  81
ATOM     81  C   UNL A   1      43.066  34.463  32.614  1.00  0.00    -0.014 A 
ATOM     82  C   UNL A   1      43.677  35.478  31.858  1.00  0.00     0.010 A 
ATOM     83  C   UNL A   1      42.787  34.695  33.975  1.00  0.00     0.010 A 
ATOM     84  C   UNL A   1      44.020  36.692  32.457  1.00  0.00     0.020 A 
ATOM     85  C   UNL A   1      43.099  35.919  34.568  1.00  0.00     0.020 A 
ATOM     86  C   UNL A   1      43.724  36.907  33.807  1.00  0.00     0.054 A 
BRANCH  86  87
ATOM     87  S   UNL A   1      44.119  38.517  34.542  1.00  0.00     0.124 S 
ATOM     88  O   UNL A   1      44.019  38.232  35.971  1.00  0.00    -0.237 OA
ATOM     89  O   UNL A   1      45.470  38.771  34.045  1.00  0.00    -0.237 OA
ATOM     90  O   UNL A   1      43.089  39.405  34.010  1.00  0.00    -0.744 OA
ENDBRANCH  86  87
ENDBRANCH  60  81
ENDBRANCH  34  35
ENDBRANCH  26  29
ENDBRANCH  24  25
ENDBRANCH   1  24
TORSDOF 15
ENDMDL
MODEL 3
REMARK VINA RESULT:     -11.6      4.732     11.059
REMARK SMILES Cc1cc(C)cc(-c2ccc([C@@H](C)C(=O)NCCCNC(=O)c3ccc(-c4c5nc(c(-c6ccc(S(=O)(=O)[O-])cc6)c6ccc([nH]6)c(-c6ccc(S(=O)(=O)[O-])cc6)c6nc(c(-c7ccc(S(=O)(=O)[O-])cc7)c7ccc4[nH]7)C=C6)C=C5)cc3)cc2F)c1
REMARK SMILES IDX 18 1 17 2 16 3 14 4 15 5 12 7 13 8 11 9 8 10 9 11 84 12
REMARK SMILES IDX 10 13 83 14 85 15 7 16 1 17 2 18 3 19 86 20 4 21 5 22 6 23
REMARK SMILES IDX 19 24 20 25 21 26 22 28 23 29 24 30 82 31 25 32 81 33 26 34
REMARK SMILES IDX 27 35 28 36 75 37 29 38 80 39 74 40 76 41 30 42 79 43 73 44
REMARK SMILES IDX 72 45 31 47 61 48 42 49 60 50 43 51 46 52 59 53 77 54 44 55
REMARK SMILES IDX 45 56 58 58 78 59 47 60 32 61 33 62 41 63 34 64 40 65 35 66
REMARK SMILES IDX 36 67 37 68 38 69 39 70 62 71 63 72 71 73 64 74 70 75 65 76
REMARK SMILES IDX 66 77 67 78 68 79 69 80 48 81 49 82 57 83 50 84 56 85 51 86
REMARK SMILES IDX 52 87 53 88 54 89 55 90
REMARK H PARENT 16 6 20 27 76 46 46 57
REMARK Flexibility Score: inf
ROOT
ATOM      1  C   UNL A   1      40.838  20.030  26.191  1.00  0.00     0.042 C 
ENDROOT
BRANCH   1   2
ATOM      2  C   UNL A   1      42.172  19.606  26.798  1.00  0.00     0.117 C 
BRANCH   2   3
ATOM      3  N   UNL A   1      43.287  19.887  25.916  1.00  0.00    -0.356 N 
ATOM      4  C   UNL A   1      43.785  21.049  25.413  1.00  0.00     0.227 C 
ATOM      5  O   UNL A   1      44.729  20.939  24.621  1.00  0.00    -0.274 OA
ATOM      6  H   UNL A   1      43.779  19.085  25.625  1.00  0.00     0.163 HD
BRANCH   4   7
ATOM      7  C   UNL A   1      43.262  22.446  25.785  1.00  0.00     0.105 C 
ATOM      8  C   UNL A   1      43.478  23.505  24.706  1.00  0.00     0.023 C 
BRANCH   7   9
ATOM      9  C   UNL A   1      43.611  22.875  27.201  1.00  0.00    -0.033 A 
ATOM     10  C   UNL A   1      44.277  23.869  29.802  1.00  0.00     0.017 A 
ATOM     11  C   UNL A   1      42.994  23.382  29.499  1.00  0.00     0.012 A 
ATOM     12  C   UNL A   1      45.227  23.809  28.775  1.00  0.00     0.131 A 
ATOM     13  C   UNL A   1      42.681  22.859  28.242  1.00  0.00     0.005 A 
ATOM     14  C   UNL A   1      44.901  23.341  27.495  1.00  0.00     0.044 A 
ATOM     15  F   UNL A   1      46.492  24.201  28.991  1.00  0.00    -0.206 F 
BRANCH  10  16
ATOM     16  C   UNL A   1      44.559  24.418  31.145  1.00  0.00    -0.015 A 
ATOM     17  C   UNL A   1      45.699  27.675  32.804  1.00  0.00     0.044 C 
ATOM     18  C   UNL A   1      45.207  26.269  32.614  1.00  0.00    -0.050 A 
ATOM     19  C   UNL A   1      44.922  25.482  33.735  1.00  0.00     0.006 A 
ATOM     20  C   UNL A   1      45.024  25.732  31.330  1.00  0.00     0.012 A 
ATOM     21  C   UNL A   1      44.464  24.171  33.587  1.00  0.00    -0.050 A 
ATOM     22  C   UNL A   1      44.138  23.345  34.796  1.00  0.00     0.044 C 
ATOM     23  C   UNL A   1      44.305  23.649  32.298  1.00  0.00     0.012 A 
ENDBRANCH  10  16
ENDBRANCH   7   9
ENDBRANCH   4   7
ENDBRANCH   2   3
ENDBRANCH   1   2
BRANCH   1  24
ATOM     24  C   UNL A   1      40.235  21.261  26.851  1.00  0.00     0.118 C 
BRANCH  24  25
ATOM     25  N   UNL A   1      39.008  21.691  26.190  1.00  0.00    -0.352 N 
ATOM     26  C   UNL A   1      38.398  22.922  26.180  1.00  0.00     0.251 C 
ATOM     27  H   UNL A   1      38.547  20.992  25.672  1.00  0.00     0.163 HD
ATOM     28  O   UNL A   1      37.252  23.022  25.754  1.00  0.00    -0.269 OA
BRANCH  26  29
ATOM     29  C   UNL A   1      39.112  24.115  26.689  1.00  0.00     0.039 A 
ATOM     30  C   UNL A   1      39.878  24.882  25.806  1.00  0.00     0.014 A 
ATOM     31  C   UNL A   1      39.048  24.463  28.039  1.00  0.00     0.014 A 
ATOM     32  C   UNL A   1      40.529  26.029  26.269  1.00  0.00     0.010 A 
ATOM     33  C   UNL A   1      39.617  25.653  28.477  1.00  0.00     0.010 A 
ATOM     34  C   UNL A   1      40.377  26.442  27.601  1.00  0.00    -0.014 A 
BRANCH  34  35
ATOM     35  C   UNL A   1      41.036  27.663  28.130  1.00  0.00     0.031 A 
ATOM     36  C   UNL A   1      42.541  27.726  28.186  1.00  0.00     0.074 A 
ATOM     37  C   UNL A   1      40.294  28.673  28.626  1.00  0.00     0.049 A 
ATOM     38  N   UNL A   1      43.310  28.628  28.739  1.00  0.00    -0.248 NA
ATOM     39  C   UNL A   1      43.277  26.611  27.565  1.00  0.00     0.031 C 
ATOM     40  C   UNL A   1      38.831  28.725  28.647  1.00  0.00     0.029 A 
ATOM     41  N   UNL A   1      40.673  29.851  29.223  1.00  0.00    -0.354 N 
ATOM     42  C   UNL A   1      44.613  28.181  28.547  1.00  0.00     0.074 A 
ATOM     43  C   UNL A   1      44.530  26.901  27.882  1.00  0.00     0.031 C 
ATOM     44  C   UNL A   1      38.438  29.881  29.206  1.00  0.00     0.029 A 
ATOM     45  C   UNL A   1      39.616  30.630  29.633  1.00  0.00     0.049 A 
ATOM     46  H   UNL A   1      41.614  30.112  29.347  1.00  0.00     0.167 HD
ATOM     47  C   UNL A   1      45.777  28.793  28.871  1.00  0.00     0.031 A 
ATOM     48  C   UNL A   1      39.598  31.806  30.291  1.00  0.00     0.031 A 
ATOM     49  C   UNL A   1      45.855  30.076  29.515  1.00  0.00     0.049 A 
ATOM     50  C   UNL A   1      40.906  32.446  30.676  1.00  0.00     0.074 A 
ATOM     51  C   UNL A   1      46.983  30.796  29.862  1.00  0.00     0.029 A 
ATOM     52  N   UNL A   1      44.760  30.835  29.899  1.00  0.00    -0.354 N 
ATOM     53  N   UNL A   1      42.129  32.022  30.456  1.00  0.00    -0.248 NA
ATOM     54  C   UNL A   1      40.835  33.730  31.389  1.00  0.00     0.031 C 
ATOM     55  C   UNL A   1      46.573  31.971  30.497  1.00  0.00     0.029 A 
ATOM     56  C   UNL A   1      45.187  32.013  30.486  1.00  0.00     0.049 A 
ATOM     57  H   UNL A   1      43.818  30.575  29.772  1.00  0.00     0.167 HD
ATOM     58  C   UNL A   1      42.968  33.012  30.960  1.00  0.00     0.074 A 
ATOM     59  C   UNL A   1      42.115  34.054  31.491  1.00  0.00     0.031 C 
ATOM     60  C   UNL A   1      44.322  33.054  30.979  1.00  0.00     0.031 A 
BRANCH  47  61
ATOM     61  C   UNL A   1      47.062  28.091  28.518  1.00  0.00    -0.014 A 
ATOM     62  C   UNL A   1      47.695  27.239  29.442  1.00  0.00     0.010 A 
ATOM     63  C   UNL A   1      47.611  28.234  27.231  1.00  0.00     0.010 A 
ATOM     64  C   UNL A   1      48.866  26.564  29.093  1.00  0.00     0.020 A 
ATOM     65  C   UNL A   1      48.767  27.535  26.868  1.00  0.00     0.020 A 
ATOM     66  C   UNL A   1      49.393  26.713  27.808  1.00  0.00     0.054 A 
BRANCH  66  67
ATOM     67  S   UNL A   1      50.887  25.782  27.371  1.00  0.00     0.124 S 
ATOM     68  O   UNL A   1      51.817  26.197  28.419  1.00  0.00    -0.237 OA
ATOM     69  O   UNL A   1      50.432  24.396  27.448  1.00  0.00    -0.237 OA
ATOM     70  O   UNL A   1      51.212  26.255  26.028  1.00  0.00    -0.744 OA
ENDBRANCH  66  67
ENDBRANCH  47  61
BRANCH  48  71
ATOM     71  C   UNL A   1      38.305  32.464  30.631  1.00  0.00    -0.014 A 
ATOM     72  C   UNL A   1      37.691  32.231  31.875  1.00  0.00     0.010 A 
ATOM     73  C   UNL A   1      37.660  33.300  29.700  1.00  0.00     0.010 A 
ATOM     74  C   UNL A   1      36.439  32.781  32.165  1.00  0.00     0.020 A 
ATOM     75  C   UNL A   1      36.425  33.882  30.000  1.00  0.00     0.020 A 
ATOM     76  C   UNL A   1      35.812  33.601  31.222  1.00  0.00     0.054 A 
BRANCH  76  77
ATOM     77  S   UNL A   1      34.188  34.308  31.618  1.00  0.00     0.124 S 
ATOM     78  O   UNL A   1      34.552  35.602  32.186  1.00  0.00    -0.237 OA
ATOM     79  O   UNL A   1      33.535  34.349  30.312  1.00  0.00    -0.237 OA
ATOM     80  O   UNL A   1      33.620  33.347  32.561  1.00  0.00    -0.744 OA
ENDBRANCH  76  77
ENDBRANCH  48  71
BRANCH  60  81
ATOM     81  C   UNL A   1      44.978  34.298  31.517  1.00  0.00    -0.014 A 
ATOM     82  C   UNL A   1      45.438  34.376  32.843  1.00  0.00     0.010 A 
ATOM     83  C   UNL A   1      45.208  35.381  30.646  1.00  0.00     0.010 A 
ATOM     84  C   UNL A   1      46.094  35.523  33.294  1.00  0.00     0.020 A 
ATOM     85  C   UNL A   1      45.892  36.515  31.085  1.00  0.00     0.020 A 
ATOM     86  C   UNL A   1      46.323  36.584  32.411  1.00  0.00     0.054 A 
BRANCH  86  87
ATOM     87  S   UNL A   1      47.237  38.033  33.004  1.00  0.00     0.124 S 
ATOM     88  O   UNL A   1      46.231  39.087  32.912  1.00  0.00    -0.237 OA
ATOM     89  O   UNL A   1      47.613  37.639  34.360  1.00  0.00    -0.237 OA
ATOM     90  O   UNL A   1      48.350  38.150  32.065  1.00  0.00    -0.744 OA
ENDBRANCH  86  87
ENDBRANCH  60  81
ENDBRANCH  34  35
ENDBRANCH  26  29
ENDBRANCH  24  25
ENDBRANCH   1  24
TORSDOF 15
ENDMDL
