MODEL 1
REMARK VINA RESULT:     -10.9      0.000      0.000
REMARK SMILES C[C@@H]1[C@@H](C(=O)NCCCNC(=O)c2ccc(-c3c4nc(c(-c5ccc(S(=O)(=O)[O-])cc5)c5ccc([nH]5)c(-c5ccc(S(=O)(=O)[O-])cc5)c5nc(c(-c6ccc(S(=O)(=O)[O-])cc6)c6ccc3[nH]6)C=C5)C=C4)cc2)CCN1C(=O)[C@]1([NH3+])CCOC1
REMARK SMILES IDX 8 1 7 2 6 3 4 4 5 5 3 7 1 8 2 9 75 10 73 11 74 12 76 13
REMARK SMILES IDX 77 14 78 15 80 16 83 17 81 18 82 19 79 20 9 24 10 25 11 26
REMARK SMILES IDX 12 28 13 29 14 30 72 31 15 32 71 33 16 34 17 35 18 36 65 37
REMARK SMILES IDX 19 38 70 39 64 40 66 41 20 42 69 43 63 44 62 45 21 47 51 48
REMARK SMILES IDX 32 49 50 50 33 51 36 52 49 53 67 54 34 55 35 56 48 58 68 59
REMARK SMILES IDX 37 60 22 61 23 62 31 63 24 64 30 65 25 66 26 67 27 68 28 69
REMARK SMILES IDX 29 70 52 71 53 72 61 73 54 74 60 75 55 76 56 77 57 78 58 79
REMARK SMILES IDX 59 80 38 81 39 82 47 83 40 84 46 85 41 86 42 87 43 88 44 89
REMARK SMILES IDX 45 90
REMARK H PARENT 6 6 79 21 79 22 79 23 10 27 66 46 36 57
REMARK Flexibility Score: inf
ROOT
ATOM      1  C   UNL A   1      32.628  27.778  26.001  1.00  0.00     0.042 C 
ENDROOT
BRANCH   1   2
ATOM      2  C   UNL A   1      33.439  26.966  24.999  1.00  0.00     0.117 C 
BRANCH   2   3
ATOM      3  N   UNL A   1      32.753  25.750  24.598  1.00  0.00    -0.356 N 
ATOM      4  C   UNL A   1      33.253  24.526  24.272  1.00  0.00     0.225 C 
ATOM      5  O   UNL A   1      32.450  23.629  24.013  1.00  0.00    -0.275 OA
ATOM      6  H   UNL A   1      31.773  25.822  24.557  1.00  0.00     0.163 HD
BRANCH   4   7
ATOM      7  C   UNL A   1      34.758  24.303  24.282  1.00  0.00     0.102 C 
ATOM      8  C   UNL A   1      36.577  23.015  23.144  1.00  0.00     0.032 C 
ATOM      9  C   UNL A   1      35.153  22.927  23.710  1.00  0.00     0.094 C 
ATOM     10  N   UNL A   1      35.105  22.020  24.864  1.00  0.00    -0.334 N 
ATOM     11  C   UNL A   1      35.308  24.242  25.710  1.00  0.00     0.037 C 
ATOM     12  C   UNL A   1      35.116  22.787  26.108  1.00  0.00     0.121 C 
BRANCH  10  13
ATOM     13  C   UNL A   1      34.936  20.654  24.958  1.00  0.00     0.286 C 
ATOM     14  O   UNL A   1      35.953  19.934  24.954  1.00  0.00    -0.267 OA
BRANCH  13  15
ATOM     15  C   UNL A   1      33.543  19.926  25.104  1.00  0.00     0.199 C 
ATOM     16  C   UNL A   1      33.510  18.485  24.637  1.00  0.00     0.110 C 
ATOM     17  C   UNL A   1      32.420  20.598  24.321  1.00  0.00     0.239 C 
ATOM     18  C   UNL A   1      32.678  18.482  23.372  1.00  0.00     0.167 C 
ATOM     19  O   UNL A   1      32.117  19.780  23.181  1.00  0.00    -0.374 OA
BRANCH  15  20
ATOM     20  N   UNL A   1      33.202  19.952  26.568  1.00  0.00    -0.343 N 
ATOM     21  H   UNL A   1      33.799  19.293  27.068  1.00  0.00     0.345 HD
ATOM     22  H   UNL A   1      32.225  19.689  26.695  1.00  0.00     0.345 HD
ATOM     23  H   UNL A   1      33.351  20.892  26.936  1.00  0.00     0.345 HD
ENDBRANCH  15  20
ENDBRANCH  13  15
ENDBRANCH  10  13
ENDBRANCH   4   7
ENDBRANCH   2   3
ENDBRANCH   1   2
BRANCH   1  24
ATOM     24  C   UNL A   1      33.399  28.220  27.241  1.00  0.00     0.118 C 
BRANCH  24  25
ATOM     25  N   UNL A   1      33.360  29.659  27.460  1.00  0.00    -0.352 N 
ATOM     26  C   UNL A   1      34.323  30.504  27.965  1.00  0.00     0.251 C 
ATOM     27  H   UNL A   1      32.514  30.095  27.209  1.00  0.00     0.163 HD
ATOM     28  O   UNL A   1      34.033  31.669  28.206  1.00  0.00    -0.269 OA
BRANCH  26  29
ATOM     29  C   UNL A   1      35.691  30.006  28.244  1.00  0.00     0.039 A 
ATOM     30  C   UNL A   1      36.655  30.091  27.235  1.00  0.00     0.014 A 
ATOM     31  C   UNL A   1      36.026  29.450  29.480  1.00  0.00     0.014 A 
ATOM     32  C   UNL A   1      37.970  29.693  27.494  1.00  0.00     0.010 A 
ATOM     33  C   UNL A   1      37.353  29.129  29.762  1.00  0.00     0.010 A 
ATOM     34  C   UNL A   1      38.342  29.249  28.774  1.00  0.00    -0.014 A 
BRANCH  34  35
ATOM     35  C   UNL A   1      39.756  28.924  29.100  1.00  0.00     0.031 A 
ATOM     36  C   UNL A   1      40.650  29.956  29.737  1.00  0.00     0.074 A 
ATOM     37  C   UNL A   1      40.256  27.717  28.768  1.00  0.00     0.049 A 
ATOM     38  N   UNL A   1      41.920  29.871  30.042  1.00  0.00    -0.248 NA
ATOM     39  C   UNL A   1      40.043  31.260  30.053  1.00  0.00     0.031 C 
ATOM     40  C   UNL A   1      39.507  26.639  28.115  1.00  0.00     0.029 A 
ATOM     41  N   UNL A   1      41.515  27.192  28.927  1.00  0.00    -0.354 N 
ATOM     42  C   UNL A   1      42.267  31.109  30.571  1.00  0.00     0.074 A 
ATOM     43  C   UNL A   1      41.087  31.944  30.498  1.00  0.00     0.031 C 
ATOM     44  C   UNL A   1      40.312  25.575  27.959  1.00  0.00     0.029 A 
ATOM     45  C   UNL A   1      41.644  25.907  28.452  1.00  0.00     0.049 A 
ATOM     46  H   UNL A   1      42.257  27.690  29.342  1.00  0.00     0.167 HD
ATOM     47  C   UNL A   1      43.453  31.511  31.090  1.00  0.00     0.031 A 
ATOM     48  C   UNL A   1      42.715  25.089  28.408  1.00  0.00     0.031 A 
ATOM     49  C   UNL A   1      44.626  30.678  31.162  1.00  0.00     0.049 A 
ATOM     50  C   UNL A   1      44.030  25.569  28.960  1.00  0.00     0.074 A 
ATOM     51  C   UNL A   1      45.860  30.979  31.711  1.00  0.00     0.029 A 
ATOM     52  N   UNL A   1      44.714  29.386  30.666  1.00  0.00    -0.354 N 
ATOM     53  N   UNL A   1      44.319  26.722  29.513  1.00  0.00    -0.248 NA
ATOM     54  C   UNL A   1      45.160  24.632  28.890  1.00  0.00     0.031 C 
ATOM     55  C   UNL A   1      46.712  29.892  31.492  1.00  0.00     0.029 A 
ATOM     56  C   UNL A   1      45.990  28.887  30.871  1.00  0.00     0.049 A 
ATOM     57  H   UNL A   1      43.979  28.897  30.231  1.00  0.00     0.167 HD
ATOM     58  C   UNL A   1      45.656  26.636  29.888  1.00  0.00     0.074 A 
ATOM     59  C   UNL A   1      46.112  25.314  29.510  1.00  0.00     0.031 C 
ATOM     60  C   UNL A   1      46.434  27.568  30.492  1.00  0.00     0.031 A 
BRANCH  47  61
ATOM     61  C   UNL A   1      43.545  32.921  31.615  1.00  0.00    -0.014 A 
ATOM     62  C   UNL A   1      43.477  33.190  32.994  1.00  0.00     0.010 A 
ATOM     63  C   UNL A   1      43.750  33.989  30.721  1.00  0.00     0.010 A 
ATOM     64  C   UNL A   1      43.568  34.502  33.466  1.00  0.00     0.020 A 
ATOM     65  C   UNL A   1      43.875  35.300  31.192  1.00  0.00     0.020 A 
ATOM     66  C   UNL A   1      43.766  35.550  32.561  1.00  0.00     0.054 A 
BRANCH  66  67
ATOM     67  S   UNL A   1      43.905  37.239  33.207  1.00  0.00     0.124 S 
ATOM     68  O   UNL A   1      45.151  37.168  33.968  1.00  0.00    -0.237 OA
ATOM     69  O   UNL A   1      43.959  38.042  31.989  1.00  0.00    -0.237 OA
ATOM     70  O   UNL A   1      42.695  37.406  34.008  1.00  0.00    -0.744 OA
ENDBRANCH  66  67
ENDBRANCH  47  61
BRANCH  48  71
ATOM     71  C   UNL A   1      42.584  23.724  27.826  1.00  0.00    -0.014 A 
ATOM     72  C   UNL A   1      42.849  23.499  26.463  1.00  0.00     0.010 A 
ATOM     73  C   UNL A   1      42.200  22.637  28.633  1.00  0.00     0.010 A 
ATOM     74  C   UNL A   1      42.714  22.220  25.914  1.00  0.00     0.020 A 
ATOM     75  C   UNL A   1      42.096  21.351  28.096  1.00  0.00     0.020 A 
ATOM     76  C   UNL A   1      42.341  21.152  26.736  1.00  0.00     0.054 A 
BRANCH  76  77
ATOM     77  S   UNL A   1      42.222  19.493  26.013  1.00  0.00     0.124 S 
ATOM     78  O   UNL A   1      43.116  19.596  24.864  1.00  0.00    -0.237 OA
ATOM     79  O   UNL A   1      42.688  18.640  27.104  1.00  0.00    -0.237 OA
ATOM     80  O   UNL A   1      40.802  19.361  25.692  1.00  0.00    -0.744 OA
ENDBRANCH  76  77
ENDBRANCH  48  71
BRANCH  60  81
ATOM     81  C   UNL A   1      47.852  27.182  30.824  1.00  0.00    -0.014 A 
ATOM     82  C   UNL A   1      48.162  26.458  31.989  1.00  0.00     0.010 A 
ATOM     83  C   UNL A   1      48.885  27.503  29.924  1.00  0.00     0.010 A 
ATOM     84  C   UNL A   1      49.484  26.092  32.262  1.00  0.00     0.020 A 
ATOM     85  C   UNL A   1      50.202  27.110  30.177  1.00  0.00     0.020 A 
ATOM     86  C   UNL A   1      50.495  26.419  31.353  1.00  0.00     0.054 A 
BRANCH  86  87
ATOM     87  S   UNL A   1      52.193  25.893  31.710  1.00  0.00     0.124 S 
ATOM     88  O   UNL A   1      51.998  24.519  32.165  1.00  0.00    -0.237 OA
ATOM     89  O   UNL A   1      52.852  26.038  30.414  1.00  0.00    -0.237 OA
ATOM     90  O   UNL A   1      52.639  26.830  32.738  1.00  0.00    -0.744 OA
ENDBRANCH  86  87
ENDBRANCH  60  81
ENDBRANCH  34  35
ENDBRANCH  26  29
ENDBRANCH  24  25
ENDBRANCH   1  24
TORSDOF 16
ENDMDL
MODEL 2
REMARK VINA RESULT:     -10.8      1.045      1.882
REMARK SMILES C[C@@H]1[C@@H](C(=O)NCCCNC(=O)c2ccc(-c3c4nc(c(-c5ccc(S(=O)(=O)[O-])cc5)c5ccc([nH]5)c(-c5ccc(S(=O)(=O)[O-])cc5)c5nc(c(-c6ccc(S(=O)(=O)[O-])cc6)c6ccc3[nH]6)C=C5)C=C4)cc2)CCN1C(=O)[C@]1([NH3+])CCOC1
REMARK SMILES IDX 8 1 7 2 6 3 4 4 5 5 3 7 1 8 2 9 75 10 73 11 74 12 76 13
REMARK SMILES IDX 77 14 78 15 80 16 83 17 81 18 82 19 79 20 9 24 10 25 11 26
REMARK SMILES IDX 12 28 13 29 14 30 72 31 15 32 71 33 16 34 17 35 18 36 65 37
REMARK SMILES IDX 19 38 70 39 64 40 66 41 20 42 69 43 63 44 62 45 21 47 51 48
REMARK SMILES IDX 32 49 50 50 33 51 36 52 49 53 67 54 34 55 35 56 48 58 68 59
REMARK SMILES IDX 37 60 22 61 23 62 31 63 24 64 30 65 25 66 26 67 27 68 28 69
REMARK SMILES IDX 29 70 52 71 53 72 61 73 54 74 60 75 55 76 56 77 57 78 58 79
REMARK SMILES IDX 59 80 38 81 39 82 47 83 40 84 46 85 41 86 42 87 43 88 44 89
REMARK SMILES IDX 45 90
REMARK H PARENT 6 6 79 21 79 22 79 23 10 27 66 46 36 57
REMARK Flexibility Score: inf
ROOT
ATOM      1  C   UNL A   1      31.898  27.767  27.038  1.00  0.00     0.042 C 
ENDROOT
BRANCH   1   2
ATOM      2  C   UNL A   1      31.547  27.499  25.580  1.00  0.00     0.117 C 
BRANCH   2   3
ATOM      3  N   UNL A   1      32.679  26.983  24.830  1.00  0.00    -0.356 N 
ATOM      4  C   UNL A   1      32.872  25.763  24.259  1.00  0.00     0.225 C 
ATOM      5  O   UNL A   1      33.912  25.585  23.623  1.00  0.00    -0.275 OA
ATOM      6  H   UNL A   1      33.423  27.617  24.716  1.00  0.00     0.163 HD
BRANCH   4   7
ATOM      7  C   UNL A   1      31.796  24.694  24.387  1.00  0.00     0.102 C 
ATOM      8  C   UNL A   1      30.863  23.004  25.978  1.00  0.00     0.032 C 
ATOM      9  C   UNL A   1      32.158  23.616  25.425  1.00  0.00     0.094 C 
ATOM     10  N   UNL A   1      32.926  22.618  24.670  1.00  0.00    -0.334 N 
ATOM     11  C   UNL A   1      31.653  23.883  23.096  1.00  0.00     0.037 C 
ATOM     12  C   UNL A   1      32.709  22.798  23.236  1.00  0.00     0.121 C 
BRANCH  10  13
ATOM     13  C   UNL A   1      33.857  21.678  25.062  1.00  0.00     0.286 C 
ATOM     14  O   UNL A   1      33.662  20.490  24.745  1.00  0.00    -0.267 OA
BRANCH  13  15
ATOM     15  C   UNL A   1      35.180  21.999  25.861  1.00  0.00     0.199 C 
ATOM     16  C   UNL A   1      35.594  23.458  25.874  1.00  0.00     0.110 C 
ATOM     17  C   UNL A   1      36.406  21.268  25.325  1.00  0.00     0.239 C 
ATOM     18  C   UNL A   1      36.834  23.540  25.008  1.00  0.00     0.167 C 
ATOM     19  O   UNL A   1      37.232  22.222  24.638  1.00  0.00    -0.374 OA
BRANCH  15  20
ATOM     20  N   UNL A   1      34.935  21.569  27.280  1.00  0.00    -0.343 N 
ATOM     21  H   UNL A   1      35.650  21.973  27.886  1.00  0.00     0.345 HD
ATOM     22  H   UNL A   1      34.975  20.552  27.339  1.00  0.00     0.345 HD
ATOM     23  H   UNL A   1      34.014  21.891  27.579  1.00  0.00     0.345 HD
ENDBRANCH  15  20
ENDBRANCH  13  15
ENDBRANCH  10  13
ENDBRANCH   4   7
ENDBRANCH   2   3
ENDBRANCH   1   2
BRANCH   1  24
ATOM     24  C   UNL A   1      33.288  28.354  27.265  1.00  0.00     0.118 C 
BRANCH  24  25
ATOM     25  N   UNL A   1      33.280  29.801  27.431  1.00  0.00    -0.352 N 
ATOM     26  C   UNL A   1      34.253  30.640  27.926  1.00  0.00     0.251 C 
ATOM     27  H   UNL A   1      32.450  30.248  27.146  1.00  0.00     0.163 HD
ATOM     28  O   UNL A   1      33.987  31.820  28.119  1.00  0.00    -0.269 OA
BRANCH  26  29
ATOM     29  C   UNL A   1      35.602  30.120  28.252  1.00  0.00     0.039 A 
ATOM     30  C   UNL A   1      36.568  30.081  27.243  1.00  0.00     0.014 A 
ATOM     31  C   UNL A   1      35.916  29.664  29.534  1.00  0.00     0.014 A 
ATOM     32  C   UNL A   1      37.868  29.660  27.540  1.00  0.00     0.010 A 
ATOM     33  C   UNL A   1      37.231  29.322  29.848  1.00  0.00     0.010 A 
ATOM     34  C   UNL A   1      38.223  29.318  28.856  1.00  0.00    -0.014 A 
BRANCH  34  35
ATOM     35  C   UNL A   1      39.625  28.973  29.214  1.00  0.00     0.031 A 
ATOM     36  C   UNL A   1      40.511  29.984  29.894  1.00  0.00     0.074 A 
ATOM     37  C   UNL A   1      40.122  27.766  28.874  1.00  0.00     0.049 A 
ATOM     38  N   UNL A   1      41.772  29.880  30.231  1.00  0.00    -0.248 NA
ATOM     39  C   UNL A   1      39.910  31.288  30.216  1.00  0.00     0.031 C 
ATOM     40  C   UNL A   1      39.380  26.708  28.183  1.00  0.00     0.029 A 
ATOM     41  N   UNL A   1      41.371  27.226  29.058  1.00  0.00    -0.354 N 
ATOM     42  C   UNL A   1      42.117  31.104  30.791  1.00  0.00     0.074 A 
ATOM     43  C   UNL A   1      40.948  31.953  30.701  1.00  0.00     0.031 C 
ATOM     44  C   UNL A   1      40.177  25.638  28.030  1.00  0.00     0.029 A 
ATOM     45  C   UNL A   1      41.499  25.947  28.565  1.00  0.00     0.049 A 
ATOM     46  H   UNL A   1      42.106  27.707  29.502  1.00  0.00     0.167 HD
ATOM     47  C   UNL A   1      43.292  31.485  31.348  1.00  0.00     0.031 A 
ATOM     48  C   UNL A   1      42.562  25.119  28.534  1.00  0.00     0.031 A 
ATOM     49  C   UNL A   1      44.455  30.639  31.437  1.00  0.00     0.049 A 
ATOM     50  C   UNL A   1      43.867  25.575  29.130  1.00  0.00     0.074 A 
ATOM     51  C   UNL A   1      45.676  30.916  32.025  1.00  0.00     0.029 A 
ATOM     52  N   UNL A   1      44.543  29.354  30.921  1.00  0.00    -0.354 N 
ATOM     53  N   UNL A   1      44.152  26.715  29.711  1.00  0.00    -0.248 NA
ATOM     54  C   UNL A   1      44.988  24.628  29.074  1.00  0.00     0.031 C 
ATOM     55  C   UNL A   1      46.523  29.825  31.810  1.00  0.00     0.029 A 
ATOM     56  C   UNL A   1      45.808  28.838  31.152  1.00  0.00     0.049 A 
ATOM     57  H   UNL A   1      43.815  28.880  30.458  1.00  0.00     0.167 HD
ATOM     58  C   UNL A   1      45.478  26.609  30.120  1.00  0.00     0.074 A 
ATOM     59  C   UNL A   1      45.931  25.289  29.731  1.00  0.00     0.031 C 
ATOM     60  C   UNL A   1      46.249  27.522  30.761  1.00  0.00     0.031 A 
BRANCH  47  61
ATOM     61  C   UNL A   1      43.384  32.885  31.900  1.00  0.00    -0.014 A 
ATOM     62  C   UNL A   1      43.108  33.152  33.253  1.00  0.00     0.010 A 
ATOM     63  C   UNL A   1      43.799  33.941  31.067  1.00  0.00     0.010 A 
ATOM     64  C   UNL A   1      43.202  34.455  33.752  1.00  0.00     0.020 A 
ATOM     65  C   UNL A   1      43.926  35.239  31.570  1.00  0.00     0.020 A 
ATOM     66  C   UNL A   1      43.610  35.491  32.906  1.00  0.00     0.054 A 
BRANCH  66  67
ATOM     67  S   UNL A   1      43.746  37.165  33.589  1.00  0.00     0.124 S 
ATOM     68  O   UNL A   1      44.965  37.066  34.388  1.00  0.00    -0.237 OA
ATOM     69  O   UNL A   1      43.848  37.992  32.389  1.00  0.00    -0.237 OA
ATOM     70  O   UNL A   1      42.512  37.331  34.353  1.00  0.00    -0.744 OA
ENDBRANCH  66  67
ENDBRANCH  47  61
BRANCH  48  71
ATOM     71  C   UNL A   1      42.433  23.765  27.925  1.00  0.00    -0.014 A 
ATOM     72  C   UNL A   1      42.819  23.542  26.591  1.00  0.00     0.010 A 
ATOM     73  C   UNL A   1      41.931  22.688  28.678  1.00  0.00     0.010 A 
ATOM     74  C   UNL A   1      42.686  22.275  26.015  1.00  0.00     0.020 A 
ATOM     75  C   UNL A   1      41.827  21.412  28.117  1.00  0.00     0.020 A 
ATOM     76  C   UNL A   1      42.194  21.216  26.784  1.00  0.00     0.054 A 
BRANCH  76  77
ATOM     77  S   UNL A   1      42.079  19.570  26.031  1.00  0.00     0.124 S 
ATOM     78  O   UNL A   1      42.976  19.694  24.887  1.00  0.00    -0.237 OA
ATOM     79  O   UNL A   1      42.543  18.698  27.108  1.00  0.00    -0.237 OA
ATOM     80  O   UNL A   1      40.660  19.442  25.705  1.00  0.00    -0.744 OA
ENDBRANCH  76  77
ENDBRANCH  48  71
BRANCH  60  81
ATOM     81  C   UNL A   1      47.653  27.115  31.125  1.00  0.00    -0.014 A 
ATOM     82  C   UNL A   1      47.949  26.527  32.367  1.00  0.00     0.010 A 
ATOM     83  C   UNL A   1      48.685  27.274  30.181  1.00  0.00     0.010 A 
ATOM     84  C   UNL A   1      49.257  26.137  32.671  1.00  0.00     0.020 A 
ATOM     85  C   UNL A   1      49.987  26.855  30.468  1.00  0.00     0.020 A 
ATOM     86  C   UNL A   1      50.268  26.302  31.718  1.00  0.00     0.054 A 
BRANCH  86  87
ATOM     87  S   UNL A   1      51.946  25.747  32.121  1.00  0.00     0.124 S 
ATOM     88  O   UNL A   1      52.737  26.380  31.070  1.00  0.00    -0.237 OA
ATOM     89  O   UNL A   1      52.145  26.281  33.466  1.00  0.00    -0.237 OA
ATOM     90  O   UNL A   1      51.859  24.290  32.042  1.00  0.00    -0.744 OA
ENDBRANCH  86  87
ENDBRANCH  60  81
ENDBRANCH  34  35
ENDBRANCH  26  29
ENDBRANCH  24  25
ENDBRANCH   1  24
TORSDOF 16
ENDMDL
MODEL 3
REMARK VINA RESULT:     -10.6      2.867      9.611
REMARK SMILES C[C@@H]1[C@@H](C(=O)NCCCNC(=O)c2ccc(-c3c4nc(c(-c5ccc(S(=O)(=O)[O-])cc5)c5ccc([nH]5)c(-c5ccc(S(=O)(=O)[O-])cc5)c5nc(c(-c6ccc(S(=O)(=O)[O-])cc6)c6ccc3[nH]6)C=C5)C=C4)cc2)CCN1C(=O)[C@]1([NH3+])CCOC1
REMARK SMILES IDX 8 1 7 2 6 3 4 4 5 5 3 7 1 8 2 9 75 10 73 11 74 12 76 13
REMARK SMILES IDX 77 14 78 15 80 16 83 17 81 18 82 19 79 20 9 24 10 25 11 26
REMARK SMILES IDX 12 28 13 29 14 30 72 31 15 32 71 33 16 34 17 35 18 36 65 37
REMARK SMILES IDX 19 38 70 39 64 40 66 41 20 42 69 43 63 44 62 45 21 47 51 48
REMARK SMILES IDX 32 49 50 50 33 51 36 52 49 53 67 54 34 55 35 56 48 58 68 59
REMARK SMILES IDX 37 60 22 61 23 62 31 63 24 64 30 65 25 66 26 67 27 68 28 69
REMARK SMILES IDX 29 70 52 71 53 72 61 73 54 74 60 75 55 76 56 77 57 78 58 79
REMARK SMILES IDX 59 80 38 81 39 82 47 83 40 84 46 85 41 86 42 87 43 88 44 89
REMARK SMILES IDX 45 90
REMARK H PARENT 6 6 79 21 79 22 79 23 10 27 66 46 36 57
REMARK Flexibility Score: inf
ROOT
ATOM      1  C   UNL A   1      35.382  22.882  25.486  1.00  0.00     0.042 C 
ENDROOT
BRANCH   1   2
ATOM      2  C   UNL A   1      34.282  23.220  26.485  1.00  0.00     0.117 C 
BRANCH   2   3
ATOM      3  N   UNL A   1      32.969  23.248  25.865  1.00  0.00    -0.356 N 
ATOM      4  C   UNL A   1      32.136  24.297  25.620  1.00  0.00     0.225 C 
ATOM      5  O   UNL A   1      31.082  24.066  25.026  1.00  0.00    -0.275 OA
ATOM      6  H   UNL A   1      32.629  22.372  25.574  1.00  0.00     0.163 HD
BRANCH   4   7
ATOM      7  C   UNL A   1      32.548  25.699  26.043  1.00  0.00     0.102 C 
ATOM      8  C   UNL A   1      31.660  27.798  27.077  1.00  0.00     0.032 C 
ATOM      9  C   UNL A   1      31.360  26.680  26.069  1.00  0.00     0.094 C 
ATOM     10  N   UNL A   1      31.292  27.214  24.703  1.00  0.00    -0.334 N 
ATOM     11  C   UNL A   1      33.490  26.341  25.020  1.00  0.00     0.037 C 
ATOM     12  C   UNL A   1      32.546  26.955  23.999  1.00  0.00     0.121 C 
BRANCH  10  13
ATOM     13  C   UNL A   1      30.257  27.773  23.980  1.00  0.00     0.286 C 
ATOM     14  O   UNL A   1      29.286  27.049  23.689  1.00  0.00    -0.267 OA
BRANCH  13  15
ATOM     15  C   UNL A   1      30.192  29.280  23.519  1.00  0.00     0.199 C 
ATOM     16  C   UNL A   1      28.801  29.876  23.437  1.00  0.00     0.110 C 
ATOM     17  C   UNL A   1      30.782  29.518  22.132  1.00  0.00     0.239 C 
ATOM     18  C   UNL A   1      28.518  30.058  21.960  1.00  0.00     0.167 C 
ATOM     19  O   UNL A   1      29.699  29.755  21.219  1.00  0.00    -0.374 OA
BRANCH  15  20
ATOM     20  N   UNL A   1      30.981  30.068  24.527  1.00  0.00    -0.343 N 
ATOM     21  H   UNL A   1      31.361  29.435  25.231  1.00  0.00     0.345 HD
ATOM     22  H   UNL A   1      30.371  30.751  24.978  1.00  0.00     0.345 HD
ATOM     23  H   UNL A   1      31.746  30.553  24.057  1.00  0.00     0.345 HD
ENDBRANCH  15  20
ENDBRANCH  13  15
ENDBRANCH  10  13
ENDBRANCH   4   7
ENDBRANCH   2   3
ENDBRANCH   1   2
BRANCH   1  24
ATOM     24  C   UNL A   1      36.699  23.618  25.710  1.00  0.00     0.118 C 
BRANCH  24  25
ATOM     25  N   UNL A   1      37.837  22.723  25.874  1.00  0.00    -0.352 N 
ATOM     26  C   UNL A   1      39.097  22.975  26.367  1.00  0.00     0.251 C 
ATOM     27  H   UNL A   1      37.680  21.794  25.588  1.00  0.00     0.163 HD
ATOM     28  O   UNL A   1      39.960  22.110  26.282  1.00  0.00    -0.269 OA
BRANCH  26  29
ATOM     29  C   UNL A   1      39.421  24.290  26.970  1.00  0.00     0.039 A 
ATOM     30  C   UNL A   1      38.988  24.556  28.272  1.00  0.00     0.014 A 
ATOM     31  C   UNL A   1      40.136  25.259  26.262  1.00  0.00     0.014 A 
ATOM     32  C   UNL A   1      39.339  25.761  28.889  1.00  0.00     0.010 A 
ATOM     33  C   UNL A   1      40.553  26.423  26.906  1.00  0.00     0.010 A 
ATOM     34  C   UNL A   1      40.163  26.688  28.228  1.00  0.00    -0.014 A 
BRANCH  34  35
ATOM     35  C   UNL A   1      40.637  27.924  28.905  1.00  0.00     0.031 A 
ATOM     36  C   UNL A   1      42.026  27.992  29.486  1.00  0.00     0.074 A 
ATOM     37  C   UNL A   1      39.797  28.968  29.052  1.00  0.00     0.049 A 
ATOM     38  N   UNL A   1      42.591  28.963  30.158  1.00  0.00    -0.248 NA
ATOM     39  C   UNL A   1      42.881  26.808  29.309  1.00  0.00     0.031 C 
ATOM     40  C   UNL A   1      38.414  29.018  28.566  1.00  0.00     0.029 A 
ATOM     41  N   UNL A   1      39.977  30.188  29.656  1.00  0.00    -0.354 N 
ATOM     42  C   UNL A   1      43.859  28.504  30.493  1.00  0.00     0.074 A 
ATOM     43  C   UNL A   1      43.962  27.148  29.996  1.00  0.00     0.031 C 
ATOM     44  C   UNL A   1      37.886  30.216  28.865  1.00  0.00     0.029 A 
ATOM     45  C   UNL A   1      38.868  31.001  29.605  1.00  0.00     0.049 A 
ATOM     46  H   UNL A   1      40.821  30.455  30.087  1.00  0.00     0.167 HD
ATOM     47  C   UNL A   1      44.857  29.155  31.138  1.00  0.00     0.031 A 
ATOM     48  C   UNL A   1      38.659  32.236  30.104  1.00  0.00     0.031 A 
ATOM     49  C   UNL A   1      44.753  30.504  31.632  1.00  0.00     0.049 A 
ATOM     50  C   UNL A   1      39.771  32.927  30.846  1.00  0.00     0.074 A 
ATOM     51  C   UNL A   1      45.724  31.267  32.257  1.00  0.00     0.029 A 
ATOM     52  N   UNL A   1      43.612  31.290  31.563  1.00  0.00    -0.354 N 
ATOM     53  N   UNL A   1      40.985  32.497  31.096  1.00  0.00    -0.248 NA
ATOM     54  C   UNL A   1      39.488  34.273  31.363  1.00  0.00     0.031 C 
ATOM     55  C   UNL A   1      45.152  32.490  32.621  1.00  0.00     0.029 A 
ATOM     56  C   UNL A   1      43.847  32.518  32.159  1.00  0.00     0.049 A 
ATOM     57  H   UNL A   1      42.761  31.014  31.152  1.00  0.00     0.167 HD
ATOM     58  C   UNL A   1      41.620  33.535  31.771  1.00  0.00     0.074 A 
ATOM     59  C   UNL A   1      40.661  34.615  31.876  1.00  0.00     0.031 C 
ATOM     60  C   UNL A   1      42.885  33.588  32.258  1.00  0.00     0.031 A 
BRANCH  47  61
ATOM     61  C   UNL A   1      46.151  28.412  31.356  1.00  0.00    -0.014 A 
ATOM     62  C   UNL A   1      46.359  27.637  32.511  1.00  0.00     0.010 A 
ATOM     63  C   UNL A   1      47.156  28.451  30.371  1.00  0.00     0.010 A 
ATOM     64  C   UNL A   1      47.562  26.949  32.697  1.00  0.00     0.020 A 
ATOM     65  C   UNL A   1      48.348  27.739  30.538  1.00  0.00     0.020 A 
ATOM     66  C   UNL A   1      48.550  27.006  31.709  1.00  0.00     0.054 A 
BRANCH  66  67
ATOM     67  S   UNL A   1      50.089  26.084  31.968  1.00  0.00     0.124 S 
ATOM     68  O   UNL A   1      49.594  24.812  32.488  1.00  0.00    -0.237 OA
ATOM     69  O   UNL A   1      50.660  26.034  30.625  1.00  0.00    -0.237 OA
ATOM     70  O   UNL A   1      50.828  26.903  32.926  1.00  0.00    -0.744 OA
ENDBRANCH  66  67
ENDBRANCH  47  61
BRANCH  48  71
ATOM     71  C   UNL A   1      37.341  32.903  29.910  1.00  0.00    -0.014 A 
ATOM     72  C   UNL A   1      37.106  33.705  28.779  1.00  0.00     0.010 A 
ATOM     73  C   UNL A   1      36.310  32.736  30.853  1.00  0.00     0.010 A 
ATOM     74  C   UNL A   1      35.873  34.341  28.602  1.00  0.00     0.020 A 
ATOM     75  C   UNL A   1      35.065  33.344  30.665  1.00  0.00     0.020 A 
ATOM     76  C   UNL A   1      34.859  34.153  29.547  1.00  0.00     0.054 A 
BRANCH  76  77
ATOM     77  S   UNL A   1      33.252  34.948  29.271  1.00  0.00     0.124 S 
ATOM     78  O   UNL A   1      32.681  34.958  30.615  1.00  0.00    -0.237 OA
ATOM     79  O   UNL A   1      33.634  36.253  28.736  1.00  0.00    -0.237 OA
ATOM     80  O   UNL A   1      32.591  34.061  28.316  1.00  0.00    -0.744 OA
ENDBRANCH  76  77
ENDBRANCH  48  71
BRANCH  60  81
ATOM     81  C   UNL A   1      43.326  34.871  32.913  1.00  0.00    -0.014 A 
ATOM     82  C   UNL A   1      43.915  35.910  32.171  1.00  0.00     0.010 A 
ATOM     83  C   UNL A   1      43.094  35.059  34.288  1.00  0.00     0.010 A 
ATOM     84  C   UNL A   1      44.294  37.100  32.800  1.00  0.00     0.020 A 
ATOM     85  C   UNL A   1      43.441  36.260  34.914  1.00  0.00     0.020 A 
ATOM     86  C   UNL A   1      44.053  37.268  34.167  1.00  0.00     0.054 A 
BRANCH  86  87
ATOM     87  S   UNL A   1      44.513  38.839  34.948  1.00  0.00     0.124 S 
ATOM     88  O   UNL A   1      45.924  38.954  34.592  1.00  0.00    -0.237 OA
ATOM     89  O   UNL A   1      43.620  39.793  34.296  1.00  0.00    -0.237 OA
ATOM     90  O   UNL A   1      44.246  38.613  36.366  1.00  0.00    -0.744 OA
ENDBRANCH  86  87
ENDBRANCH  60  81
ENDBRANCH  34  35
ENDBRANCH  26  29
ENDBRANCH  24  25
ENDBRANCH   1  24
TORSDOF 16
ENDMDL
