MODEL 1
REMARK VINA RESULT:     -12.4      0.000      0.000
REMARK SMILES Cc1ccc(OCCC(=O)N2C[C@H](O)C[C@@H]2C(=O)NCCCNC(=O)c2ccc(-c3c4nc(c(-c5ccc(S(=O)(=O)[O-])cc5)c5ccc([nH]5)c(-c5ccc(S(=O)(=O)[O-])cc5)c5nc(c(-c6ccc(S(=O)(=O)[O-])cc6)c6ccc3[nH]6)C=C5)C=C4)cc2)cc1
REMARK SMILES IDX 20 1 19 2 17 3 18 4 16 6 11 7 12 8 13 9 15 10 9 11 10 12
REMARK SMILES IDX 8 13 7 14 6 15 5 16 1 17 2 18 3 19 87 20 4 21 86 22 14 23
REMARK SMILES IDX 21 25 22 26 23 27 24 28 25 30 26 31 27 32 85 33 28 34 84 35
REMARK SMILES IDX 29 36 30 37 31 38 78 39 32 40 83 41 77 42 79 43 33 44 82 45
REMARK SMILES IDX 76 46 75 47 34 49 64 50 45 51 63 52 46 53 49 54 62 55 80 56
REMARK SMILES IDX 47 57 48 58 61 60 81 61 50 62 35 63 36 64 44 65 37 66 43 67
REMARK SMILES IDX 38 68 39 69 40 70 41 71 42 72 65 73 66 74 74 75 67 76 73 77
REMARK SMILES IDX 68 78 69 79 70 80 71 81 72 82 51 83 52 84 60 85 53 86 59 87
REMARK SMILES IDX 54 88 55 89 56 90 57 91 58 92
REMARK H PARENT 19 5 14 24 23 29 79 48 49 59
REMARK Flexibility Score: inf
ROOT
ATOM      1  C   UNL A   1      32.237  30.139  25.749  1.00  0.00     0.117 C 
ENDROOT
BRANCH   1   2
ATOM      2  N   UNL A   1      33.033  29.591  24.660  1.00  0.00    -0.354 N 
ATOM      3  C   UNL A   1      32.651  28.846  23.583  1.00  0.00     0.242 C 
ATOM      4  O   UNL A   1      33.373  28.916  22.577  1.00  0.00    -0.273 OA
ATOM      5  H   UNL A   1      33.997  29.789  24.707  1.00  0.00     0.163 HD
BRANCH   3   6
ATOM      6  C   UNL A   1      31.447  27.859  23.585  1.00  0.00     0.177 C 
ATOM      7  N   UNL A   1      31.636  26.483  24.047  1.00  0.00    -0.328 N 
ATOM      8  C   UNL A   1      31.768  25.572  22.914  1.00  0.00     0.152 C 
ATOM      9  C   UNL A   1      31.717  26.434  21.660  1.00  0.00     0.136 C 
ATOM     10  C   UNL A   1      30.981  27.685  22.125  1.00  0.00     0.069 C 
BRANCH   7  11
ATOM     11  C   UNL A   1      31.279  26.068  25.322  1.00  0.00     0.226 C 
ATOM     12  O   UNL A   1      30.135  25.708  25.599  1.00  0.00    -0.275 OA
BRANCH  11  13
ATOM     13  C   UNL A   1      32.335  26.206  26.414  1.00  0.00     0.141 C 
BRANCH  13  14
ATOM     14  C   UNL A   1      33.711  25.618  26.128  1.00  0.00     0.239 C 
BRANCH  14  15
ATOM     15  O   UNL A   1      33.664  24.330  25.492  1.00  0.00    -0.493 OA
BRANCH  15  16
ATOM     16  C   UNL A   1      34.860  23.704  25.281  1.00  0.00     0.119 A 
ATOM     17  C   UNL A   1      38.340  21.191  25.329  1.00  0.00     0.044 C 
ATOM     18  C   UNL A   1      37.148  22.091  25.208  1.00  0.00    -0.051 A 
ATOM     19  C   UNL A   1      35.928  21.600  24.730  1.00  0.00     0.007 A 
ATOM     20  C   UNL A   1      37.236  23.428  25.604  1.00  0.00     0.007 A 
ATOM     21  C   UNL A   1      34.788  22.411  24.753  1.00  0.00     0.046 A 
ATOM     22  C   UNL A   1      36.100  24.233  25.629  1.00  0.00     0.046 A 
ENDBRANCH  15  16
ENDBRANCH  14  15
ENDBRANCH  13  14
ENDBRANCH  11  13
ENDBRANCH   7  11
BRANCH   9  23
ATOM     23  O   UNL A   1      33.014  26.726  21.157  1.00  0.00    -0.391 OA
ATOM     24  H   UNL A   1      32.958  27.462  20.528  1.00  0.00     0.211 HD
ENDBRANCH   9  23
ENDBRANCH   3   6
ENDBRANCH   1   2
BRANCH   1  25
ATOM     25  C   UNL A   1      33.023  30.348  27.034  1.00  0.00     0.042 C 
BRANCH  25  26
ATOM     26  C   UNL A   1      34.501  30.010  26.965  1.00  0.00     0.118 C 
BRANCH  26  27
ATOM     27  N   UNL A   1      35.339  31.088  27.502  1.00  0.00    -0.352 N 
ATOM     28  C   UNL A   1      36.625  30.991  28.013  1.00  0.00     0.251 C 
ATOM     29  H   UNL A   1      34.941  31.989  27.500  1.00  0.00     0.163 HD
ATOM     30  O   UNL A   1      37.197  31.903  28.577  1.00  0.00    -0.269 OA
BRANCH  28  31
ATOM     31  C   UNL A   1      37.313  29.715  27.738  1.00  0.00     0.039 A 
ATOM     32  C   UNL A   1      37.221  28.758  28.756  1.00  0.00     0.014 A 
ATOM     33  C   UNL A   1      38.374  29.740  26.840  1.00  0.00     0.014 A 
ATOM     34  C   UNL A   1      38.327  27.971  29.039  1.00  0.00     0.010 A 
ATOM     35  C   UNL A   1      39.501  29.020  27.183  1.00  0.00     0.010 A 
ATOM     36  C   UNL A   1      39.499  28.200  28.328  1.00  0.00    -0.014 A 
BRANCH  36  37
ATOM     37  C   UNL A   1      40.803  27.690  28.733  1.00  0.00     0.031 A 
ATOM     38  C   UNL A   1      41.096  26.258  28.500  1.00  0.00     0.074 A 
ATOM     39  C   UNL A   1      41.769  28.519  29.198  1.00  0.00     0.049 A 
ATOM     40  N   UNL A   1      42.112  25.630  28.985  1.00  0.00    -0.248 NA
ATOM     41  C   UNL A   1      40.192  25.383  27.749  1.00  0.00     0.031 C 
ATOM     42  C   UNL A   1      43.203  28.235  29.260  1.00  0.00     0.029 A 
ATOM     43  N   UNL A   1      41.638  29.707  29.927  1.00  0.00    -0.354 N 
ATOM     44  C   UNL A   1      42.182  24.419  28.339  1.00  0.00     0.074 A 
ATOM     45  C   UNL A   1      40.903  24.255  27.699  1.00  0.00     0.031 C 
ATOM     46  C   UNL A   1      43.755  29.003  30.210  1.00  0.00     0.029 A 
ATOM     47  C   UNL A   1      42.668  29.684  30.889  1.00  0.00     0.049 A 
ATOM     48  H   UNL A   1      40.965  30.413  29.795  1.00  0.00     0.167 HD
ATOM     49  C   UNL A   1      43.379  23.774  28.281  1.00  0.00     0.031 A 
ATOM     50  C   UNL A   1      42.466  29.667  32.240  1.00  0.00     0.031 A 
ATOM     51  C   UNL A   1      44.313  24.310  29.269  1.00  0.00     0.049 A 
ATOM     52  C   UNL A   1      43.091  28.467  32.926  1.00  0.00     0.074 A 
ATOM     53  C   UNL A   1      45.447  25.101  29.198  1.00  0.00     0.029 A 
ATOM     54  N   UNL A   1      43.944  24.273  30.611  1.00  0.00    -0.354 N 
ATOM     55  N   UNL A   1      43.535  27.415  32.293  1.00  0.00    -0.248 NA
ATOM     56  C   UNL A   1      43.232  28.337  34.373  1.00  0.00     0.031 C 
ATOM     57  C   UNL A   1      45.685  25.633  30.498  1.00  0.00     0.029 A 
ATOM     58  C   UNL A   1      44.728  25.127  31.360  1.00  0.00     0.049 A 
ATOM     59  H   UNL A   1      43.222  23.713  30.976  1.00  0.00     0.167 HD
ATOM     60  C   UNL A   1      43.992  26.485  33.192  1.00  0.00     0.074 A 
ATOM     61  C   UNL A   1      43.796  27.120  34.484  1.00  0.00     0.031 C 
ATOM     62  C   UNL A   1      44.476  25.271  32.792  1.00  0.00     0.031 A 
BRANCH  49  63
ATOM     63  C   UNL A   1      43.762  22.819  27.167  1.00  0.00    -0.014 A 
ATOM     64  C   UNL A   1      42.907  21.748  26.838  1.00  0.00     0.010 A 
ATOM     65  C   UNL A   1      45.005  22.836  26.499  1.00  0.00     0.010 A 
ATOM     66  C   UNL A   1      43.285  20.744  25.926  1.00  0.00     0.020 A 
ATOM     67  C   UNL A   1      45.386  21.859  25.571  1.00  0.00     0.020 A 
ATOM     68  C   UNL A   1      44.530  20.803  25.302  1.00  0.00     0.054 A 
BRANCH  68  69
ATOM     69  S   UNL A   1      45.040  19.487  24.168  1.00  0.00     0.124 S 
ATOM     70  O   UNL A   1      46.493  19.502  24.306  1.00  0.00    -0.237 OA
ATOM     71  O   UNL A   1      44.364  18.315  24.715  1.00  0.00    -0.237 OA
ATOM     72  O   UNL A   1      44.540  19.936  22.868  1.00  0.00    -0.744 OA
ENDBRANCH  68  69
ENDBRANCH  49  63
BRANCH  50  73
ATOM     73  C   UNL A   1      41.235  30.377  32.685  1.00  0.00    -0.014 A 
ATOM     74  C   UNL A   1      40.109  29.574  32.967  1.00  0.00     0.010 A 
ATOM     75  C   UNL A   1      41.327  31.653  33.268  1.00  0.00     0.010 A 
ATOM     76  C   UNL A   1      39.216  29.939  33.974  1.00  0.00     0.020 A 
ATOM     77  C   UNL A   1      40.425  32.024  34.276  1.00  0.00     0.020 A 
ATOM     78  C   UNL A   1      39.432  31.125  34.676  1.00  0.00     0.054 A 
BRANCH  78  79
ATOM     79  S   UNL A   1      38.567  31.335  36.263  1.00  0.00     0.124 S 
ATOM     80  O   UNL A   1      38.315  29.957  36.670  1.00  0.00    -0.237 OA
ATOM     81  O   UNL A   1      39.569  32.053  37.052  1.00  0.00    -0.237 OA
ATOM     82  O   UNL A   1      37.387  32.112  35.901  1.00  0.00    -0.744 OA
ENDBRANCH  78  79
ENDBRANCH  50  73
BRANCH  62  83
ATOM     83  C   UNL A   1      44.808  24.094  33.689  1.00  0.00    -0.014 A 
ATOM     84  C   UNL A   1      43.977  22.980  33.888  1.00  0.00     0.010 A 
ATOM     85  C   UNL A   1      46.095  24.036  34.282  1.00  0.00     0.010 A 
ATOM     86  C   UNL A   1      44.384  21.896  34.684  1.00  0.00     0.020 A 
ATOM     87  C   UNL A   1      46.529  22.942  35.036  1.00  0.00     0.020 A 
ATOM     88  C   UNL A   1      45.655  21.885  35.256  1.00  0.00     0.054 A 
BRANCH  88  89
ATOM     89  S   UNL A   1      46.196  20.454  36.225  1.00  0.00     0.124 S 
ATOM     90  O   UNL A   1      45.865  20.871  37.586  1.00  0.00    -0.237 OA
ATOM     91  O   UNL A   1      45.380  19.367  35.688  1.00  0.00    -0.237 OA
ATOM     92  O   UNL A   1      47.622  20.358  35.926  1.00  0.00    -0.744 OA
ENDBRANCH  88  89
ENDBRANCH  62  83
ENDBRANCH  36  37
ENDBRANCH  28  31
ENDBRANCH  26  27
ENDBRANCH  25  26
ENDBRANCH   1  25
TORSDOF 19
ENDMDL
MODEL 2
REMARK VINA RESULT:     -12.2      2.180      3.149
REMARK SMILES Cc1ccc(OCCC(=O)N2C[C@H](O)C[C@@H]2C(=O)NCCCNC(=O)c2ccc(-c3c4nc(c(-c5ccc(S(=O)(=O)[O-])cc5)c5ccc([nH]5)c(-c5ccc(S(=O)(=O)[O-])cc5)c5nc(c(-c6ccc(S(=O)(=O)[O-])cc6)c6ccc3[nH]6)C=C5)C=C4)cc2)cc1
REMARK SMILES IDX 20 1 19 2 17 3 18 4 16 6 11 7 12 8 13 9 15 10 9 11 10 12
REMARK SMILES IDX 8 13 7 14 6 15 5 16 1 17 2 18 3 19 87 20 4 21 86 22 14 23
REMARK SMILES IDX 21 25 22 26 23 27 24 28 25 30 26 31 27 32 85 33 28 34 84 35
REMARK SMILES IDX 29 36 30 37 31 38 78 39 32 40 83 41 77 42 79 43 33 44 82 45
REMARK SMILES IDX 76 46 75 47 34 49 64 50 45 51 63 52 46 53 49 54 62 55 80 56
REMARK SMILES IDX 47 57 48 58 61 60 81 61 50 62 35 63 36 64 44 65 37 66 43 67
REMARK SMILES IDX 38 68 39 69 40 70 41 71 42 72 65 73 66 74 74 75 67 76 73 77
REMARK SMILES IDX 68 78 69 79 70 80 71 81 72 82 51 83 52 84 60 85 53 86 59 87
REMARK SMILES IDX 54 88 55 89 56 90 57 91 58 92
REMARK H PARENT 19 5 14 24 23 29 79 48 49 59
REMARK Flexibility Score: inf
ROOT
ATOM      1  C   UNL A   1      32.865  29.122  24.984  1.00  0.00     0.117 C 
ENDROOT
BRANCH   1   2
ATOM      2  N   UNL A   1      32.048  28.601  23.896  1.00  0.00    -0.354 N 
ATOM      3  C   UNL A   1      31.544  27.349  23.700  1.00  0.00     0.242 C 
ATOM      4  O   UNL A   1      30.518  27.266  23.011  1.00  0.00    -0.273 OA
ATOM      5  H   UNL A   1      31.823  29.254  23.194  1.00  0.00     0.163 HD
BRANCH   3   6
ATOM      6  C   UNL A   1      32.231  26.043  24.196  1.00  0.00     0.177 C 
ATOM      7  N   UNL A   1      31.980  24.779  23.500  1.00  0.00    -0.328 N 
ATOM      8  C   UNL A   1      31.001  23.976  24.225  1.00  0.00     0.152 C 
ATOM      9  C   UNL A   1      30.564  24.807  25.424  1.00  0.00     0.136 C 
ATOM     10  C   UNL A   1      31.732  25.766  25.630  1.00  0.00     0.069 C 
BRANCH   7  11
ATOM     11  C   UNL A   1      32.867  24.249  22.574  1.00  0.00     0.226 C 
ATOM     12  O   UNL A   1      33.324  24.917  21.646  1.00  0.00    -0.275 OA
BRANCH  11  13
ATOM     13  C   UNL A   1      33.154  22.754  22.669  1.00  0.00     0.141 C 
BRANCH  13  14
ATOM     14  C   UNL A   1      34.194  22.309  23.689  1.00  0.00     0.239 C 
BRANCH  14  15
ATOM     15  O   UNL A   1      35.515  22.804  23.413  1.00  0.00    -0.493 OA
BRANCH  15  16
ATOM     16  C   UNL A   1      36.455  22.624  24.389  1.00  0.00     0.119 A 
ATOM     17  C   UNL A   1      39.909  22.661  26.938  1.00  0.00     0.044 C 
ATOM     18  C   UNL A   1      38.644  22.617  26.135  1.00  0.00    -0.051 A 
ATOM     19  C   UNL A   1      37.791  23.724  26.083  1.00  0.00     0.007 A 
ATOM     20  C   UNL A   1      38.320  21.473  25.400  1.00  0.00     0.007 A 
ATOM     21  C   UNL A   1      36.689  23.722  25.222  1.00  0.00     0.046 A 
ATOM     22  C   UNL A   1      37.225  21.474  24.540  1.00  0.00     0.046 A 
ENDBRANCH  15  16
ENDBRANCH  14  15
ENDBRANCH  13  14
ENDBRANCH  11  13
ENDBRANCH   7  11
BRANCH   9  23
ATOM     23  O   UNL A   1      29.341  25.491  25.184  1.00  0.00    -0.391 OA
ATOM     24  H   UNL A   1      28.597  24.915  25.422  1.00  0.00     0.211 HD
ENDBRANCH   9  23
ENDBRANCH   3   6
ENDBRANCH   1   2
BRANCH   1  25
ATOM     25  C   UNL A   1      32.094  29.990  25.965  1.00  0.00     0.042 C 
BRANCH  25  26
ATOM     26  C   UNL A   1      32.721  30.150  27.338  1.00  0.00     0.118 C 
BRANCH  26  27
ATOM     27  N   UNL A   1      33.449  31.418  27.468  1.00  0.00    -0.352 N 
ATOM     28  C   UNL A   1      34.722  31.618  27.983  1.00  0.00     0.251 C 
ATOM     29  H   UNL A   1      32.978  32.222  27.152  1.00  0.00     0.163 HD
ATOM     30  O   UNL A   1      35.197  32.716  28.196  1.00  0.00    -0.269 OA
BRANCH  28  31
ATOM     31  C   UNL A   1      35.522  30.392  28.170  1.00  0.00     0.039 A 
ATOM     32  C   UNL A   1      35.645  29.958  29.495  1.00  0.00     0.014 A 
ATOM     33  C   UNL A   1      36.476  30.097  27.203  1.00  0.00     0.014 A 
ATOM     34  C   UNL A   1      36.857  29.438  29.921  1.00  0.00     0.010 A 
ATOM     35  C   UNL A   1      37.708  29.665  27.652  1.00  0.00     0.010 A 
ATOM     36  C   UNL A   1      37.917  29.413  29.022  1.00  0.00    -0.014 A 
BRANCH  36  37
ATOM     37  C   UNL A   1      39.306  29.208  29.414  1.00  0.00     0.031 A 
ATOM     38  C   UNL A   1      39.928  27.898  29.118  1.00  0.00     0.074 A 
ATOM     39  C   UNL A   1      40.049  30.219  29.924  1.00  0.00     0.049 A 
ATOM     40  N   UNL A   1      41.065  27.505  29.582  1.00  0.00    -0.248 NA
ATOM     41  C   UNL A   1      39.254  26.870  28.321  1.00  0.00     0.031 C 
ATOM     42  C   UNL A   1      41.510  30.279  29.985  1.00  0.00     0.029 A 
ATOM     43  N   UNL A   1      39.644  31.307  30.705  1.00  0.00    -0.354 N 
ATOM     44  C   UNL A   1      41.417  26.376  28.883  1.00  0.00     0.074 A 
ATOM     45  C   UNL A   1      40.211  25.945  28.226  1.00  0.00     0.031 C 
ATOM     46  C   UNL A   1      41.868  31.111  30.973  1.00  0.00     0.029 A 
ATOM     47  C   UNL A   1      40.653  31.484  31.673  1.00  0.00     0.049 A 
ATOM     48  H   UNL A   1      38.822  31.840  30.600  1.00  0.00     0.167 HD
ATOM     49  C   UNL A   1      42.732  26.035  28.806  1.00  0.00     0.031 A 
ATOM     50  C   UNL A   1      40.464  31.357  33.021  1.00  0.00     0.031 A 
ATOM     51  C   UNL A   1      43.516  26.731  29.825  1.00  0.00     0.049 A 
ATOM     52  C   UNL A   1      41.357  30.309  33.657  1.00  0.00     0.074 A 
ATOM     53  C   UNL A   1      44.431  27.769  29.799  1.00  0.00     0.029 A 
ATOM     54  N   UNL A   1      43.170  26.546  31.160  1.00  0.00    -0.354 N 
ATOM     55  N   UNL A   1      42.035  29.421  32.980  1.00  0.00    -0.248 NA
ATOM     56  C   UNL A   1      41.529  30.150  35.098  1.00  0.00     0.031 C 
ATOM     57  C   UNL A   1      44.540  28.283  31.124  1.00  0.00     0.029 A 
ATOM     58  C   UNL A   1      43.732  27.525  31.954  1.00  0.00     0.049 A 
ATOM     59  H   UNL A   1      42.602  25.815  31.494  1.00  0.00     0.167 HD
ATOM     60  C   UNL A   1      42.701  28.586  33.839  1.00  0.00     0.074 A 
ATOM     61  C   UNL A   1      42.365  29.096  35.157  1.00  0.00     0.031 C 
ATOM     62  C   UNL A   1      43.457  27.540  33.389  1.00  0.00     0.031 A 
BRANCH  49  63
ATOM     63  C   UNL A   1      43.327  25.250  27.653  1.00  0.00    -0.014 A 
ATOM     64  C   UNL A   1      43.444  23.848  27.746  1.00  0.00     0.010 A 
ATOM     65  C   UNL A   1      43.913  25.837  26.510  1.00  0.00     0.010 A 
ATOM     66  C   UNL A   1      44.131  23.090  26.779  1.00  0.00     0.020 A 
ATOM     67  C   UNL A   1      44.577  25.095  25.526  1.00  0.00     0.020 A 
ATOM     68  C   UNL A   1      44.700  23.723  25.675  1.00  0.00     0.054 A 
BRANCH  68  69
ATOM     69  S   UNL A   1      45.627  22.757  24.455  1.00  0.00     0.124 S 
ATOM     70  O   UNL A   1      44.565  22.235  23.599  1.00  0.00    -0.237 OA
ATOM     71  O   UNL A   1      46.494  23.761  23.846  1.00  0.00    -0.237 OA
ATOM     72  O   UNL A   1      46.318  21.752  25.261  1.00  0.00    -0.744 OA
ENDBRANCH  68  69
ENDBRANCH  49  63
BRANCH  50  73
ATOM     73  C   UNL A   1      39.102  31.735  33.487  1.00  0.00    -0.014 A 
ATOM     74  C   UNL A   1      38.852  33.113  33.659  1.00  0.00     0.010 A 
ATOM     75  C   UNL A   1      38.017  30.866  33.281  1.00  0.00     0.010 A 
ATOM     76  C   UNL A   1      37.584  33.639  33.406  1.00  0.00     0.020 A 
ATOM     77  C   UNL A   1      36.741  31.391  33.033  1.00  0.00     0.020 A 
ATOM     78  C   UNL A   1      36.560  32.778  33.014  1.00  0.00     0.054 A 
BRANCH  78  79
ATOM     79  S   UNL A   1      35.089  33.517  32.238  1.00  0.00     0.124 S 
ATOM     80  O   UNL A   1      35.662  34.261  31.122  1.00  0.00    -0.237 OA
ATOM     81  O   UNL A   1      34.318  32.327  31.874  1.00  0.00    -0.237 OA
ATOM     82  O   UNL A   1      34.515  34.326  33.308  1.00  0.00    -0.744 OA
ENDBRANCH  78  79
ENDBRANCH  50  73
BRANCH  62  83
ATOM     83  C   UNL A   1      44.060  26.435  34.235  1.00  0.00    -0.014 A 
ATOM     84  C   UNL A   1      43.429  25.216  34.526  1.00  0.00     0.010 A 
ATOM     85  C   UNL A   1      45.403  26.570  34.668  1.00  0.00     0.010 A 
ATOM     86  C   UNL A   1      44.079  24.212  35.263  1.00  0.00     0.020 A 
ATOM     87  C   UNL A   1      46.078  25.559  35.359  1.00  0.00     0.020 A 
ATOM     88  C   UNL A   1      45.399  24.391  35.678  1.00  0.00     0.054 A 
BRANCH  88  89
ATOM     89  S   UNL A   1      46.252  23.065  36.568  1.00  0.00     0.124 S 
ATOM     90  O   UNL A   1      45.790  23.279  37.938  1.00  0.00    -0.237 OA
ATOM     91  O   UNL A   1      45.747  21.856  35.920  1.00  0.00    -0.237 OA
ATOM     92  O   UNL A   1      47.665  23.346  36.330  1.00  0.00    -0.744 OA
ENDBRANCH  88  89
ENDBRANCH  62  83
ENDBRANCH  36  37
ENDBRANCH  28  31
ENDBRANCH  26  27
ENDBRANCH  25  26
ENDBRANCH   1  25
TORSDOF 19
ENDMDL
MODEL 3
REMARK VINA RESULT:     -12.0      2.156      2.985
REMARK SMILES Cc1ccc(OCCC(=O)N2C[C@H](O)C[C@@H]2C(=O)NCCCNC(=O)c2ccc(-c3c4nc(c(-c5ccc(S(=O)(=O)[O-])cc5)c5ccc([nH]5)c(-c5ccc(S(=O)(=O)[O-])cc5)c5nc(c(-c6ccc(S(=O)(=O)[O-])cc6)c6ccc3[nH]6)C=C5)C=C4)cc2)cc1
REMARK SMILES IDX 20 1 19 2 17 3 18 4 16 6 11 7 12 8 13 9 15 10 9 11 10 12
REMARK SMILES IDX 8 13 7 14 6 15 5 16 1 17 2 18 3 19 87 20 4 21 86 22 14 23
REMARK SMILES IDX 21 25 22 26 23 27 24 28 25 30 26 31 27 32 85 33 28 34 84 35
REMARK SMILES IDX 29 36 30 37 31 38 78 39 32 40 83 41 77 42 79 43 33 44 82 45
REMARK SMILES IDX 76 46 75 47 34 49 64 50 45 51 63 52 46 53 49 54 62 55 80 56
REMARK SMILES IDX 47 57 48 58 61 60 81 61 50 62 35 63 36 64 44 65 37 66 43 67
REMARK SMILES IDX 38 68 39 69 40 70 41 71 42 72 65 73 66 74 74 75 67 76 73 77
REMARK SMILES IDX 68 78 69 79 70 80 71 81 72 82 51 83 52 84 60 85 53 86 59 87
REMARK SMILES IDX 54 88 55 89 56 90 57 91 58 92
REMARK H PARENT 19 5 14 24 23 29 79 48 49 59
REMARK Flexibility Score: inf
ROOT
ATOM      1  C   UNL A   1      31.436  29.976  24.985  1.00  0.00     0.117 C 
ENDROOT
BRANCH   1   2
ATOM      2  N   UNL A   1      32.673  29.504  24.376  1.00  0.00    -0.354 N 
ATOM      3  C   UNL A   1      32.904  28.411  23.594  1.00  0.00     0.242 C 
ATOM      4  O   UNL A   1      33.867  28.479  22.817  1.00  0.00    -0.273 OA
ATOM      5  H   UNL A   1      33.465  30.061  24.556  1.00  0.00     0.163 HD
BRANCH   3   6
ATOM      6  C   UNL A   1      32.106  27.078  23.698  1.00  0.00     0.177 C 
ATOM      7  N   UNL A   1      32.824  25.811  23.858  1.00  0.00    -0.328 N 
ATOM      8  C   UNL A   1      32.915  25.106  22.584  1.00  0.00     0.152 C 
ATOM      9  C   UNL A   1      32.264  26.007  21.543  1.00  0.00     0.136 C 
ATOM     10  C   UNL A   1      31.337  26.888  22.374  1.00  0.00     0.069 C 
BRANCH   7  11
ATOM     11  C   UNL A   1      32.971  25.188  25.088  1.00  0.00     0.226 C 
ATOM     12  O   UNL A   1      32.015  24.980  25.837  1.00  0.00    -0.275 OA
BRANCH  11  13
ATOM     13  C   UNL A   1      34.395  24.887  25.545  1.00  0.00     0.141 C 
BRANCH  13  14
ATOM     14  C   UNL A   1      34.729  23.436  25.867  1.00  0.00     0.239 C 
BRANCH  14  15
ATOM     15  O   UNL A   1      33.571  22.592  25.980  1.00  0.00    -0.493 OA
BRANCH  15  16
ATOM     16  C   UNL A   1      33.494  21.535  25.118  1.00  0.00     0.119 A 
ATOM     17  C   UNL A   1      32.424  18.068  22.824  1.00  0.00     0.044 C 
ATOM     18  C   UNL A   1      32.863  19.308  23.542  1.00  0.00    -0.051 A 
ATOM     19  C   UNL A   1      32.213  20.528  23.325  1.00  0.00     0.007 A 
ATOM     20  C   UNL A   1      33.910  19.249  24.465  1.00  0.00     0.007 A 
ATOM     21  C   UNL A   1      32.539  21.644  24.102  1.00  0.00     0.046 A 
ATOM     22  C   UNL A   1      34.231  20.361  25.241  1.00  0.00     0.046 A 
ENDBRANCH  15  16
ENDBRANCH  14  15
ENDBRANCH  13  14
ENDBRANCH  11  13
ENDBRANCH   7  11
BRANCH   9  23
ATOM     23  O   UNL A   1      33.223  26.767  20.819  1.00  0.00    -0.391 OA
ATOM     24  H   UNL A   1      33.818  26.166  20.343  1.00  0.00     0.211 HD
ENDBRANCH   9  23
ENDBRANCH   3   6
ENDBRANCH   1   2
BRANCH   1  25
ATOM     25  C   UNL A   1      31.608  30.464  26.415  1.00  0.00     0.042 C 
BRANCH  25  26
ATOM     26  C   UNL A   1      32.971  30.218  27.036  1.00  0.00     0.118 C 
BRANCH  26  27
ATOM     27  N   UNL A   1      33.626  31.466  27.443  1.00  0.00    -0.352 N 
ATOM     28  C   UNL A   1      34.817  31.614  28.139  1.00  0.00     0.251 C 
ATOM     29  H   UNL A   1      33.163  32.299  27.194  1.00  0.00     0.163 HD
ATOM     30  O   UNL A   1      35.218  32.677  28.571  1.00  0.00    -0.269 OA
BRANCH  28  31
ATOM     31  C   UNL A   1      35.637  30.392  28.242  1.00  0.00     0.039 A 
ATOM     32  C   UNL A   1      35.729  29.843  29.526  1.00  0.00     0.014 A 
ATOM     33  C   UNL A   1      36.627  30.203  27.284  1.00  0.00     0.014 A 
ATOM     34  C   UNL A   1      36.938  29.310  29.944  1.00  0.00     0.010 A 
ATOM     35  C   UNL A   1      37.854  29.756  27.733  1.00  0.00     0.010 A 
ATOM     36  C   UNL A   1      38.026  29.387  29.081  1.00  0.00    -0.014 A 
BRANCH  36  37
ATOM     37  C   UNL A   1      39.406  29.173  29.499  1.00  0.00     0.031 A 
ATOM     38  C   UNL A   1      40.048  27.884  29.157  1.00  0.00     0.074 A 
ATOM     39  C   UNL A   1      40.127  30.165  30.076  1.00  0.00     0.049 A 
ATOM     40  N   UNL A   1      41.176  27.479  29.631  1.00  0.00    -0.248 NA
ATOM     41  C   UNL A   1      39.404  26.891  28.294  1.00  0.00     0.031 C 
ATOM     42  C   UNL A   1      41.586  30.233  30.178  1.00  0.00     0.029 A 
ATOM     43  N   UNL A   1      39.692  31.211  30.898  1.00  0.00    -0.354 N 
ATOM     44  C   UNL A   1      41.556  26.388  28.887  1.00  0.00     0.074 A 
ATOM     45  C   UNL A   1      40.371  25.979  28.179  1.00  0.00     0.031 C 
ATOM     46  C   UNL A   1      41.911  31.020  31.213  1.00  0.00     0.029 A 
ATOM     47  C   UNL A   1      40.674  31.348  31.899  1.00  0.00     0.049 A 
ATOM     48  H   UNL A   1      38.869  31.741  30.797  1.00  0.00     0.167 HD
ATOM     49  C   UNL A   1      42.876  26.061  28.828  1.00  0.00     0.031 A 
ATOM     50  C   UNL A   1      40.452  31.155  33.234  1.00  0.00     0.031 A 
ATOM     51  C   UNL A   1      43.628  26.713  29.899  1.00  0.00     0.049 A 
ATOM     52  C   UNL A   1      41.338  30.084  33.841  1.00  0.00     0.074 A 
ATOM     53  C   UNL A   1      44.533  27.759  29.946  1.00  0.00     0.029 A 
ATOM     54  N   UNL A   1      43.249  26.461  31.215  1.00  0.00    -0.354 N 
ATOM     55  N   UNL A   1      42.041  29.236  33.141  1.00  0.00    -0.248 NA
ATOM     56  C   UNL A   1      41.475  29.857  35.277  1.00  0.00     0.031 C 
ATOM     57  C   UNL A   1      44.604  28.208  31.297  1.00  0.00     0.029 A 
ATOM     58  C   UNL A   1      43.782  27.405  32.069  1.00  0.00     0.049 A 
ATOM     59  H   UNL A   1      42.679  25.710  31.498  1.00  0.00     0.167 HD
ATOM     60  C   UNL A   1      42.693  28.365  33.976  1.00  0.00     0.074 A 
ATOM     61  C   UNL A   1      42.319  28.808  35.308  1.00  0.00     0.031 C 
ATOM     62  C   UNL A   1      43.470  27.348  33.495  1.00  0.00     0.031 A 
BRANCH  49  63
ATOM     63  C   UNL A   1      43.507  25.338  27.654  1.00  0.00    -0.014 A 
ATOM     64  C   UNL A   1      43.430  23.932  27.574  1.00  0.00     0.010 A 
ATOM     65  C   UNL A   1      44.305  25.963  26.671  1.00  0.00     0.010 A 
ATOM     66  C   UNL A   1      44.131  23.201  26.597  1.00  0.00     0.020 A 
ATOM     67  C   UNL A   1      44.988  25.252  25.677  1.00  0.00     0.020 A 
ATOM     68  C   UNL A   1      44.914  23.868  25.655  1.00  0.00     0.054 A 
BRANCH  68  69
ATOM     69  S   UNL A   1      45.856  22.927  24.429  1.00  0.00     0.124 S 
ATOM     70  O   UNL A   1      46.801  23.923  23.930  1.00  0.00    -0.237 OA
ATOM     71  O   UNL A   1      46.434  21.851  25.228  1.00  0.00    -0.237 OA
ATOM     72  O   UNL A   1      44.843  22.502  23.464  1.00  0.00    -0.744 OA
ENDBRANCH  68  69
ENDBRANCH  49  63
BRANCH  50  73
ATOM     73  C   UNL A   1      39.075  31.499  33.683  1.00  0.00    -0.014 A 
ATOM     74  C   UNL A   1      38.821  32.860  33.954  1.00  0.00     0.010 A 
ATOM     75  C   UNL A   1      37.998  30.652  33.372  1.00  0.00     0.010 A 
ATOM     76  C   UNL A   1      37.562  33.408  33.701  1.00  0.00     0.020 A 
ATOM     77  C   UNL A   1      36.731  31.199  33.123  1.00  0.00     0.020 A 
ATOM     78  C   UNL A   1      36.551  32.584  33.208  1.00  0.00     0.054 A 
BRANCH  78  79
ATOM     79  S   UNL A   1      35.107  33.386  32.443  1.00  0.00     0.124 S 
ATOM     80  O   UNL A   1      34.442  32.271  31.779  1.00  0.00    -0.237 OA
ATOM     81  O   UNL A   1      34.416  33.927  33.614  1.00  0.00    -0.237 OA
ATOM     82  O   UNL A   1      35.706  34.381  31.560  1.00  0.00    -0.744 OA
ENDBRANCH  78  79
ENDBRANCH  50  73
BRANCH  62  83
ATOM     83  C   UNL A   1      44.061  26.208  34.302  1.00  0.00    -0.014 A 
ATOM     84  C   UNL A   1      43.392  25.013  34.607  1.00  0.00     0.010 A 
ATOM     85  C   UNL A   1      45.427  26.282  34.678  1.00  0.00     0.010 A 
ATOM     86  C   UNL A   1      44.031  23.974  35.304  1.00  0.00     0.020 A 
ATOM     87  C   UNL A   1      46.087  25.234  35.328  1.00  0.00     0.020 A 
ATOM     88  C   UNL A   1      45.373  24.092  35.664  1.00  0.00     0.054 A 
BRANCH  88  89
ATOM     89  S   UNL A   1      46.206  22.721  36.502  1.00  0.00     0.124 S 
ATOM     90  O   UNL A   1      47.531  22.753  35.886  1.00  0.00    -0.237 OA
ATOM     91  O   UNL A   1      46.161  23.118  37.908  1.00  0.00    -0.237 OA
ATOM     92  O   UNL A   1      45.384  21.562  36.164  1.00  0.00    -0.744 OA
ENDBRANCH  88  89
ENDBRANCH  62  83
ENDBRANCH  36  37
ENDBRANCH  28  31
ENDBRANCH  26  27
ENDBRANCH  25  26
ENDBRANCH   1  25
TORSDOF 19
ENDMDL
