MODEL 1
REMARK VINA RESULT:     -12.8      0.000      0.000
REMARK SMILES COc1ccc2[nH]cc([C@H](C(=O)NCCCNC(=O)c3ccc(-c4c5nc(c(-c6ccc(S(=O)(=O)[O-])cc6)c6ccc([nH]6)c(-c6ccc(S(=O)(=O)[O-])cc6)c6nc(c(-c7ccc(S(=O)(=O)[O-])cc7)c7ccc4[nH]7)C=C6)C=C5)cc3)[NH+]3CC[NH+](Cc4cccc5ccccc45)CC3)c2c1
REMARK SMILES IDX 15 1 14 2 13 3 11 4 12 5 10 7 9 8 3 9 4 10 98 11 5 12 97 13
REMARK SMILES IDX 6 14 7 15 8 16 2 18 1 19 80 20 81 21 96 22 82 24 95 25 83 26
REMARK SMILES IDX 84 28 85 29 86 30 94 31 87 32 89 33 93 34 88 35 90 36 92 37
REMARK SMILES IDX 91 38 16 39 17 40 18 41 19 43 20 44 21 45 79 46 22 47 78 48
REMARK SMILES IDX 23 49 24 50 25 51 72 52 26 53 77 54 71 55 73 56 27 57 76 58
REMARK SMILES IDX 70 59 69 60 28 62 58 63 39 64 57 65 40 66 43 67 56 68 74 69
REMARK SMILES IDX 41 70 42 71 55 73 75 74 44 75 29 76 30 77 38 78 31 79 37 80
REMARK SMILES IDX 32 81 33 82 34 83 35 84 36 85 59 86 60 87 68 88 61 89 67 90
REMARK SMILES IDX 62 91 63 92 64 93 65 94 66 95 45 96 46 97 54 98 47 99 53 100
REMARK SMILES IDX 48 101 49 102 50 103 51 104 52 105
REMARK H PARENT 13 6 7 17 80 23 83 27 17 42 73 61 43 72
REMARK Flexibility Score: inf
ROOT
ATOM      1  C   UNL A   1      34.372  27.663  25.128  1.00  0.00     0.042 C 
ENDROOT
BRANCH   1   2
ATOM      2  C   UNL A   1      33.558  28.639  24.297  1.00  0.00     0.118 C 
BRANCH   2   3
ATOM      3  N   UNL A   1      33.057  27.962  23.119  1.00  0.00    -0.351 N 
ATOM      4  C   UNL A   1      32.188  26.918  23.030  1.00  0.00     0.283 C 
ATOM      5  O   UNL A   1      32.163  26.339  21.944  1.00  0.00    -0.268 OA
ATOM      6  H   UNL A   1      33.392  28.307  22.260  1.00  0.00     0.163 HD
BRANCH   4   7
ATOM      7  C   UNL A   1      31.309  26.569  24.249  1.00  0.00     0.308 C 
BRANCH   7   8
ATOM      8  C   UNL A   1      29.830  26.863  23.989  1.00  0.00     0.045 A 
ATOM      9  C   UNL A   1      28.921  30.381  22.746  1.00  0.00     0.119 A 
ATOM     10  C   UNL A   1      27.548  30.177  22.685  1.00  0.00     0.048 A 
ATOM     11  C   UNL A   1      29.775  29.352  23.130  1.00  0.00     0.057 A 
ATOM     12  C   UNL A   1      26.996  28.934  23.023  1.00  0.00     0.030 A 
ATOM     13  C   UNL A   1      29.248  28.100  23.520  1.00  0.00     0.013 A 
ATOM     14  C   UNL A   1      27.869  27.917  23.435  1.00  0.00     0.046 A 
ATOM     15  N   UNL A   1      27.616  26.612  23.790  1.00  0.00    -0.361 N 
ATOM     16  C   UNL A   1      28.778  25.973  24.129  1.00  0.00     0.094 A 
ATOM     17  H   UNL A   1      26.724  26.196  23.798  1.00  0.00     0.166 HD
BRANCH   9  18
ATOM     18  O   UNL A   1      29.509  31.553  22.352  1.00  0.00    -0.497 OA
ATOM     19  C   UNL A   1      28.599  32.650  22.415  1.00  0.00     0.278 C 
ENDBRANCH   9  18
ENDBRANCH   7   8
BRANCH   7  20
ATOM     20  N   UNL A   1      31.453  25.178  24.704  1.00  0.00    -0.312 N 
ATOM     21  C   UNL A   1      32.086  24.251  23.770  1.00  0.00     0.325 C 
ATOM     22  C   UNL A   1      31.880  24.987  26.095  1.00  0.00     0.325 C 
ATOM     23  H   UNL A   1      30.474  24.893  24.704  1.00  0.00     0.349 HD
ATOM     24  C   UNL A   1      33.530  23.809  24.047  1.00  0.00     0.324 C 
ATOM     25  C   UNL A   1      33.310  24.419  26.359  1.00  0.00     0.324 C 
ATOM     26  N   UNL A   1      33.820  23.410  25.421  1.00  0.00    -0.322 N 
ATOM     27  H   UNL A   1      34.833  23.413  25.548  1.00  0.00     0.348 HD
BRANCH  26  28
ATOM     28  C   UNL A   1      33.582  21.993  25.735  1.00  0.00     0.300 C 
BRANCH  28  29
ATOM     29  C   UNL A   1      34.556  20.979  25.160  1.00  0.00     0.014 A 
ATOM     30  C   UNL A   1      35.928  21.269  25.290  1.00  0.00     0.010 A 
ATOM     31  C   UNL A   1      34.152  19.714  24.647  1.00  0.00    -0.010 A 
ATOM     32  C   UNL A   1      36.886  20.290  25.076  1.00  0.00     0.001 A 
ATOM     33  C   UNL A   1      35.129  18.693  24.554  1.00  0.00    -0.018 A 
ATOM     34  C   UNL A   1      32.824  19.381  24.279  1.00  0.00     0.009 A 
ATOM     35  C   UNL A   1      36.483  18.996  24.767  1.00  0.00     0.009 A 
ATOM     36  C   UNL A   1      34.735  17.373  24.284  1.00  0.00     0.009 A 
ATOM     37  C   UNL A   1      32.454  18.068  23.977  1.00  0.00     0.001 A 
ATOM     38  C   UNL A   1      33.404  17.057  24.020  1.00  0.00     0.001 A 
ENDBRANCH  28  29
ENDBRANCH  26  28
ENDBRANCH   7  20
ENDBRANCH   4   7
ENDBRANCH   2   3
ENDBRANCH   1   2
BRANCH   1  39
ATOM     39  C   UNL A   1      34.268  27.930  26.624  1.00  0.00     0.118 C 
BRANCH  39  40
ATOM     40  N   UNL A   1      33.769  29.269  26.918  1.00  0.00    -0.352 N 
ATOM     41  C   UNL A   1      34.361  30.255  27.671  1.00  0.00     0.251 C 
ATOM     42  H   UNL A   1      32.896  29.496  26.524  1.00  0.00     0.163 HD
ATOM     43  O   UNL A   1      33.745  31.252  27.998  1.00  0.00    -0.269 OA
BRANCH  41  44
ATOM     44  C   UNL A   1      35.758  30.045  28.089  1.00  0.00     0.039 A 
ATOM     45  C   UNL A   1      36.018  29.542  29.362  1.00  0.00     0.014 A 
ATOM     46  C   UNL A   1      36.791  30.268  27.175  1.00  0.00     0.014 A 
ATOM     47  C   UNL A   1      37.329  29.208  29.702  1.00  0.00     0.010 A 
ATOM     48  C   UNL A   1      38.074  29.841  27.480  1.00  0.00     0.010 A 
ATOM     49  C   UNL A   1      38.358  29.325  28.753  1.00  0.00    -0.014 A 
BRANCH  49  50
ATOM     50  C   UNL A   1      39.753  28.946  29.079  1.00  0.00     0.031 A 
ATOM     51  C   UNL A   1      40.658  29.954  29.734  1.00  0.00     0.074 A 
ATOM     52  C   UNL A   1      40.217  27.730  28.734  1.00  0.00     0.049 A 
ATOM     53  N   UNL A   1      41.922  29.844  30.049  1.00  0.00    -0.248 NA
ATOM     54  C   UNL A   1      40.076  31.270  30.047  1.00  0.00     0.031 C 
ATOM     55  C   UNL A   1      39.445  26.686  28.052  1.00  0.00     0.029 A 
ATOM     56  N   UNL A   1      41.455  27.164  28.907  1.00  0.00    -0.354 N 
ATOM     57  C   UNL A   1      42.287  31.077  30.574  1.00  0.00     0.074 A 
ATOM     58  C   UNL A   1      41.133  31.940  30.478  1.00  0.00     0.031 C 
ATOM     59  C   UNL A   1      40.217  25.599  27.898  1.00  0.00     0.029 A 
ATOM     60  C   UNL A   1      41.548  25.879  28.428  1.00  0.00     0.049 A 
ATOM     61  H   UNL A   1      42.206  27.635  29.336  1.00  0.00     0.167 HD
ATOM     62  C   UNL A   1      43.470  31.451  31.114  1.00  0.00     0.031 A 
ATOM     63  C   UNL A   1      42.590  25.026  28.414  1.00  0.00     0.031 A 
ATOM     64  C   UNL A   1      44.609  30.580  31.222  1.00  0.00     0.049 A 
ATOM     65  C   UNL A   1      43.896  25.463  29.019  1.00  0.00     0.074 A 
ATOM     66  C   UNL A   1      45.837  30.839  31.802  1.00  0.00     0.029 A 
ATOM     67  N   UNL A   1      44.657  29.280  30.739  1.00  0.00    -0.354 N 
ATOM     68  N   UNL A   1      44.203  26.613  29.573  1.00  0.00    -0.248 NA
ATOM     69  C   UNL A   1      44.990  24.484  29.013  1.00  0.00     0.031 C 
ATOM     70  C   UNL A   1      46.648  29.715  31.622  1.00  0.00     0.029 A 
ATOM     71  C   UNL A   1      45.903  28.731  30.990  1.00  0.00     0.049 A 
ATOM     72  H   UNL A   1      43.916  28.817  30.286  1.00  0.00     0.167 HD
ATOM     73  C   UNL A   1      45.517  26.482  30.012  1.00  0.00     0.074 A 
ATOM     74  C   UNL A   1      45.938  25.139  29.670  1.00  0.00     0.031 C 
ATOM     75  C   UNL A   1      46.301  27.390  30.645  1.00  0.00     0.031 A 
BRANCH  62  76
ATOM     76  C   UNL A   1      43.587  32.863  31.626  1.00  0.00    -0.014 A 
ATOM     77  C   UNL A   1      43.161  33.205  32.923  1.00  0.00     0.010 A 
ATOM     78  C   UNL A   1      44.157  33.856  30.810  1.00  0.00     0.010 A 
ATOM     79  C   UNL A   1      43.263  34.523  33.378  1.00  0.00     0.020 A 
ATOM     80  C   UNL A   1      44.292  35.168  31.273  1.00  0.00     0.020 A 
ATOM     81  C   UNL A   1      43.828  35.496  32.548  1.00  0.00     0.054 A 
BRANCH  81  82
ATOM     82  S   UNL A   1      43.974  37.190  33.177  1.00  0.00     0.124 S 
ATOM     83  O   UNL A   1      42.909  37.233  34.177  1.00  0.00    -0.237 OA
ATOM     84  O   UNL A   1      45.334  37.219  33.707  1.00  0.00    -0.237 OA
ATOM     85  O   UNL A   1      43.751  38.019  31.995  1.00  0.00    -0.744 OA
ENDBRANCH  81  82
ENDBRANCH  62  76
BRANCH  63  86
ATOM     86  C   UNL A   1      42.431  23.666  27.828  1.00  0.00    -0.014 A 
ATOM     87  C   UNL A   1      42.816  23.408  26.501  1.00  0.00     0.010 A 
ATOM     88  C   UNL A   1      41.903  22.615  28.600  1.00  0.00     0.010 A 
ATOM     89  C   UNL A   1      42.656  22.134  25.948  1.00  0.00     0.020 A 
ATOM     90  C   UNL A   1      41.769  21.332  28.062  1.00  0.00     0.020 A 
ATOM     91  C   UNL A   1      42.135  21.102  26.735  1.00  0.00     0.054 A 
BRANCH  91  92
ATOM     92  S   UNL A   1      41.981  19.445  26.012  1.00  0.00     0.124 S 
ATOM     93  O   UNL A   1      42.829  19.548  24.829  1.00  0.00    -0.237 OA
ATOM     94  O   UNL A   1      42.485  18.588  27.082  1.00  0.00    -0.237 OA
ATOM     95  O   UNL A   1      40.548  19.321  25.748  1.00  0.00    -0.744 OA
ENDBRANCH  91  92
ENDBRANCH  63  86
BRANCH  75  96
ATOM     96  C   UNL A   1      47.681  26.948  31.055  1.00  0.00    -0.014 A 
ATOM     97  C   UNL A   1      47.903  26.255  32.259  1.00  0.00     0.010 A 
ATOM     98  C   UNL A   1      48.764  27.183  30.188  1.00  0.00     0.010 A 
ATOM     99  C   UNL A   1      49.191  25.836  32.603  1.00  0.00     0.020 A 
ATOM    100  C   UNL A   1      50.047  26.736  30.513  1.00  0.00     0.020 A 
ATOM    101  C   UNL A   1      50.254  26.078  31.727  1.00  0.00     0.054 A 
BRANCH 101 102
ATOM    102  S   UNL A   1      51.907  25.486  32.177  1.00  0.00     0.124 S 
ATOM    103  O   UNL A   1      52.200  26.280  33.368  1.00  0.00    -0.237 OA
ATOM    104  O   UNL A   1      51.685  24.061  32.411  1.00  0.00    -0.237 OA
ATOM    105  O   UNL A   1      52.720  25.800  31.004  1.00  0.00    -0.744 OA
ENDBRANCH 101 102
ENDBRANCH  75  96
ENDBRANCH  49  50
ENDBRANCH  41  44
ENDBRANCH  39  40
ENDBRANCH   1  39
TORSDOF 18
ENDMDL
MODEL 2
REMARK VINA RESULT:     -12.5      2.637     10.019
REMARK SMILES COc1ccc2[nH]cc([C@H](C(=O)NCCCNC(=O)c3ccc(-c4c5nc(c(-c6ccc(S(=O)(=O)[O-])cc6)c6ccc([nH]6)c(-c6ccc(S(=O)(=O)[O-])cc6)c6nc(c(-c7ccc(S(=O)(=O)[O-])cc7)c7ccc4[nH]7)C=C6)C=C5)cc3)[NH+]3CC[NH+](Cc4cccc5ccccc45)CC3)c2c1
REMARK SMILES IDX 15 1 14 2 13 3 11 4 12 5 10 7 9 8 3 9 4 10 98 11 5 12 97 13
REMARK SMILES IDX 6 14 7 15 8 16 2 18 1 19 80 20 81 21 96 22 82 24 95 25 83 26
REMARK SMILES IDX 84 28 85 29 86 30 94 31 87 32 89 33 93 34 88 35 90 36 92 37
REMARK SMILES IDX 91 38 16 39 17 40 18 41 19 43 20 44 21 45 79 46 22 47 78 48
REMARK SMILES IDX 23 49 24 50 25 51 72 52 26 53 77 54 71 55 73 56 27 57 76 58
REMARK SMILES IDX 70 59 69 60 28 62 58 63 39 64 57 65 40 66 43 67 56 68 74 69
REMARK SMILES IDX 41 70 42 71 55 73 75 74 44 75 29 76 30 77 38 78 31 79 37 80
REMARK SMILES IDX 32 81 33 82 34 83 35 84 36 85 59 86 60 87 68 88 61 89 67 90
REMARK SMILES IDX 62 91 63 92 64 93 65 94 66 95 45 96 46 97 54 98 47 99 53 100
REMARK SMILES IDX 48 101 49 102 50 103 51 104 52 105
REMARK H PARENT 13 6 7 17 80 23 83 27 17 42 73 61 43 72
REMARK Flexibility Score: inf
ROOT
ATOM      1  C   UNL A   1      35.682  23.629  26.164  1.00  0.00     0.042 C 
ENDROOT
BRANCH   1   2
ATOM      2  C   UNL A   1      35.284  22.186  26.422  1.00  0.00     0.118 C 
BRANCH   2   3
ATOM      3  N   UNL A   1      33.845  22.103  26.556  1.00  0.00    -0.351 N 
ATOM      4  C   UNL A   1      32.876  22.442  25.661  1.00  0.00     0.283 C 
ATOM      5  O   UNL A   1      31.742  22.562  26.126  1.00  0.00    -0.268 OA
ATOM      6  H   UNL A   1      33.521  21.752  27.416  1.00  0.00     0.163 HD
BRANCH   4   7
ATOM      7  C   UNL A   1      33.256  22.616  24.176  1.00  0.00     0.308 C 
BRANCH   7   8
ATOM      8  C   UNL A   1      32.750  21.454  23.318  1.00  0.00     0.045 A 
ATOM      9  C   UNL A   1      33.650  17.898  24.457  1.00  0.00     0.119 A 
ATOM     10  C   UNL A   1      33.028  17.234  23.406  1.00  0.00     0.048 A 
ATOM     11  C   UNL A   1      33.597  19.286  24.550  1.00  0.00     0.057 A 
ATOM     12  C   UNL A   1      32.346  17.950  22.414  1.00  0.00     0.030 A 
ATOM     13  C   UNL A   1      32.957  20.041  23.542  1.00  0.00     0.013 A 
ATOM     14  C   UNL A   1      32.327  19.350  22.508  1.00  0.00     0.046 A 
ATOM     15  N   UNL A   1      31.720  20.290  21.708  1.00  0.00    -0.361 N 
ATOM     16  C   UNL A   1      31.970  21.552  22.177  1.00  0.00     0.094 A 
ATOM     17  H   UNL A   1      31.181  20.085  20.911  1.00  0.00     0.166 HD
BRANCH   9  18
ATOM     18  O   UNL A   1      34.260  17.235  25.487  1.00  0.00    -0.497 OA
ATOM     19  C   UNL A   1      34.933  16.061  25.038  1.00  0.00     0.278 C 
ENDBRANCH   9  18
ENDBRANCH   7   8
BRANCH   7  20
ATOM     20  N   UNL A   1      32.794  23.884  23.592  1.00  0.00    -0.312 N 
ATOM     21  C   UNL A   1      31.599  24.477  24.186  1.00  0.00     0.325 C 
ATOM     22  C   UNL A   1      33.834  24.869  23.266  1.00  0.00     0.325 C 
ATOM     23  H   UNL A   1      32.475  23.551  22.683  1.00  0.00     0.349 HD
ATOM     24  C   UNL A   1      31.767  25.704  25.094  1.00  0.00     0.324 C 
ATOM     25  C   UNL A   1      33.914  26.171  24.121  1.00  0.00     0.324 C 
ATOM     26  N   UNL A   1      32.647  26.754  24.586  1.00  0.00    -0.322 N 
ATOM     27  H   UNL A   1      32.901  27.362  25.365  1.00  0.00     0.348 HD
BRANCH  26  28
ATOM     28  C   UNL A   1      32.002  27.769  23.740  1.00  0.00     0.300 C 
BRANCH  28  29
ATOM     29  C   UNL A   1      31.348  28.947  24.442  1.00  0.00     0.014 A 
ATOM     30  C   UNL A   1      32.047  29.509  25.528  1.00  0.00     0.010 A 
ATOM     31  C   UNL A   1      30.167  29.581  23.964  1.00  0.00    -0.010 A 
ATOM     32  C   UNL A   1      31.693  30.750  26.036  1.00  0.00     0.001 A 
ATOM     33  C   UNL A   1      29.895  30.898  24.407  1.00  0.00    -0.018 A 
ATOM     34  C   UNL A   1      29.271  29.011  23.024  1.00  0.00     0.009 A 
ATOM     35  C   UNL A   1      30.661  31.464  25.438  1.00  0.00     0.009 A 
ATOM     36  C   UNL A   1      28.884  31.649  23.786  1.00  0.00     0.009 A 
ATOM     37  C   UNL A   1      28.244  29.760  22.441  1.00  0.00     0.001 A 
ATOM     38  C   UNL A   1      28.078  31.092  22.794  1.00  0.00     0.001 A 
ENDBRANCH  28  29
ENDBRANCH  26  28
ENDBRANCH   7  20
ENDBRANCH   4   7
ENDBRANCH   2   3
ENDBRANCH   1   2
BRANCH   1  39
ATOM     39  C   UNL A   1      36.924  23.753  25.291  1.00  0.00     0.118 C 
BRANCH  39  40
ATOM     40  N   UNL A   1      37.945  22.769  25.631  1.00  0.00    -0.352 N 
ATOM     41  C   UNL A   1      39.151  22.971  26.259  1.00  0.00     0.251 C 
ATOM     42  H   UNL A   1      37.743  21.839  25.380  1.00  0.00     0.163 HD
ATOM     43  O   UNL A   1      39.993  22.093  26.302  1.00  0.00    -0.269 OA
BRANCH  41  44
ATOM     44  C   UNL A   1      39.394  24.297  26.853  1.00  0.00     0.039 A 
ATOM     45  C   UNL A   1      38.999  24.537  28.167  1.00  0.00     0.014 A 
ATOM     46  C   UNL A   1      40.096  25.260  26.123  1.00  0.00     0.014 A 
ATOM     47  C   UNL A   1      39.360  25.739  28.774  1.00  0.00     0.010 A 
ATOM     48  C   UNL A   1      40.539  26.408  26.759  1.00  0.00     0.010 A 
ATOM     49  C   UNL A   1      40.160  26.667  28.085  1.00  0.00    -0.014 A 
BRANCH  49  50
ATOM     50  C   UNL A   1      40.583  27.938  28.718  1.00  0.00     0.031 A 
ATOM     51  C   UNL A   1      41.973  28.056  29.282  1.00  0.00     0.074 A 
ATOM     52  C   UNL A   1      39.706  28.953  28.838  1.00  0.00     0.049 A 
ATOM     53  N   UNL A   1      42.519  29.055  29.924  1.00  0.00    -0.248 NA
ATOM     54  C   UNL A   1      42.855  26.885  29.134  1.00  0.00     0.031 C 
ATOM     55  C   UNL A   1      38.316  28.937  28.371  1.00  0.00     0.029 A 
ATOM     56  N   UNL A   1      39.853  30.199  29.394  1.00  0.00    -0.354 N 
ATOM     57  C   UNL A   1      43.794  28.626  30.272  1.00  0.00     0.074 A 
ATOM     58  C   UNL A   1      43.919  27.257  29.828  1.00  0.00     0.031 C 
ATOM     59  C   UNL A   1      37.752  30.128  28.630  1.00  0.00     0.029 A 
ATOM     60  C   UNL A   1      38.720  30.975  29.317  1.00  0.00     0.049 A 
ATOM     61  H   UNL A   1      40.690  30.507  29.808  1.00  0.00     0.167 HD
ATOM     62  C   UNL A   1      44.783  29.318  30.883  1.00  0.00     0.031 A 
ATOM     63  C   UNL A   1      38.490  32.228  29.755  1.00  0.00     0.031 A 
ATOM     64  C   UNL A   1      44.657  30.686  31.305  1.00  0.00     0.049 A 
ATOM     65  C   UNL A   1      39.604  32.978  30.432  1.00  0.00     0.074 A 
ATOM     66  C   UNL A   1      45.614  31.499  31.883  1.00  0.00     0.029 A 
ATOM     67  N   UNL A   1      43.499  31.443  31.195  1.00  0.00    -0.354 N 
ATOM     68  N   UNL A   1      40.827  32.578  30.694  1.00  0.00    -0.248 NA
ATOM     69  C   UNL A   1      39.315  34.353  30.859  1.00  0.00     0.031 C 
ATOM     70  C   UNL A   1      45.021  32.731  32.172  1.00  0.00     0.029 A 
ATOM     71  C   UNL A   1      43.712  32.708  31.712  1.00  0.00     0.049 A 
ATOM     72  H   UNL A   1      42.652  31.127  30.805  1.00  0.00     0.167 HD
ATOM     73  C   UNL A   1      41.462  33.666  31.284  1.00  0.00     0.074 A 
ATOM     74  C   UNL A   1      40.493  34.741  31.330  1.00  0.00     0.031 C 
ATOM     75  C   UNL A   1      42.734  33.766  31.744  1.00  0.00     0.031 A 
BRANCH  62  76
ATOM     76  C   UNL A   1      46.085  28.601  31.128  1.00  0.00    -0.014 A 
ATOM     77  C   UNL A   1      47.131  28.648  30.188  1.00  0.00     0.010 A 
ATOM     78  C   UNL A   1      46.278  27.895  32.329  1.00  0.00     0.010 A 
ATOM     79  C   UNL A   1      48.328  27.965  30.425  1.00  0.00     0.020 A 
ATOM     80  C   UNL A   1      47.485  27.239  32.585  1.00  0.00     0.020 A 
ATOM     81  C   UNL A   1      48.496  27.265  31.623  1.00  0.00     0.054 A 
BRANCH  81  82
ATOM     82  S   UNL A   1      50.070  26.414  31.914  1.00  0.00     0.124 S 
ATOM     83  O   UNL A   1      49.638  25.223  32.643  1.00  0.00    -0.237 OA
ATOM     84  O   UNL A   1      50.561  26.176  30.559  1.00  0.00    -0.237 OA
ATOM     85  O   UNL A   1      50.845  27.375  32.695  1.00  0.00    -0.744 OA
ENDBRANCH  81  82
ENDBRANCH  62  76
BRANCH  63  86
ATOM     86  C   UNL A   1      37.156  32.857  29.545  1.00  0.00    -0.014 A 
ATOM     87  C   UNL A   1      36.224  32.927  30.595  1.00  0.00     0.010 A 
ATOM     88  C   UNL A   1      36.815  33.401  28.294  1.00  0.00     0.010 A 
ATOM     89  C   UNL A   1      34.968  33.507  30.393  1.00  0.00     0.020 A 
ATOM     90  C   UNL A   1      35.572  34.010  28.095  1.00  0.00     0.020 A 
ATOM     91  C   UNL A   1      34.651  34.048  29.143  1.00  0.00     0.054 A 
BRANCH  91  92
ATOM     92  S   UNL A   1      33.034  34.839  28.917  1.00  0.00     0.124 S 
ATOM     93  O   UNL A   1      32.490  34.813  30.271  1.00  0.00    -0.237 OA
ATOM     94  O   UNL A   1      33.398  36.158  28.404  1.00  0.00    -0.237 OA
ATOM     95  O   UNL A   1      32.361  33.969  27.954  1.00  0.00    -0.744 OA
ENDBRANCH  91  92
ENDBRANCH  63  86
BRANCH  75  96
ATOM     96  C   UNL A   1      43.171  35.100  32.292  1.00  0.00    -0.014 A 
ATOM     97  C   UNL A   1      43.844  36.038  31.490  1.00  0.00     0.010 A 
ATOM     98  C   UNL A   1      42.847  35.436  33.620  1.00  0.00     0.010 A 
ATOM     99  C   UNL A   1      44.216  37.277  32.018  1.00  0.00     0.020 A 
ATOM    100  C   UNL A   1      43.188  36.687  34.140  1.00  0.00     0.020 A 
ATOM    101  C   UNL A   1      43.884  37.594  33.339  1.00  0.00     0.054 A 
BRANCH 101 102
ATOM    102  S   UNL A   1      44.341  39.225  33.986  1.00  0.00     0.124 S 
ATOM    103  O   UNL A   1      44.794  38.899  35.336  1.00  0.00    -0.237 OA
ATOM    104  O   UNL A   1      45.383  39.657  33.059  1.00  0.00    -0.237 OA
ATOM    105  O   UNL A   1      43.096  39.987  33.915  1.00  0.00    -0.744 OA
ENDBRANCH 101 102
ENDBRANCH  75  96
ENDBRANCH  49  50
ENDBRANCH  41  44
ENDBRANCH  39  40
ENDBRANCH   1  39
TORSDOF 18
ENDMDL
MODEL 3
REMARK VINA RESULT:     -12.2      2.236      2.711
REMARK SMILES COc1ccc2[nH]cc([C@H](C(=O)NCCCNC(=O)c3ccc(-c4c5nc(c(-c6ccc(S(=O)(=O)[O-])cc6)c6ccc([nH]6)c(-c6ccc(S(=O)(=O)[O-])cc6)c6nc(c(-c7ccc(S(=O)(=O)[O-])cc7)c7ccc4[nH]7)C=C6)C=C5)cc3)[NH+]3CC[NH+](Cc4cccc5ccccc45)CC3)c2c1
REMARK SMILES IDX 15 1 14 2 13 3 11 4 12 5 10 7 9 8 3 9 4 10 98 11 5 12 97 13
REMARK SMILES IDX 6 14 7 15 8 16 2 18 1 19 80 20 81 21 96 22 82 24 95 25 83 26
REMARK SMILES IDX 84 28 85 29 86 30 94 31 87 32 89 33 93 34 88 35 90 36 92 37
REMARK SMILES IDX 91 38 16 39 17 40 18 41 19 43 20 44 21 45 79 46 22 47 78 48
REMARK SMILES IDX 23 49 24 50 25 51 72 52 26 53 77 54 71 55 73 56 27 57 76 58
REMARK SMILES IDX 70 59 69 60 28 62 58 63 39 64 57 65 40 66 43 67 56 68 74 69
REMARK SMILES IDX 41 70 42 71 55 73 75 74 44 75 29 76 30 77 38 78 31 79 37 80
REMARK SMILES IDX 32 81 33 82 34 83 35 84 36 85 59 86 60 87 68 88 61 89 67 90
REMARK SMILES IDX 62 91 63 92 64 93 65 94 66 95 45 96 46 97 54 98 47 99 53 100
REMARK SMILES IDX 48 101 49 102 50 103 51 104 52 105
REMARK H PARENT 13 6 7 17 80 23 83 27 17 42 73 61 43 72
REMARK Flexibility Score: inf
ROOT
ATOM      1  C   UNL A   1      34.259  27.941  25.104  1.00  0.00     0.042 C 
ENDROOT
BRANCH   1   2
ATOM      2  C   UNL A   1      33.475  28.853  24.176  1.00  0.00     0.118 C 
BRANCH   2   3
ATOM      3  N   UNL A   1      33.020  28.094  23.031  1.00  0.00    -0.351 N 
ATOM      4  C   UNL A   1      32.205  27.004  22.989  1.00  0.00     0.283 C 
ATOM      5  O   UNL A   1      32.219  26.370  21.933  1.00  0.00    -0.268 OA
ATOM      6  H   UNL A   1      33.345  28.411  22.158  1.00  0.00     0.163 HD
BRANCH   4   7
ATOM      7  C   UNL A   1      31.334  26.672  24.219  1.00  0.00     0.308 C 
BRANCH   7   8
ATOM      8  C   UNL A   1      29.852  26.950  23.959  1.00  0.00     0.045 A 
ATOM      9  C   UNL A   1      28.909  30.449  22.683  1.00  0.00     0.119 A 
ATOM     10  C   UNL A   1      27.538  30.232  22.628  1.00  0.00     0.048 A 
ATOM     11  C   UNL A   1      29.773  29.430  23.075  1.00  0.00     0.057 A 
ATOM     12  C   UNL A   1      26.998  28.988  22.979  1.00  0.00     0.030 A 
ATOM     13  C   UNL A   1      29.258  28.178  23.479  1.00  0.00     0.013 A 
ATOM     14  C   UNL A   1      27.880  27.982  23.400  1.00  0.00     0.046 A 
ATOM     15  N   UNL A   1      27.639  26.679  23.768  1.00  0.00    -0.361 N 
ATOM     16  C   UNL A   1      28.807  26.053  24.111  1.00  0.00     0.094 A 
ATOM     17  H   UNL A   1      26.751  26.255  23.783  1.00  0.00     0.166 HD
BRANCH   9  18
ATOM     18  O   UNL A   1      29.486  31.621  22.276  1.00  0.00    -0.497 OA
ATOM     19  C   UNL A   1      28.734  32.757  22.700  1.00  0.00     0.278 C 
ENDBRANCH   9  18
ENDBRANCH   7   8
BRANCH   7  20
ATOM     20  N   UNL A   1      31.489  25.291  24.699  1.00  0.00    -0.312 N 
ATOM     21  C   UNL A   1      31.994  24.320  23.733  1.00  0.00     0.325 C 
ATOM     22  C   UNL A   1      32.058  25.129  26.043  1.00  0.00     0.325 C 
ATOM     23  H   UNL A   1      30.509  25.035  24.812  1.00  0.00     0.349 HD
ATOM     24  C   UNL A   1      33.448  23.844  23.869  1.00  0.00     0.324 C 
ATOM     25  C   UNL A   1      33.492  24.527  26.172  1.00  0.00     0.324 C 
ATOM     26  N   UNL A   1      33.873  23.476  25.218  1.00  0.00    -0.322 N 
ATOM     27  H   UNL A   1      34.893  23.454  25.236  1.00  0.00     0.348 HD
BRANCH  26  28
ATOM     28  C   UNL A   1      33.634  22.077  25.600  1.00  0.00     0.300 C 
BRANCH  28  29
ATOM     29  C   UNL A   1      34.606  21.035  25.074  1.00  0.00     0.014 A 
ATOM     30  C   UNL A   1      35.978  21.340  25.167  1.00  0.00     0.010 A 
ATOM     31  C   UNL A   1      34.203  19.739  24.645  1.00  0.00    -0.010 A 
ATOM     32  C   UNL A   1      36.939  20.355  25.000  1.00  0.00     0.001 A 
ATOM     33  C   UNL A   1      35.185  18.720  24.601  1.00  0.00    -0.018 A 
ATOM     34  C   UNL A   1      32.872  19.377  24.316  1.00  0.00     0.009 A 
ATOM     35  C   UNL A   1      36.540  19.042  24.776  1.00  0.00     0.009 A 
ATOM     36  C   UNL A   1      34.796  17.383  24.418  1.00  0.00     0.009 A 
ATOM     37  C   UNL A   1      32.506  18.045  24.100  1.00  0.00     0.001 A 
ATOM     38  C   UNL A   1      33.463  17.044  24.192  1.00  0.00     0.001 A 
ENDBRANCH  28  29
ENDBRANCH  26  28
ENDBRANCH   7  20
ENDBRANCH   4   7
ENDBRANCH   2   3
ENDBRANCH   1   2
BRANCH   1  39
ATOM     39  C   UNL A   1      34.389  28.501  26.514  1.00  0.00     0.118 C 
BRANCH  39  40
ATOM     40  N   UNL A   1      33.938  29.886  26.607  1.00  0.00    -0.352 N 
ATOM     41  C   UNL A   1      34.383  30.874  27.453  1.00  0.00     0.251 C 
ATOM     42  H   UNL A   1      33.223  30.145  25.982  1.00  0.00     0.163 HD
ATOM     43  O   UNL A   1      33.782  31.927  27.560  1.00  0.00    -0.269 OA
BRANCH  41  44
ATOM     44  C   UNL A   1      35.596  30.598  28.242  1.00  0.00     0.039 A 
ATOM     45  C   UNL A   1      35.518  29.725  29.325  1.00  0.00     0.014 A 
ATOM     46  C   UNL A   1      36.818  31.144  27.840  1.00  0.00     0.014 A 
ATOM     47  C   UNL A   1      36.692  29.353  29.980  1.00  0.00     0.010 A 
ATOM     48  C   UNL A   1      37.990  30.694  28.427  1.00  0.00     0.010 A 
ATOM     49  C   UNL A   1      37.936  29.809  29.514  1.00  0.00    -0.014 A 
BRANCH  49  50
ATOM     50  C   UNL A   1      39.201  29.404  30.172  1.00  0.00     0.031 A 
ATOM     51  C   UNL A   1      39.663  30.138  31.401  1.00  0.00     0.074 A 
ATOM     52  C   UNL A   1      39.954  28.426  29.633  1.00  0.00     0.049 A 
ATOM     53  N   UNL A   1      40.762  29.979  32.091  1.00  0.00    -0.248 NA
ATOM     54  C   UNL A   1      38.792  31.215  31.902  1.00  0.00     0.031 C 
ATOM     55  C   UNL A   1      39.631  27.674  28.417  1.00  0.00     0.029 A 
ATOM     56  N   UNL A   1      41.153  27.896  30.040  1.00  0.00    -0.354 N 
ATOM     57  C   UNL A   1      40.722  30.945  33.089  1.00  0.00     0.074 A 
ATOM     58  C   UNL A   1      39.525  31.726  32.878  1.00  0.00     0.031 C 
ATOM     59  C   UNL A   1      40.589  26.759  28.198  1.00  0.00     0.029 A 
ATOM     60  C   UNL A   1      41.614  26.886  29.229  1.00  0.00     0.049 A 
ATOM     61  H   UNL A   1      41.636  28.209  30.838  1.00  0.00     0.167 HD
ATOM     62  C   UNL A   1      41.590  31.147  34.107  1.00  0.00     0.031 A 
ATOM     63  C   UNL A   1      42.739  26.149  29.306  1.00  0.00     0.031 A 
ATOM     64  C   UNL A   1      42.769  30.354  34.319  1.00  0.00     0.049 A 
ATOM     65  C   UNL A   1      43.690  26.392  30.446  1.00  0.00     0.074 A 
ATOM     66  C   UNL A   1      43.687  30.438  35.350  1.00  0.00     0.029 A 
ATOM     67  N   UNL A   1      43.193  29.330  33.484  1.00  0.00    -0.354 N 
ATOM     68  N   UNL A   1      43.602  27.268  31.420  1.00  0.00    -0.248 NA
ATOM     69  C   UNL A   1      44.883  25.539  30.508  1.00  0.00     0.031 C 
ATOM     70  C   UNL A   1      44.696  29.500  35.110  1.00  0.00     0.029 A 
ATOM     71  C   UNL A   1      44.371  28.787  33.966  1.00  0.00     0.049 A 
ATOM     72  H   UNL A   1      42.725  29.033  32.671  1.00  0.00     0.167 HD
ATOM     73  C   UNL A   1      44.711  27.045  32.230  1.00  0.00     0.074 A 
ATOM     74  C   UNL A   1      45.447  25.947  31.637  1.00  0.00     0.031 C 
ATOM     75  C   UNL A   1      45.085  27.690  33.363  1.00  0.00     0.031 A 
BRANCH  62  76
ATOM     76  C   UNL A   1      41.292  32.273  35.063  1.00  0.00    -0.014 A 
ATOM     77  C   UNL A   1      41.907  33.531  34.922  1.00  0.00     0.010 A 
ATOM     78  C   UNL A   1      40.362  32.080  36.100  1.00  0.00     0.010 A 
ATOM     79  C   UNL A   1      41.630  34.560  35.827  1.00  0.00     0.020 A 
ATOM     80  C   UNL A   1      40.056  33.116  36.986  1.00  0.00     0.020 A 
ATOM     81  C   UNL A   1      40.706  34.345  36.853  1.00  0.00     0.054 A 
BRANCH  81  82
ATOM     82  S   UNL A   1      40.346  35.708  37.993  1.00  0.00     0.124 S 
ATOM     83  O   UNL A   1      39.434  35.074  38.943  1.00  0.00    -0.237 OA
ATOM     84  O   UNL A   1      41.667  36.043  38.519  1.00  0.00    -0.237 OA
ATOM     85  O   UNL A   1      39.743  36.726  37.137  1.00  0.00    -0.744 OA
ENDBRANCH  81  82
ENDBRANCH  62  76
BRANCH  63  86
ATOM     86  C   UNL A   1      43.012  25.098  28.288  1.00  0.00    -0.014 A 
ATOM     87  C   UNL A   1      43.739  25.401  27.123  1.00  0.00     0.010 A 
ATOM     88  C   UNL A   1      42.556  23.782  28.482  1.00  0.00     0.010 A 
ATOM     89  C   UNL A   1      43.986  24.416  26.162  1.00  0.00     0.020 A 
ATOM     90  C   UNL A   1      42.825  22.786  27.539  1.00  0.00     0.020 A 
ATOM     91  C   UNL A   1      43.528  23.112  26.378  1.00  0.00     0.054 A 
BRANCH  91  92
ATOM     92  S   UNL A   1      43.901  21.839  25.140  1.00  0.00     0.124 S 
ATOM     93  O   UNL A   1      45.272  21.475  25.481  1.00  0.00    -0.237 OA
ATOM     94  O   UNL A   1      42.887  20.825  25.418  1.00  0.00    -0.237 OA
ATOM     95  O   UNL A   1      43.736  22.541  23.869  1.00  0.00    -0.744 OA
ENDBRANCH  91  92
ENDBRANCH  63  86
BRANCH  75  96
ATOM     96  C   UNL A   1      46.320  27.194  34.068  1.00  0.00    -0.014 A 
ATOM     97  C   UNL A   1      46.254  26.174  35.035  1.00  0.00     0.010 A 
ATOM     98  C   UNL A   1      47.575  27.722  33.711  1.00  0.00     0.010 A 
ATOM     99  C   UNL A   1      47.419  25.716  35.655  1.00  0.00     0.020 A 
ATOM    100  C   UNL A   1      48.744  27.242  34.306  1.00  0.00     0.020 A 
ATOM    101  C   UNL A   1      48.657  26.252  35.286  1.00  0.00     0.054 A 
BRANCH 101 102
ATOM    102  S   UNL A   1      50.157  25.611  36.076  1.00  0.00     0.124 S 
ATOM    103  O   UNL A   1      49.690  25.333  37.432  1.00  0.00    -0.237 OA
ATOM    104  O   UNL A   1      50.469  24.436  35.265  1.00  0.00    -0.237 OA
ATOM    105  O   UNL A   1      51.109  26.713  35.959  1.00  0.00    -0.744 OA
ENDBRANCH 101 102
ENDBRANCH  75  96
ENDBRANCH  49  50
ENDBRANCH  41  44
ENDBRANCH  39  40
ENDBRANCH   1  39
TORSDOF 18
ENDMDL
