MODEL 1
REMARK VINA RESULT:     -10.5      0.000      0.000
REMARK SMILES CCN(C(=O)NCC(=O)NCCCNC(=O)c1ccc(-c2c3nc(c(-c4ccc(S(=O)(=O)[O-])cc4)c4ccc([nH]4)c(-c4ccc(S(=O)(=O)[O-])cc4)c4nc(c(-c5ccc(S(=O)(=O)[O-])cc5)c5ccc2[nH]5)C=C4)C=C3)cc1)C1CCCCC1
REMARK SMILES IDX 12 1 11 2 10 3 8 4 9 5 7 7 6 8 4 9 5 10 3 12 2 13 1 14 77 15
REMARK SMILES IDX 78 16 82 17 79 18 81 19 80 20 13 21 14 22 15 23 16 25 17 26
REMARK SMILES IDX 18 27 76 28 19 29 75 30 20 31 21 32 22 33 69 34 23 35 74 36
REMARK SMILES IDX 68 37 70 38 24 39 73 40 67 41 66 42 25 44 55 45 36 46 54 47
REMARK SMILES IDX 37 48 40 49 53 50 71 51 38 52 39 53 52 55 72 56 41 57 26 58
REMARK SMILES IDX 27 59 35 60 28 61 34 62 29 63 30 64 31 65 32 66 33 67 56 68
REMARK SMILES IDX 57 69 65 70 58 71 64 72 59 73 60 74 61 75 62 76 63 77 42 78
REMARK SMILES IDX 43 79 51 80 44 81 50 82 45 83 46 84 47 85 48 86 49 87
REMARK H PARENT 10 6 6 11 14 24 70 43 40 54
REMARK Flexibility Score: inf
ROOT
ATOM      1  C   UNL A   1      33.815  28.301  25.481  1.00  0.00     0.042 C 
ENDROOT
BRANCH   1   2
ATOM      2  C   UNL A   1      33.397  26.952  24.923  1.00  0.00     0.117 C 
BRANCH   2   3
ATOM      3  N   UNL A   1      33.776  26.760  23.538  1.00  0.00    -0.355 N 
ATOM      4  C   UNL A   1      33.180  26.079  22.525  1.00  0.00     0.239 C 
ATOM      5  O   UNL A   1      33.658  26.246  21.397  1.00  0.00    -0.273 OA
ATOM      6  H   UNL A   1      34.618  27.205  23.286  1.00  0.00     0.163 HD
BRANCH   4   7
ATOM      7  C   UNL A   1      31.877  25.277  22.680  1.00  0.00     0.217 C 
BRANCH   7   8
ATOM      8  N   UNL A   1      31.948  23.829  22.624  1.00  0.00    -0.329 N 
ATOM      9  C   UNL A   1      32.310  22.809  23.414  1.00  0.00     0.318 C 
ATOM     10  O   UNL A   1      32.133  21.699  22.902  1.00  0.00    -0.249 OA
ATOM     11  H   UNL A   1      31.639  23.500  21.748  1.00  0.00     0.165 HD
BRANCH   9  12
ATOM     12  N   UNL A   1      32.877  22.958  24.658  1.00  0.00    -0.322 N 
BRANCH  12  13
ATOM     13  C   UNL A   1      32.183  23.221  25.926  1.00  0.00     0.118 C 
ATOM     14  C   UNL A   1      30.757  22.698  25.948  1.00  0.00     0.027 C 
ENDBRANCH  12  13
BRANCH  12  15
ATOM     15  C   UNL A   1      34.366  23.040  24.676  1.00  0.00     0.087 C 
ATOM     16  C   UNL A   1      34.949  21.980  25.634  1.00  0.00     0.025 C 
ATOM     17  C   UNL A   1      35.015  22.975  23.284  1.00  0.00     0.025 C 
ATOM     18  C   UNL A   1      36.476  21.977  25.651  1.00  0.00     0.002 C 
ATOM     19  C   UNL A   1      36.537  23.009  23.361  1.00  0.00     0.002 C 
ATOM     20  C   UNL A   1      37.059  21.883  24.246  1.00  0.00     0.000 C 
ENDBRANCH  12  15
ENDBRANCH   9  12
ENDBRANCH   7   8
ENDBRANCH   4   7
ENDBRANCH   2   3
ENDBRANCH   1   2
BRANCH   1  21
ATOM     21  C   UNL A   1      33.564  28.432  26.977  1.00  0.00     0.118 C 
BRANCH  21  22
ATOM     22  N   UNL A   1      33.496  29.822  27.414  1.00  0.00    -0.352 N 
ATOM     23  C   UNL A   1      34.403  30.579  28.115  1.00  0.00     0.251 C 
ATOM     24  H   UNL A   1      32.667  30.293  27.169  1.00  0.00     0.163 HD
ATOM     25  O   UNL A   1      34.063  31.673  28.554  1.00  0.00    -0.269 OA
BRANCH  23  26
ATOM     26  C   UNL A   1      35.772  30.073  28.350  1.00  0.00     0.039 A 
ATOM     27  C   UNL A   1      36.694  30.100  27.301  1.00  0.00     0.014 A 
ATOM     28  C   UNL A   1      36.144  29.564  29.596  1.00  0.00     0.014 A 
ATOM     29  C   UNL A   1      38.009  29.685  27.525  1.00  0.00     0.010 A 
ATOM     30  C   UNL A   1      37.473  29.239  29.843  1.00  0.00     0.010 A 
ATOM     31  C   UNL A   1      38.419  29.292  28.809  1.00  0.00    -0.014 A 
BRANCH  31  32
ATOM     32  C   UNL A   1      39.833  28.943  29.096  1.00  0.00     0.031 A 
ATOM     33  C   UNL A   1      40.755  29.959  29.713  1.00  0.00     0.074 A 
ATOM     34  C   UNL A   1      40.303  27.731  28.739  1.00  0.00     0.049 A 
ATOM     35  N   UNL A   1      42.031  29.856  29.985  1.00  0.00    -0.248 NA
ATOM     36  C   UNL A   1      40.175  31.270  30.045  1.00  0.00     0.031 C 
ATOM     37  C   UNL A   1      39.516  26.671  28.102  1.00  0.00     0.029 A 
ATOM     38  N   UNL A   1      41.556  27.186  28.859  1.00  0.00    -0.354 N 
ATOM     39  C   UNL A   1      42.406  31.087  30.510  1.00  0.00     0.074 A 
ATOM     40  C   UNL A   1      41.240  31.940  30.460  1.00  0.00     0.031 C 
ATOM     41  C   UNL A   1      40.295  25.593  27.924  1.00  0.00     0.029 A 
ATOM     42  C   UNL A   1      41.645  25.898  28.384  1.00  0.00     0.049 A 
ATOM     43  H   UNL A   1      42.320  27.671  29.247  1.00  0.00     0.167 HD
ATOM     44  C   UNL A   1      43.607  31.469  31.010  1.00  0.00     0.031 A 
ATOM     45  C   UNL A   1      42.697  25.059  28.321  1.00  0.00     0.031 A 
ATOM     46  C   UNL A   1      44.767  30.618  31.050  1.00  0.00     0.049 A 
ATOM     47  C   UNL A   1      44.032  25.519  28.840  1.00  0.00     0.074 A 
ATOM     48  C   UNL A   1      46.020  30.894  31.570  1.00  0.00     0.029 A 
ATOM     49  N   UNL A   1      44.821  29.327  30.543  1.00  0.00    -0.354 N 
ATOM     50  N   UNL A   1      44.352  26.667  29.388  1.00  0.00    -0.248 NA
ATOM     51  C   UNL A   1      45.145  24.565  28.738  1.00  0.00     0.031 C 
ATOM     52  C   UNL A   1      46.848  29.794  31.323  1.00  0.00     0.029 A 
ATOM     53  C   UNL A   1      46.093  28.805  30.711  1.00  0.00     0.049 A 
ATOM     54  H   UNL A   1      44.067  28.853  30.125  1.00  0.00     0.167 HD
ATOM     55  C   UNL A   1      45.698  26.562  29.725  1.00  0.00     0.074 A 
ATOM     56  C   UNL A   1      46.124  25.234  29.332  1.00  0.00     0.031 C 
ATOM     57  C   UNL A   1      46.506  27.483  30.309  1.00  0.00     0.031 A 
BRANCH  44  58
ATOM     58  C   UNL A   1      43.720  32.875  31.541  1.00  0.00    -0.014 A 
ATOM     59  C   UNL A   1      43.432  33.169  32.888  1.00  0.00     0.010 A 
ATOM     60  C   UNL A   1      44.135  33.915  30.691  1.00  0.00     0.010 A 
ATOM     61  C   UNL A   1      43.500  34.485  33.357  1.00  0.00     0.020 A 
ATOM     62  C   UNL A   1      44.237  35.227  31.164  1.00  0.00     0.020 A 
ATOM     63  C   UNL A   1      43.897  35.506  32.490  1.00  0.00     0.054 A 
BRANCH  63  64
ATOM     64  S   UNL A   1      43.974  37.203  33.126  1.00  0.00     0.124 S 
ATOM     65  O   UNL A   1      42.859  37.221  34.070  1.00  0.00    -0.237 OA
ATOM     66  O   UNL A   1      45.305  37.259  33.726  1.00  0.00    -0.237 OA
ATOM     67  O   UNL A   1      43.795  38.029  31.935  1.00  0.00    -0.744 OA
ENDBRANCH  63  64
ENDBRANCH  44  58
BRANCH  45  68
ATOM     68  C   UNL A   1      42.521  23.689  27.766  1.00  0.00    -0.014 A 
ATOM     69  C   UNL A   1      42.713  23.447  26.395  1.00  0.00     0.010 A 
ATOM     70  C   UNL A   1      42.183  22.612  28.608  1.00  0.00     0.010 A 
ATOM     71  C   UNL A   1      42.555  22.160  25.872  1.00  0.00     0.020 A 
ATOM     72  C   UNL A   1      42.055  21.318  28.094  1.00  0.00     0.020 A 
ATOM     73  C   UNL A   1      42.233  21.103  26.726  1.00  0.00     0.054 A 
BRANCH  73  74
ATOM     74  S   UNL A   1      42.092  19.433  26.031  1.00  0.00     0.124 S 
ATOM     75  O   UNL A   1      42.951  19.519  24.855  1.00  0.00    -0.237 OA
ATOM     76  O   UNL A   1      42.590  18.596  27.120  1.00  0.00    -0.237 OA
ATOM     77  O   UNL A   1      40.663  19.297  25.753  1.00  0.00    -0.744 OA
ENDBRANCH  73  74
ENDBRANCH  45  68
BRANCH  57  78
ATOM     78  C   UNL A   1      47.929  27.075  30.591  1.00  0.00    -0.014 A 
ATOM     79  C   UNL A   1      48.969  27.378  29.694  1.00  0.00     0.010 A 
ATOM     80  C   UNL A   1      48.236  26.422  31.799  1.00  0.00     0.010 A 
ATOM     81  C   UNL A   1      50.285  27.007  29.986  1.00  0.00     0.020 A 
ATOM     82  C   UNL A   1      49.554  26.078  32.109  1.00  0.00     0.020 A 
ATOM     83  C   UNL A   1      50.569  26.360  31.193  1.00  0.00     0.054 A 
BRANCH  83  84
ATOM     84  S   UNL A   1      52.290  25.930  31.568  1.00  0.00     0.124 S 
ATOM     85  O   UNL A   1      52.160  24.565  32.069  1.00  0.00    -0.237 OA
ATOM     86  O   UNL A   1      52.943  26.064  30.268  1.00  0.00    -0.237 OA
ATOM     87  O   UNL A   1      52.688  26.924  32.563  1.00  0.00    -0.744 OA
ENDBRANCH  83  84
ENDBRANCH  57  78
ENDBRANCH  31  32
ENDBRANCH  23  26
ENDBRANCH  21  22
ENDBRANCH   1  21
TORSDOF 17
ENDMDL
MODEL 2
REMARK VINA RESULT:     -10.0      3.546      6.519
REMARK SMILES CCN(C(=O)NCC(=O)NCCCNC(=O)c1ccc(-c2c3nc(c(-c4ccc(S(=O)(=O)[O-])cc4)c4ccc([nH]4)c(-c4ccc(S(=O)(=O)[O-])cc4)c4nc(c(-c5ccc(S(=O)(=O)[O-])cc5)c5ccc2[nH]5)C=C4)C=C3)cc1)C1CCCCC1
REMARK SMILES IDX 12 1 11 2 10 3 8 4 9 5 7 7 6 8 4 9 5 10 3 12 2 13 1 14 77 15
REMARK SMILES IDX 78 16 82 17 79 18 81 19 80 20 13 21 14 22 15 23 16 25 17 26
REMARK SMILES IDX 18 27 76 28 19 29 75 30 20 31 21 32 22 33 69 34 23 35 74 36
REMARK SMILES IDX 68 37 70 38 24 39 73 40 67 41 66 42 25 44 55 45 36 46 54 47
REMARK SMILES IDX 37 48 40 49 53 50 71 51 38 52 39 53 52 55 72 56 41 57 26 58
REMARK SMILES IDX 27 59 35 60 28 61 34 62 29 63 30 64 31 65 32 66 33 67 56 68
REMARK SMILES IDX 57 69 65 70 58 71 64 72 59 73 60 74 61 75 62 76 63 77 42 78
REMARK SMILES IDX 43 79 51 80 44 81 50 82 45 83 46 84 47 85 48 86 49 87
REMARK H PARENT 10 6 6 11 14 24 70 43 40 54
REMARK Flexibility Score: inf
ROOT
ATOM      1  C   UNL A   1      34.736  34.070  29.113  1.00  0.00     0.042 C 
ENDROOT
BRANCH   1   2
ATOM      2  C   UNL A   1      34.681  33.444  30.496  1.00  0.00     0.117 C 
BRANCH   2   3
ATOM      3  N   UNL A   1      34.741  34.415  31.569  1.00  0.00    -0.355 N 
ATOM      4  C   UNL A   1      35.621  34.578  32.591  1.00  0.00     0.239 C 
ATOM      5  O   UNL A   1      35.506  35.617  33.253  1.00  0.00    -0.273 OA
ATOM      6  H   UNL A   1      34.012  35.078  31.554  1.00  0.00     0.163 HD
BRANCH   4   7
ATOM      7  C   UNL A   1      36.822  33.652  32.846  1.00  0.00     0.217 C 
BRANCH   7   8
ATOM      8  N   UNL A   1      36.879  32.926  34.100  1.00  0.00    -0.329 N 
ATOM      9  C   UNL A   1      37.804  32.444  34.942  1.00  0.00     0.318 C 
ATOM     10  O   UNL A   1      37.327  31.916  35.952  1.00  0.00    -0.249 OA
ATOM     11  H   UNL A   1      35.972  32.730  34.429  1.00  0.00     0.165 HD
BRANCH   9  12
ATOM     12  N   UNL A   1      39.158  32.474  34.703  1.00  0.00    -0.322 N 
BRANCH  12  13
ATOM     13  C   UNL A   1      40.092  33.564  35.013  1.00  0.00     0.118 C 
ATOM     14  C   UNL A   1      40.275  34.541  33.864  1.00  0.00     0.027 C 
ENDBRANCH  12  13
BRANCH  12  15
ATOM     15  C   UNL A   1      39.685  31.350  33.876  1.00  0.00     0.087 C 
ATOM     16  C   UNL A   1      41.033  30.855  34.443  1.00  0.00     0.025 C 
ATOM     17  C   UNL A   1      38.689  30.196  33.677  1.00  0.00     0.025 C 
ATOM     18  C   UNL A   1      41.596  29.665  33.671  1.00  0.00     0.002 C 
ATOM     19  C   UNL A   1      39.294  29.051  32.872  1.00  0.00     0.002 C 
ATOM     20  C   UNL A   1      40.572  28.544  33.530  1.00  0.00     0.000 C 
ENDBRANCH  12  15
ENDBRANCH   9  12
ENDBRANCH   7   8
ENDBRANCH   4   7
ENDBRANCH   2   3
ENDBRANCH   1   2
BRANCH   1  21
ATOM     21  C   UNL A   1      35.147  33.085  28.028  1.00  0.00     0.118 C 
BRANCH  21  22
ATOM     22  N   UNL A   1      34.220  31.964  27.907  1.00  0.00    -0.352 N 
ATOM     23  C   UNL A   1      34.461  30.613  27.856  1.00  0.00     0.251 C 
ATOM     24  H   UNL A   1      33.270  32.216  27.853  1.00  0.00     0.163 HD
ATOM     25  O   UNL A   1      33.551  29.850  27.551  1.00  0.00    -0.269 OA
BRANCH  23  26
ATOM     26  C   UNL A   1      35.810  30.085  28.150  1.00  0.00     0.039 A 
ATOM     27  C   UNL A   1      36.756  30.035  27.123  1.00  0.00     0.014 A 
ATOM     28  C   UNL A   1      36.141  29.631  29.428  1.00  0.00     0.014 A 
ATOM     29  C   UNL A   1      38.055  29.601  27.399  1.00  0.00     0.010 A 
ATOM     30  C   UNL A   1      37.454  29.286  29.723  1.00  0.00     0.010 A 
ATOM     31  C   UNL A   1      38.425  29.264  28.712  1.00  0.00    -0.014 A 
BRANCH  31  32
ATOM     32  C   UNL A   1      39.823  28.894  29.050  1.00  0.00     0.031 A 
ATOM     33  C   UNL A   1      40.733  29.894  29.709  1.00  0.00     0.074 A 
ATOM     34  C   UNL A   1      40.291  27.679  28.702  1.00  0.00     0.049 A 
ATOM     35  N   UNL A   1      41.996  29.773  30.030  1.00  0.00    -0.248 NA
ATOM     36  C   UNL A   1      40.156  31.209  30.030  1.00  0.00     0.031 C 
ATOM     37  C   UNL A   1      39.516  26.634  28.027  1.00  0.00     0.029 A 
ATOM     38  N   UNL A   1      41.531  27.117  28.865  1.00  0.00    -0.354 N 
ATOM     39  C   UNL A   1      42.365  30.996  30.578  1.00  0.00     0.074 A 
ATOM     40  C   UNL A   1      41.212  31.864  30.490  1.00  0.00     0.031 C 
ATOM     41  C   UNL A   1      40.288  25.547  27.871  1.00  0.00     0.029 A 
ATOM     42  C   UNL A   1      41.623  25.832  28.385  1.00  0.00     0.049 A 
ATOM     43  H   UNL A   1      42.285  27.590  29.287  1.00  0.00     0.167 HD
ATOM     44  C   UNL A   1      43.551  31.358  31.127  1.00  0.00     0.031 A 
ATOM     45  C   UNL A   1      42.666  24.981  28.356  1.00  0.00     0.031 A 
ATOM     46  C   UNL A   1      44.698  30.493  31.205  1.00  0.00     0.049 A 
ATOM     47  C   UNL A   1      43.985  25.420  28.929  1.00  0.00     0.074 A 
ATOM     48  C   UNL A   1      45.933  30.749  31.775  1.00  0.00     0.029 A 
ATOM     49  N   UNL A   1      44.756  29.205  30.690  1.00  0.00    -0.354 N 
ATOM     50  N   UNL A   1      44.299  26.559  29.498  1.00  0.00    -0.248 NA
ATOM     51  C   UNL A   1      45.090  24.453  28.863  1.00  0.00     0.031 C 
ATOM     52  C   UNL A   1      46.756  29.640  31.551  1.00  0.00     0.029 A 
ATOM     53  C   UNL A   1      46.013  28.665  30.904  1.00  0.00     0.049 A 
ATOM     54  H   UNL A   1      44.012  28.743  30.241  1.00  0.00     0.167 HD
ATOM     55  C   UNL A   1      45.629  26.435  29.885  1.00  0.00     0.074 A 
ATOM     56  C   UNL A   1      46.054  25.105  29.499  1.00  0.00     0.031 C 
ATOM     57  C   UNL A   1      46.425  27.341  30.508  1.00  0.00     0.031 A 
BRANCH  44  58
ATOM     58  C   UNL A   1      43.661  32.759  31.673  1.00  0.00    -0.014 A 
ATOM     59  C   UNL A   1      43.619  33.878  30.820  1.00  0.00     0.010 A 
ATOM     60  C   UNL A   1      43.792  32.964  33.058  1.00  0.00     0.010 A 
ATOM     61  C   UNL A   1      43.766  35.169  31.335  1.00  0.00     0.020 A 
ATOM     62  C   UNL A   1      43.904  34.256  33.581  1.00  0.00     0.020 A 
ATOM     63  C   UNL A   1      43.912  35.350  32.713  1.00  0.00     0.054 A 
BRANCH  63  64
ATOM     64  S   UNL A   1      44.102  37.036  33.352  1.00  0.00     0.124 S 
ATOM     65  O   UNL A   1      45.463  37.006  33.881  1.00  0.00    -0.237 OA
ATOM     66  O   UNL A   1      43.911  37.854  32.156  1.00  0.00    -0.237 OA
ATOM     67  O   UNL A   1      43.046  37.148  34.355  1.00  0.00    -0.744 OA
ENDBRANCH  63  64
ENDBRANCH  44  58
BRANCH  45  68
ATOM     68  C   UNL A   1      42.495  23.616  27.784  1.00  0.00    -0.014 A 
ATOM     69  C   UNL A   1      42.803  23.367  26.435  1.00  0.00     0.010 A 
ATOM     70  C   UNL A   1      42.045  22.552  28.589  1.00  0.00     0.010 A 
ATOM     71  C   UNL A   1      42.649  22.086  25.897  1.00  0.00     0.020 A 
ATOM     72  C   UNL A   1      41.920  21.263  28.062  1.00  0.00     0.020 A 
ATOM     73  C   UNL A   1      42.215  21.041  26.716  1.00  0.00     0.054 A 
BRANCH  73  74
ATOM     74  S   UNL A   1      42.081  19.376  26.007  1.00  0.00     0.124 S 
ATOM     75  O   UNL A   1      42.911  19.486  24.812  1.00  0.00    -0.237 OA
ATOM     76  O   UNL A   1      42.616  18.536  27.075  1.00  0.00    -0.237 OA
ATOM     77  O   UNL A   1      40.648  19.222  25.761  1.00  0.00    -0.744 OA
ENDBRANCH  73  74
ENDBRANCH  45  68
BRANCH  57  78
ATOM     78  C   UNL A   1      47.831  26.913  30.841  1.00  0.00    -0.014 A 
ATOM     79  C   UNL A   1      48.906  27.197  29.980  1.00  0.00     0.010 A 
ATOM     80  C   UNL A   1      48.085  26.261  32.061  1.00  0.00     0.010 A 
ATOM     81  C   UNL A   1      50.205  26.807  30.320  1.00  0.00     0.020 A 
ATOM     82  C   UNL A   1      49.386  25.898  32.419  1.00  0.00     0.020 A 
ATOM     83  C   UNL A   1      50.437  26.162  31.538  1.00  0.00     0.054 A 
BRANCH  83  84
ATOM     84  S   UNL A   1      52.137  25.708  31.974  1.00  0.00     0.124 S 
ATOM     85  O   UNL A   1      51.993  24.301  32.336  1.00  0.00    -0.237 OA
ATOM     86  O   UNL A   1      52.866  25.967  30.735  1.00  0.00    -0.237 OA
ATOM     87  O   UNL A   1      52.464  26.605  33.081  1.00  0.00    -0.744 OA
ENDBRANCH  83  84
ENDBRANCH  57  78
ENDBRANCH  31  32
ENDBRANCH  23  26
ENDBRANCH  21  22
ENDBRANCH   1  21
TORSDOF 17
ENDMDL
MODEL 3
REMARK VINA RESULT:     -10.0      3.723     10.812
REMARK SMILES CCN(C(=O)NCC(=O)NCCCNC(=O)c1ccc(-c2c3nc(c(-c4ccc(S(=O)(=O)[O-])cc4)c4ccc([nH]4)c(-c4ccc(S(=O)(=O)[O-])cc4)c4nc(c(-c5ccc(S(=O)(=O)[O-])cc5)c5ccc2[nH]5)C=C4)C=C3)cc1)C1CCCCC1
REMARK SMILES IDX 12 1 11 2 10 3 8 4 9 5 7 7 6 8 4 9 5 10 3 12 2 13 1 14 77 15
REMARK SMILES IDX 78 16 82 17 79 18 81 19 80 20 13 21 14 22 15 23 16 25 17 26
REMARK SMILES IDX 18 27 76 28 19 29 75 30 20 31 21 32 22 33 69 34 23 35 74 36
REMARK SMILES IDX 68 37 70 38 24 39 73 40 67 41 66 42 25 44 55 45 36 46 54 47
REMARK SMILES IDX 37 48 40 49 53 50 71 51 38 52 39 53 52 55 72 56 41 57 26 58
REMARK SMILES IDX 27 59 35 60 28 61 34 62 29 63 30 64 31 65 32 66 33 67 56 68
REMARK SMILES IDX 57 69 65 70 58 71 64 72 59 73 60 74 61 75 62 76 63 77 42 78
REMARK SMILES IDX 43 79 51 80 44 81 50 82 45 83 46 84 47 85 48 86 49 87
REMARK H PARENT 10 6 6 11 14 24 70 43 40 54
REMARK Flexibility Score: inf
ROOT
ATOM      1  C   UNL A   1      41.313  20.835  26.213  1.00  0.00     0.042 C 
ENDROOT
BRANCH   1   2
ATOM      2  C   UNL A   1      42.449  21.739  25.768  1.00  0.00     0.117 C 
BRANCH   2   3
ATOM      3  N   UNL A   1      43.493  21.039  25.049  1.00  0.00    -0.355 N 
ATOM      4  C   UNL A   1      44.837  21.230  24.997  1.00  0.00     0.239 C 
ATOM      5  O   UNL A   1      45.493  20.350  24.425  1.00  0.00    -0.273 OA
ATOM      6  H   UNL A   1      43.170  20.288  24.499  1.00  0.00     0.163 HD
BRANCH   4   7
ATOM      7  C   UNL A   1      45.574  22.356  25.741  1.00  0.00     0.217 C 
BRANCH   7   8
ATOM      8  N   UNL A   1      46.277  23.354  24.957  1.00  0.00    -0.329 N 
ATOM      9  C   UNL A   1      46.743  24.602  25.104  1.00  0.00     0.318 C 
ATOM     10  O   UNL A   1      47.343  25.026  24.111  1.00  0.00    -0.249 OA
ATOM     11  H   UNL A   1      46.468  23.014  24.053  1.00  0.00     0.165 HD
BRANCH   9  12
ATOM     12  N   UNL A   1      46.540  25.377  26.221  1.00  0.00    -0.322 N 
BRANCH  12  13
ATOM     13  C   UNL A   1      46.736  24.986  27.623  1.00  0.00     0.118 C 
ATOM     14  C   UNL A   1      48.191  25.030  28.060  1.00  0.00     0.027 C 
ENDBRANCH  12  13
BRANCH  12  15
ATOM     15  C   UNL A   1      45.877  26.690  25.976  1.00  0.00     0.087 C 
ATOM     16  C   UNL A   1      44.344  26.515  25.925  1.00  0.00     0.025 C 
ATOM     17  C   UNL A   1      46.295  27.798  26.958  1.00  0.00     0.025 C 
ATOM     18  C   UNL A   1      43.605  27.837  25.734  1.00  0.00     0.002 C 
ATOM     19  C   UNL A   1      45.549  29.102  26.699  1.00  0.00     0.002 C 
ATOM     20  C   UNL A   1      44.042  28.884  26.752  1.00  0.00     0.000 C 
ENDBRANCH  12  15
ENDBRANCH   9  12
ENDBRANCH   7   8
ENDBRANCH   4   7
ENDBRANCH   2   3
ENDBRANCH   1   2
BRANCH   1  21
ATOM     21  C   UNL A   1      40.218  21.578  26.966  1.00  0.00     0.118 C 
BRANCH  21  22
ATOM     22  N   UNL A   1      39.190  22.112  26.079  1.00  0.00    -0.352 N 
ATOM     23  C   UNL A   1      38.632  23.366  26.018  1.00  0.00     0.251 C 
ATOM     24  H   UNL A   1      38.841  21.473  25.417  1.00  0.00     0.163 HD
ATOM     25  O   UNL A   1      37.637  23.549  25.325  1.00  0.00    -0.269 OA
BRANCH  23  26
ATOM     26  C   UNL A   1      39.216  24.479  26.796  1.00  0.00     0.039 A 
ATOM     27  C   UNL A   1      40.065  25.383  26.152  1.00  0.00     0.014 A 
ATOM     28  C   UNL A   1      38.937  24.629  28.156  1.00  0.00     0.014 A 
ATOM     29  C   UNL A   1      40.573  26.477  26.856  1.00  0.00     0.010 A 
ATOM     30  C   UNL A   1      39.368  25.765  28.831  1.00  0.00     0.010 A 
ATOM     31  C   UNL A   1      40.193  26.700  28.189  1.00  0.00    -0.014 A 
BRANCH  31  32
ATOM     32  C   UNL A   1      40.639  27.908  28.929  1.00  0.00     0.031 A 
ATOM     33  C   UNL A   1      42.004  27.949  29.560  1.00  0.00     0.074 A 
ATOM     34  C   UNL A   1      39.788  28.941  29.088  1.00  0.00     0.049 A 
ATOM     35  N   UNL A   1      42.547  28.892  30.288  1.00  0.00    -0.248 NA
ATOM     36  C   UNL A   1      42.862  26.770  29.367  1.00  0.00     0.031 C 
ATOM     37  C   UNL A   1      38.425  29.006  28.553  1.00  0.00     0.029 A 
ATOM     38  N   UNL A   1      39.942  30.134  29.746  1.00  0.00    -0.354 N 
ATOM     39  C   UNL A   1      43.802  28.415  30.648  1.00  0.00     0.074 A 
ATOM     40  C   UNL A   1      43.916  27.077  30.110  1.00  0.00     0.031 C 
ATOM     41  C   UNL A   1      37.884  30.192  28.872  1.00  0.00     0.029 A 
ATOM     42  C   UNL A   1      38.837  30.950  29.675  1.00  0.00     0.049 A 
ATOM     43  H   UNL A   1      40.765  30.382  30.226  1.00  0.00     0.167 HD
ATOM     44  C   UNL A   1      44.782  29.042  31.343  1.00  0.00     0.031 A 
ATOM     45  C   UNL A   1      38.614  32.169  30.202  1.00  0.00     0.031 A 
ATOM     46  C   UNL A   1      44.661  30.370  31.882  1.00  0.00     0.049 A 
ATOM     47  C   UNL A   1      39.699  32.828  31.008  1.00  0.00     0.074 A 
ATOM     48  C   UNL A   1      45.608  31.111  32.569  1.00  0.00     0.029 A 
ATOM     49  N   UNL A   1      43.520  31.156  31.804  1.00  0.00    -0.354 N 
ATOM     50  N   UNL A   1      40.902  32.386  31.287  1.00  0.00    -0.248 NA
ATOM     51  C   UNL A   1      39.397  34.154  31.565  1.00  0.00     0.031 C 
ATOM     52  C   UNL A   1      45.019  32.319  32.958  1.00  0.00     0.029 A 
ATOM     53  C   UNL A   1      43.728  32.361  32.454  1.00  0.00     0.049 A 
ATOM     54  H   UNL A   1      42.685  30.896  31.352  1.00  0.00     0.167 HD
ATOM     55  C   UNL A   1      41.513  33.393  32.027  1.00  0.00     0.074 A 
ATOM     56  C   UNL A   1      40.551  34.471  32.138  1.00  0.00     0.031 C 
ATOM     57  C   UNL A   1      42.759  33.423  32.563  1.00  0.00     0.031 A 
BRANCH  44  58
ATOM     58  C   UNL A   1      46.066  28.283  31.566  1.00  0.00    -0.014 A 
ATOM     59  C   UNL A   1      47.111  28.328  30.624  1.00  0.00     0.010 A 
ATOM     60  C   UNL A   1      46.239  27.526  32.739  1.00  0.00     0.010 A 
ATOM     61  C   UNL A   1      48.279  27.585  30.823  1.00  0.00     0.020 A 
ATOM     62  C   UNL A   1      47.419  26.810  32.959  1.00  0.00     0.020 A 
ATOM     63  C   UNL A   1      48.423  26.826  31.988  1.00  0.00     0.054 A 
BRANCH  63  64
ATOM     64  S   UNL A   1      49.948  25.872  32.218  1.00  0.00     0.124 S 
ATOM     65  O   UNL A   1      50.900  26.914  32.597  1.00  0.00    -0.237 OA
ATOM     66  O   UNL A   1      49.583  24.938  33.281  1.00  0.00    -0.237 OA
ATOM     67  O   UNL A   1      50.178  25.265  30.910  1.00  0.00    -0.744 OA
ENDBRANCH  63  64
ENDBRANCH  44  58
BRANCH  45  68
ATOM     68  C   UNL A   1      37.315  32.857  29.958  1.00  0.00    -0.014 A 
ATOM     69  C   UNL A   1      37.116  33.603  28.783  1.00  0.00     0.010 A 
ATOM     70  C   UNL A   1      36.263  32.752  30.887  1.00  0.00     0.010 A 
ATOM     71  C   UNL A   1      35.897  34.244  28.548  1.00  0.00     0.020 A 
ATOM     72  C   UNL A   1      35.031  33.366  30.640  1.00  0.00     0.020 A 
ATOM     73  C   UNL A   1      34.860  34.116  29.476  1.00  0.00     0.054 A 
BRANCH  73  74
ATOM     74  S   UNL A   1      33.268  34.910  29.118  1.00  0.00     0.124 S 
ATOM     75  O   UNL A   1      33.683  36.229  28.651  1.00  0.00    -0.237 OA
ATOM     76  O   UNL A   1      32.699  34.028  28.101  1.00  0.00    -0.237 OA
ATOM     77  O   UNL A   1      32.578  34.891  30.406  1.00  0.00    -0.744 OA
ENDBRANCH  73  74
ENDBRANCH  45  68
BRANCH  57  78
ATOM     78  C   UNL A   1      43.168  34.677  33.293  1.00  0.00    -0.014 A 
ATOM     79  C   UNL A   1      43.014  34.797  34.686  1.00  0.00     0.010 A 
ATOM     80  C   UNL A   1      43.765  35.731  32.577  1.00  0.00     0.010 A 
ATOM     81  C   UNL A   1      43.420  35.962  35.343  1.00  0.00     0.020 A 
ATOM     82  C   UNL A   1      44.200  36.884  33.235  1.00  0.00     0.020 A 
ATOM     83  C   UNL A   1      44.012  36.997  34.614  1.00  0.00     0.054 A 
BRANCH  83  84
ATOM     84  S   UNL A   1      44.570  38.479  35.498  1.00  0.00     0.124 S 
ATOM     85  O   UNL A   1      46.022  38.349  35.423  1.00  0.00    -0.237 OA
ATOM     86  O   UNL A   1      43.994  39.561  34.704  1.00  0.00    -0.237 OA
ATOM     87  O   UNL A   1      43.999  38.322  36.834  1.00  0.00    -0.744 OA
ENDBRANCH  83  84
ENDBRANCH  57  78
ENDBRANCH  31  32
ENDBRANCH  23  26
ENDBRANCH  21  22
ENDBRANCH   1  21
TORSDOF 17
ENDMDL
