MODEL 1
REMARK VINA RESULT:     -12.0      0.000      0.000
REMARK SMILES Cc1cc(C(=O)NCCCNC(=O)c2ccc(-c3c4nc(c(-c5ccc(S(=O)(=O)[O-])cc5)c5ccc([nH]5)c(-c5ccc(S(=O)(=O)[O-])cc5)c5nc(c(-c6ccc(S(=O)(=O)[O-])cc6)c6ccc3[nH]6)C=C5)C=C4)cc2)ccc1NC(=O)N1C[C@@H](C)[C@H](C)C1
REMARK SMILES IDX 10 1 9 2 8 3 7 4 5 5 6 6 4 8 1 9 2 10 3 11 76 12 75 13 74 14
REMARK SMILES IDX 77 15 78 16 79 18 80 19 81 20 86 21 82 22 84 23 83 24 85 25
REMARK SMILES IDX 11 26 12 27 13 29 14 30 15 31 73 32 16 33 72 34 17 35 18 36
REMARK SMILES IDX 19 37 66 38 20 39 71 40 65 41 67 42 21 43 70 44 64 45 63 46
REMARK SMILES IDX 22 48 52 49 33 50 51 51 34 52 37 53 50 54 68 55 35 56 36 57
REMARK SMILES IDX 49 59 69 60 38 61 23 62 24 63 32 64 25 65 31 66 26 67 27 68
REMARK SMILES IDX 28 69 29 70 30 71 53 72 54 73 62 74 55 75 61 76 56 77 57 78
REMARK SMILES IDX 58 79 59 80 60 81 39 82 40 83 48 84 41 85 47 86 42 87 43 88
REMARK SMILES IDX 44 89 45 90 46 91
REMARK H PARENT 7 7 77 17 11 28 67 47 37 58
REMARK Flexibility Score: inf
ROOT
ATOM      1  C   UNL A   1      36.321  29.569  28.335  1.00  0.00     0.118 C 
ENDROOT
BRANCH   1   2
ATOM      2  C   UNL A   1      35.665  31.014  28.140  1.00  0.00     0.042 C 
BRANCH   2   3
ATOM      3  C   UNL A   1      34.219  31.084  27.420  1.00  0.00     0.118 C 
BRANCH   3   4
ATOM      4  N   UNL A   1      33.137  30.126  27.757  1.00  0.00    -0.352 N 
ATOM      5  C   UNL A   1      32.498  29.075  27.124  1.00  0.00     0.251 C 
ATOM      6  O   UNL A   1      31.889  28.190  27.722  1.00  0.00    -0.269 OA
ATOM      7  H   UNL A   1      32.785  30.277  28.663  1.00  0.00     0.163 HD
BRANCH   5   8
ATOM      8  C   UNL A   1      32.537  29.013  25.663  1.00  0.00     0.040 A 
ATOM      9  C   UNL A   1      30.215  29.203  22.683  1.00  0.00     0.046 C 
ATOM     10  C   UNL A   1      31.397  28.839  23.535  1.00  0.00    -0.027 A 
ATOM     11  C   UNL A   1      31.407  29.256  24.876  1.00  0.00     0.019 A 
ATOM     12  C   UNL A   1      32.519  28.126  23.073  1.00  0.00     0.045 A 
ATOM     13  C   UNL A   1      33.726  28.220  23.776  1.00  0.00     0.027 A 
ATOM     14  C   UNL A   1      33.744  28.685  25.072  1.00  0.00     0.016 A 
BRANCH  12  15
ATOM     15  N   UNL A   1      32.435  27.289  21.945  1.00  0.00    -0.308 N 
ATOM     16  C   UNL A   1      32.894  26.007  21.800  1.00  0.00     0.321 C 
ATOM     17  H   UNL A   1      31.987  27.674  21.158  1.00  0.00     0.171 HD
ATOM     18  O   UNL A   1      33.183  25.602  20.673  1.00  0.00    -0.248 OA
ATOM     19  N   UNL A   1      32.990  25.203  22.909  1.00  0.00    -0.324 N 
ATOM     20  C   UNL A   1      34.029  24.203  23.028  1.00  0.00     0.125 C 
ATOM     21  C   UNL A   1      31.899  24.952  23.849  1.00  0.00     0.125 C 
ATOM     22  C   UNL A   1      33.407  23.063  23.826  1.00  0.00     0.010 C 
ATOM     23  C   UNL A   1      32.363  23.768  24.711  1.00  0.00     0.010 C 
ATOM     24  C   UNL A   1      34.444  22.292  24.632  1.00  0.00     0.010 C 
ATOM     25  C   UNL A   1      31.230  22.840  25.148  1.00  0.00     0.010 C 
ENDBRANCH  12  15
ENDBRANCH   5   8
ENDBRANCH   3   4
ENDBRANCH   2   3
ENDBRANCH   1   2
BRANCH   1  26
ATOM     26  N   UNL A   1      37.836  29.220  28.142  1.00  0.00    -0.352 N 
ATOM     27  C   UNL A   1      38.692  28.153  28.643  1.00  0.00     0.251 C 
ATOM     28  H   UNL A   1      38.310  29.857  27.558  1.00  0.00     0.163 HD
ATOM     29  O   UNL A   1      38.977  27.288  27.797  1.00  0.00    -0.269 OA
BRANCH  27  30
ATOM     30  C   UNL A   1      39.426  27.957  30.037  1.00  0.00     0.039 A 
ATOM     31  C   UNL A   1      38.677  27.878  31.256  1.00  0.00     0.014 A 
ATOM     32  C   UNL A   1      40.801  27.984  30.252  1.00  0.00     0.014 A 
ATOM     33  C   UNL A   1      39.228  28.342  32.523  1.00  0.00     0.010 A 
ATOM     34  C   UNL A   1      41.347  28.446  31.500  1.00  0.00     0.010 A 
ATOM     35  C   UNL A   1      40.539  28.856  32.576  1.00  0.00    -0.014 A 
BRANCH  35  36
ATOM     36  C   UNL A   1      40.977  30.024  33.473  1.00  0.00     0.031 A 
ATOM     37  C   UNL A   1      41.786  29.820  34.670  1.00  0.00     0.074 A 
ATOM     38  C   UNL A   1      40.851  31.370  33.246  1.00  0.00     0.049 A 
ATOM     39  N   UNL A   1      41.520  30.303  35.843  1.00  0.00    -0.248 NA
ATOM     40  C   UNL A   1      43.067  29.147  34.561  1.00  0.00     0.031 C 
ATOM     41  C   UNL A   1      41.335  32.587  33.926  1.00  0.00     0.029 A 
ATOM     42  N   UNL A   1      40.227  31.977  32.190  1.00  0.00    -0.354 N 
ATOM     43  C   UNL A   1      42.725  30.302  36.513  1.00  0.00     0.074 A 
ATOM     44  C   UNL A   1      43.572  29.380  35.774  1.00  0.00     0.031 C 
ATOM     45  C   UNL A   1      40.649  33.669  33.476  1.00  0.00     0.029 A 
ATOM     46  C   UNL A   1      39.667  33.205  32.518  1.00  0.00     0.049 A 
ATOM     47  H   UNL A   1      40.179  31.583  31.289  1.00  0.00     0.167 HD
ATOM     48  C   UNL A   1      43.062  31.279  37.411  1.00  0.00     0.031 A 
ATOM     49  C   UNL A   1      38.299  33.338  32.496  1.00  0.00     0.031 A 
ATOM     50  C   UNL A   1      42.124  32.421  37.395  1.00  0.00     0.049 A 
ATOM     51  C   UNL A   1      37.786  33.408  33.910  1.00  0.00     0.074 A 
ATOM     52  C   UNL A   1      42.268  33.756  37.031  1.00  0.00     0.029 A 
ATOM     53  N   UNL A   1      40.750  32.216  37.495  1.00  0.00    -0.354 N 
ATOM     54  N   UNL A   1      38.581  33.412  34.939  1.00  0.00    -0.248 NA
ATOM     55  C   UNL A   1      36.387  33.432  34.314  1.00  0.00     0.031 C 
ATOM     56  C   UNL A   1      40.973  34.333  36.886  1.00  0.00     0.029 A 
ATOM     57  C   UNL A   1      40.034  33.367  37.195  1.00  0.00     0.049 A 
ATOM     58  H   UNL A   1      40.337  31.359  37.748  1.00  0.00     0.167 HD
ATOM     59  C   UNL A   1      37.887  33.403  36.104  1.00  0.00     0.074 A 
ATOM     60  C   UNL A   1      36.501  33.433  35.658  1.00  0.00     0.031 C 
ATOM     61  C   UNL A   1      38.566  33.365  37.292  1.00  0.00     0.031 A 
BRANCH  48  62
ATOM     62  C   UNL A   1      44.439  31.333  38.068  1.00  0.00    -0.014 A 
ATOM     63  C   UNL A   1      45.520  32.006  37.466  1.00  0.00     0.010 A 
ATOM     64  C   UNL A   1      44.710  30.764  39.332  1.00  0.00     0.010 A 
ATOM     65  C   UNL A   1      46.805  32.028  38.045  1.00  0.00     0.020 A 
ATOM     66  C   UNL A   1      45.996  30.716  39.889  1.00  0.00     0.020 A 
ATOM     67  C   UNL A   1      47.040  31.361  39.246  1.00  0.00     0.054 A 
BRANCH  67  68
ATOM     68  S   UNL A   1      48.687  31.409  39.999  1.00  0.00     0.124 S 
ATOM     69  O   UNL A   1      49.176  30.048  39.791  1.00  0.00    -0.237 OA
ATOM     70  O   UNL A   1      49.357  32.445  39.218  1.00  0.00    -0.237 OA
ATOM     71  O   UNL A   1      48.423  31.761  41.394  1.00  0.00    -0.744 OA
ENDBRANCH  67  68
ENDBRANCH  48  62
BRANCH  49  72
ATOM     72  C   UNL A   1      37.566  32.657  31.307  1.00  0.00    -0.014 A 
ATOM     73  C   UNL A   1      36.478  31.842  31.700  1.00  0.00     0.010 A 
ATOM     74  C   UNL A   1      37.268  33.542  30.285  1.00  0.00     0.010 A 
ATOM     75  C   UNL A   1      35.180  32.385  31.759  1.00  0.00     0.020 A 
ATOM     76  C   UNL A   1      35.973  34.090  30.373  1.00  0.00     0.020 A 
ATOM     77  C   UNL A   1      34.998  33.652  31.245  1.00  0.00     0.054 A 
BRANCH  77  78
ATOM     78  S   UNL A   1      33.685  34.920  31.984  1.00  0.00     0.124 S 
ATOM     79  O   UNL A   1      32.888  35.179  30.823  1.00  0.00    -0.237 OA
ATOM     80  O   UNL A   1      32.952  34.183  33.007  1.00  0.00    -0.237 OA
ATOM     81  O   UNL A   1      34.423  36.068  32.491  1.00  0.00    -0.744 OA
ENDBRANCH  77  78
ENDBRANCH  49  72
BRANCH  61  82
ATOM     82  C   UNL A   1      37.972  33.345  38.680  1.00  0.00    -0.014 A 
ATOM     83  C   UNL A   1      36.834  32.630  39.063  1.00  0.00     0.010 A 
ATOM     84  C   UNL A   1      38.591  34.130  39.687  1.00  0.00     0.010 A 
ATOM     85  C   UNL A   1      36.375  32.645  40.387  1.00  0.00     0.020 A 
ATOM     86  C   UNL A   1      38.155  34.148  41.010  1.00  0.00     0.020 A 
ATOM     87  C   UNL A   1      37.047  33.393  41.353  1.00  0.00     0.054 A 
BRANCH  87  88
ATOM     88  S   UNL A   1      36.446  33.366  43.053  1.00  0.00     0.124 S 
ATOM     89  O   UNL A   1      36.307  34.788  43.353  1.00  0.00    -0.237 OA
ATOM     90  O   UNL A   1      35.192  32.626  42.924  1.00  0.00    -0.237 OA
ATOM     91  O   UNL A   1      37.502  32.673  43.789  1.00  0.00    -0.744 OA
ENDBRANCH  87  88
ENDBRANCH  61  82
ENDBRANCH  35  36
ENDBRANCH  27  30
ENDBRANCH   1  26
TORSDOF 14
ENDMDL
MODEL 2
REMARK VINA RESULT:     -12.0      4.997     10.444
REMARK SMILES Cc1cc(C(=O)NCCCNC(=O)c2ccc(-c3c4nc(c(-c5ccc(S(=O)(=O)[O-])cc5)c5ccc([nH]5)c(-c5ccc(S(=O)(=O)[O-])cc5)c5nc(c(-c6ccc(S(=O)(=O)[O-])cc6)c6ccc3[nH]6)C=C5)C=C4)cc2)ccc1NC(=O)N1C[C@@H](C)[C@H](C)C1
REMARK SMILES IDX 10 1 9 2 8 3 7 4 5 5 6 6 4 8 1 9 2 10 3 11 76 12 75 13 74 14
REMARK SMILES IDX 77 15 78 16 79 18 80 19 81 20 86 21 82 22 84 23 83 24 85 25
REMARK SMILES IDX 11 26 12 27 13 29 14 30 15 31 73 32 16 33 72 34 17 35 18 36
REMARK SMILES IDX 19 37 66 38 20 39 71 40 65 41 67 42 21 43 70 44 64 45 63 46
REMARK SMILES IDX 22 48 52 49 33 50 51 51 34 52 37 53 50 54 68 55 35 56 36 57
REMARK SMILES IDX 49 59 69 60 38 61 23 62 24 63 32 64 25 65 31 66 26 67 27 68
REMARK SMILES IDX 28 69 29 70 30 71 53 72 54 73 62 74 55 75 61 76 56 77 57 78
REMARK SMILES IDX 58 79 59 80 60 81 39 82 40 83 48 84 41 85 47 86 42 87 43 88
REMARK SMILES IDX 44 89 45 90 46 91
REMARK H PARENT 7 7 77 17 11 28 67 47 37 58
REMARK Flexibility Score: inf
ROOT
ATOM      1  C   UNL A   1      41.299  21.672  27.231  1.00  0.00     0.118 C 
ENDROOT
BRANCH   1   2
ATOM      2  C   UNL A   1      40.303  20.932  26.223  1.00  0.00     0.042 C 
BRANCH   2   3
ATOM      3  C   UNL A   1      38.759  21.411  26.218  1.00  0.00     0.118 C 
BRANCH   3   4
ATOM      4  N   UNL A   1      38.187  22.175  25.082  1.00  0.00    -0.352 N 
ATOM      5  C   UNL A   1      36.956  22.718  24.759  1.00  0.00     0.251 C 
ATOM      6  O   UNL A   1      36.805  23.621  23.939  1.00  0.00    -0.269 OA
ATOM      7  H   UNL A   1      38.854  22.336  24.377  1.00  0.00     0.163 HD
BRANCH   5   8
ATOM      8  C   UNL A   1      35.764  22.186  25.420  1.00  0.00     0.040 A 
ATOM      9  C   UNL A   1      33.056  19.600  24.887  1.00  0.00     0.046 C 
ATOM     10  C   UNL A   1      33.751  20.843  25.362  1.00  0.00    -0.027 A 
ATOM     11  C   UNL A   1      35.061  21.088  24.916  1.00  0.00     0.019 A 
ATOM     12  C   UNL A   1      33.188  21.776  26.253  1.00  0.00     0.045 A 
ATOM     13  C   UNL A   1      34.033  22.631  26.971  1.00  0.00     0.027 A 
ATOM     14  C   UNL A   1      35.335  22.825  26.570  1.00  0.00     0.016 A 
BRANCH  12  15
ATOM     15  N   UNL A   1      31.794  21.893  26.398  1.00  0.00    -0.308 N 
ATOM     16  C   UNL A   1      31.025  23.025  26.351  1.00  0.00     0.321 C 
ATOM     17  H   UNL A   1      31.307  21.052  26.553  1.00  0.00     0.171 HD
ATOM     18  O   UNL A   1      29.952  23.042  26.957  1.00  0.00    -0.248 OA
ATOM     19  N   UNL A   1      31.457  24.095  25.607  1.00  0.00    -0.324 N 
ATOM     20  C   UNL A   1      31.172  25.456  26.007  1.00  0.00     0.125 C 
ATOM     21  C   UNL A   1      31.848  24.024  24.201  1.00  0.00     0.125 C 
ATOM     22  C   UNL A   1      31.025  26.240  24.707  1.00  0.00     0.010 C 
ATOM     23  C   UNL A   1      31.935  25.481  23.724  1.00  0.00     0.010 C 
ATOM     24  C   UNL A   1      31.416  27.703  24.870  1.00  0.00     0.010 C 
ATOM     25  C   UNL A   1      31.528  25.679  22.263  1.00  0.00     0.010 C 
ENDBRANCH  12  15
ENDBRANCH   5   8
ENDBRANCH   3   4
ENDBRANCH   2   3
ENDBRANCH   1   2
BRANCH   1  26
ATOM     26  N   UNL A   1      41.960  23.073  26.998  1.00  0.00    -0.352 N 
ATOM     27  C   UNL A   1      41.858  24.357  27.680  1.00  0.00     0.251 C 
ATOM     28  H   UNL A   1      42.574  23.090  26.228  1.00  0.00     0.163 HD
ATOM     29  O   UNL A   1      42.848  24.646  28.374  1.00  0.00    -0.269 OA
BRANCH  27  30
ATOM     30  C   UNL A   1      40.768  25.509  27.603  1.00  0.00     0.039 A 
ATOM     31  C   UNL A   1      41.005  26.693  26.831  1.00  0.00     0.014 A 
ATOM     32  C   UNL A   1      39.590  25.577  28.342  1.00  0.00     0.014 A 
ATOM     33  C   UNL A   1      40.429  27.978  27.207  1.00  0.00     0.010 A 
ATOM     34  C   UNL A   1      39.022  26.844  28.718  1.00  0.00     0.010 A 
ATOM     35  C   UNL A   1      39.590  28.073  28.335  1.00  0.00    -0.014 A 
BRANCH  35  36
ATOM     36  C   UNL A   1      39.559  29.273  29.294  1.00  0.00     0.031 A 
ATOM     37  C   UNL A   1      38.571  30.340  29.166  1.00  0.00     0.074 A 
ATOM     38  C   UNL A   1      40.272  29.463  30.448  1.00  0.00     0.049 A 
ATOM     39  N   UNL A   1      38.840  31.608  29.152  1.00  0.00    -0.248 NA
ATOM     40  C   UNL A   1      37.158  30.013  29.192  1.00  0.00     0.031 C 
ATOM     41  C   UNL A   1      40.253  30.470  31.527  1.00  0.00     0.029 A 
ATOM     42  N   UNL A   1      41.244  28.649  30.966  1.00  0.00    -0.354 N 
ATOM     43  C   UNL A   1      37.662  32.227  29.515  1.00  0.00     0.074 A 
ATOM     44  C   UNL A   1      36.625  31.232  29.299  1.00  0.00     0.031 C 
ATOM     45  C   UNL A   1      41.390  30.378  32.263  1.00  0.00     0.029 A 
ATOM     46  C   UNL A   1      42.214  29.341  31.679  1.00  0.00     0.049 A 
ATOM     47  H   UNL A   1      41.253  27.672  30.844  1.00  0.00     0.167 HD
ATOM     48  C   UNL A   1      37.640  33.372  30.265  1.00  0.00     0.031 A 
ATOM     49  C   UNL A   1      43.497  29.381  31.187  1.00  0.00     0.031 A 
ATOM     50  C   UNL A   1      38.964  33.716  30.826  1.00  0.00     0.049 A 
ATOM     51  C   UNL A   1      43.776  30.759  30.646  1.00  0.00     0.074 A 
ATOM     52  C   UNL A   1      39.452  33.769  32.127  1.00  0.00     0.029 A 
ATOM     53  N   UNL A   1      40.091  33.771  30.010  1.00  0.00    -0.354 N 
ATOM     54  N   UNL A   1      42.914  31.729  30.735  1.00  0.00    -0.248 NA
ATOM     55  C   UNL A   1      44.978  31.174  29.935  1.00  0.00     0.031 C 
ATOM     56  C   UNL A   1      40.875  33.824  32.080  1.00  0.00     0.029 A 
ATOM     57  C   UNL A   1      41.261  33.843  30.753  1.00  0.00     0.049 A 
ATOM     58  H   UNL A   1      40.061  33.761  29.026  1.00  0.00     0.167 HD
ATOM     59  C   UNL A   1      43.359  32.848  30.111  1.00  0.00     0.074 A 
ATOM     60  C   UNL A   1      44.677  32.454  29.633  1.00  0.00     0.031 C 
ATOM     61  C   UNL A   1      42.560  33.958  30.070  1.00  0.00     0.031 A 
BRANCH  48  62
ATOM     62  C   UNL A   1      36.334  33.993  30.753  1.00  0.00    -0.014 A 
ATOM     63  C   UNL A   1      35.273  34.276  29.871  1.00  0.00     0.010 A 
ATOM     64  C   UNL A   1      36.079  34.276  32.113  1.00  0.00     0.010 A 
ATOM     65  C   UNL A   1      34.078  34.884  30.305  1.00  0.00     0.020 A 
ATOM     66  C   UNL A   1      34.927  34.943  32.553  1.00  0.00     0.020 A 
ATOM     67  C   UNL A   1      33.922  35.236  31.644  1.00  0.00     0.054 A 
BRANCH  67  68
ATOM     68  S   UNL A   1      32.377  35.998  32.205  1.00  0.00     0.124 S 
ATOM     69  O   UNL A   1      31.827  36.556  30.972  1.00  0.00    -0.237 OA
ATOM     70  O   UNL A   1      31.650  34.859  32.759  1.00  0.00    -0.237 OA
ATOM     71  O   UNL A   1      32.813  36.989  33.188  1.00  0.00    -0.744 OA
ENDBRANCH  67  68
ENDBRANCH  48  62
BRANCH  49  72
ATOM     72  C   UNL A   1      44.042  28.054  30.589  1.00  0.00    -0.014 A 
ATOM     73  C   UNL A   1      45.449  28.030  30.444  1.00  0.00     0.010 A 
ATOM     74  C   UNL A   1      43.519  26.933  31.211  1.00  0.00     0.010 A 
ATOM     75  C   UNL A   1      46.252  27.509  31.476  1.00  0.00     0.020 A 
ATOM     76  C   UNL A   1      44.326  26.439  32.254  1.00  0.00     0.020 A 
ATOM     77  C   UNL A   1      45.612  26.867  32.516  1.00  0.00     0.054 A 
BRANCH  77  78
ATOM     78  S   UNL A   1      46.291  26.900  34.363  1.00  0.00     0.124 S 
ATOM     79  O   UNL A   1      47.014  28.136  34.354  1.00  0.00    -0.237 OA
ATOM     80  O   UNL A   1      45.113  26.954  35.220  1.00  0.00    -0.237 OA
ATOM     81  O   UNL A   1      47.109  25.711  34.550  1.00  0.00    -0.744 OA
ENDBRANCH  77  78
ENDBRANCH  49  72
BRANCH  61  82
ATOM     82  C   UNL A   1      42.876  35.285  29.423  1.00  0.00    -0.014 A 
ATOM     83  C   UNL A   1      43.422  36.394  30.075  1.00  0.00     0.010 A 
ATOM     84  C   UNL A   1      42.581  35.447  28.044  1.00  0.00     0.010 A 
ATOM     85  C   UNL A   1      43.714  37.576  29.381  1.00  0.00     0.020 A 
ATOM     86  C   UNL A   1      42.875  36.611  27.337  1.00  0.00     0.020 A 
ATOM     87  C   UNL A   1      43.451  37.671  28.015  1.00  0.00     0.054 A 
BRANCH  87  88
ATOM     88  S   UNL A   1      43.868  39.197  27.149  1.00  0.00     0.124 S 
ATOM     89  O   UNL A   1      44.114  40.119  28.254  1.00  0.00    -0.237 OA
ATOM     90  O   UNL A   1      45.051  38.803  26.386  1.00  0.00    -0.237 OA
ATOM     91  O   UNL A   1      42.680  39.484  26.349  1.00  0.00    -0.744 OA
ENDBRANCH  87  88
ENDBRANCH  61  82
ENDBRANCH  35  36
ENDBRANCH  27  30
ENDBRANCH   1  26
TORSDOF 14
ENDMDL
MODEL 3
REMARK VINA RESULT:     -11.9      5.631     10.275
REMARK SMILES Cc1cc(C(=O)NCCCNC(=O)c2ccc(-c3c4nc(c(-c5ccc(S(=O)(=O)[O-])cc5)c5ccc([nH]5)c(-c5ccc(S(=O)(=O)[O-])cc5)c5nc(c(-c6ccc(S(=O)(=O)[O-])cc6)c6ccc3[nH]6)C=C5)C=C4)cc2)ccc1NC(=O)N1C[C@@H](C)[C@H](C)C1
REMARK SMILES IDX 10 1 9 2 8 3 7 4 5 5 6 6 4 8 1 9 2 10 3 11 76 12 75 13 74 14
REMARK SMILES IDX 77 15 78 16 79 18 80 19 81 20 86 21 82 22 84 23 83 24 85 25
REMARK SMILES IDX 11 26 12 27 13 29 14 30 15 31 73 32 16 33 72 34 17 35 18 36
REMARK SMILES IDX 19 37 66 38 20 39 71 40 65 41 67 42 21 43 70 44 64 45 63 46
REMARK SMILES IDX 22 48 52 49 33 50 51 51 34 52 37 53 50 54 68 55 35 56 36 57
REMARK SMILES IDX 49 59 69 60 38 61 23 62 24 63 32 64 25 65 31 66 26 67 27 68
REMARK SMILES IDX 28 69 29 70 30 71 53 72 54 73 62 74 55 75 61 76 56 77 57 78
REMARK SMILES IDX 58 79 59 80 60 81 39 82 40 83 48 84 41 85 47 86 42 87 43 88
REMARK SMILES IDX 44 89 45 90 46 91
REMARK H PARENT 7 7 77 17 11 28 67 47 37 58
REMARK Flexibility Score: inf
ROOT
ATOM      1  C   UNL A   1      40.593  21.257  26.935  1.00  0.00     0.118 C 
ENDROOT
BRANCH   1   2
ATOM      2  C   UNL A   1      39.914  20.292  25.855  1.00  0.00     0.042 C 
BRANCH   2   3
ATOM      3  C   UNL A   1      38.411  20.650  25.379  1.00  0.00     0.118 C 
BRANCH   3   4
ATOM      4  N   UNL A   1      38.008  22.043  25.064  1.00  0.00    -0.352 N 
ATOM      5  C   UNL A   1      36.914  22.851  25.320  1.00  0.00     0.251 C 
ATOM      6  O   UNL A   1      36.951  24.079  25.280  1.00  0.00    -0.269 OA
ATOM      7  H   UNL A   1      38.695  22.512  24.539  1.00  0.00     0.163 HD
BRANCH   5   8
ATOM      8  C   UNL A   1      35.637  22.214  25.646  1.00  0.00     0.040 A 
ATOM      9  C   UNL A   1      32.617  20.713  23.935  1.00  0.00     0.046 C 
ATOM     10  C   UNL A   1      33.461  21.399  24.970  1.00  0.00    -0.027 A 
ATOM     11  C   UNL A   1      34.807  21.664  24.665  1.00  0.00     0.019 A 
ATOM     12  C   UNL A   1      33.003  21.772  26.247  1.00  0.00     0.045 A 
ATOM     13  C   UNL A   1      33.933  21.984  27.272  1.00  0.00     0.027 A 
ATOM     14  C   UNL A   1      35.262  22.185  26.977  1.00  0.00     0.016 A 
BRANCH  12  15
ATOM     15  N   UNL A   1      31.635  21.981  26.496  1.00  0.00    -0.308 N 
ATOM     16  C   UNL A   1      30.957  23.166  26.593  1.00  0.00     0.321 C 
ATOM     17  H   UNL A   1      31.092  21.167  26.616  1.00  0.00     0.171 HD
ATOM     18  O   UNL A   1      29.929  23.211  27.271  1.00  0.00    -0.248 OA
ATOM     19  N   UNL A   1      31.426  24.261  25.909  1.00  0.00    -0.324 N 
ATOM     20  C   UNL A   1      31.276  25.600  26.435  1.00  0.00     0.125 C 
ATOM     21  C   UNL A   1      31.722  24.281  24.478  1.00  0.00     0.125 C 
ATOM     22  C   UNL A   1      31.112  26.501  25.216  1.00  0.00     0.010 C 
ATOM     23  C   UNL A   1      31.895  25.763  24.115  1.00  0.00     0.010 C 
ATOM     24  C   UNL A   1      31.628  27.911  25.469  1.00  0.00     0.010 C 
ATOM     25  C   UNL A   1      31.415  26.115  22.707  1.00  0.00     0.010 C 
ENDBRANCH  12  15
ENDBRANCH   5   8
ENDBRANCH   3   4
ENDBRANCH   2   3
ENDBRANCH   1   2
BRANCH   1  26
ATOM     26  N   UNL A   1      41.315  22.611  26.623  1.00  0.00    -0.352 N 
ATOM     27  C   UNL A   1      41.346  23.909  27.286  1.00  0.00     0.251 C 
ATOM     28  H   UNL A   1      41.865  22.580  25.806  1.00  0.00     0.163 HD
ATOM     29  O   UNL A   1      42.404  24.146  27.893  1.00  0.00    -0.269 OA
BRANCH  27  30
ATOM     30  C   UNL A   1      40.324  25.124  27.273  1.00  0.00     0.039 A 
ATOM     31  C   UNL A   1      40.611  26.316  26.531  1.00  0.00     0.014 A 
ATOM     32  C   UNL A   1      39.171  25.236  28.046  1.00  0.00     0.014 A 
ATOM     33  C   UNL A   1      40.120  27.620  26.961  1.00  0.00     0.010 A 
ATOM     34  C   UNL A   1      38.689  26.522  28.474  1.00  0.00     0.010 A 
ATOM     35  C   UNL A   1      39.318  27.727  28.113  1.00  0.00    -0.014 A 
BRANCH  35  36
ATOM     36  C   UNL A   1      39.382  28.896  29.109  1.00  0.00     0.031 A 
ATOM     37  C   UNL A   1      38.494  30.050  29.006  1.00  0.00     0.074 A 
ATOM     38  C   UNL A   1      40.096  28.988  30.275  1.00  0.00     0.049 A 
ATOM     39  N   UNL A   1      38.874  31.289  29.033  1.00  0.00    -0.248 NA
ATOM     40  C   UNL A   1      37.057  29.849  29.009  1.00  0.00     0.031 C 
ATOM     41  C   UNL A   1      40.154  29.960  31.383  1.00  0.00     0.029 A 
ATOM     42  N   UNL A   1      40.985  28.076  30.776  1.00  0.00    -0.354 N 
ATOM     43  C   UNL A   1      37.751  31.999  29.404  1.00  0.00     0.074 A 
ATOM     44  C   UNL A   1      36.632  31.107  29.148  1.00  0.00     0.031 C 
ATOM     45  C   UNL A   1      41.269  29.745  32.127  1.00  0.00     0.029 A 
ATOM     46  C   UNL A   1      42.005  28.656  31.518  1.00  0.00     0.049 A 
ATOM     47  H   UNL A   1      40.910  27.105  30.624  1.00  0.00     0.167 HD
ATOM     48  C   UNL A   1      37.822  33.119  30.189  1.00  0.00     0.031 A 
ATOM     49  C   UNL A   1      43.292  28.598  31.039  1.00  0.00     0.031 A 
ATOM     50  C   UNL A   1      39.164  33.327  30.772  1.00  0.00     0.049 A 
ATOM     51  C   UNL A   1      43.698  29.961  30.544  1.00  0.00     0.074 A 
ATOM     52  C   UNL A   1      39.640  33.297  32.078  1.00  0.00     0.029 A 
ATOM     53  N   UNL A   1      40.301  33.306  29.968  1.00  0.00    -0.354 N 
ATOM     54  N   UNL A   1      42.924  31.000  30.655  1.00  0.00    -0.248 NA
ATOM     55  C   UNL A   1      44.940  30.288  29.857  1.00  0.00     0.031 C 
ATOM     56  C   UNL A   1      41.063  33.227  32.046  1.00  0.00     0.029 A 
ATOM     57  C   UNL A   1      41.465  33.252  30.723  1.00  0.00     0.049 A 
ATOM     58  H   UNL A   1      40.282  33.328  28.984  1.00  0.00     0.167 HD
ATOM     59  C   UNL A   1      43.473  32.093  30.069  1.00  0.00     0.074 A 
ATOM     60  C   UNL A   1      44.757  31.599  29.592  1.00  0.00     0.031 C 
ATOM     61  C   UNL A   1      42.776  33.271  30.056  1.00  0.00     0.031 A 
BRANCH  48  62
ATOM     62  C   UNL A   1      36.570  33.838  30.685  1.00  0.00    -0.014 A 
ATOM     63  C   UNL A   1      36.455  34.293  32.013  1.00  0.00     0.010 A 
ATOM     64  C   UNL A   1      35.475  34.140  29.846  1.00  0.00     0.010 A 
ATOM     65  C   UNL A   1      35.289  34.923  32.491  1.00  0.00     0.020 A 
ATOM     66  C   UNL A   1      34.281  34.703  30.320  1.00  0.00     0.020 A 
ATOM     67  C   UNL A   1      34.197  35.103  31.644  1.00  0.00     0.054 A 
BRANCH  67  68
ATOM     68  S   UNL A   1      32.706  35.933  32.255  1.00  0.00     0.124 S 
ATOM     69  O   UNL A   1      32.200  36.606  31.062  1.00  0.00    -0.237 OA
ATOM     70  O   UNL A   1      31.901  34.813  32.735  1.00  0.00    -0.237 OA
ATOM     71  O   UNL A   1      33.207  36.825  33.299  1.00  0.00    -0.744 OA
ENDBRANCH  67  68
ENDBRANCH  48  62
BRANCH  49  72
ATOM     72  C   UNL A   1      43.724  27.246  30.406  1.00  0.00    -0.014 A 
ATOM     73  C   UNL A   1      43.010  26.914  29.231  1.00  0.00     0.010 A 
ATOM     74  C   UNL A   1      45.098  27.128  30.284  1.00  0.00     0.010 A 
ATOM     75  C   UNL A   1      43.519  27.287  27.972  1.00  0.00     0.020 A 
ATOM     76  C   UNL A   1      45.590  27.526  29.026  1.00  0.00     0.020 A 
ATOM     77  C   UNL A   1      44.798  27.803  27.930  1.00  0.00     0.054 A 
BRANCH  77  78
ATOM     78  S   UNL A   1      45.351  29.168  26.625  1.00  0.00     0.124 S 
ATOM     79  O   UNL A   1      45.455  28.371  25.440  1.00  0.00    -0.237 OA
ATOM     80  O   UNL A   1      44.250  30.122  26.555  1.00  0.00    -0.237 OA
ATOM     81  O   UNL A   1      46.605  29.739  27.093  1.00  0.00    -0.744 OA
ENDBRANCH  77  78
ENDBRANCH  49  72
BRANCH  61  82
ATOM     82  C   UNL A   1      43.216  34.583  29.452  1.00  0.00    -0.014 A 
ATOM     83  C   UNL A   1      43.612  34.771  28.124  1.00  0.00     0.010 A 
ATOM     84  C   UNL A   1      43.263  35.727  30.292  1.00  0.00     0.010 A 
ATOM     85  C   UNL A   1      43.973  36.038  27.645  1.00  0.00     0.020 A 
ATOM     86  C   UNL A   1      43.609  36.994  29.828  1.00  0.00     0.020 A 
ATOM     87  C   UNL A   1      43.956  37.142  28.497  1.00  0.00     0.054 A 
BRANCH  87  88
ATOM     88  S   UNL A   1      44.398  38.761  27.837  1.00  0.00     0.124 S 
ATOM     89  O   UNL A   1      45.844  38.641  27.673  1.00  0.00    -0.237 OA
ATOM     90  O   UNL A   1      43.627  38.808  26.596  1.00  0.00    -0.237 OA
ATOM     91  O   UNL A   1      43.963  39.694  28.874  1.00  0.00    -0.744 OA
ENDBRANCH  87  88
ENDBRANCH  61  82
ENDBRANCH  35  36
ENDBRANCH  27  30
ENDBRANCH   1  26
TORSDOF 14
ENDMDL
