MODEL 1
REMARK VINA RESULT:     -11.2      0.000      0.000
REMARK SMILES O=C(CC1CCN(S(=O)(=O)c2cc[nH]c2)CC1)NCCCNC(=O)c1ccc(-c2c3nc(c(-c4ccc(S(=O)(=O)[O-])cc4)c4ccc([nH]4)c(-c4ccc(S(=O)(=O)[O-])cc4)c4nc(c(-c5ccc(S(=O)(=O)[O-])cc5)c5ccc2[nH]5)C=C4)C=C3)cc1
REMARK SMILES IDX 20 1 19 2 18 3 1 4 2 5 3 7 4 8 5 9 17 10 6 11 16 12 7 13
REMARK SMILES IDX 8 14 9 15 10 16 11 17 12 18 15 19 13 20 14 21 21 23 22 24
REMARK SMILES IDX 23 25 24 27 25 28 26 29 84 30 27 31 83 32 28 33 29 34 30 35
REMARK SMILES IDX 77 36 31 37 82 38 76 39 78 40 32 41 81 42 75 43 74 44 33 46
REMARK SMILES IDX 63 47 44 48 62 49 45 50 48 51 61 52 79 53 46 54 47 55 60 57
REMARK SMILES IDX 80 58 49 59 34 60 35 61 43 62 36 63 42 64 37 65 38 66 39 67
REMARK SMILES IDX 40 68 41 69 64 70 65 71 73 72 66 73 72 74 67 75 68 76 69 77
REMARK SMILES IDX 70 78 71 79 50 80 51 81 59 82 52 83 58 84 53 85 54 86 55 87
REMARK SMILES IDX 56 88 57 89
REMARK H PARENT 18 6 14 22 22 26 78 45 48 56
REMARK Flexibility Score: inf
ROOT
ATOM      1  C   UNL A   1      32.333  30.119  26.420  1.00  0.00     0.042 C 
ENDROOT
BRANCH   1   2
ATOM      2  C   UNL A   1      32.971  29.526  25.167  1.00  0.00     0.117 C 
BRANCH   2   3
ATOM      3  N   UNL A   1      33.156  28.091  25.255  1.00  0.00    -0.356 N 
ATOM      4  O   UNL A   1      33.252  27.669  22.995  1.00  0.00    -0.275 OA
ATOM      5  C   UNL A   1      33.380  27.294  24.154  1.00  0.00     0.220 C 
ATOM      6  H   UNL A   1      33.119  27.666  26.142  1.00  0.00     0.163 HD
BRANCH   5   7
ATOM      7  C   UNL A   1      33.883  25.909  24.508  1.00  0.00     0.103 C 
BRANCH   7   8
ATOM      8  C   UNL A   1      34.049  24.902  23.341  1.00  0.00     0.001 C 
ATOM      9  C   UNL A   1      32.797  24.187  22.817  1.00  0.00     0.021 C 
ATOM     10  C   UNL A   1      35.093  23.822  23.642  1.00  0.00     0.021 C 
ATOM     11  C   UNL A   1      32.280  23.073  23.729  1.00  0.00     0.103 C 
ATOM     12  C   UNL A   1      34.582  22.777  24.625  1.00  0.00     0.103 C 
ATOM     13  N   UNL A   1      33.350  22.107  24.119  1.00  0.00    -0.198 NA
BRANCH  13  14
ATOM     14  S   UNL A   1      32.713  20.927  25.212  1.00  0.00     0.244 S 
ATOM     15  O   UNL A   1      33.680  20.678  26.251  1.00  0.00    -0.207 OA
ATOM     16  O   UNL A   1      31.347  21.309  25.531  1.00  0.00    -0.207 OA
BRANCH  14  17
ATOM     17  C   UNL A   1      32.544  19.393  24.425  1.00  0.00     0.100 A 
ATOM     18  C   UNL A   1      32.441  19.169  23.028  1.00  0.00     0.041 A 
ATOM     19  C   UNL A   1      32.573  18.152  25.034  1.00  0.00     0.104 A 
ATOM     20  C   UNL A   1      32.356  17.807  22.834  1.00  0.00     0.083 A 
ATOM     21  N   UNL A   1      32.453  17.199  24.060  1.00  0.00    -0.366 N 
ATOM     22  H   UNL A   1      32.439  16.227  24.214  1.00  0.00     0.165 HD
ENDBRANCH  14  17
ENDBRANCH  13  14
ENDBRANCH   7   8
ENDBRANCH   5   7
ENDBRANCH   2   3
ENDBRANCH   1   2
BRANCH   1  23
ATOM     23  C   UNL A   1      33.329  30.847  27.326  1.00  0.00     0.118 C 
BRANCH  23  24
ATOM     24  N   UNL A   1      33.101  32.284  27.339  1.00  0.00    -0.352 N 
ATOM     25  C   UNL A   1      33.518  33.217  28.257  1.00  0.00     0.251 C 
ATOM     26  H   UNL A   1      32.574  32.636  26.586  1.00  0.00     0.163 HD
ATOM     27  O   UNL A   1      32.885  34.266  28.360  1.00  0.00    -0.269 OA
BRANCH  25  28
ATOM     28  C   UNL A   1      34.720  33.009  29.096  1.00  0.00     0.039 A 
ATOM     29  C   UNL A   1      34.564  32.368  30.335  1.00  0.00     0.014 A 
ATOM     30  C   UNL A   1      35.962  33.548  28.741  1.00  0.00     0.014 A 
ATOM     31  C   UNL A   1      35.651  32.236  31.195  1.00  0.00     0.010 A 
ATOM     32  C   UNL A   1      37.053  33.408  29.588  1.00  0.00     0.010 A 
ATOM     33  C   UNL A   1      36.899  32.743  30.808  1.00  0.00    -0.014 A 
BRANCH  33  34
ATOM     34  C   UNL A   1      38.114  32.332  31.545  1.00  0.00     0.031 A 
ATOM     35  C   UNL A   1      38.682  31.017  30.907  1.00  0.00     0.074 A 
ATOM     36  C   UNL A   1      38.511  33.147  32.583  1.00  0.00     0.049 A 
ATOM     37  N   UNL A   1      39.521  30.153  31.384  1.00  0.00    -0.248 NA
ATOM     38  C   UNL A   1      38.232  30.578  29.545  1.00  0.00     0.031 C 
ATOM     39  C   UNL A   1      37.848  34.422  32.974  1.00  0.00     0.029 A 
ATOM     40  N   UNL A   1      39.538  33.115  33.508  1.00  0.00    -0.354 N 
ATOM     41  C   UNL A   1      39.863  29.238  30.352  1.00  0.00     0.074 A 
ATOM     42  C   UNL A   1      38.964  29.493  29.275  1.00  0.00     0.031 C 
ATOM     43  C   UNL A   1      38.410  34.959  34.087  1.00  0.00     0.029 A 
ATOM     44  C   UNL A   1      39.515  34.128  34.524  1.00  0.00     0.049 A 
ATOM     45  H   UNL A   1      40.248  32.434  33.471  1.00  0.00     0.167 HD
ATOM     46  C   UNL A   1      40.966  28.431  30.414  1.00  0.00     0.031 A 
ATOM     47  C   UNL A   1      40.315  34.247  35.640  1.00  0.00     0.031 A 
ATOM     48  C   UNL A   1      41.578  28.580  31.689  1.00  0.00     0.049 A 
ATOM     49  C   UNL A   1      41.377  33.261  35.410  1.00  0.00     0.074 A 
ATOM     50  C   UNL A   1      41.158  28.227  32.946  1.00  0.00     0.029 A 
ATOM     51  N   UNL A   1      42.529  29.569  31.778  1.00  0.00    -0.354 N 
ATOM     52  N   UNL A   1      42.328  33.392  34.537  1.00  0.00    -0.248 NA
ATOM     53  C   UNL A   1      41.331  31.992  36.146  1.00  0.00     0.031 C 
ATOM     54  C   UNL A   1      41.420  29.400  33.679  1.00  0.00     0.029 A 
ATOM     55  C   UNL A   1      42.275  30.235  32.947  1.00  0.00     0.049 A 
ATOM     56  H   UNL A   1      43.248  29.759  31.132  1.00  0.00     0.167 HD
ATOM     57  C   UNL A   1      42.706  32.093  34.339  1.00  0.00     0.074 A 
ATOM     58  C   UNL A   1      42.337  31.365  35.540  1.00  0.00     0.031 C 
ATOM     59  C   UNL A   1      42.739  31.590  33.077  1.00  0.00     0.031 A 
BRANCH  46  60
ATOM     60  C   UNL A   1      41.761  27.673  29.381  1.00  0.00    -0.014 A 
ATOM     61  C   UNL A   1      42.803  28.393  28.734  1.00  0.00     0.010 A 
ATOM     62  C   UNL A   1      41.326  26.488  28.774  1.00  0.00     0.010 A 
ATOM     63  C   UNL A   1      43.282  28.034  27.474  1.00  0.00     0.020 A 
ATOM     64  C   UNL A   1      41.839  26.096  27.519  1.00  0.00     0.020 A 
ATOM     65  C   UNL A   1      42.775  26.898  26.859  1.00  0.00     0.054 A 
BRANCH  65  66
ATOM     66  S   UNL A   1      43.323  26.536  25.167  1.00  0.00     0.124 S 
ATOM     67  O   UNL A   1      42.737  27.636  24.407  1.00  0.00    -0.237 OA
ATOM     68  O   UNL A   1      44.778  26.572  25.295  1.00  0.00    -0.237 OA
ATOM     69  O   UNL A   1      42.761  25.215  24.898  1.00  0.00    -0.744 OA
ENDBRANCH  65  66
ENDBRANCH  46  60
BRANCH  47  70
ATOM     70  C   UNL A   1      40.421  34.962  36.989  1.00  0.00    -0.014 A 
ATOM     71  C   UNL A   1      41.254  36.034  37.330  1.00  0.00     0.010 A 
ATOM     72  C   UNL A   1      39.452  34.622  37.990  1.00  0.00     0.010 A 
ATOM     73  C   UNL A   1      41.008  36.813  38.502  1.00  0.00     0.020 A 
ATOM     74  C   UNL A   1      39.159  35.409  39.108  1.00  0.00     0.020 A 
ATOM     75  C   UNL A   1      39.919  36.537  39.342  1.00  0.00     0.054 A 
BRANCH  75  76
ATOM     76  S   UNL A   1      39.384  37.711  40.630  1.00  0.00     0.124 S 
ATOM     77  O   UNL A   1      39.032  36.830  41.739  1.00  0.00    -0.237 OA
ATOM     78  O   UNL A   1      40.576  38.531  40.827  1.00  0.00    -0.237 OA
ATOM     79  O   UNL A   1      38.259  38.413  40.013  1.00  0.00    -0.744 OA
ENDBRANCH  75  76
ENDBRANCH  47  70
BRANCH  59  80
ATOM     80  C   UNL A   1      42.905  32.591  31.934  1.00  0.00    -0.014 A 
ATOM     81  C   UNL A   1      41.830  32.822  31.055  1.00  0.00     0.010 A 
ATOM     82  C   UNL A   1      44.106  33.279  31.661  1.00  0.00     0.010 A 
ATOM     83  C   UNL A   1      41.937  33.707  29.970  1.00  0.00     0.020 A 
ATOM     84  C   UNL A   1      44.230  34.164  30.568  1.00  0.00     0.020 A 
ATOM     85  C   UNL A   1      43.134  34.383  29.734  1.00  0.00     0.054 A 
BRANCH  85  86
ATOM     86  S   UNL A   1      43.225  35.550  28.340  1.00  0.00     0.124 S 
ATOM     87  O   UNL A   1      44.392  36.365  28.670  1.00  0.00    -0.237 OA
ATOM     88  O   UNL A   1      43.391  34.659  27.195  1.00  0.00    -0.237 OA
ATOM     89  O   UNL A   1      41.948  36.262  28.391  1.00  0.00    -0.744 OA
ENDBRANCH  85  86
ENDBRANCH  59  80
ENDBRANCH  33  34
ENDBRANCH  25  28
ENDBRANCH  23  24
ENDBRANCH   1  23
TORSDOF 16
ENDMDL
MODEL 2
REMARK VINA RESULT:     -11.2      4.256      9.689
REMARK SMILES O=C(CC1CCN(S(=O)(=O)c2cc[nH]c2)CC1)NCCCNC(=O)c1ccc(-c2c3nc(c(-c4ccc(S(=O)(=O)[O-])cc4)c4ccc([nH]4)c(-c4ccc(S(=O)(=O)[O-])cc4)c4nc(c(-c5ccc(S(=O)(=O)[O-])cc5)c5ccc2[nH]5)C=C4)C=C3)cc1
REMARK SMILES IDX 20 1 19 2 18 3 1 4 2 5 3 7 4 8 5 9 17 10 6 11 16 12 7 13
REMARK SMILES IDX 8 14 9 15 10 16 11 17 12 18 15 19 13 20 14 21 21 23 22 24
REMARK SMILES IDX 23 25 24 27 25 28 26 29 84 30 27 31 83 32 28 33 29 34 30 35
REMARK SMILES IDX 77 36 31 37 82 38 76 39 78 40 32 41 81 42 75 43 74 44 33 46
REMARK SMILES IDX 63 47 44 48 62 49 45 50 48 51 61 52 79 53 46 54 47 55 60 57
REMARK SMILES IDX 80 58 49 59 34 60 35 61 43 62 36 63 42 64 37 65 38 66 39 67
REMARK SMILES IDX 40 68 41 69 64 70 65 71 73 72 66 73 72 74 67 75 68 76 69 77
REMARK SMILES IDX 70 78 71 79 50 80 51 81 59 82 52 83 58 84 53 85 54 86 55 87
REMARK SMILES IDX 56 88 57 89
REMARK H PARENT 18 6 14 22 22 26 78 45 48 56
REMARK Flexibility Score: inf
ROOT
ATOM      1  C   UNL A   1      32.744  29.834  27.279  1.00  0.00     0.042 C 
ENDROOT
BRANCH   1   2
ATOM      2  C   UNL A   1      32.055  30.533  26.111  1.00  0.00     0.117 C 
BRANCH   2   3
ATOM      3  N   UNL A   1      31.439  29.603  25.184  1.00  0.00    -0.356 N 
ATOM      4  O   UNL A   1      33.346  29.034  24.030  1.00  0.00    -0.275 OA
ATOM      5  C   UNL A   1      32.161  28.855  24.280  1.00  0.00     0.220 C 
ATOM      6  H   UNL A   1      30.459  29.502  25.200  1.00  0.00     0.163 HD
BRANCH   5   7
ATOM      7  C   UNL A   1      31.364  27.720  23.669  1.00  0.00     0.103 C 
BRANCH   7   8
ATOM      8  C   UNL A   1      30.997  26.537  24.601  1.00  0.00     0.001 C 
ATOM      9  C   UNL A   1      31.922  26.234  25.787  1.00  0.00     0.021 C 
ATOM     10  C   UNL A   1      30.801  25.225  23.835  1.00  0.00     0.021 C 
ATOM     11  C   UNL A   1      33.234  25.548  25.402  1.00  0.00     0.103 C 
ATOM     12  C   UNL A   1      32.120  24.612  23.384  1.00  0.00     0.103 C 
ATOM     13  N   UNL A   1      33.023  24.347  24.540  1.00  0.00    -0.198 NA
BRANCH  13  14
ATOM     14  S   UNL A   1      34.548  23.673  24.079  1.00  0.00     0.244 S 
ATOM     15  O   UNL A   1      34.640  23.659  22.640  1.00  0.00    -0.207 OA
ATOM     16  O   UNL A   1      35.576  24.302  24.893  1.00  0.00    -0.207 OA
BRANCH  14  17
ATOM     17  C   UNL A   1      34.635  22.000  24.517  1.00  0.00     0.100 A 
ATOM     18  C   UNL A   1      33.599  21.039  24.387  1.00  0.00     0.041 A 
ATOM     19  C   UNL A   1      35.755  21.330  24.975  1.00  0.00     0.104 A 
ATOM     20  C   UNL A   1      34.102  19.830  24.819  1.00  0.00     0.083 A 
ATOM     21  N   UNL A   1      35.417  20.016  25.160  1.00  0.00    -0.366 N 
ATOM     22  H   UNL A   1      36.024  19.314  25.487  1.00  0.00     0.165 HD
ENDBRANCH  14  17
ENDBRANCH  13  14
ENDBRANCH   7   8
ENDBRANCH   5   7
ENDBRANCH   2   3
ENDBRANCH   1   2
BRANCH   1  23
ATOM     23  C   UNL A   1      34.136  30.391  27.588  1.00  0.00     0.118 C 
BRANCH  23  24
ATOM     24  N   UNL A   1      34.088  31.449  28.585  1.00  0.00    -0.352 N 
ATOM     25  C   UNL A   1      34.937  31.682  29.640  1.00  0.00     0.251 C 
ATOM     26  H   UNL A   1      33.345  32.087  28.491  1.00  0.00     0.163 HD
ATOM     27  O   UNL A   1      34.515  32.313  30.608  1.00  0.00    -0.269 OA
BRANCH  25  28
ATOM     28  C   UNL A   1      36.344  31.224  29.630  1.00  0.00     0.039 A 
ATOM     29  C   UNL A   1      36.748  30.291  30.598  1.00  0.00     0.014 A 
ATOM     30  C   UNL A   1      37.293  31.794  28.773  1.00  0.00     0.014 A 
ATOM     31  C   UNL A   1      38.083  29.905  30.682  1.00  0.00     0.010 A 
ATOM     32  C   UNL A   1      38.624  31.404  28.843  1.00  0.00     0.010 A 
ATOM     33  C   UNL A   1      39.014  30.452  29.790  1.00  0.00    -0.014 A 
BRANCH  33  34
ATOM     34  C   UNL A   1      40.346  29.824  29.649  1.00  0.00     0.031 A 
ATOM     35  C   UNL A   1      41.451  30.873  30.020  1.00  0.00     0.074 A 
ATOM     36  C   UNL A   1      40.367  28.502  29.262  1.00  0.00     0.049 A 
ATOM     37  N   UNL A   1      42.720  30.875  29.761  1.00  0.00    -0.248 NA
ATOM     38  C   UNL A   1      41.091  32.124  30.766  1.00  0.00     0.031 C 
ATOM     39  C   UNL A   1      39.162  27.656  29.033  1.00  0.00     0.029 A 
ATOM     40  N   UNL A   1      41.363  27.579  29.000  1.00  0.00    -0.354 N 
ATOM     41  C   UNL A   1      43.324  31.948  30.471  1.00  0.00     0.074 A 
ATOM     42  C   UNL A   1      42.257  32.737  30.991  1.00  0.00     0.031 C 
ATOM     43  C   UNL A   1      39.495  26.422  28.576  1.00  0.00     0.029 A 
ATOM     44  C   UNL A   1      40.938  26.307  28.490  1.00  0.00     0.049 A 
ATOM     45  H   UNL A   1      42.314  27.784  29.155  1.00  0.00     0.167 HD
ATOM     46  C   UNL A   1      44.672  32.020  30.696  1.00  0.00     0.031 A 
ATOM     47  C   UNL A   1      41.709  25.270  28.011  1.00  0.00     0.031 A 
ATOM     48  C   UNL A   1      45.315  30.956  30.006  1.00  0.00     0.049 A 
ATOM     49  C   UNL A   1      43.074  25.648  28.396  1.00  0.00     0.074 A 
ATOM     50  C   UNL A   1      45.478  30.708  28.667  1.00  0.00     0.029 A 
ATOM     51  N   UNL A   1      45.450  29.786  30.715  1.00  0.00    -0.354 N 
ATOM     52  N   UNL A   1      43.532  25.618  29.609  1.00  0.00    -0.248 NA
ATOM     53  C   UNL A   1      43.973  26.182  27.366  1.00  0.00     0.031 C 
ATOM     54  C   UNL A   1      45.112  29.351  28.577  1.00  0.00     0.029 A 
ATOM     55  C   UNL A   1      45.094  28.780  29.857  1.00  0.00     0.049 A 
ATOM     56  H   UNL A   1      45.743  29.691  31.650  1.00  0.00     0.167 HD
ATOM     57  C   UNL A   1      44.576  26.499  29.535  1.00  0.00     0.074 A 
ATOM     58  C   UNL A   1      44.995  26.529  28.145  1.00  0.00     0.031 C 
ATOM     59  C   UNL A   1      44.642  27.533  30.413  1.00  0.00     0.031 A 
BRANCH  46  60
ATOM     60  C   UNL A   1      45.523  32.786  31.677  1.00  0.00    -0.014 A 
ATOM     61  C   UNL A   1      45.268  32.546  33.056  1.00  0.00     0.010 A 
ATOM     62  C   UNL A   1      46.252  33.937  31.350  1.00  0.00     0.010 A 
ATOM     63  C   UNL A   1      45.588  33.476  34.044  1.00  0.00     0.020 A 
ATOM     64  C   UNL A   1      46.617  34.862  32.351  1.00  0.00     0.020 A 
ATOM     65  C   UNL A   1      46.239  34.648  33.681  1.00  0.00     0.054 A 
BRANCH  65  66
ATOM     66  S   UNL A   1      46.520  35.894  34.969  1.00  0.00     0.124 S 
ATOM     67  O   UNL A   1      46.104  37.127  34.307  1.00  0.00    -0.237 OA
ATOM     68  O   UNL A   1      45.642  35.436  36.044  1.00  0.00    -0.237 OA
ATOM     69  O   UNL A   1      47.948  35.782  35.252  1.00  0.00    -0.744 OA
ENDBRANCH  65  66
ENDBRANCH  46  60
BRANCH  47  70
ATOM     70  C   UNL A   1      41.635  23.976  27.196  1.00  0.00    -0.014 A 
ATOM     71  C   UNL A   1      42.545  23.510  26.240  1.00  0.00     0.010 A 
ATOM     72  C   UNL A   1      40.612  23.036  27.550  1.00  0.00     0.010 A 
ATOM     73  C   UNL A   1      42.532  22.147  25.814  1.00  0.00     0.020 A 
ATOM     74  C   UNL A   1      40.622  21.683  27.192  1.00  0.00     0.020 A 
ATOM     75  C   UNL A   1      41.615  21.228  26.349  1.00  0.00     0.054 A 
BRANCH  75  76
ATOM     76  S   UNL A   1      41.799  19.434  26.090  1.00  0.00     0.124 S 
ATOM     77  O   UNL A   1      42.774  19.366  25.006  1.00  0.00    -0.237 OA
ATOM     78  O   UNL A   1      42.269  18.971  27.393  1.00  0.00    -0.237 OA
ATOM     79  O   UNL A   1      40.449  18.994  25.739  1.00  0.00    -0.744 OA
ENDBRANCH  75  76
ENDBRANCH  47  70
BRANCH  59  80
ATOM     80  C   UNL A   1      43.912  27.362  31.745  1.00  0.00    -0.014 A 
ATOM     81  C   UNL A   1      42.793  28.166  32.029  1.00  0.00     0.010 A 
ATOM     82  C   UNL A   1      44.322  26.467  32.756  1.00  0.00     0.010 A 
ATOM     83  C   UNL A   1      42.103  28.074  33.249  1.00  0.00     0.020 A 
ATOM     84  C   UNL A   1      43.645  26.371  33.991  1.00  0.00     0.020 A 
ATOM     85  C   UNL A   1      42.526  27.170  34.224  1.00  0.00     0.054 A 
BRANCH  85  86
ATOM     86  S   UNL A   1      41.586  27.051  35.779  1.00  0.00     0.124 S 
ATOM     87  O   UNL A   1      42.636  26.929  36.787  1.00  0.00    -0.237 OA
ATOM     88  O   UNL A   1      40.847  28.310  35.796  1.00  0.00    -0.237 OA
ATOM     89  O   UNL A   1      40.764  25.852  35.604  1.00  0.00    -0.744 OA
ENDBRANCH  85  86
ENDBRANCH  59  80
ENDBRANCH  33  34
ENDBRANCH  25  28
ENDBRANCH  23  24
ENDBRANCH   1  23
TORSDOF 16
ENDMDL
MODEL 3
REMARK VINA RESULT:     -11.2      5.676     11.436
REMARK SMILES O=C(CC1CCN(S(=O)(=O)c2cc[nH]c2)CC1)NCCCNC(=O)c1ccc(-c2c3nc(c(-c4ccc(S(=O)(=O)[O-])cc4)c4ccc([nH]4)c(-c4ccc(S(=O)(=O)[O-])cc4)c4nc(c(-c5ccc(S(=O)(=O)[O-])cc5)c5ccc2[nH]5)C=C4)C=C3)cc1
REMARK SMILES IDX 20 1 19 2 18 3 1 4 2 5 3 7 4 8 5 9 17 10 6 11 16 12 7 13
REMARK SMILES IDX 8 14 9 15 10 16 11 17 12 18 15 19 13 20 14 21 21 23 22 24
REMARK SMILES IDX 23 25 24 27 25 28 26 29 84 30 27 31 83 32 28 33 29 34 30 35
REMARK SMILES IDX 77 36 31 37 82 38 76 39 78 40 32 41 81 42 75 43 74 44 33 46
REMARK SMILES IDX 63 47 44 48 62 49 45 50 48 51 61 52 79 53 46 54 47 55 60 57
REMARK SMILES IDX 80 58 49 59 34 60 35 61 43 62 36 63 42 64 37 65 38 66 39 67
REMARK SMILES IDX 40 68 41 69 64 70 65 71 73 72 66 73 72 74 67 75 68 76 69 77
REMARK SMILES IDX 70 78 71 79 50 80 51 81 59 82 52 83 58 84 53 85 54 86 55 87
REMARK SMILES IDX 56 88 57 89
REMARK H PARENT 18 6 14 22 22 26 78 45 48 56
REMARK Flexibility Score: inf
ROOT
ATOM      1  C   UNL A   1      38.966  21.042  26.170  1.00  0.00     0.042 C 
ENDROOT
BRANCH   1   2
ATOM      2  C   UNL A   1      38.264  22.183  25.437  1.00  0.00     0.117 C 
BRANCH   2   3
ATOM      3  N   UNL A   1      36.985  21.790  24.879  1.00  0.00    -0.356 N 
ATOM      4  O   UNL A   1      35.660  22.641  26.557  1.00  0.00    -0.275 OA
ATOM      5  C   UNL A   1      35.780  22.143  25.444  1.00  0.00     0.220 C 
ATOM      6  H   UNL A   1      36.977  21.247  24.058  1.00  0.00     0.163 HD
BRANCH   5   7
ATOM      7  C   UNL A   1      34.598  21.927  24.520  1.00  0.00     0.103 C 
BRANCH   7   8
ATOM      8  C   UNL A   1      34.284  23.057  23.506  1.00  0.00     0.001 C 
ATOM      9  C   UNL A   1      34.580  24.505  23.918  1.00  0.00     0.021 C 
ATOM     10  C   UNL A   1      32.835  23.016  23.011  1.00  0.00     0.021 C 
ATOM     11  C   UNL A   1      33.576  25.093  24.911  1.00  0.00     0.103 C 
ATOM     12  C   UNL A   1      31.849  23.521  24.055  1.00  0.00     0.103 C 
ATOM     13  N   UNL A   1      32.160  24.919  24.469  1.00  0.00    -0.198 NA
BRANCH  13  14
ATOM     14  S   UNL A   1      31.083  25.532  25.675  1.00  0.00     0.244 S 
ATOM     15  O   UNL A   1      29.740  25.527  25.153  1.00  0.00    -0.207 OA
ATOM     16  O   UNL A   1      31.404  24.876  26.933  1.00  0.00    -0.207 OA
BRANCH  14  17
ATOM     17  C   UNL A   1      31.402  27.206  25.986  1.00  0.00     0.100 A 
ATOM     18  C   UNL A   1      31.744  27.782  27.237  1.00  0.00     0.041 A 
ATOM     19  C   UNL A   1      31.458  28.219  25.046  1.00  0.00     0.104 A 
ATOM     20  C   UNL A   1      31.945  29.129  27.031  1.00  0.00     0.083 A 
ATOM     21  N   UNL A   1      31.783  29.381  25.692  1.00  0.00    -0.366 N 
ATOM     22  H   UNL A   1      31.884  30.261  25.263  1.00  0.00     0.165 HD
ENDBRANCH  14  17
ENDBRANCH  13  14
ENDBRANCH   7   8
ENDBRANCH   5   7
ENDBRANCH   2   3
ENDBRANCH   1   2
BRANCH   1  23
ATOM     23  C   UNL A   1      39.177  19.799  25.303  1.00  0.00     0.118 C 
BRANCH  23  24
ATOM     24  N   UNL A   1      40.163  18.898  25.879  1.00  0.00    -0.352 N 
ATOM     25  C   UNL A   1      41.491  19.127  26.151  1.00  0.00     0.251 C 
ATOM     26  H   UNL A   1      39.834  17.998  26.106  1.00  0.00     0.163 HD
ATOM     27  O   UNL A   1      42.255  18.166  26.207  1.00  0.00    -0.269 OA
BRANCH  25  28
ATOM     28  C   UNL A   1      42.014  20.488  26.407  1.00  0.00     0.039 A 
ATOM     29  C   UNL A   1      42.556  21.207  25.330  1.00  0.00     0.014 A 
ATOM     30  C   UNL A   1      42.098  21.007  27.704  1.00  0.00     0.014 A 
ATOM     31  C   UNL A   1      43.144  22.451  25.545  1.00  0.00     0.010 A 
ATOM     32  C   UNL A   1      42.671  22.253  27.924  1.00  0.00     0.010 A 
ATOM     33  C   UNL A   1      43.182  22.977  26.843  1.00  0.00    -0.014 A 
BRANCH  33  34
ATOM     34  C   UNL A   1      43.498  24.409  27.041  1.00  0.00     0.031 A 
ATOM     35  C   UNL A   1      42.162  25.220  27.152  1.00  0.00     0.074 A 
ATOM     36  C   UNL A   1      44.834  24.741  27.110  1.00  0.00     0.049 A 
ATOM     37  N   UNL A   1      41.943  26.491  27.028  1.00  0.00    -0.248 NA
ATOM     38  C   UNL A   1      40.863  24.513  27.412  1.00  0.00     0.031 C 
ATOM     39  C   UNL A   1      45.963  23.772  27.057  1.00  0.00     0.029 A 
ATOM     40  N   UNL A   1      45.536  25.923  27.258  1.00  0.00    -0.354 N 
ATOM     41  C   UNL A   1      40.599  26.757  27.403  1.00  0.00     0.074 A 
ATOM     42  C   UNL A   1      39.959  25.489  27.534  1.00  0.00     0.031 C 
ATOM     43  C   UNL A   1      47.166  24.403  27.061  1.00  0.00     0.029 A 
ATOM     44  C   UNL A   1      46.964  25.835  27.153  1.00  0.00     0.049 A 
ATOM     45  H   UNL A   1      45.080  26.780  27.427  1.00  0.00     0.167 HD
ATOM     46  C   UNL A   1      40.153  28.012  27.718  1.00  0.00     0.031 A 
ATOM     47  C   UNL A   1      47.890  26.856  27.113  1.00  0.00     0.031 A 
ATOM     48  C   UNL A   1      41.196  28.948  27.476  1.00  0.00     0.049 A 
ATOM     49  C   UNL A   1      47.110  28.044  27.481  1.00  0.00     0.074 A 
ATOM     50  C   UNL A   1      41.787  29.370  26.313  1.00  0.00     0.029 A 
ATOM     51  N   UNL A   1      42.037  29.185  28.538  1.00  0.00    -0.354 N 
ATOM     52  N   UNL A   1      46.670  28.295  28.675  1.00  0.00    -0.248 NA
ATOM     53  C   UNL A   1      46.714  28.981  26.423  1.00  0.00     0.031 C 
ATOM     54  C   UNL A   1      43.155  29.287  26.637  1.00  0.00     0.029 A 
ATOM     55  C   UNL A   1      43.307  29.170  28.024  1.00  0.00     0.049 A 
ATOM     56  H   UNL A   1      41.779  29.335  29.476  1.00  0.00     0.167 HD
ATOM     57  C   UNL A   1      45.635  29.152  28.417  1.00  0.00     0.074 A 
ATOM     58  C   UNL A   1      45.925  29.778  27.139  1.00  0.00     0.031 C 
ATOM     59  C   UNL A   1      44.401  28.878  28.912  1.00  0.00     0.031 A 
BRANCH  46  60
ATOM     60  C   UNL A   1      38.955  28.532  28.472  1.00  0.00    -0.014 A 
ATOM     61  C   UNL A   1      38.319  29.683  27.930  1.00  0.00     0.010 A 
ATOM     62  C   UNL A   1      38.667  28.207  29.803  1.00  0.00     0.010 A 
ATOM     63  C   UNL A   1      37.556  30.548  28.713  1.00  0.00     0.020 A 
ATOM     64  C   UNL A   1      37.860  29.055  30.590  1.00  0.00     0.020 A 
ATOM     65  C   UNL A   1      37.353  30.243  30.052  1.00  0.00     0.054 A 
BRANCH  65  66
ATOM     66  S   UNL A   1      36.470  31.457  31.072  1.00  0.00     0.124 S 
ATOM     67  O   UNL A   1      35.835  30.613  32.080  1.00  0.00    -0.237 OA
ATOM     68  O   UNL A   1      37.555  32.304  31.560  1.00  0.00    -0.237 OA
ATOM     69  O   UNL A   1      35.561  32.103  30.129  1.00  0.00    -0.744 OA
ENDBRANCH  65  66
ENDBRANCH  46  60
BRANCH  47  70
ATOM     70  C   UNL A   1      49.348  27.162  26.763  1.00  0.00    -0.014 A 
ATOM     71  C   UNL A   1      50.279  27.885  27.517  1.00  0.00     0.010 A 
ATOM     72  C   UNL A   1      49.897  26.508  25.611  1.00  0.00     0.010 A 
ATOM     73  C   UNL A   1      51.677  27.803  27.236  1.00  0.00     0.020 A 
ATOM     74  C   UNL A   1      51.266  26.366  25.359  1.00  0.00     0.020 A 
ATOM     75  C   UNL A   1      52.163  26.986  26.203  1.00  0.00     0.054 A 
BRANCH  75  76
ATOM     76  S   UNL A   1      53.937  26.595  26.049  1.00  0.00     0.124 S 
ATOM     77  O   UNL A   1      54.391  26.618  27.436  1.00  0.00    -0.237 OA
ATOM     78  O   UNL A   1      53.918  25.281  25.412  1.00  0.00    -0.237 OA
ATOM     79  O   UNL A   1      54.457  27.671  25.206  1.00  0.00    -0.744 OA
ENDBRANCH  75  76
ENDBRANCH  47  70
BRANCH  59  80
ATOM     80  C   UNL A   1      44.330  27.987  30.152  1.00  0.00    -0.014 A 
ATOM     81  C   UNL A   1      44.643  28.528  31.412  1.00  0.00     0.010 A 
ATOM     82  C   UNL A   1      44.015  26.612  30.113  1.00  0.00     0.010 A 
ATOM     83  C   UNL A   1      44.626  27.748  32.580  1.00  0.00     0.020 A 
ATOM     84  C   UNL A   1      44.002  25.814  31.277  1.00  0.00     0.020 A 
ATOM     85  C   UNL A   1      44.296  26.394  32.511  1.00  0.00     0.054 A 
BRANCH  85  86
ATOM     86  S   UNL A   1      44.248  25.421  34.049  1.00  0.00     0.124 S 
ATOM     87  O   UNL A   1      42.897  25.666  34.549  1.00  0.00    -0.237 OA
ATOM     88  O   UNL A   1      44.499  24.064  33.571  1.00  0.00    -0.237 OA
ATOM     89  O   UNL A   1      45.316  25.998  34.866  1.00  0.00    -0.744 OA
ENDBRANCH  85  86
ENDBRANCH  59  80
ENDBRANCH  33  34
ENDBRANCH  25  28
ENDBRANCH  23  24
ENDBRANCH   1  23
TORSDOF 16
ENDMDL
