MODEL 1
REMARK VINA RESULT:     -10.1      0.000      0.000
REMARK SMILES C/C(=N/OCC(=O)NCCCNC(=O)c1ccc(-c2c3nc(c(-c4ccc(S(=O)(=O)[O-])cc4)c4ccc([nH]4)c(-c4ccc(S(=O)(=O)[O-])cc4)c4nc(c(-c5ccc(S(=O)(=O)[O-])cc5)c5ccc2[nH]5)C=C4)C=C3)cc1)c1ccc(C)cc1
REMARK SMILES IDX 10 1 9 2 8 3 6 4 7 5 5 7 4 8 3 9 1 10 2 11 75 12 76 13 81 14
REMARK SMILES IDX 77 15 80 16 78 17 79 18 11 19 12 20 13 21 14 23 15 24 16 25
REMARK SMILES IDX 74 26 17 27 73 28 18 29 19 30 20 31 67 32 21 33 72 34 66 35
REMARK SMILES IDX 68 36 22 37 71 38 65 39 64 40 23 42 53 43 34 44 52 45 35 46
REMARK SMILES IDX 38 47 51 48 69 49 36 50 37 51 50 53 70 54 39 55 24 56 25 57
REMARK SMILES IDX 33 58 26 59 32 60 27 61 28 62 29 63 30 64 31 65 54 66 55 67
REMARK SMILES IDX 63 68 56 69 62 70 57 71 58 72 59 73 60 74 61 75 40 76 41 77
REMARK SMILES IDX 49 78 42 79 48 80 43 81 44 82 45 83 46 84 47 85
REMARK H PARENT 8 6 12 22 68 41 38 52
REMARK Flexibility Score: inf
ROOT
ATOM      1  C   UNL A   1      35.777  33.882  28.807  1.00  0.00     0.042 C 
ENDROOT
BRANCH   1   2
ATOM      2  C   UNL A   1      34.862  34.542  27.779  1.00  0.00     0.117 C 
BRANCH   2   3
ATOM      3  N   UNL A   1      34.571  35.928  28.097  1.00  0.00    -0.353 N 
ATOM      4  C   UNL A   1      33.560  36.436  28.867  1.00  0.00     0.260 C 
ATOM      5  O   UNL A   1      33.527  37.655  29.051  1.00  0.00    -0.271 OA
ATOM      6  H   UNL A   1      35.183  36.593  27.706  1.00  0.00     0.163 HD
BRANCH   4   7
ATOM      7  C   UNL A   1      32.587  35.489  29.563  1.00  0.00     0.363 C 
BRANCH   7   8
ATOM      8  O   UNL A   1      33.033  34.997  30.814  1.00  0.00    -0.385 OA
BRANCH   8   9
ATOM      9  N   UNL A   1      32.998  36.022  31.766  1.00  0.00    -0.091 NA
ATOM     10  C   UNL A   1      33.869  36.865  33.840  1.00  0.00     0.071 C 
ATOM     11  C   UNL A   1      33.881  35.860  32.709  1.00  0.00     0.084 C 
BRANCH  11  12
ATOM     12  C   UNL A   1      34.903  34.776  32.781  1.00  0.00    -0.001 A 
ATOM     13  C   UNL A   1      34.549  33.505  33.246  1.00  0.00     0.010 A 
ATOM     14  C   UNL A   1      36.218  35.021  32.373  1.00  0.00     0.010 A 
ATOM     15  C   UNL A   1      35.511  32.498  33.340  1.00  0.00     0.004 A 
ATOM     16  C   UNL A   1      37.176  34.007  32.457  1.00  0.00     0.004 A 
ATOM     17  C   UNL A   1      36.832  32.742  32.948  1.00  0.00    -0.051 A 
ATOM     18  C   UNL A   1      37.862  31.657  33.067  1.00  0.00     0.044 C 
ENDBRANCH  11  12
ENDBRANCH   8   9
ENDBRANCH   7   8
ENDBRANCH   4   7
ENDBRANCH   2   3
ENDBRANCH   1   2
BRANCH   1  19
ATOM     19  C   UNL A   1      35.117  32.770  29.620  1.00  0.00     0.118 C 
BRANCH  19  20
ATOM     20  N   UNL A   1      34.332  31.850  28.804  1.00  0.00    -0.352 N 
ATOM     21  C   UNL A   1      34.683  30.666  28.203  1.00  0.00     0.251 C 
ATOM     22  H   UNL A   1      33.397  32.123  28.659  1.00  0.00     0.163 HD
ATOM     23  O   UNL A   1      33.896  30.126  27.427  1.00  0.00    -0.269 OA
BRANCH  21  24
ATOM     24  C   UNL A   1      36.006  30.052  28.454  1.00  0.00     0.039 A 
ATOM     25  C   UNL A   1      36.971  30.099  27.443  1.00  0.00     0.014 A 
ATOM     26  C   UNL A   1      36.299  29.428  29.669  1.00  0.00     0.014 A 
ATOM     27  C   UNL A   1      38.258  29.611  27.685  1.00  0.00     0.010 A 
ATOM     28  C   UNL A   1      37.600  29.001  29.933  1.00  0.00     0.010 A 
ATOM     29  C   UNL A   1      38.598  29.111  28.953  1.00  0.00    -0.014 A 
BRANCH  29  30
ATOM     30  C   UNL A   1      40.004  28.774  29.300  1.00  0.00     0.031 A 
ATOM     31  C   UNL A   1      40.908  29.798  29.928  1.00  0.00     0.074 A 
ATOM     32  C   UNL A   1      40.492  27.565  28.956  1.00  0.00     0.049 A 
ATOM     33  N   UNL A   1      42.187  29.712  30.195  1.00  0.00    -0.248 NA
ATOM     34  C   UNL A   1      40.303  31.088  30.289  1.00  0.00     0.031 C 
ATOM     35  C   UNL A   1      39.724  26.492  28.318  1.00  0.00     0.029 A 
ATOM     36  N   UNL A   1      41.754  27.037  29.079  1.00  0.00    -0.354 N 
ATOM     37  C   UNL A   1      42.543  30.939  30.742  1.00  0.00     0.074 A 
ATOM     38  C   UNL A   1      41.353  31.764  30.734  1.00  0.00     0.031 C 
ATOM     39  C   UNL A   1      40.525  25.434  28.119  1.00  0.00     0.029 A 
ATOM     40  C   UNL A   1      41.874  25.768  28.562  1.00  0.00     0.049 A 
ATOM     41  H   UNL A   1      42.501  27.521  29.498  1.00  0.00     0.167 HD
ATOM     42  C   UNL A   1      43.749  31.337  31.215  1.00  0.00     0.031 A 
ATOM     43  C   UNL A   1      42.951  24.969  28.431  1.00  0.00     0.031 A 
ATOM     44  C   UNL A   1      44.931  30.513  31.215  1.00  0.00     0.049 A 
ATOM     45  C   UNL A   1      44.290  25.456  28.911  1.00  0.00     0.074 A 
ATOM     46  C   UNL A   1      46.184  30.810  31.723  1.00  0.00     0.029 A 
ATOM     47  N   UNL A   1      45.015  29.242  30.667  1.00  0.00    -0.354 N 
ATOM     48  N   UNL A   1      44.591  26.593  29.491  1.00  0.00    -0.248 NA
ATOM     49  C   UNL A   1      45.434  24.555  28.717  1.00  0.00     0.031 C 
ATOM     50  C   UNL A   1      47.041  29.746  31.424  1.00  0.00     0.029 A 
ATOM     51  C   UNL A   1      46.307  28.759  30.785  1.00  0.00     0.049 A 
ATOM     52  H   UNL A   1      44.264  28.755  30.255  1.00  0.00     0.167 HD
ATOM     53  C   UNL A   1      45.957  26.539  29.741  1.00  0.00     0.074 A 
ATOM     54  C   UNL A   1      46.418  25.248  29.274  1.00  0.00     0.031 C 
ATOM     55  C   UNL A   1      46.758  27.477  30.305  1.00  0.00     0.031 A 
BRANCH  42  56
ATOM     56  C   UNL A   1      43.858  32.737  31.763  1.00  0.00    -0.014 A 
ATOM     57  C   UNL A   1      43.686  32.998  33.135  1.00  0.00     0.010 A 
ATOM     58  C   UNL A   1      44.194  33.799  30.902  1.00  0.00     0.010 A 
ATOM     59  C   UNL A   1      43.808  34.300  33.628  1.00  0.00     0.020 A 
ATOM     60  C   UNL A   1      44.345  35.098  31.397  1.00  0.00     0.020 A 
ATOM     61  C   UNL A   1      44.134  35.342  32.755  1.00  0.00     0.054 A 
BRANCH  61  62
ATOM     62  S   UNL A   1      44.309  37.017  33.431  1.00  0.00     0.124 S 
ATOM     63  O   UNL A   1      44.962  37.720  32.329  1.00  0.00    -0.237 OA
ATOM     64  O   UNL A   1      42.924  37.403  33.689  1.00  0.00    -0.237 OA
ATOM     65  O   UNL A   1      45.132  36.827  34.623  1.00  0.00    -0.744 OA
ENDBRANCH  61  62
ENDBRANCH  42  56
BRANCH  43  66
ATOM     66  C   UNL A   1      42.808  23.630  27.796  1.00  0.00    -0.014 A 
ATOM     67  C   UNL A   1      42.914  23.484  26.402  1.00  0.00     0.010 A 
ATOM     68  C   UNL A   1      42.582  22.488  28.588  1.00  0.00     0.010 A 
ATOM     69  C   UNL A   1      42.786  22.224  25.810  1.00  0.00     0.020 A 
ATOM     70  C   UNL A   1      42.483  21.223  28.003  1.00  0.00     0.020 A 
ATOM     71  C   UNL A   1      42.577  21.101  26.615  1.00  0.00     0.054 A 
BRANCH  71  72
ATOM     72  S   UNL A   1      42.479  19.468  25.831  1.00  0.00     0.124 S 
ATOM     73  O   UNL A   1      41.089  19.425  25.391  1.00  0.00    -0.237 OA
ATOM     74  O   UNL A   1      43.479  19.568  24.770  1.00  0.00    -0.237 OA
ATOM     75  O   UNL A   1      42.824  18.550  26.914  1.00  0.00    -0.744 OA
ENDBRANCH  71  72
ENDBRANCH  43  66
BRANCH  55  76
ATOM     76  C   UNL A   1      48.219  27.147  30.449  1.00  0.00    -0.014 A 
ATOM     77  C   UNL A   1      49.130  27.428  29.414  1.00  0.00     0.010 A 
ATOM     78  C   UNL A   1      48.702  26.613  31.658  1.00  0.00     0.010 A 
ATOM     79  C   UNL A   1      50.492  27.166  29.581  1.00  0.00     0.020 A 
ATOM     80  C   UNL A   1      50.067  26.377  31.839  1.00  0.00     0.020 A 
ATOM     81  C   UNL A   1      50.953  26.647  30.794  1.00  0.00     0.054 A 
BRANCH  81  82
ATOM     82  S   UNL A   1      52.735  26.380  31.005  1.00  0.00     0.124 S 
ATOM     83  O   UNL A   1      53.124  27.538  31.803  1.00  0.00    -0.237 OA
ATOM     84  O   UNL A   1      52.785  25.094  31.696  1.00  0.00    -0.237 OA
ATOM     85  O   UNL A   1      53.248  26.364  29.637  1.00  0.00    -0.744 OA
ENDBRANCH  81  82
ENDBRANCH  55  76
ENDBRANCH  29  30
ENDBRANCH  21  24
ENDBRANCH  19  20
ENDBRANCH   1  19
TORSDOF 16
ENDMDL
MODEL 2
REMARK VINA RESULT:     -10.1      3.050      5.990
REMARK SMILES C/C(=N/OCC(=O)NCCCNC(=O)c1ccc(-c2c3nc(c(-c4ccc(S(=O)(=O)[O-])cc4)c4ccc([nH]4)c(-c4ccc(S(=O)(=O)[O-])cc4)c4nc(c(-c5ccc(S(=O)(=O)[O-])cc5)c5ccc2[nH]5)C=C4)C=C3)cc1)c1ccc(C)cc1
REMARK SMILES IDX 10 1 9 2 8 3 6 4 7 5 5 7 4 8 3 9 1 10 2 11 75 12 76 13 81 14
REMARK SMILES IDX 77 15 80 16 78 17 79 18 11 19 12 20 13 21 14 23 15 24 16 25
REMARK SMILES IDX 74 26 17 27 73 28 18 29 19 30 20 31 67 32 21 33 72 34 66 35
REMARK SMILES IDX 68 36 22 37 71 38 65 39 64 40 23 42 53 43 34 44 52 45 35 46
REMARK SMILES IDX 38 47 51 48 69 49 36 50 37 51 50 53 70 54 39 55 24 56 25 57
REMARK SMILES IDX 33 58 26 59 32 60 27 61 28 62 29 63 30 64 31 65 54 66 55 67
REMARK SMILES IDX 63 68 56 69 62 70 57 71 58 72 59 73 60 74 61 75 40 76 41 77
REMARK SMILES IDX 49 78 42 79 48 80 43 81 44 82 45 83 46 84 47 85
REMARK H PARENT 8 6 12 22 68 41 38 52
REMARK Flexibility Score: inf
ROOT
ATOM      1  C   UNL A   1      33.653  28.324  25.752  1.00  0.00     0.042 C 
ENDROOT
BRANCH   1   2
ATOM      2  C   UNL A   1      33.327  26.920  25.250  1.00  0.00     0.117 C 
BRANCH   2   3
ATOM      3  N   UNL A   1      31.939  26.557  25.467  1.00  0.00    -0.353 N 
ATOM      4  C   UNL A   1      31.430  25.479  26.139  1.00  0.00     0.260 C 
ATOM      5  O   UNL A   1      30.205  25.388  26.250  1.00  0.00    -0.271 OA
ATOM      6  H   UNL A   1      31.272  27.168  25.077  1.00  0.00     0.163 HD
BRANCH   4   7
ATOM      7  C   UNL A   1      32.376  24.498  26.827  1.00  0.00     0.363 C 
BRANCH   7   8
ATOM      8  O   UNL A   1      32.645  23.320  26.090  1.00  0.00    -0.385 OA
BRANCH   8   9
ATOM      9  N   UNL A   1      32.458  23.562  24.724  1.00  0.00    -0.091 NA
ATOM     10  C   UNL A   1      33.495  23.834  22.574  1.00  0.00     0.071 C 
ATOM     11  C   UNL A   1      33.568  23.499  24.048  1.00  0.00     0.084 C 
BRANCH  11  12
ATOM     12  C   UNL A   1      34.908  23.128  24.588  1.00  0.00    -0.001 A 
ATOM     13  C   UNL A   1      35.730  24.104  25.162  1.00  0.00     0.010 A 
ATOM     14  C   UNL A   1      35.345  21.800  24.535  1.00  0.00     0.010 A 
ATOM     15  C   UNL A   1      36.995  23.763  25.643  1.00  0.00     0.004 A 
ATOM     16  C   UNL A   1      36.608  21.460  25.028  1.00  0.00     0.004 A 
ATOM     17  C   UNL A   1      37.444  22.439  25.578  1.00  0.00    -0.051 A 
ATOM     18  C   UNL A   1      38.812  22.085  26.084  1.00  0.00     0.044 C 
ENDBRANCH  11  12
ENDBRANCH   8   9
ENDBRANCH   7   8
ENDBRANCH   4   7
ENDBRANCH   2   3
ENDBRANCH   1   2
BRANCH   1  19
ATOM     19  C   UNL A   1      33.451  28.522  27.254  1.00  0.00     0.118 C 
BRANCH  19  20
ATOM     20  N   UNL A   1      33.497  29.923  27.659  1.00  0.00    -0.352 N 
ATOM     21  C   UNL A   1      34.498  30.648  28.256  1.00  0.00     0.251 C 
ATOM     22  H   UNL A   1      32.674  30.432  27.474  1.00  0.00     0.163 HD
ATOM     23  O   UNL A   1      34.264  31.789  28.651  1.00  0.00    -0.269 OA
BRANCH  21  24
ATOM     24  C   UNL A   1      35.842  30.062  28.458  1.00  0.00     0.039 A 
ATOM     25  C   UNL A   1      36.753  30.091  27.398  1.00  0.00     0.014 A 
ATOM     26  C   UNL A   1      36.206  29.482  29.675  1.00  0.00     0.014 A 
ATOM     27  C   UNL A   1      38.059  29.630  27.589  1.00  0.00     0.010 A 
ATOM     28  C   UNL A   1      37.526  29.083  29.886  1.00  0.00     0.010 A 
ATOM     29  C   UNL A   1      38.471  29.175  28.853  1.00  0.00    -0.014 A 
BRANCH  29  30
ATOM     30  C   UNL A   1      39.898  28.871  29.138  1.00  0.00     0.031 A 
ATOM     31  C   UNL A   1      40.822  29.934  29.662  1.00  0.00     0.074 A 
ATOM     32  C   UNL A   1      40.382  27.650  28.829  1.00  0.00     0.049 A 
ATOM     33  N   UNL A   1      42.115  29.875  29.862  1.00  0.00    -0.248 NA
ATOM     34  C   UNL A   1      40.222  31.235  29.990  1.00  0.00     0.031 C 
ATOM     35  C   UNL A   1      39.593  26.539  28.289  1.00  0.00     0.029 A 
ATOM     36  N   UNL A   1      41.655  27.142  28.908  1.00  0.00    -0.354 N 
ATOM     37  C   UNL A   1      42.485  31.131  30.325  1.00  0.00     0.074 A 
ATOM     38  C   UNL A   1      41.286  31.943  30.342  1.00  0.00     0.031 C 
ATOM     39  C   UNL A   1      40.395  25.480  28.100  1.00  0.00     0.029 A 
ATOM     40  C   UNL A   1      41.762  25.850  28.450  1.00  0.00     0.049 A 
ATOM     41  H   UNL A   1      42.418  27.654  29.259  1.00  0.00     0.167 HD
ATOM     42  C   UNL A   1      43.710  31.564  30.710  1.00  0.00     0.031 A 
ATOM     43  C   UNL A   1      42.840  25.055  28.300  1.00  0.00     0.031 A 
ATOM     44  C   UNL A   1      44.901  30.754  30.685  1.00  0.00     0.049 A 
ATOM     45  C   UNL A   1      44.198  25.579  28.680  1.00  0.00     0.074 A 
ATOM     46  C   UNL A   1      46.176  31.088  31.108  1.00  0.00     0.029 A 
ATOM     47  N   UNL A   1      44.970  29.457  30.199  1.00  0.00    -0.354 N 
ATOM     48  N   UNL A   1      44.516  26.747  29.183  1.00  0.00    -0.248 NA
ATOM     49  C   UNL A   1      45.340  24.681  28.468  1.00  0.00     0.031 C 
ATOM     50  C   UNL A   1      47.028  30.018  30.815  1.00  0.00     0.029 A 
ATOM     51  C   UNL A   1      46.273  28.993  30.269  1.00  0.00     0.049 A 
ATOM     52  H   UNL A   1      44.204  28.942  29.854  1.00  0.00     0.167 HD
ATOM     53  C   UNL A   1      45.894  26.719  29.360  1.00  0.00     0.074 A 
ATOM     54  C   UNL A   1      46.345  25.410  28.933  1.00  0.00     0.031 C 
ATOM     55  C   UNL A   1      46.713  27.692  29.830  1.00  0.00     0.031 A 
BRANCH  42  56
ATOM     56  C   UNL A   1      43.832  32.992  31.179  1.00  0.00    -0.014 A 
ATOM     57  C   UNL A   1      43.640  33.333  32.530  1.00  0.00     0.010 A 
ATOM     58  C   UNL A   1      44.199  33.998  30.266  1.00  0.00     0.010 A 
ATOM     59  C   UNL A   1      43.774  34.659  32.951  1.00  0.00     0.020 A 
ATOM     60  C   UNL A   1      44.362  35.321  30.689  1.00  0.00     0.020 A 
ATOM     61  C   UNL A   1      44.132  35.645  32.027  1.00  0.00     0.054 A 
BRANCH  61  62
ATOM     62  S   UNL A   1      44.320  37.353  32.610  1.00  0.00     0.124 S 
ATOM     63  O   UNL A   1      45.656  37.323  33.201  1.00  0.00    -0.237 OA
ATOM     64  O   UNL A   1      44.196  38.126  31.377  1.00  0.00    -0.237 OA
ATOM     65  O   UNL A   1      43.224  37.519  33.560  1.00  0.00    -0.744 OA
ENDBRANCH  61  62
ENDBRANCH  42  56
BRANCH  43  66
ATOM     66  C   UNL A   1      42.679  23.684  27.742  1.00  0.00    -0.014 A 
ATOM     67  C   UNL A   1      42.517  22.579  28.596  1.00  0.00     0.010 A 
ATOM     68  C   UNL A   1      42.671  23.479  26.350  1.00  0.00     0.010 A 
ATOM     69  C   UNL A   1      42.360  21.294  28.069  1.00  0.00     0.020 A 
ATOM     70  C   UNL A   1      42.483  22.200  25.818  1.00  0.00     0.020 A 
ATOM     71  C   UNL A   1      42.339  21.114  26.683  1.00  0.00     0.054 A 
BRANCH  71  72
ATOM     72  S   UNL A   1      42.068  19.446  26.022  1.00  0.00     0.124 S 
ATOM     73  O   UNL A   1      42.916  19.448  24.835  1.00  0.00    -0.237 OA
ATOM     74  O   UNL A   1      42.516  18.595  27.122  1.00  0.00    -0.237 OA
ATOM     75  O   UNL A   1      40.629  19.412  25.766  1.00  0.00    -0.744 OA
ENDBRANCH  71  72
ENDBRANCH  43  66
BRANCH  55  76
ATOM     76  C   UNL A   1      48.184  27.384  29.909  1.00  0.00    -0.014 A 
ATOM     77  C   UNL A   1      49.051  27.718  28.853  1.00  0.00     0.010 A 
ATOM     78  C   UNL A   1      48.719  26.817  31.080  1.00  0.00     0.010 A 
ATOM     79  C   UNL A   1      50.422  27.476  28.960  1.00  0.00     0.020 A 
ATOM     80  C   UNL A   1      50.095  26.600  31.203  1.00  0.00     0.020 A 
ATOM     81  C   UNL A   1      50.937  26.923  30.137  1.00  0.00     0.054 A 
BRANCH  81  82
ATOM     82  S   UNL A   1      52.729  26.681  30.273  1.00  0.00     0.124 S 
ATOM     83  O   UNL A   1      53.093  26.321  28.906  1.00  0.00    -0.237 OA
ATOM     84  O   UNL A   1      53.194  27.990  30.724  1.00  0.00    -0.237 OA
ATOM     85  O   UNL A   1      52.861  25.607  31.256  1.00  0.00    -0.744 OA
ENDBRANCH  81  82
ENDBRANCH  55  76
ENDBRANCH  29  30
ENDBRANCH  21  24
ENDBRANCH  19  20
ENDBRANCH   1  19
TORSDOF 16
ENDMDL
MODEL 3
REMARK VINA RESULT:      -9.9      0.558      8.490
REMARK SMILES C/C(=N/OCC(=O)NCCCNC(=O)c1ccc(-c2c3nc(c(-c4ccc(S(=O)(=O)[O-])cc4)c4ccc([nH]4)c(-c4ccc(S(=O)(=O)[O-])cc4)c4nc(c(-c5ccc(S(=O)(=O)[O-])cc5)c5ccc2[nH]5)C=C4)C=C3)cc1)c1ccc(C)cc1
REMARK SMILES IDX 10 1 9 2 8 3 6 4 7 5 5 7 4 8 3 9 1 10 2 11 75 12 76 13 81 14
REMARK SMILES IDX 77 15 80 16 78 17 79 18 11 19 12 20 13 21 14 23 15 24 16 25
REMARK SMILES IDX 74 26 17 27 73 28 18 29 19 30 20 31 67 32 21 33 72 34 66 35
REMARK SMILES IDX 68 36 22 37 71 38 65 39 64 40 23 42 53 43 34 44 52 45 35 46
REMARK SMILES IDX 38 47 51 48 69 49 36 50 37 51 50 53 70 54 39 55 24 56 25 57
REMARK SMILES IDX 33 58 26 59 32 60 27 61 28 62 29 63 30 64 31 65 54 66 55 67
REMARK SMILES IDX 63 68 56 69 62 70 57 71 58 72 59 73 60 74 61 75 40 76 41 77
REMARK SMILES IDX 49 78 42 79 48 80 43 81 44 82 45 83 46 84 47 85
REMARK H PARENT 8 6 12 22 68 41 38 52
REMARK Flexibility Score: inf
ROOT
ATOM      1  C   UNL A   1      35.614  33.731  28.752  1.00  0.00     0.042 C 
ENDROOT
BRANCH   1   2
ATOM      2  C   UNL A   1      34.704  34.444  27.756  1.00  0.00     0.117 C 
BRANCH   2   3
ATOM      3  N   UNL A   1      34.516  35.848  28.075  1.00  0.00    -0.353 N 
ATOM      4  C   UNL A   1      33.557  36.426  28.860  1.00  0.00     0.260 C 
ATOM      5  O   UNL A   1      33.612  37.645  29.043  1.00  0.00    -0.271 OA
ATOM      6  H   UNL A   1      35.167  36.468  27.672  1.00  0.00     0.163 HD
BRANCH   4   7
ATOM      7  C   UNL A   1      32.532  35.551  29.575  1.00  0.00     0.363 C 
BRANCH   7   8
ATOM      8  O   UNL A   1      32.966  35.023  30.816  1.00  0.00    -0.385 OA
BRANCH   8   9
ATOM      9  N   UNL A   1      32.944  36.027  31.791  1.00  0.00    -0.091 NA
ATOM     10  C   UNL A   1      33.856  36.831  33.863  1.00  0.00     0.071 C 
ATOM     11  C   UNL A   1      33.850  35.852  32.709  1.00  0.00     0.084 C 
BRANCH  11  12
ATOM     12  C   UNL A   1      34.882  34.776  32.734  1.00  0.00    -0.001 A 
ATOM     13  C   UNL A   1      34.552  33.494  33.186  1.00  0.00     0.010 A 
ATOM     14  C   UNL A   1      36.183  35.039  32.293  1.00  0.00     0.010 A 
ATOM     15  C   UNL A   1      35.524  32.494  33.236  1.00  0.00     0.004 A 
ATOM     16  C   UNL A   1      37.152  34.032  32.332  1.00  0.00     0.004 A 
ATOM     17  C   UNL A   1      36.832  32.756  32.811  1.00  0.00    -0.051 A 
ATOM     18  C   UNL A   1      37.874  31.678  32.882  1.00  0.00     0.044 C 
ENDBRANCH  11  12
ENDBRANCH   8   9
ENDBRANCH   7   8
ENDBRANCH   4   7
ENDBRANCH   2   3
ENDBRANCH   1   2
BRANCH   1  19
ATOM     19  C   UNL A   1      34.913  32.673  29.604  1.00  0.00     0.118 C 
BRANCH  19  20
ATOM     20  N   UNL A   1      34.150  31.713  28.814  1.00  0.00    -0.352 N 
ATOM     21  C   UNL A   1      34.544  30.559  28.184  1.00  0.00     0.251 C 
ATOM     22  H   UNL A   1      33.194  31.929  28.716  1.00  0.00     0.163 HD
ATOM     23  O   UNL A   1      33.757  29.978  27.440  1.00  0.00    -0.269 OA
BRANCH  21  24
ATOM     24  C   UNL A   1      35.913  30.026  28.367  1.00  0.00     0.039 A 
ATOM     25  C   UNL A   1      36.818  30.123  27.306  1.00  0.00     0.014 A 
ATOM     26  C   UNL A   1      36.306  29.429  29.567  1.00  0.00     0.014 A 
ATOM     27  C   UNL A   1      38.143  29.714  27.481  1.00  0.00     0.010 A 
ATOM     28  C   UNL A   1      37.642  29.082  29.763  1.00  0.00     0.010 A 
ATOM     29  C   UNL A   1      38.580  29.243  28.731  1.00  0.00    -0.014 A 
BRANCH  29  30
ATOM     30  C   UNL A   1      40.019  28.993  29.004  1.00  0.00     0.031 A 
ATOM     31  C   UNL A   1      40.646  27.667  28.675  1.00  0.00     0.074 A 
ATOM     32  C   UNL A   1      40.739  29.939  29.642  1.00  0.00     0.049 A 
ATOM     33  N   UNL A   1      41.853  27.239  28.943  1.00  0.00    -0.248 NA
ATOM     34  C   UNL A   1      39.804  26.691  27.967  1.00  0.00     0.031 C 
ATOM     35  C   UNL A   1      40.240  31.258  30.039  1.00  0.00     0.029 A 
ATOM     36  N   UNL A   1      42.039  29.932  30.084  1.00  0.00    -0.354 N 
ATOM     37  C   UNL A   1      41.914  25.941  28.451  1.00  0.00     0.074 A 
ATOM     38  C   UNL A   1      40.609  25.639  27.900  1.00  0.00     0.031 C 
ATOM     39  C   UNL A   1      41.223  31.936  30.651  1.00  0.00     0.029 A 
ATOM     40  C   UNL A   1      42.404  31.083  30.741  1.00  0.00     0.049 A 
ATOM     41  H   UNL A   1      42.652  29.175  29.943  1.00  0.00     0.167 HD
ATOM     42  C   UNL A   1      42.963  25.084  28.450  1.00  0.00     0.031 A 
ATOM     43  C   UNL A   1      43.549  31.412  31.372  1.00  0.00     0.031 A 
ATOM     44  C   UNL A   1      44.257  25.387  29.005  1.00  0.00     0.049 A 
ATOM     45  C   UNL A   1      44.679  30.421  31.407  1.00  0.00     0.074 A 
ATOM     46  C   UNL A   1      45.398  24.603  29.001  1.00  0.00     0.029 A 
ATOM     47  N   UNL A   1      44.581  26.557  29.676  1.00  0.00    -0.354 N 
ATOM     48  N   UNL A   1      44.741  29.226  30.873  1.00  0.00    -0.248 NA
ATOM     49  C   UNL A   1      45.892  30.822  32.132  1.00  0.00     0.031 C 
ATOM     50  C   UNL A   1      46.390  25.271  29.728  1.00  0.00     0.029 A 
ATOM     51  C   UNL A   1      45.888  26.498  30.129  1.00  0.00     0.049 A 
ATOM     52  H   UNL A   1      43.969  27.317  29.811  1.00  0.00     0.167 HD
ATOM     53  C   UNL A   1      46.003  28.737  31.187  1.00  0.00     0.074 A 
ATOM     54  C   UNL A   1      46.681  29.774  31.936  1.00  0.00     0.031 C 
ATOM     55  C   UNL A   1      46.548  27.532  30.885  1.00  0.00     0.031 A 
BRANCH  42  56
ATOM     56  C   UNL A   1      42.754  23.721  27.840  1.00  0.00    -0.014 A 
ATOM     57  C   UNL A   1      43.016  23.483  26.479  1.00  0.00     0.010 A 
ATOM     58  C   UNL A   1      42.341  22.648  28.653  1.00  0.00     0.010 A 
ATOM     59  C   UNL A   1      42.832  22.210  25.934  1.00  0.00     0.020 A 
ATOM     60  C   UNL A   1      42.184  21.367  28.118  1.00  0.00     0.020 A 
ATOM     61  C   UNL A   1      42.415  21.160  26.757  1.00  0.00     0.054 A 
BRANCH  61  62
ATOM     62  S   UNL A   1      42.209  19.513  26.024  1.00  0.00     0.124 S 
ATOM     63  O   UNL A   1      42.636  18.642  27.116  1.00  0.00    -0.237 OA
ATOM     64  O   UNL A   1      40.782  19.478  25.714  1.00  0.00    -0.237 OA
ATOM     65  O   UNL A   1      43.096  19.535  24.863  1.00  0.00    -0.744 OA
ENDBRANCH  61  62
ENDBRANCH  42  56
BRANCH  43  66
ATOM     66  C   UNL A   1      43.673  32.737  32.041  1.00  0.00    -0.014 A 
ATOM     67  C   UNL A   1      43.267  32.904  33.376  1.00  0.00     0.010 A 
ATOM     68  C   UNL A   1      44.215  33.836  31.348  1.00  0.00     0.010 A 
ATOM     69  C   UNL A   1      43.391  34.147  34.003  1.00  0.00     0.020 A 
ATOM     70  C   UNL A   1      44.369  35.072  31.981  1.00  0.00     0.020 A 
ATOM     71  C   UNL A   1      43.946  35.222  33.303  1.00  0.00     0.054 A 
BRANCH  71  72
ATOM     72  S   UNL A   1      44.158  36.808  34.158  1.00  0.00     0.124 S 
ATOM     73  O   UNL A   1      42.785  37.143  34.520  1.00  0.00    -0.237 OA
ATOM     74  O   UNL A   1      45.039  36.452  35.267  1.00  0.00    -0.237 OA
ATOM     75  O   UNL A   1      44.767  37.664  33.141  1.00  0.00    -0.744 OA
ENDBRANCH  71  72
ENDBRANCH  43  66
BRANCH  55  76
ATOM     76  C   UNL A   1      47.950  27.266  31.365  1.00  0.00    -0.014 A 
ATOM     77  C   UNL A   1      48.184  26.599  32.581  1.00  0.00     0.010 A 
ATOM     78  C   UNL A   1      49.047  27.623  30.558  1.00  0.00     0.010 A 
ATOM     79  C   UNL A   1      49.489  26.311  32.989  1.00  0.00     0.020 A 
ATOM     80  C   UNL A   1      50.352  27.311  30.950  1.00  0.00     0.020 A 
ATOM     81  C   UNL A   1      50.564  26.664  32.168  1.00  0.00     0.054 A 
BRANCH  81  82
ATOM     82  S   UNL A   1      52.242  26.216  32.693  1.00  0.00     0.124 S 
ATOM     83  O   UNL A   1      52.612  25.209  31.704  1.00  0.00    -0.237 OA
ATOM     84  O   UNL A   1      52.957  27.487  32.595  1.00  0.00    -0.237 OA
ATOM     85  O   UNL A   1      52.059  25.715  34.054  1.00  0.00    -0.744 OA
ENDBRANCH  81  82
ENDBRANCH  55  76
ENDBRANCH  29  30
ENDBRANCH  21  24
ENDBRANCH  19  20
ENDBRANCH   1  19
TORSDOF 16
ENDMDL
