MODEL 1
REMARK VINA RESULT:     -10.7      0.000      0.000
REMARK SMILES COc1ccc(Nc2cc(C(=O)NCCCNC(=O)c3ccc(-c4c5nc(c(-c6ccc(S(=O)(=O)[O-])cc6)c6ccc([nH]6)c(-c6ccc(S(=O)(=O)[O-])cc6)c6nc(c(-c7ccc(S(=O)(=O)[O-])cc7)c7ccc4[nH]7)C=C6)C=C5)cc3)ccn2)cc1
REMARK SMILES IDX 15 1 14 2 13 3 11 4 12 5 10 7 8 8 9 9 82 10 81 11 80 12 7 13
REMARK SMILES IDX 6 15 3 16 4 17 84 18 5 19 83 20 2 21 1 22 16 23 17 24 18 25
REMARK SMILES IDX 19 27 20 28 21 29 79 30 22 31 78 32 23 33 24 34 25 35 72 36
REMARK SMILES IDX 26 37 77 38 71 39 73 40 27 41 76 42 70 43 69 44 28 46 58 47
REMARK SMILES IDX 39 48 57 49 40 50 43 51 56 52 74 53 41 54 42 55 55 57 75 58
REMARK SMILES IDX 44 59 29 60 30 61 38 62 31 63 37 64 32 65 33 66 34 67 35 68
REMARK SMILES IDX 36 69 59 70 60 71 68 72 61 73 67 74 62 75 63 76 64 77 65 78
REMARK SMILES IDX 66 79 45 80 46 81 54 82 47 83 53 84 48 85 49 86 50 87 51 88
REMARK SMILES IDX 52 89
REMARK H PARENT 13 6 7 14 17 26 73 45 43 56
REMARK Flexibility Score: inf
ROOT
ATOM      1  C   UNL A   1      41.746  21.867  27.631  1.00  0.00     0.042 C 
ENDROOT
BRANCH   1   2
ATOM      2  C   UNL A   1      41.470  21.427  26.192  1.00  0.00     0.118 C 
BRANCH   2   3
ATOM      3  N   UNL A   1      41.624  19.991  26.036  1.00  0.00    -0.352 N 
ATOM      4  C   UNL A   1      42.680  19.189  25.686  1.00  0.00     0.251 C 
ATOM      5  O   UNL A   1      42.486  17.971  25.700  1.00  0.00    -0.269 OA
ATOM      6  H   UNL A   1      40.798  19.488  26.219  1.00  0.00     0.163 HD
BRANCH   4   7
ATOM      7  C   UNL A   1      44.042  19.685  25.346  1.00  0.00     0.044 A 
ATOM      8  C   UNL A   1      45.661  21.347  24.713  1.00  0.00     0.131 A 
ATOM      9  C   UNL A   1      44.335  20.961  24.883  1.00  0.00     0.061 A 
ATOM     10  N   UNL A   1      46.683  20.481  24.834  1.00  0.00    -0.239 NA
ATOM     11  C   UNL A   1      46.386  19.224  25.224  1.00  0.00     0.114 A 
ATOM     12  C   UNL A   1      45.104  18.793  25.511  1.00  0.00     0.034 A 
BRANCH   8  13
ATOM     13  N   UNL A   1      45.982  22.696  24.501  1.00  0.00    -0.340 N 
ATOM     14  H   UNL A   1      46.219  22.950  23.580  1.00  0.00     0.168 HD
BRANCH  13  15
ATOM     15  C   UNL A   1      46.001  23.729  25.463  1.00  0.00     0.040 A 
ATOM     16  C   UNL A   1      45.996  25.753  27.432  1.00  0.00     0.119 A 
ATOM     17  C   UNL A   1      45.808  26.075  26.092  1.00  0.00     0.048 A 
ATOM     18  C   UNL A   1      46.172  24.418  27.796  1.00  0.00     0.048 A 
ATOM     19  C   UNL A   1      45.816  25.075  25.118  1.00  0.00     0.030 A 
ATOM     20  C   UNL A   1      46.172  23.414  26.816  1.00  0.00     0.030 A 
BRANCH  16  21
ATOM     21  O   UNL A   1      45.937  26.815  28.291  1.00  0.00    -0.497 OA
ATOM     22  C   UNL A   1      45.862  26.487  29.673  1.00  0.00     0.278 C 
ENDBRANCH  16  21
ENDBRANCH  13  15
ENDBRANCH   8  13
ENDBRANCH   4   7
ENDBRANCH   2   3
ENDBRANCH   1   2
BRANCH   1  23
ATOM     23  C   UNL A   1      42.644  23.100  27.723  1.00  0.00     0.118 C 
BRANCH  23  24
ATOM     24  N   UNL A   1      42.637  23.862  26.484  1.00  0.00    -0.352 N 
ATOM     25  C   UNL A   1      42.173  25.124  26.216  1.00  0.00     0.251 C 
ATOM     26  H   UNL A   1      43.031  23.396  25.712  1.00  0.00     0.163 HD
ATOM     27  O   UNL A   1      42.072  25.474  25.042  1.00  0.00    -0.269 OA
BRANCH  25  28
ATOM     28  C   UNL A   1      41.795  26.062  27.299  1.00  0.00     0.039 A 
ATOM     29  C   UNL A   1      42.606  27.183  27.513  1.00  0.00     0.014 A 
ATOM     30  C   UNL A   1      40.726  25.809  28.163  1.00  0.00     0.014 A 
ATOM     31  C   UNL A   1      42.342  28.048  28.576  1.00  0.00     0.010 A 
ATOM     32  C   UNL A   1      40.424  26.708  29.188  1.00  0.00     0.010 A 
ATOM     33  C   UNL A   1      41.244  27.820  29.422  1.00  0.00    -0.014 A 
BRANCH  33  34
ATOM     34  C   UNL A   1      40.985  28.715  30.579  1.00  0.00     0.031 A 
ATOM     35  C   UNL A   1      41.826  28.608  31.825  1.00  0.00     0.074 A 
ATOM     36  C   UNL A   1      39.984  29.614  30.516  1.00  0.00     0.049 A 
ATOM     37  N   UNL A   1      41.757  29.308  32.930  1.00  0.00    -0.248 NA
ATOM     38  C   UNL A   1      42.865  27.565  31.840  1.00  0.00     0.031 C 
ATOM     39  C   UNL A   1      39.073  29.790  29.383  1.00  0.00     0.029 A 
ATOM     40  N   UNL A   1      39.568  30.555  31.426  1.00  0.00    -0.354 N 
ATOM     41  C   UNL A   1      42.727  28.779  33.775  1.00  0.00     0.074 A 
ATOM     42  C   UNL A   1      43.340  27.672  33.073  1.00  0.00     0.031 C 
ATOM     43  C   UNL A   1      38.226  30.797  29.653  1.00  0.00     0.029 A 
ATOM     44  C   UNL A   1      38.516  31.321  30.984  1.00  0.00     0.049 A 
ATOM     45  H   UNL A   1      39.984  30.669  32.311  1.00  0.00     0.167 HD
ATOM     46  C   UNL A   1      43.092  29.188  35.014  1.00  0.00     0.031 A 
ATOM     47  C   UNL A   1      37.863  32.337  31.580  1.00  0.00     0.031 A 
ATOM     48  C   UNL A   1      42.495  30.302  35.704  1.00  0.00     0.049 A 
ATOM     49  C   UNL A   1      38.308  32.796  32.942  1.00  0.00     0.074 A 
ATOM     50  C   UNL A   1      42.826  30.828  36.941  1.00  0.00     0.029 A 
ATOM     51  N   UNL A   1      41.449  31.067  35.212  1.00  0.00    -0.354 N 
ATOM     52  N   UNL A   1      39.265  32.317  33.701  1.00  0.00    -0.248 NA
ATOM     53  C   UNL A   1      37.596  33.947  33.515  1.00  0.00     0.031 C 
ATOM     54  C   UNL A   1      41.955  31.890  37.212  1.00  0.00     0.029 A 
ATOM     55  C   UNL A   1      41.115  32.054  36.123  1.00  0.00     0.049 A 
ATOM     56  H   UNL A   1      41.009  30.928  34.342  1.00  0.00     0.167 HD
ATOM     57  C   UNL A   1      39.287  33.126  34.833  1.00  0.00     0.074 A 
ATOM     58  C   UNL A   1      38.260  34.132  34.648  1.00  0.00     0.031 C 
ATOM     59  C   UNL A   1      40.086  33.043  35.926  1.00  0.00     0.031 A 
BRANCH  46  60
ATOM     60  C   UNL A   1      44.189  28.419  35.703  1.00  0.00    -0.014 A 
ATOM     61  C   UNL A   1      43.895  27.318  36.528  1.00  0.00     0.010 A 
ATOM     62  C   UNL A   1      45.533  28.785  35.505  1.00  0.00     0.010 A 
ATOM     63  C   UNL A   1      44.920  26.630  37.184  1.00  0.00     0.020 A 
ATOM     64  C   UNL A   1      46.563  28.083  36.138  1.00  0.00     0.020 A 
ATOM     65  C   UNL A   1      46.248  27.022  36.989  1.00  0.00     0.054 A 
BRANCH  65  66
ATOM     66  S   UNL A   1      47.560  26.106  37.844  1.00  0.00     0.124 S 
ATOM     67  O   UNL A   1      47.049  24.739  37.804  1.00  0.00    -0.237 OA
ATOM     68  O   UNL A   1      48.730  26.363  37.009  1.00  0.00    -0.237 OA
ATOM     69  O   UNL A   1      47.600  26.718  39.171  1.00  0.00    -0.744 OA
ENDBRANCH  65  66
ENDBRANCH  46  60
BRANCH  47  70
ATOM     70  C   UNL A   1      36.746  33.016  30.872  1.00  0.00    -0.014 A 
ATOM     71  C   UNL A   1      37.003  33.858  29.777  1.00  0.00     0.010 A 
ATOM     72  C   UNL A   1      35.415  32.809  31.280  1.00  0.00     0.010 A 
ATOM     73  C   UNL A   1      35.952  34.496  29.111  1.00  0.00     0.020 A 
ATOM     74  C   UNL A   1      34.359  33.425  30.602  1.00  0.00     0.020 A 
ATOM     75  C   UNL A   1      34.636  34.274  29.528  1.00  0.00     0.054 A 
BRANCH  75  76
ATOM     76  S   UNL A   1      33.282  35.066  28.615  1.00  0.00     0.124 S 
ATOM     77  O   UNL A   1      32.491  35.651  29.693  1.00  0.00    -0.237 OA
ATOM     78  O   UNL A   1      33.988  36.016  27.760  1.00  0.00    -0.237 OA
ATOM     79  O   UNL A   1      32.652  33.953  27.908  1.00  0.00    -0.744 OA
ENDBRANCH  75  76
ENDBRANCH  47  70
BRANCH  59  80
ATOM     80  C   UNL A   1      39.899  34.091  36.990  1.00  0.00    -0.014 A 
ATOM     81  C   UNL A   1      40.478  35.366  36.866  1.00  0.00     0.010 A 
ATOM     82  C   UNL A   1      39.117  33.797  38.122  1.00  0.00     0.010 A 
ATOM     83  C   UNL A   1      40.317  36.314  37.880  1.00  0.00     0.020 A 
ATOM     84  C   UNL A   1      38.935  34.751  39.125  1.00  0.00     0.020 A 
ATOM     85  C   UNL A   1      39.555  35.997  39.007  1.00  0.00     0.054 A 
BRANCH  85  86
ATOM     86  S   UNL A   1      39.351  37.245  40.308  1.00  0.00     0.124 S 
ATOM     87  O   UNL A   1      38.628  38.301  39.604  1.00  0.00    -0.237 OA
ATOM     88  O   UNL A   1      38.586  36.530  41.327  1.00  0.00    -0.237 OA
ATOM     89  O   UNL A   1      40.723  37.576  40.687  1.00  0.00    -0.744 OA
ENDBRANCH  85  86
ENDBRANCH  59  80
ENDBRANCH  33  34
ENDBRANCH  25  28
ENDBRANCH  23  24
ENDBRANCH   1  23
TORSDOF 16
ENDMDL
MODEL 2
REMARK VINA RESULT:     -10.6      5.619     11.631
REMARK SMILES COc1ccc(Nc2cc(C(=O)NCCCNC(=O)c3ccc(-c4c5nc(c(-c6ccc(S(=O)(=O)[O-])cc6)c6ccc([nH]6)c(-c6ccc(S(=O)(=O)[O-])cc6)c6nc(c(-c7ccc(S(=O)(=O)[O-])cc7)c7ccc4[nH]7)C=C6)C=C5)cc3)ccn2)cc1
REMARK SMILES IDX 15 1 14 2 13 3 11 4 12 5 10 7 8 8 9 9 82 10 81 11 80 12 7 13
REMARK SMILES IDX 6 15 3 16 4 17 84 18 5 19 83 20 2 21 1 22 16 23 17 24 18 25
REMARK SMILES IDX 19 27 20 28 21 29 79 30 22 31 78 32 23 33 24 34 25 35 72 36
REMARK SMILES IDX 26 37 77 38 71 39 73 40 27 41 76 42 70 43 69 44 28 46 58 47
REMARK SMILES IDX 39 48 57 49 40 50 43 51 56 52 74 53 41 54 42 55 55 57 75 58
REMARK SMILES IDX 44 59 29 60 30 61 38 62 31 63 37 64 32 65 33 66 34 67 35 68
REMARK SMILES IDX 36 69 59 70 60 71 68 72 61 73 67 74 62 75 63 76 64 77 65 78
REMARK SMILES IDX 66 79 45 80 46 81 54 82 47 83 53 84 48 85 49 86 50 87 51 88
REMARK SMILES IDX 52 89
REMARK H PARENT 13 6 7 14 17 26 73 45 43 56
REMARK Flexibility Score: inf
ROOT
ATOM      1  C   UNL A   1      32.110  27.813  26.547  1.00  0.00     0.042 C 
ENDROOT
BRANCH   1   2
ATOM      2  C   UNL A   1      31.860  28.478  25.191  1.00  0.00     0.118 C 
BRANCH   2   3
ATOM      3  N   UNL A   1      30.612  28.027  24.599  1.00  0.00    -0.352 N 
ATOM      4  C   UNL A   1      30.301  27.053  23.687  1.00  0.00     0.251 C 
ATOM      5  O   UNL A   1      29.106  26.887  23.431  1.00  0.00    -0.269 OA
ATOM      6  H   UNL A   1      29.827  28.526  24.920  1.00  0.00     0.163 HD
BRANCH   4   7
ATOM      7  C   UNL A   1      31.295  26.158  23.032  1.00  0.00     0.044 A 
ATOM      8  C   UNL A   1      32.720  24.227  22.878  1.00  0.00     0.131 A 
ATOM      9  C   UNL A   1      31.895  25.058  23.630  1.00  0.00     0.061 A 
ATOM     10  N   UNL A   1      33.089  24.528  21.620  1.00  0.00    -0.239 NA
ATOM     11  C   UNL A   1      32.551  25.634  21.065  1.00  0.00     0.114 A 
ATOM     12  C   UNL A   1      31.645  26.454  21.712  1.00  0.00     0.034 A 
BRANCH   8  13
ATOM     13  N   UNL A   1      33.120  22.982  23.386  1.00  0.00    -0.340 N 
ATOM     14  H   UNL A   1      32.424  22.288  23.442  1.00  0.00     0.168 HD
BRANCH  13  15
ATOM     15  C   UNL A   1      34.411  22.617  23.823  1.00  0.00     0.040 A 
ATOM     16  C   UNL A   1      36.974  21.897  24.767  1.00  0.00     0.119 A 
ATOM     17  C   UNL A   1      36.840  22.753  23.678  1.00  0.00     0.048 A 
ATOM     18  C   UNL A   1      35.829  21.410  25.397  1.00  0.00     0.048 A 
ATOM     19  C   UNL A   1      35.573  23.104  23.208  1.00  0.00     0.030 A 
ATOM     20  C   UNL A   1      34.557  21.771  24.928  1.00  0.00     0.030 A 
BRANCH  16  21
ATOM     21  O   UNL A   1      38.263  21.653  25.150  1.00  0.00    -0.497 OA
ATOM     22  C   UNL A   1      38.734  22.417  26.254  1.00  0.00     0.278 C 
ENDBRANCH  16  21
ENDBRANCH  13  15
ENDBRANCH   8  13
ENDBRANCH   4   7
ENDBRANCH   2   3
ENDBRANCH   1   2
BRANCH   1  23
ATOM     23  C   UNL A   1      33.402  28.276  27.217  1.00  0.00     0.118 C 
BRANCH  23  24
ATOM     24  N   UNL A   1      33.385  29.706  27.484  1.00  0.00    -0.352 N 
ATOM     25  C   UNL A   1      34.336  30.519  28.045  1.00  0.00     0.251 C 
ATOM     26  H   UNL A   1      32.557  30.165  27.218  1.00  0.00     0.163 HD
ATOM     27  O   UNL A   1      34.012  31.658  28.374  1.00  0.00    -0.269 OA
BRANCH  25  28
ATOM     28  C   UNL A   1      35.728  30.059  28.259  1.00  0.00     0.039 A 
ATOM     29  C   UNL A   1      36.090  29.628  29.540  1.00  0.00     0.014 A 
ATOM     30  C   UNL A   1      36.700  30.139  27.257  1.00  0.00     0.014 A 
ATOM     31  C   UNL A   1      37.412  29.269  29.813  1.00  0.00     0.010 A 
ATOM     32  C   UNL A   1      38.007  29.720  27.512  1.00  0.00     0.010 A 
ATOM     33  C   UNL A   1      38.382  29.308  28.799  1.00  0.00    -0.014 A 
BRANCH  33  34
ATOM     34  C   UNL A   1      39.797  28.966  29.095  1.00  0.00     0.031 A 
ATOM     35  C   UNL A   1      40.692  29.967  29.779  1.00  0.00     0.074 A 
ATOM     36  C   UNL A   1      40.283  27.762  28.737  1.00  0.00     0.049 A 
ATOM     37  N   UNL A   1      41.948  29.847  30.130  1.00  0.00    -0.248 NA
ATOM     38  C   UNL A   1      40.107  31.281  30.091  1.00  0.00     0.031 C 
ATOM     39  C   UNL A   1      39.530  26.720  28.034  1.00  0.00     0.029 A 
ATOM     40  N   UNL A   1      41.526  27.208  28.920  1.00  0.00    -0.354 N 
ATOM     41  C   UNL A   1      42.307  31.071  30.684  1.00  0.00     0.074 A 
ATOM     42  C   UNL A   1      41.150  31.934  30.582  1.00  0.00     0.031 C 
ATOM     43  C   UNL A   1      40.317  25.644  27.873  1.00  0.00     0.029 A 
ATOM     44  C   UNL A   1      41.634  25.926  28.437  1.00  0.00     0.049 A 
ATOM     45  H   UNL A   1      42.269  27.684  29.356  1.00  0.00     0.167 HD
ATOM     46  C   UNL A   1      43.483  31.440  31.246  1.00  0.00     0.031 A 
ATOM     47  C   UNL A   1      42.674  25.070  28.452  1.00  0.00     0.031 A 
ATOM     48  C   UNL A   1      44.628  30.575  31.364  1.00  0.00     0.049 A 
ATOM     49  C   UNL A   1      43.959  25.490  29.111  1.00  0.00     0.074 A 
ATOM     50  C   UNL A   1      45.850  30.837  31.960  1.00  0.00     0.029 A 
ATOM     51  N   UNL A   1      44.688  29.276  30.883  1.00  0.00    -0.354 N 
ATOM     52  N   UNL A   1      44.259  26.634  29.679  1.00  0.00    -0.248 NA
ATOM     53  C   UNL A   1      45.037  24.492  29.149  1.00  0.00     0.031 C 
ATOM     54  C   UNL A   1      46.661  29.706  31.807  1.00  0.00     0.029 A 
ATOM     55  C   UNL A   1      45.928  28.726  31.160  1.00  0.00     0.049 A 
ATOM     56  H   UNL A   1      43.956  28.814  30.414  1.00  0.00     0.167 HD
ATOM     57  C   UNL A   1      45.554  26.485  30.165  1.00  0.00     0.074 A 
ATOM     58  C   UNL A   1      45.970  25.135  29.839  1.00  0.00     0.031 C 
ATOM     59  C   UNL A   1      46.327  27.384  30.822  1.00  0.00     0.031 A 
BRANCH  46  60
ATOM     60  C   UNL A   1      43.588  32.848  31.772  1.00  0.00    -0.014 A 
ATOM     61  C   UNL A   1      43.247  33.152  33.103  1.00  0.00     0.010 A 
ATOM     62  C   UNL A   1      44.053  33.878  30.934  1.00  0.00     0.010 A 
ATOM     63  C   UNL A   1      43.322  34.466  33.572  1.00  0.00     0.020 A 
ATOM     64  C   UNL A   1      44.156  35.190  31.407  1.00  0.00     0.020 A 
ATOM     65  C   UNL A   1      43.770  35.479  32.718  1.00  0.00     0.054 A 
BRANCH  65  66
ATOM     66  S   UNL A   1      43.866  37.175  33.353  1.00  0.00     0.124 S 
ATOM     67  O   UNL A   1      42.663  37.256  34.178  1.00  0.00    -0.237 OA
ATOM     68  O   UNL A   1      45.129  37.175  34.086  1.00  0.00    -0.237 OA
ATOM     69  O   UNL A   1      43.851  37.998  32.146  1.00  0.00    -0.744 OA
ENDBRANCH  65  66
ENDBRANCH  46  60
BRANCH  47  70
ATOM     70  C   UNL A   1      42.526  23.715  27.858  1.00  0.00    -0.014 A 
ATOM     71  C   UNL A   1      42.795  23.499  26.497  1.00  0.00     0.010 A 
ATOM     72  C   UNL A   1      42.131  22.627  28.659  1.00  0.00     0.010 A 
ATOM     73  C   UNL A   1      42.657  22.224  25.939  1.00  0.00     0.020 A 
ATOM     74  C   UNL A   1      42.014  21.346  28.112  1.00  0.00     0.020 A 
ATOM     75  C   UNL A   1      42.267  21.156  26.752  1.00  0.00     0.054 A 
BRANCH  75  76
ATOM     76  S   UNL A   1      42.149  19.498  26.023  1.00  0.00     0.124 S 
ATOM     77  O   UNL A   1      40.726  19.405  25.711  1.00  0.00    -0.237 OA
ATOM     78  O   UNL A   1      43.044  19.591  24.873  1.00  0.00    -0.237 OA
ATOM     79  O   UNL A   1      42.614  18.621  27.095  1.00  0.00    -0.744 OA
ENDBRANCH  75  76
ENDBRANCH  47  70
BRANCH  59  80
ATOM     80  C   UNL A   1      47.691  26.920  31.260  1.00  0.00    -0.014 A 
ATOM     81  C   UNL A   1      47.881  26.282  32.498  1.00  0.00     0.010 A 
ATOM     82  C   UNL A   1      48.794  27.114  30.409  1.00  0.00     0.010 A 
ATOM     83  C   UNL A   1      49.160  25.888  32.898  1.00  0.00     0.020 A 
ATOM     84  C   UNL A   1      50.070  26.698  30.796  1.00  0.00     0.020 A 
ATOM     85  C   UNL A   1      50.248  26.107  32.049  1.00  0.00     0.054 A 
BRANCH  85  86
ATOM     86  S   UNL A   1      51.899  25.579  32.583  1.00  0.00     0.124 S 
ATOM     87  O   UNL A   1      52.607  25.466  31.311  1.00  0.00    -0.237 OA
ATOM     88  O   UNL A   1      52.328  26.677  33.446  1.00  0.00    -0.237 OA
ATOM     89  O   UNL A   1      51.651  24.315  33.273  1.00  0.00    -0.744 OA
ENDBRANCH  85  86
ENDBRANCH  59  80
ENDBRANCH  33  34
ENDBRANCH  25  28
ENDBRANCH  23  24
ENDBRANCH   1  23
TORSDOF 16
ENDMDL
MODEL 3
REMARK VINA RESULT:     -10.5      3.601      5.969
REMARK SMILES COc1ccc(Nc2cc(C(=O)NCCCNC(=O)c3ccc(-c4c5nc(c(-c6ccc(S(=O)(=O)[O-])cc6)c6ccc([nH]6)c(-c6ccc(S(=O)(=O)[O-])cc6)c6nc(c(-c7ccc(S(=O)(=O)[O-])cc7)c7ccc4[nH]7)C=C6)C=C5)cc3)ccn2)cc1
REMARK SMILES IDX 15 1 14 2 13 3 11 4 12 5 10 7 8 8 9 9 82 10 81 11 80 12 7 13
REMARK SMILES IDX 6 15 3 16 4 17 84 18 5 19 83 20 2 21 1 22 16 23 17 24 18 25
REMARK SMILES IDX 19 27 20 28 21 29 79 30 22 31 78 32 23 33 24 34 25 35 72 36
REMARK SMILES IDX 26 37 77 38 71 39 73 40 27 41 76 42 70 43 69 44 28 46 58 47
REMARK SMILES IDX 39 48 57 49 40 50 43 51 56 52 74 53 41 54 42 55 55 57 75 58
REMARK SMILES IDX 44 59 29 60 30 61 38 62 31 63 37 64 32 65 33 66 34 67 35 68
REMARK SMILES IDX 36 69 59 70 60 71 68 72 61 73 67 74 62 75 63 76 64 77 65 78
REMARK SMILES IDX 66 79 45 80 46 81 54 82 47 83 53 84 48 85 49 86 50 87 51 88
REMARK SMILES IDX 52 89
REMARK H PARENT 13 6 7 14 17 26 73 45 43 56
REMARK Flexibility Score: inf
ROOT
ATOM      1  C   UNL A   1      38.115  23.795  26.431  1.00  0.00     0.042 C 
ENDROOT
BRANCH   1   2
ATOM      2  C   UNL A   1      37.622  22.491  25.803  1.00  0.00     0.118 C 
BRANCH   2   3
ATOM      3  N   UNL A   1      37.484  22.613  24.362  1.00  0.00    -0.352 N 
ATOM      4  C   UNL A   1      36.411  22.814  23.532  1.00  0.00     0.251 C 
ATOM      5  O   UNL A   1      36.650  22.926  22.328  1.00  0.00    -0.269 OA
ATOM      6  H   UNL A   1      38.339  22.534  23.881  1.00  0.00     0.163 HD
BRANCH   4   7
ATOM      7  C   UNL A   1      35.002  22.956  23.991  1.00  0.00     0.044 A 
ATOM      8  C   UNL A   1      32.957  24.149  24.411  1.00  0.00     0.131 A 
ATOM      9  C   UNL A   1      34.309  24.155  24.082  1.00  0.00     0.061 A 
ATOM     10  N   UNL A   1      32.316  23.031  24.798  1.00  0.00    -0.239 NA
ATOM     11  C   UNL A   1      33.014  21.877  24.767  1.00  0.00     0.114 A 
ATOM     12  C   UNL A   1      34.330  21.786  24.354  1.00  0.00     0.034 A 
BRANCH   8  13
ATOM     13  N   UNL A   1      32.186  25.310  24.254  1.00  0.00    -0.340 N 
ATOM     14  H   UNL A   1      31.378  25.228  23.698  1.00  0.00     0.168 HD
BRANCH  13  15
ATOM     15  C   UNL A   1      32.443  26.583  24.807  1.00  0.00     0.040 A 
ATOM     16  C   UNL A   1      32.916  29.113  25.971  1.00  0.00     0.119 A 
ATOM     17  C   UNL A   1      32.600  29.008  24.619  1.00  0.00     0.048 A 
ATOM     18  C   UNL A   1      32.981  27.956  26.748  1.00  0.00     0.048 A 
ATOM     19  C   UNL A   1      32.373  27.757  24.043  1.00  0.00     0.030 A 
ATOM     20  C   UNL A   1      32.743  26.701  26.168  1.00  0.00     0.030 A 
BRANCH  16  21
ATOM     21  O   UNL A   1      33.086  30.391  26.423  1.00  0.00    -0.497 OA
ATOM     22  C   UNL A   1      31.892  31.111  26.706  1.00  0.00     0.278 C 
ENDBRANCH  16  21
ENDBRANCH  13  15
ENDBRANCH   8  13
ENDBRANCH   4   7
ENDBRANCH   2   3
ENDBRANCH   1   2
BRANCH   1  23
ATOM     23  C   UNL A   1      39.548  23.709  26.954  1.00  0.00     0.118 C 
BRANCH  23  24
ATOM     24  N   UNL A   1      40.490  24.340  26.042  1.00  0.00    -0.352 N 
ATOM     25  C   UNL A   1      41.076  25.579  26.082  1.00  0.00     0.251 C 
ATOM     26  H   UNL A   1      40.749  23.788  25.270  1.00  0.00     0.163 HD
ATOM     27  O   UNL A   1      41.668  25.980  25.083  1.00  0.00    -0.269 OA
BRANCH  25  28
ATOM     28  C   UNL A   1      41.011  26.434  27.291  1.00  0.00     0.039 A 
ATOM     29  C   UNL A   1      40.053  26.127  28.265  1.00  0.00     0.014 A 
ATOM     30  C   UNL A   1      41.800  27.579  27.435  1.00  0.00     0.014 A 
ATOM     31  C   UNL A   1      39.894  26.954  29.378  1.00  0.00     0.010 A 
ATOM     32  C   UNL A   1      41.685  28.371  28.580  1.00  0.00     0.010 A 
ATOM     33  C   UNL A   1      40.713  28.083  29.548  1.00  0.00    -0.014 A 
BRANCH  33  34
ATOM     34  C   UNL A   1      40.519  28.987  30.711  1.00  0.00     0.031 A 
ATOM     35  C   UNL A   1      41.396  28.855  31.929  1.00  0.00     0.074 A 
ATOM     36  C   UNL A   1      39.546  29.918  30.679  1.00  0.00     0.049 A 
ATOM     37  N   UNL A   1      41.385  29.558  33.034  1.00  0.00    -0.248 NA
ATOM     38  C   UNL A   1      42.402  27.779  31.914  1.00  0.00     0.031 C 
ATOM     39  C   UNL A   1      38.605  30.121  29.575  1.00  0.00     0.029 A 
ATOM     40  N   UNL A   1      39.190  30.872  31.599  1.00  0.00    -0.354 N 
ATOM     41  C   UNL A   1      42.365  29.000  33.849  1.00  0.00     0.074 A 
ATOM     42  C   UNL A   1      42.919  27.873  33.130  1.00  0.00     0.031 C 
ATOM     43  C   UNL A   1      37.800  31.154  29.870  1.00  0.00     0.029 A 
ATOM     44  C   UNL A   1      38.149  31.671  31.190  1.00  0.00     0.049 A 
ATOM     45  H   UNL A   1      39.638  30.974  32.470  1.00  0.00     0.167 HD
ATOM     46  C   UNL A   1      42.782  29.399  35.075  1.00  0.00     0.031 A 
ATOM     47  C   UNL A   1      37.548  32.707  31.804  1.00  0.00     0.031 A 
ATOM     48  C   UNL A   1      42.244  30.532  35.781  1.00  0.00     0.049 A 
ATOM     49  C   UNL A   1      38.051  33.153  33.149  1.00  0.00     0.074 A 
ATOM     50  C   UNL A   1      42.631  31.048  37.006  1.00  0.00     0.029 A 
ATOM     51  N   UNL A   1      41.207  31.329  35.321  1.00  0.00    -0.354 N 
ATOM     52  N   UNL A   1      39.016  32.646  33.879  1.00  0.00    -0.248 NA
ATOM     53  C   UNL A   1      37.395  34.327  33.743  1.00  0.00     0.031 C 
ATOM     54  C   UNL A   1      41.803  32.137  37.302  1.00  0.00     0.029 A 
ATOM     55  C   UNL A   1      40.933  32.327  36.241  1.00  0.00     0.049 A 
ATOM     56  H   UNL A   1      40.735  31.203  34.466  1.00  0.00     0.167 HD
ATOM     57  C   UNL A   1      39.100  33.455  35.008  1.00  0.00     0.074 A 
ATOM     58  C   UNL A   1      38.100  34.493  34.853  1.00  0.00     0.031 C 
ATOM     59  C   UNL A   1      39.931  33.348  36.074  1.00  0.00     0.031 A 
BRANCH  46  60
ATOM     60  C   UNL A   1      43.876  28.595  35.730  1.00  0.00    -0.014 A 
ATOM     61  C   UNL A   1      45.231  28.907  35.516  1.00  0.00     0.010 A 
ATOM     62  C   UNL A   1      43.547  27.530  36.587  1.00  0.00     0.010 A 
ATOM     63  C   UNL A   1      46.237  28.137  36.106  1.00  0.00     0.020 A 
ATOM     64  C   UNL A   1      44.550  26.774  37.202  1.00  0.00     0.020 A 
ATOM     65  C   UNL A   1      45.889  27.070  36.941  1.00  0.00     0.054 A 
BRANCH  65  66
ATOM     66  S   UNL A   1      47.213  26.093  37.703  1.00  0.00     0.124 S 
ATOM     67  O   UNL A   1      48.410  26.766  37.204  1.00  0.00    -0.237 OA
ATOM     68  O   UNL A   1      46.953  26.252  39.131  1.00  0.00    -0.237 OA
ATOM     69  O   UNL A   1      46.993  24.746  37.181  1.00  0.00    -0.744 OA
ENDBRANCH  65  66
ENDBRANCH  46  60
BRANCH  47  70
ATOM     70  C   UNL A   1      36.430  33.421  31.130  1.00  0.00    -0.014 A 
ATOM     71  C   UNL A   1      35.214  33.634  31.801  1.00  0.00     0.010 A 
ATOM     72  C   UNL A   1      36.584  33.905  29.819  1.00  0.00     0.010 A 
ATOM     73  C   UNL A   1      34.164  34.305  31.167  1.00  0.00     0.020 A 
ATOM     74  C   UNL A   1      35.545  34.598  29.190  1.00  0.00     0.020 A 
ATOM     75  C   UNL A   1      34.337  34.783  29.865  1.00  0.00     0.054 A 
BRANCH  75  76
ATOM     76  S   UNL A   1      32.982  35.702  29.081  1.00  0.00     0.124 S 
ATOM     77  O   UNL A   1      32.371  34.679  28.237  1.00  0.00    -0.237 OA
ATOM     78  O   UNL A   1      32.188  36.136  30.227  1.00  0.00    -0.237 OA
ATOM     79  O   UNL A   1      33.669  36.776  28.367  1.00  0.00    -0.744 OA
ENDBRANCH  75  76
ENDBRANCH  47  70
BRANCH  59  80
ATOM     80  C   UNL A   1      39.811  34.403  37.141  1.00  0.00    -0.014 A 
ATOM     81  C   UNL A   1      38.989  34.213  38.265  1.00  0.00     0.010 A 
ATOM     82  C   UNL A   1      40.547  35.596  37.021  1.00  0.00     0.010 A 
ATOM     83  C   UNL A   1      38.868  35.218  39.228  1.00  0.00     0.020 A 
ATOM     84  C   UNL A   1      40.448  36.592  37.995  1.00  0.00     0.020 A 
ATOM     85  C   UNL A   1      39.591  36.404  39.082  1.00  0.00     0.054 A 
BRANCH  85  86
ATOM     86  S   UNL A   1      39.428  37.693  40.348  1.00  0.00     0.124 S 
ATOM     87  O   UNL A   1      38.192  38.359  39.944  1.00  0.00    -0.237 OA
ATOM     88  O   UNL A   1      39.350  36.924  41.587  1.00  0.00    -0.237 OA
ATOM     89  O   UNL A   1      40.644  38.487  40.191  1.00  0.00    -0.744 OA
ENDBRANCH  85  86
ENDBRANCH  59  80
ENDBRANCH  33  34
ENDBRANCH  25  28
ENDBRANCH  23  24
ENDBRANCH   1  23
TORSDOF 16
ENDMDL
