MODEL 1
REMARK VINA RESULT:     -12.9      0.000      0.000
REMARK SMILES Cc1ccc(S(=O)(=O)N2CCN(C(=O)[C@H]3CCCC[C@H]3C(=O)NCCCNC(=O)c3ccc(-c4c5nc(c(-c6ccc(S(=O)(=O)[O-])cc6)c6ccc([nH]6)c(-c6ccc(S(=O)(=O)[O-])cc6)c6nc(c(-c7ccc(S(=O)(=O)[O-])cc7)c7ccc4[nH]7)C=C6)C=C5)cc3)CC2)cc1C
REMARK SMILES IDX 25 1 24 2 23 3 21 4 22 5 20 7 15 8 16 9 17 10 19 11 18 12
REMARK SMILES IDX 13 13 9 14 10 15 91 16 11 17 90 18 12 19 14 20 6 21 7 22
REMARK SMILES IDX 8 23 5 24 1 25 2 26 3 27 93 28 4 29 92 30 94 31 26 32 27 33
REMARK SMILES IDX 28 34 29 36 30 37 31 38 89 39 32 40 88 41 33 42 34 43 35 44
REMARK SMILES IDX 82 45 36 46 87 47 81 48 83 49 37 50 86 51 80 52 79 53 38 55
REMARK SMILES IDX 68 56 49 57 67 58 50 59 53 60 66 61 84 62 51 63 52 64 65 66
REMARK SMILES IDX 85 67 54 68 39 69 40 70 48 71 41 72 47 73 42 74 43 75 44 76
REMARK SMILES IDX 45 77 46 78 69 79 70 80 78 81 71 82 77 83 72 84 73 85 74 86
REMARK SMILES IDX 75 87 76 88 55 89 56 90 64 91 57 92 63 93 58 94 59 95 60 96
REMARK SMILES IDX 61 97 62 98
REMARK H PARENT 23 6 27 35 83 54 53 65
REMARK Flexibility Score: inf
ROOT
ATOM      1  C   UNL A   1      34.580  31.315  27.631  1.00  0.00     0.042 C 
ENDROOT
BRANCH   1   2
ATOM      2  C   UNL A   1      34.608  29.822  27.301  1.00  0.00     0.117 C 
BRANCH   2   3
ATOM      3  N   UNL A   1      33.358  29.145  27.611  1.00  0.00    -0.356 N 
ATOM      4  C   UNL A   1      32.264  28.820  26.871  1.00  0.00     0.223 C 
ATOM      5  O   UNL A   1      31.318  28.309  27.480  1.00  0.00    -0.275 OA
ATOM      6  H   UNL A   1      33.288  28.863  28.552  1.00  0.00     0.163 HD
BRANCH   4   7
ATOM      7  C   UNL A   1      32.158  29.002  25.350  1.00  0.00     0.091 C 
ATOM      8  C   UNL A   1      33.088  28.118  24.470  1.00  0.00     0.091 C 
ATOM      9  C   UNL A   1      32.801  28.294  22.972  1.00  0.00     0.014 C 
ATOM     10  C   UNL A   1      31.319  28.249  22.636  1.00  0.00     0.001 C 
ATOM     11  C   UNL A   1      30.705  29.176  24.875  1.00  0.00     0.014 C 
ATOM     12  C   UNL A   1      30.585  29.360  23.369  1.00  0.00     0.001 C 
BRANCH   8  13
ATOM     13  C   UNL A   1      33.281  26.687  24.966  1.00  0.00     0.226 C 
ATOM     14  N   UNL A   1      31.866  22.894  24.045  1.00  0.00    -0.194 NA
ATOM     15  C   UNL A   1      31.098  23.598  25.075  1.00  0.00     0.124 C 
ATOM     16  C   UNL A   1      32.213  23.718  22.880  1.00  0.00     0.124 C 
ATOM     17  C   UNL A   1      31.869  24.829  25.541  1.00  0.00     0.136 C 
ATOM     18  C   UNL A   1      32.976  24.977  23.308  1.00  0.00     0.136 C 
ATOM     19  N   UNL A   1      32.434  25.687  24.484  1.00  0.00    -0.340 N 
ATOM     20  O   UNL A   1      34.231  26.393  25.692  1.00  0.00    -0.275 OA
BRANCH  14  21
ATOM     21  S   UNL A   1      32.375  21.306  24.229  1.00  0.00     0.243 S 
ATOM     22  O   UNL A   1      32.294  20.683  22.924  1.00  0.00    -0.207 OA
ATOM     23  O   UNL A   1      31.684  20.776  25.382  1.00  0.00    -0.207 OA
BRANCH  21  24
ATOM     24  C   UNL A   1      34.105  21.330  24.658  1.00  0.00     0.082 A 
ATOM     25  C   UNL A   1      38.298  21.557  25.679  1.00  0.00     0.044 C 
ATOM     26  C   UNL A   1      36.832  21.509  25.343  1.00  0.00    -0.048 A 
ATOM     27  C   UNL A   1      36.258  20.283  24.986  1.00  0.00     0.005 A 
ATOM     28  C   UNL A   1      36.020  22.659  25.388  1.00  0.00    -0.047 A 
ATOM     29  C   UNL A   1      34.905  20.194  24.655  1.00  0.00     0.022 A 
ATOM     30  C   UNL A   1      34.665  22.562  25.016  1.00  0.00     0.025 A 
ATOM     31  C   UNL A   1      36.568  24.008  25.773  1.00  0.00     0.044 C 
ENDBRANCH  21  24
ENDBRANCH  14  21
ENDBRANCH   8  13
ENDBRANCH   4   7
ENDBRANCH   2   3
ENDBRANCH   1   2
BRANCH   1  32
ATOM     32  C   UNL A   1      35.668  31.791  28.577  1.00  0.00     0.118 C 
BRANCH  32  33
ATOM     33  N   UNL A   1      35.589  31.135  29.869  1.00  0.00    -0.352 N 
ATOM     34  C   UNL A   1      36.454  30.308  30.541  1.00  0.00     0.251 C 
ATOM     35  H   UNL A   1      34.753  31.318  30.357  1.00  0.00     0.163 HD
ATOM     36  O   UNL A   1      36.003  29.699  31.513  1.00  0.00    -0.269 OA
BRANCH  34  37
ATOM     37  C   UNL A   1      37.882  30.100  30.160  1.00  0.00     0.039 A 
ATOM     38  C   UNL A   1      38.169  29.902  28.801  1.00  0.00     0.014 A 
ATOM     39  C   UNL A   1      38.922  29.954  31.080  1.00  0.00     0.014 A 
ATOM     40  C   UNL A   1      39.459  29.553  28.378  1.00  0.00     0.010 A 
ATOM     41  C   UNL A   1      40.231  29.701  30.650  1.00  0.00     0.010 A 
ATOM     42  C   UNL A   1      40.510  29.448  29.300  1.00  0.00    -0.014 A 
BRANCH  42  43
ATOM     43  C   UNL A   1      41.869  28.991  28.887  1.00  0.00     0.031 A 
ATOM     44  C   UNL A   1      42.996  29.989  28.736  1.00  0.00     0.074 A 
ATOM     45  C   UNL A   1      42.096  27.692  28.600  1.00  0.00     0.049 A 
ATOM     46  N   UNL A   1      44.215  29.806  28.289  1.00  0.00    -0.248 NA
ATOM     47  C   UNL A   1      42.705  31.383  29.112  1.00  0.00     0.031 C 
ATOM     48  C   UNL A   1      41.097  26.624  28.644  1.00  0.00     0.029 A 
ATOM     49  N   UNL A   1      43.240  27.061  28.169  1.00  0.00    -0.354 N 
ATOM     50  C   UNL A   1      44.825  31.057  28.316  1.00  0.00     0.074 A 
ATOM     51  C   UNL A   1      43.825  32.001  28.764  1.00  0.00     0.031 C 
ATOM     52  C   UNL A   1      41.663  25.475  28.238  1.00  0.00     0.029 A 
ATOM     53  C   UNL A   1      43.055  25.730  27.876  1.00  0.00     0.049 A 
ATOM     54  H   UNL A   1      44.107  27.517  28.079  1.00  0.00     0.167 HD
ATOM     55  C   UNL A   1      46.108  31.392  28.029  1.00  0.00     0.031 A 
ATOM     56  C   UNL A   1      43.896  24.820  27.344  1.00  0.00     0.031 A 
ATOM     57  C   UNL A   1      47.119  30.455  27.620  1.00  0.00     0.049 A 
ATOM     58  C   UNL A   1      45.310  25.214  27.015  1.00  0.00     0.074 A 
ATOM     59  C   UNL A   1      48.465  30.685  27.393  1.00  0.00     0.029 A 
ATOM     60  N   UNL A   1      46.900  29.108  27.380  1.00  0.00    -0.354 N 
ATOM     61  N   UNL A   1      45.881  26.390  27.106  1.00  0.00    -0.248 NA
ATOM     62  C   UNL A   1      46.198  24.147  26.529  1.00  0.00     0.031 C 
ATOM     63  C   UNL A   1      49.053  29.485  26.978  1.00  0.00     0.029 A 
ATOM     64  C   UNL A   1      48.081  28.498  26.993  1.00  0.00     0.049 A 
ATOM     65  H   UNL A   1      46.031  28.652  27.472  1.00  0.00     0.167 HD
ATOM     66  C   UNL A   1      47.207  26.197  26.731  1.00  0.00     0.074 A 
ATOM     67  C   UNL A   1      47.350  24.793  26.406  1.00  0.00     0.031 C 
ATOM     68  C   UNL A   1      48.216  27.100  26.674  1.00  0.00     0.031 A 
BRANCH  55  69
ATOM     69  C   UNL A   1      46.499  32.843  28.169  1.00  0.00    -0.014 A 
ATOM     70  C   UNL A   1      46.191  33.775  27.160  1.00  0.00     0.010 A 
ATOM     71  C   UNL A   1      47.140  33.290  29.338  1.00  0.00     0.010 A 
ATOM     72  C   UNL A   1      46.561  35.115  27.296  1.00  0.00     0.020 A 
ATOM     73  C   UNL A   1      47.486  34.637  29.490  1.00  0.00     0.020 A 
ATOM     74  C   UNL A   1      47.212  35.537  28.458  1.00  0.00     0.054 A 
BRANCH  74  75
ATOM     75  S   UNL A   1      47.668  37.285  28.616  1.00  0.00     0.124 S 
ATOM     76  O   UNL A   1      46.688  37.931  27.746  1.00  0.00    -0.237 OA
ATOM     77  O   UNL A   1      47.499  37.536  30.045  1.00  0.00    -0.237 OA
ATOM     78  O   UNL A   1      49.048  37.329  28.138  1.00  0.00    -0.744 OA
ENDBRANCH  74  75
ENDBRANCH  55  69
BRANCH  56  79
ATOM     79  C   UNL A   1      43.417  23.436  27.093  1.00  0.00    -0.014 A 
ATOM     80  C   UNL A   1      43.258  22.965  25.779  1.00  0.00     0.010 A 
ATOM     81  C   UNL A   1      43.132  22.576  28.170  1.00  0.00     0.010 A 
ATOM     82  C   UNL A   1      42.803  21.665  25.544  1.00  0.00     0.020 A 
ATOM     83  C   UNL A   1      42.701  21.266  27.938  1.00  0.00     0.020 A 
ATOM     84  C   UNL A   1      42.528  20.823  26.625  1.00  0.00     0.054 A 
BRANCH  84  85
ATOM     85  S   UNL A   1      41.976  19.127  26.289  1.00  0.00     0.124 S 
ATOM     86  O   UNL A   1      42.872  18.725  25.210  1.00  0.00    -0.237 OA
ATOM     87  O   UNL A   1      42.195  18.463  27.572  1.00  0.00    -0.237 OA
ATOM     88  O   UNL A   1      40.574  19.288  25.910  1.00  0.00    -0.744 OA
ENDBRANCH  84  85
ENDBRANCH  56  79
BRANCH  68  89
ATOM     89  C   UNL A   1      49.582  26.590  26.300  1.00  0.00    -0.014 A 
ATOM     90  C   UNL A   1      50.115  26.793  25.016  1.00  0.00     0.010 A 
ATOM     91  C   UNL A   1      50.360  25.929  27.269  1.00  0.00     0.010 A 
ATOM     92  C   UNL A   1      51.389  26.313  24.696  1.00  0.00     0.020 A 
ATOM     93  C   UNL A   1      51.642  25.469  26.961  1.00  0.00     0.020 A 
ATOM     94  C   UNL A   1      52.142  25.649  25.670  1.00  0.00     0.054 A 
BRANCH  94  95
ATOM     95  S   UNL A   1      53.805  25.060  25.243  1.00  0.00     0.124 S 
ATOM     96  O   UNL A   1      54.017  25.674  23.936  1.00  0.00    -0.237 OA
ATOM     97  O   UNL A   1      54.625  25.592  26.329  1.00  0.00    -0.237 OA
ATOM     98  O   UNL A   1      53.664  23.605  25.234  1.00  0.00    -0.744 OA
ENDBRANCH  94  95
ENDBRANCH  68  89
ENDBRANCH  42  43
ENDBRANCH  34  37
ENDBRANCH  32  33
ENDBRANCH   1  32
TORSDOF 16
ENDMDL
MODEL 2
REMARK VINA RESULT:     -12.8      6.199     11.932
REMARK SMILES Cc1ccc(S(=O)(=O)N2CCN(C(=O)[C@H]3CCCC[C@H]3C(=O)NCCCNC(=O)c3ccc(-c4c5nc(c(-c6ccc(S(=O)(=O)[O-])cc6)c6ccc([nH]6)c(-c6ccc(S(=O)(=O)[O-])cc6)c6nc(c(-c7ccc(S(=O)(=O)[O-])cc7)c7ccc4[nH]7)C=C6)C=C5)cc3)CC2)cc1C
REMARK SMILES IDX 25 1 24 2 23 3 21 4 22 5 20 7 15 8 16 9 17 10 19 11 18 12
REMARK SMILES IDX 13 13 9 14 10 15 91 16 11 17 90 18 12 19 14 20 6 21 7 22
REMARK SMILES IDX 8 23 5 24 1 25 2 26 3 27 93 28 4 29 92 30 94 31 26 32 27 33
REMARK SMILES IDX 28 34 29 36 30 37 31 38 89 39 32 40 88 41 33 42 34 43 35 44
REMARK SMILES IDX 82 45 36 46 87 47 81 48 83 49 37 50 86 51 80 52 79 53 38 55
REMARK SMILES IDX 68 56 49 57 67 58 50 59 53 60 66 61 84 62 51 63 52 64 65 66
REMARK SMILES IDX 85 67 54 68 39 69 40 70 48 71 41 72 47 73 42 74 43 75 44 76
REMARK SMILES IDX 45 77 46 78 69 79 70 80 78 81 71 82 77 83 72 84 73 85 74 86
REMARK SMILES IDX 75 87 76 88 55 89 56 90 64 91 57 92 63 93 58 94 59 95 60 96
REMARK SMILES IDX 61 97 62 98
REMARK H PARENT 23 6 27 35 83 54 53 65
REMARK Flexibility Score: inf
ROOT
ATOM      1  C   UNL A   1      38.202  22.347  25.672  1.00  0.00     0.042 C 
ENDROOT
BRANCH   1   2
ATOM      2  C   UNL A   1      36.738  22.525  25.265  1.00  0.00     0.117 C 
BRANCH   2   3
ATOM      3  N   UNL A   1      35.881  22.913  26.374  1.00  0.00    -0.356 N 
ATOM      4  C   UNL A   1      34.623  22.559  26.748  1.00  0.00     0.223 C 
ATOM      5  O   UNL A   1      34.148  23.156  27.722  1.00  0.00    -0.275 OA
ATOM      6  H   UNL A   1      36.298  23.566  26.981  1.00  0.00     0.163 HD
BRANCH   4   7
ATOM      7  C   UNL A   1      33.794  21.454  26.078  1.00  0.00     0.091 C 
ATOM      8  C   UNL A   1      32.551  21.906  25.260  1.00  0.00     0.091 C 
ATOM      9  C   UNL A   1      31.880  20.730  24.534  1.00  0.00     0.014 C 
ATOM     10  C   UNL A   1      32.869  19.832  23.809  1.00  0.00     0.001 C 
ATOM     11  C   UNL A   1      34.670  20.348  25.464  1.00  0.00     0.014 C 
ATOM     12  C   UNL A   1      33.861  19.244  24.798  1.00  0.00     0.001 C 
BRANCH   8  13
ATOM     13  C   UNL A   1      32.736  23.191  24.456  1.00  0.00     0.226 C 
ATOM     14  N   UNL A   1      31.119  27.013  24.346  1.00  0.00    -0.194 NA
ATOM     15  C   UNL A   1      30.466  26.049  23.457  1.00  0.00     0.124 C 
ATOM     16  C   UNL A   1      31.393  26.502  25.695  1.00  0.00     0.124 C 
ATOM     17  C   UNL A   1      31.316  24.785  23.354  1.00  0.00     0.136 C 
ATOM     18  C   UNL A   1      32.233  25.221  25.635  1.00  0.00     0.136 C 
ATOM     19  N   UNL A   1      31.818  24.229  24.623  1.00  0.00    -0.340 N 
ATOM     20  O   UNL A   1      33.734  23.358  23.754  1.00  0.00    -0.275 OA
BRANCH  14  21
ATOM     21  S   UNL A   1      31.587  28.539  23.830  1.00  0.00     0.243 S 
ATOM     22  O   UNL A   1      30.374  29.271  23.525  1.00  0.00    -0.207 OA
ATOM     23  O   UNL A   1      32.639  28.349  22.859  1.00  0.00    -0.207 OA
BRANCH  21  24
ATOM     24  C   UNL A   1      32.335  29.380  25.212  1.00  0.00     0.082 A 
ATOM     25  C   UNL A   1      34.259  31.291  28.577  1.00  0.00     0.044 C 
ATOM     26  C   UNL A   1      33.622  30.615  27.393  1.00  0.00    -0.048 A 
ATOM     27  C   UNL A   1      32.366  31.052  26.957  1.00  0.00     0.005 A 
ATOM     28  C   UNL A   1      34.259  29.561  26.708  1.00  0.00    -0.047 A 
ATOM     29  C   UNL A   1      31.734  30.446  25.870  1.00  0.00     0.022 A 
ATOM     30  C   UNL A   1      33.592  28.935  25.636  1.00  0.00     0.025 A 
ATOM     31  C   UNL A   1      35.613  29.046  27.116  1.00  0.00     0.044 C 
ENDBRANCH  21  24
ENDBRANCH  14  21
ENDBRANCH   8  13
ENDBRANCH   4   7
ENDBRANCH   2   3
ENDBRANCH   1   2
BRANCH   1  32
ATOM     32  C   UNL A   1      38.790  23.479  26.496  1.00  0.00     0.118 C 
BRANCH  32  33
ATOM     33  N   UNL A   1      40.196  23.688  26.205  1.00  0.00    -0.352 N 
ATOM     34  C   UNL A   1      41.058  24.717  26.494  1.00  0.00     0.251 C 
ATOM     35  H   UNL A   1      40.612  22.949  25.703  1.00  0.00     0.163 HD
ATOM     36  O   UNL A   1      42.135  24.728  25.894  1.00  0.00    -0.269 OA
BRANCH  34  37
ATOM     37  C   UNL A   1      40.764  25.808  27.468  1.00  0.00     0.039 A 
ATOM     38  C   UNL A   1      41.593  26.939  27.446  1.00  0.00     0.014 A 
ATOM     39  C   UNL A   1      39.810  25.711  28.483  1.00  0.00     0.014 A 
ATOM     40  C   UNL A   1      41.479  27.939  28.422  1.00  0.00     0.010 A 
ATOM     41  C   UNL A   1      39.631  26.754  29.401  1.00  0.00     0.010 A 
ATOM     42  C   UNL A   1      40.493  27.859  29.415  1.00  0.00    -0.014 A 
BRANCH  42  43
ATOM     43  C   UNL A   1      40.410  28.863  30.516  1.00  0.00     0.031 A 
ATOM     44  C   UNL A   1      41.259  28.702  31.759  1.00  0.00     0.074 A 
ATOM     45  C   UNL A   1      39.547  29.897  30.437  1.00  0.00     0.049 A 
ATOM     46  N   UNL A   1      41.256  29.406  32.864  1.00  0.00    -0.248 NA
ATOM     47  C   UNL A   1      42.220  27.586  31.769  1.00  0.00     0.031 C 
ATOM     48  C   UNL A   1      38.625  30.152  29.330  1.00  0.00     0.029 A 
ATOM     49  N   UNL A   1      39.278  30.904  31.334  1.00  0.00    -0.354 N 
ATOM     50  C   UNL A   1      42.196  28.810  33.701  1.00  0.00     0.074 A 
ATOM     51  C   UNL A   1      42.705  27.652  33.001  1.00  0.00     0.031 C 
ATOM     52  C   UNL A   1      37.878  31.230  29.619  1.00  0.00     0.029 A 
ATOM     53  C   UNL A   1      38.245  31.725  30.943  1.00  0.00     0.049 A 
ATOM     54  H   UNL A   1      39.775  31.026  32.174  1.00  0.00     0.167 HD
ATOM     55  C   UNL A   1      42.626  29.204  34.926  1.00  0.00     0.031 A 
ATOM     56  C   UNL A   1      37.636  32.740  31.588  1.00  0.00     0.031 A 
ATOM     57  C   UNL A   1      42.153  30.375  35.614  1.00  0.00     0.049 A 
ATOM     58  C   UNL A   1      38.114  33.152  32.953  1.00  0.00     0.074 A 
ATOM     59  C   UNL A   1      42.592  30.903  36.817  1.00  0.00     0.029 A 
ATOM     60  N   UNL A   1      41.139  31.204  35.161  1.00  0.00    -0.354 N 
ATOM     61  N   UNL A   1      39.046  32.610  33.698  1.00  0.00    -0.248 NA
ATOM     62  C   UNL A   1      37.467  34.328  33.554  1.00  0.00     0.031 C 
ATOM     63  C   UNL A   1      41.816  32.030  37.111  1.00  0.00     0.029 A 
ATOM     64  C   UNL A   1      40.927  32.229  36.067  1.00  0.00     0.049 A 
ATOM     65  H   UNL A   1      40.643  31.081  34.319  1.00  0.00     0.167 HD
ATOM     66  C   UNL A   1      39.128  33.404  34.838  1.00  0.00     0.074 A 
ATOM     67  C   UNL A   1      38.147  34.459  34.685  1.00  0.00     0.031 C 
ATOM     68  C   UNL A   1      39.952  33.277  35.907  1.00  0.00     0.031 A 
BRANCH  55  69
ATOM     69  C   UNL A   1      43.684  28.364  35.598  1.00  0.00    -0.014 A 
ATOM     70  C   UNL A   1      45.050  28.568  35.326  1.00  0.00     0.010 A 
ATOM     71  C   UNL A   1      43.315  27.391  36.544  1.00  0.00     0.010 A 
ATOM     72  C   UNL A   1      46.022  27.782  35.949  1.00  0.00     0.020 A 
ATOM     73  C   UNL A   1      44.288  26.622  37.192  1.00  0.00     0.020 A 
ATOM     74  C   UNL A   1      45.635  26.809  36.875  1.00  0.00     0.054 A 
BRANCH  74  75
ATOM     75  S   UNL A   1      46.918  25.813  37.681  1.00  0.00     0.124 S 
ATOM     76  O   UNL A   1      46.406  25.713  39.046  1.00  0.00    -0.237 OA
ATOM     77  O   UNL A   1      46.896  24.572  36.911  1.00  0.00    -0.237 OA
ATOM     78  O   UNL A   1      48.128  26.616  37.528  1.00  0.00    -0.744 OA
ENDBRANCH  74  75
ENDBRANCH  55  69
BRANCH  56  79
ATOM     79  C   UNL A   1      36.500  33.446  30.938  1.00  0.00    -0.014 A 
ATOM     80  C   UNL A   1      35.289  33.631  31.627  1.00  0.00     0.010 A 
ATOM     81  C   UNL A   1      36.631  33.950  29.631  1.00  0.00     0.010 A 
ATOM     82  C   UNL A   1      34.221  34.290  31.013  1.00  0.00     0.020 A 
ATOM     83  C   UNL A   1      35.572  34.633  29.023  1.00  0.00     0.020 A 
ATOM     84  C   UNL A   1      34.369  34.787  29.715  1.00  0.00     0.054 A 
BRANCH  84  85
ATOM     85  S   UNL A   1      32.978  35.674  28.959  1.00  0.00     0.124 S 
ATOM     86  O   UNL A   1      32.155  35.994  30.121  1.00  0.00    -0.237 OA
ATOM     87  O   UNL A   1      33.636  36.810  28.320  1.00  0.00    -0.237 OA
ATOM     88  O   UNL A   1      32.404  34.695  28.038  1.00  0.00    -0.744 OA
ENDBRANCH  84  85
ENDBRANCH  56  79
BRANCH  68  89
ATOM     89  C   UNL A   1      39.872  34.337  36.973  1.00  0.00    -0.014 A 
ATOM     90  C   UNL A   1      40.555  35.559  36.845  1.00  0.00     0.010 A 
ATOM     91  C   UNL A   1      39.065  34.117  38.105  1.00  0.00     0.010 A 
ATOM     92  C   UNL A   1      40.461  36.528  37.849  1.00  0.00     0.020 A 
ATOM     93  C   UNL A   1      38.949  35.093  39.097  1.00  0.00     0.020 A 
ATOM     94  C   UNL A   1      39.661  36.286  38.971  1.00  0.00     0.054 A 
BRANCH  94  95
ATOM     95  S   UNL A   1      39.529  37.570  40.246  1.00  0.00     0.124 S 
ATOM     96  O   UNL A   1      38.974  36.824  41.371  1.00  0.00    -0.237 OA
ATOM     97  O   UNL A   1      40.912  38.013  40.405  1.00  0.00    -0.237 OA
ATOM     98  O   UNL A   1      38.631  38.557  39.650  1.00  0.00    -0.744 OA
ENDBRANCH  94  95
ENDBRANCH  68  89
ENDBRANCH  42  43
ENDBRANCH  34  37
ENDBRANCH  32  33
ENDBRANCH   1  32
TORSDOF 16
ENDMDL
MODEL 3
REMARK VINA RESULT:     -12.7      0.732      7.875
REMARK SMILES Cc1ccc(S(=O)(=O)N2CCN(C(=O)[C@H]3CCCC[C@H]3C(=O)NCCCNC(=O)c3ccc(-c4c5nc(c(-c6ccc(S(=O)(=O)[O-])cc6)c6ccc([nH]6)c(-c6ccc(S(=O)(=O)[O-])cc6)c6nc(c(-c7ccc(S(=O)(=O)[O-])cc7)c7ccc4[nH]7)C=C6)C=C5)cc3)CC2)cc1C
REMARK SMILES IDX 25 1 24 2 23 3 21 4 22 5 20 7 15 8 16 9 17 10 19 11 18 12
REMARK SMILES IDX 13 13 9 14 10 15 91 16 11 17 90 18 12 19 14 20 6 21 7 22
REMARK SMILES IDX 8 23 5 24 1 25 2 26 3 27 93 28 4 29 92 30 94 31 26 32 27 33
REMARK SMILES IDX 28 34 29 36 30 37 31 38 89 39 32 40 88 41 33 42 34 43 35 44
REMARK SMILES IDX 82 45 36 46 87 47 81 48 83 49 37 50 86 51 80 52 79 53 38 55
REMARK SMILES IDX 68 56 49 57 67 58 50 59 53 60 66 61 84 62 51 63 52 64 65 66
REMARK SMILES IDX 85 67 54 68 39 69 40 70 48 71 41 72 47 73 42 74 43 75 44 76
REMARK SMILES IDX 45 77 46 78 69 79 70 80 78 81 71 82 77 83 72 84 73 85 74 86
REMARK SMILES IDX 75 87 76 88 55 89 56 90 64 91 57 92 63 93 58 94 59 95 60 96
REMARK SMILES IDX 61 97 62 98
REMARK H PARENT 23 6 27 35 83 54 53 65
REMARK Flexibility Score: inf
ROOT
ATOM      1  C   UNL A   1      34.794  30.030  27.638  1.00  0.00     0.042 C 
ENDROOT
BRANCH   1   2
ATOM      2  C   UNL A   1      33.332  30.294  27.273  1.00  0.00     0.117 C 
BRANCH   2   3
ATOM      3  N   UNL A   1      32.477  29.133  27.462  1.00  0.00    -0.356 N 
ATOM      4  C   UNL A   1      31.750  28.361  26.612  1.00  0.00     0.223 C 
ATOM      5  O   UNL A   1      31.051  27.480  27.126  1.00  0.00    -0.275 OA
ATOM      6  H   UNL A   1      32.413  28.843  28.402  1.00  0.00     0.163 HD
BRANCH   4   7
ATOM      7  C   UNL A   1      31.781  28.486  25.082  1.00  0.00     0.091 C 
ATOM      8  C   UNL A   1      32.885  27.684  24.334  1.00  0.00     0.091 C 
ATOM      9  C   UNL A   1      32.736  27.784  22.809  1.00  0.00     0.014 C 
ATOM     10  C   UNL A   1      31.310  27.566  22.330  1.00  0.00     0.001 C 
ATOM     11  C   UNL A   1      30.374  28.485  24.459  1.00  0.00     0.014 C 
ATOM     12  C   UNL A   1      30.391  28.610  22.943  1.00  0.00     0.001 C 
BRANCH   8  13
ATOM     13  C   UNL A   1      33.177  26.298  24.904  1.00  0.00     0.226 C 
ATOM     14  N   UNL A   1      32.031  22.372  24.188  1.00  0.00    -0.194 NA
ATOM     15  C   UNL A   1      31.215  23.074  25.183  1.00  0.00     0.124 C 
ATOM     16  C   UNL A   1      32.320  23.156  22.981  1.00  0.00     0.124 C 
ATOM     17  C   UNL A   1      31.898  24.379  25.581  1.00  0.00     0.136 C 
ATOM     18  C   UNL A   1      32.993  24.486  23.339  1.00  0.00     0.136 C 
ATOM     19  N   UNL A   1      32.403  25.217  24.479  1.00  0.00    -0.340 N 
ATOM     20  O   UNL A   1      34.145  26.109  25.641  1.00  0.00    -0.275 OA
BRANCH  14  21
ATOM     21  S   UNL A   1      32.649  20.836  24.454  1.00  0.00     0.243 S 
ATOM     22  O   UNL A   1      32.556  20.121  23.197  1.00  0.00    -0.207 OA
ATOM     23  O   UNL A   1      32.042  20.344  25.669  1.00  0.00    -0.207 OA
BRANCH  21  24
ATOM     24  C   UNL A   1      34.390  20.997  24.802  1.00  0.00     0.082 A 
ATOM     25  C   UNL A   1      38.594  21.556  25.631  1.00  0.00     0.044 C 
ATOM     26  C   UNL A   1      37.123  21.391  25.363  1.00  0.00    -0.048 A 
ATOM     27  C   UNL A   1      36.636  20.128  25.004  1.00  0.00     0.005 A 
ATOM     28  C   UNL A   1      36.221  22.468  25.473  1.00  0.00    -0.047 A 
ATOM     29  C   UNL A   1      35.281  19.932  24.735  1.00  0.00     0.022 A 
ATOM     30  C   UNL A   1      34.862  22.264  25.163  1.00  0.00     0.025 A 
ATOM     31  C   UNL A   1      36.673  23.850  25.864  1.00  0.00     0.044 C 
ENDBRANCH  21  24
ENDBRANCH  14  21
ENDBRANCH   8  13
ENDBRANCH   4   7
ENDBRANCH   2   3
ENDBRANCH   1   2
BRANCH   1  32
ATOM     32  C   UNL A   1      35.467  31.120  28.454  1.00  0.00     0.118 C 
BRANCH  32  33
ATOM     33  N   UNL A   1      35.633  30.733  29.843  1.00  0.00    -0.352 N 
ATOM     34  C   UNL A   1      36.562  29.949  30.480  1.00  0.00     0.251 C 
ATOM     35  H   UNL A   1      34.947  31.106  30.444  1.00  0.00     0.163 HD
ATOM     36  O   UNL A   1      36.299  29.594  31.631  1.00  0.00    -0.269 OA
BRANCH  34  37
ATOM     37  C   UNL A   1      37.846  29.501  29.864  1.00  0.00     0.039 A 
ATOM     38  C   UNL A   1      38.788  28.886  30.701  1.00  0.00     0.014 A 
ATOM     39  C   UNL A   1      38.218  29.781  28.548  1.00  0.00     0.014 A 
ATOM     40  C   UNL A   1      40.073  28.572  30.236  1.00  0.00     0.010 A 
ATOM     41  C   UNL A   1      39.467  29.381  28.055  1.00  0.00     0.010 A 
ATOM     42  C   UNL A   1      40.429  28.816  28.903  1.00  0.00    -0.014 A 
BRANCH  42  43
ATOM     43  C   UNL A   1      41.817  28.575  28.409  1.00  0.00     0.031 A 
ATOM     44  C   UNL A   1      42.242  27.188  27.977  1.00  0.00     0.074 A 
ATOM     45  C   UNL A   1      42.719  29.577  28.384  1.00  0.00     0.049 A 
ATOM     46  N   UNL A   1      43.426  26.755  27.618  1.00  0.00    -0.248 NA
ATOM     47  C   UNL A   1      41.203  26.143  27.976  1.00  0.00     0.031 C 
ATOM     48  C   UNL A   1      42.474  30.953  28.821  1.00  0.00     0.029 A 
ATOM     49  N   UNL A   1      44.043  29.577  28.011  1.00  0.00    -0.354 N 
ATOM     50  C   UNL A   1      43.277  25.394  27.366  1.00  0.00     0.074 A 
ATOM     51  C   UNL A   1      41.904  25.060  27.672  1.00  0.00     0.031 C 
ATOM     52  C   UNL A   1      43.612  31.658  28.711  1.00  0.00     0.029 A 
ATOM     53  C   UNL A   1      44.674  30.781  28.226  1.00  0.00     0.049 A 
ATOM     54  H   UNL A   1      44.495  28.792  27.628  1.00  0.00     0.167 HD
ATOM     55  C   UNL A   1      44.184  24.505  26.890  1.00  0.00     0.031 A 
ATOM     56  C   UNL A   1      45.967  31.135  28.084  1.00  0.00     0.031 A 
ATOM     57  C   UNL A   1      45.542  24.836  26.547  1.00  0.00     0.049 A 
ATOM     58  C   UNL A   1      46.963  30.131  27.572  1.00  0.00     0.074 A 
ATOM     59  C   UNL A   1      46.508  24.025  25.976  1.00  0.00     0.029 A 
ATOM     60  N   UNL A   1      46.126  26.078  26.737  1.00  0.00    -0.354 N 
ATOM     61  N   UNL A   1      46.784  28.865  27.283  1.00  0.00    -0.248 NA
ATOM     62  C   UNL A   1      48.334  30.614  27.350  1.00  0.00     0.031 C 
ATOM     63  C   UNL A   1      47.689  24.766  25.857  1.00  0.00     0.029 A 
ATOM     64  C   UNL A   1      47.442  26.052  26.310  1.00  0.00     0.049 A 
ATOM     65  H   UNL A   1      45.671  26.864  27.120  1.00  0.00     0.167 HD
ATOM     66  C   UNL A   1      48.009  28.410  26.803  1.00  0.00     0.074 A 
ATOM     67  C   UNL A   1      48.920  29.535  26.848  1.00  0.00     0.031 C 
ATOM     68  C   UNL A   1      48.342  27.175  26.355  1.00  0.00     0.031 A 
BRANCH  55  69
ATOM     69  C   UNL A   1      43.729  23.080  26.693  1.00  0.00    -0.014 A 
ATOM     70  C   UNL A   1      44.026  22.384  25.506  1.00  0.00     0.010 A 
ATOM     71  C   UNL A   1      43.037  22.413  27.719  1.00  0.00     0.010 A 
ATOM     72  C   UNL A   1      43.597  21.067  25.329  1.00  0.00     0.020 A 
ATOM     73  C   UNL A   1      42.630  21.084  27.558  1.00  0.00     0.020 A 
ATOM     74  C   UNL A   1      42.895  20.426  26.355  1.00  0.00     0.054 A 
BRANCH  74  75
ATOM     75  S   UNL A   1      42.362  18.711  26.107  1.00  0.00     0.124 S 
ATOM     76  O   UNL A   1      40.962  18.883  25.727  1.00  0.00    -0.237 OA
ATOM     77  O   UNL A   1      43.248  18.248  25.041  1.00  0.00    -0.237 OA
ATOM     78  O   UNL A   1      42.582  18.087  27.409  1.00  0.00    -0.744 OA
ENDBRANCH  74  75
ENDBRANCH  55  69
BRANCH  56  79
ATOM     79  C   UNL A   1      46.392  32.517  28.429  1.00  0.00    -0.014 A 
ATOM     80  C   UNL A   1      46.806  32.829  29.735  1.00  0.00     0.010 A 
ATOM     81  C   UNL A   1      46.399  33.525  27.447  1.00  0.00     0.010 A 
ATOM     82  C   UNL A   1      47.201  34.129  30.059  1.00  0.00     0.020 A 
ATOM     83  C   UNL A   1      46.818  34.821  27.762  1.00  0.00     0.020 A 
ATOM     84  C   UNL A   1      47.205  35.117  29.071  1.00  0.00     0.054 A 
BRANCH  84  85
ATOM     85  S   UNL A   1      47.760  36.787  29.512  1.00  0.00     0.124 S 
ATOM     86  O   UNL A   1      46.872  37.624  28.712  1.00  0.00    -0.237 OA
ATOM     87  O   UNL A   1      47.533  36.826  30.955  1.00  0.00    -0.237 OA
ATOM     88  O   UNL A   1      49.165  36.802  29.109  1.00  0.00    -0.744 OA
ENDBRANCH  84  85
ENDBRANCH  56  79
BRANCH  68  89
ATOM     89  C   UNL A   1      49.736  26.986  25.819  1.00  0.00    -0.014 A 
ATOM     90  C   UNL A   1      50.771  26.484  26.628  1.00  0.00     0.010 A 
ATOM     91  C   UNL A   1      50.002  27.279  24.469  1.00  0.00     0.010 A 
ATOM     92  C   UNL A   1      52.056  26.313  26.104  1.00  0.00     0.020 A 
ATOM     93  C   UNL A   1      51.279  27.087  23.936  1.00  0.00     0.020 A 
ATOM     94  C   UNL A   1      52.303  26.621  24.762  1.00  0.00     0.054 A 
BRANCH  94  95
ATOM     95  S   UNL A   1      53.970  26.363  24.095  1.00  0.00     0.124 S 
ATOM     96  O   UNL A   1      54.383  25.139  24.776  1.00  0.00    -0.237 OA
ATOM     97  O   UNL A   1      53.729  26.234  22.660  1.00  0.00    -0.237 OA
ATOM     98  O   UNL A   1      54.691  27.570  24.492  1.00  0.00    -0.744 OA
ENDBRANCH  94  95
ENDBRANCH  68  89
ENDBRANCH  42  43
ENDBRANCH  34  37
ENDBRANCH  32  33
ENDBRANCH   1  32
TORSDOF 16
ENDMDL
