MODEL 1
REMARK VINA RESULT:     -11.1      0.000      0.000
REMARK SMILES CC[NH2+][C@@]1(C(=O)NCCCNC(=O)c2ccc(-c3c4nc(c(-c5ccc(S(=O)(=O)[O-])cc5)c5ccc([nH]5)c(-c5ccc(S(=O)(=O)[O-])cc5)c5nc(c(-c6ccc(S(=O)(=O)[O-])cc6)c6ccc3[nH]6)C=C5)C=C4)cc2)CCC[C@H]1CC[N@H+]1C[C@H](C)CC[C@@H]1C
REMARK SMILES IDX 9 1 8 2 7 3 5 4 6 5 4 7 74 8 77 9 75 10 76 11 3 12 2 15 1 16
REMARK SMILES IDX 78 17 79 18 80 19 81 20 86 21 82 23 85 24 87 25 84 26 83 27
REMARK SMILES IDX 10 28 11 29 12 30 13 32 14 33 15 34 73 35 16 36 72 37 17 38
REMARK SMILES IDX 18 39 19 40 66 41 20 42 71 43 65 44 67 45 21 46 70 47 64 48
REMARK SMILES IDX 63 49 22 51 52 52 33 53 51 54 34 55 37 56 50 57 68 58 35 59
REMARK SMILES IDX 36 60 49 62 69 63 38 64 23 65 24 66 32 67 25 68 31 69 26 70
REMARK SMILES IDX 27 71 28 72 29 73 30 74 53 75 54 76 62 77 55 78 61 79 56 80
REMARK SMILES IDX 57 81 58 82 59 83 60 84 39 85 40 86 48 87 41 88 47 89 42 90
REMARK SMILES IDX 43 91 44 92 45 93 46 94
REMARK H PARENT 7 6 3 13 3 14 80 22 11 31 67 50 37 61
REMARK Flexibility Score: inf
ROOT
ATOM      1  C   UNL A   1      33.928  30.858  27.516  1.00  0.00     0.042 C 
ENDROOT
BRANCH   1   2
ATOM      2  C   UNL A   1      33.671  29.558  26.765  1.00  0.00     0.118 C 
BRANCH   2   3
ATOM      3  N   UNL A   1      33.200  29.732  25.399  1.00  0.00    -0.351 N 
ATOM      4  C   UNL A   1      32.232  29.001  24.764  1.00  0.00     0.281 C 
ATOM      5  O   UNL A   1      31.269  29.678  24.378  1.00  0.00    -0.268 OA
ATOM      6  H   UNL A   1      33.620  30.453  24.877  1.00  0.00     0.163 HD
BRANCH   4   7
ATOM      7  C   UNL A   1      32.306  27.420  24.512  1.00  0.00     0.178 C 
ATOM      8  C   UNL A   1      30.866  26.874  24.567  1.00  0.00     0.079 C 
ATOM      9  C   UNL A   1      33.079  26.611  25.611  1.00  0.00     0.066 C 
ATOM     10  C   UNL A   1      30.629  26.575  26.034  1.00  0.00     0.008 C 
ATOM     11  C   UNL A   1      31.956  26.001  26.507  1.00  0.00     0.011 C 
BRANCH   7  12
ATOM     12  N   UNL A   1      32.918  27.121  23.190  1.00  0.00    -0.334 N 
ATOM     13  H   UNL A   1      33.248  28.007  22.806  1.00  0.00     0.347 HD
ATOM     14  H   UNL A   1      33.633  26.425  23.400  1.00  0.00     0.347 HD
BRANCH  12  15
ATOM     15  C   UNL A   1      32.097  26.489  22.164  1.00  0.00     0.257 C 
ATOM     16  C   UNL A   1      32.845  25.277  21.616  1.00  0.00     0.071 C 
ENDBRANCH  12  15
ENDBRANCH   7  12
BRANCH   9  17
ATOM     17  C   UNL A   1      34.053  25.438  25.261  1.00  0.00     0.072 C 
BRANCH  17  18
ATOM     18  C   UNL A   1      33.752  23.926  25.427  1.00  0.00     0.263 C 
BRANCH  18  19
ATOM     19  N   UNL A   1      33.707  22.929  24.354  1.00  0.00    -0.333 N 
ATOM     20  C   UNL A   1      34.961  22.216  24.139  1.00  0.00     0.265 C 
ATOM     21  C   UNL A   1      32.511  22.101  24.197  1.00  0.00     0.180 C 
ATOM     22  H   UNL A   1      33.583  23.552  23.556  1.00  0.00     0.348 HD
ATOM     23  C   UNL A   1      35.106  21.048  25.104  1.00  0.00     0.041 C 
ATOM     24  C   UNL A   1      32.557  20.823  25.048  1.00  0.00     0.065 C 
ATOM     25  C   UNL A   1      32.314  21.712  22.719  1.00  0.00     0.075 C 
ATOM     26  C   UNL A   1      33.910  20.096  24.992  1.00  0.00     0.015 C 
ATOM     27  C   UNL A   1      36.446  20.333  24.922  1.00  0.00     0.013 C 
ENDBRANCH  18  19
ENDBRANCH  17  18
ENDBRANCH   9  17
ENDBRANCH   4   7
ENDBRANCH   2   3
ENDBRANCH   1   2
BRANCH   1  28
ATOM     28  C   UNL A   1      35.338  30.997  28.079  1.00  0.00     0.118 C 
BRANCH  28  29
ATOM     29  N   UNL A   1      35.336  31.209  29.520  1.00  0.00    -0.352 N 
ATOM     30  C   UNL A   1      36.263  30.863  30.470  1.00  0.00     0.251 C 
ATOM     31  H   UNL A   1      34.542  31.676  29.868  1.00  0.00     0.163 HD
ATOM     32  O   UNL A   1      35.939  30.900  31.663  1.00  0.00    -0.269 OA
BRANCH  30  33
ATOM     33  C   UNL A   1      37.632  30.439  30.099  1.00  0.00     0.039 A 
ATOM     34  C   UNL A   1      38.528  30.067  31.108  1.00  0.00     0.014 A 
ATOM     35  C   UNL A   1      38.064  30.469  28.772  1.00  0.00     0.014 A 
ATOM     36  C   UNL A   1      39.831  29.673  30.780  1.00  0.00     0.010 A 
ATOM     37  C   UNL A   1      39.334  29.999  28.439  1.00  0.00     0.010 A 
ATOM     38  C   UNL A   1      40.237  29.608  29.439  1.00  0.00    -0.014 A 
BRANCH  38  39
ATOM     39  C   UNL A   1      41.604  29.166  29.049  1.00  0.00     0.031 A 
ATOM     40  C   UNL A   1      42.735  30.162  29.007  1.00  0.00     0.074 A 
ATOM     41  C   UNL A   1      41.817  27.893  28.656  1.00  0.00     0.049 A 
ATOM     42  N   UNL A   1      43.959  30.007  28.571  1.00  0.00    -0.248 NA
ATOM     43  C   UNL A   1      42.439  31.521  29.491  1.00  0.00     0.031 C 
ATOM     44  C   UNL A   1      40.806  26.835  28.622  1.00  0.00     0.029 A 
ATOM     45  N   UNL A   1      42.955  27.278  28.193  1.00  0.00    -0.354 N 
ATOM     46  C   UNL A   1      44.567  31.251  28.697  1.00  0.00     0.074 A 
ATOM     47  C   UNL A   1      43.566  32.160  29.209  1.00  0.00     0.031 C 
ATOM     48  C   UNL A   1      41.371  25.699  28.181  1.00  0.00     0.029 A 
ATOM     49  C   UNL A   1      42.772  25.957  27.858  1.00  0.00     0.049 A 
ATOM     50  H   UNL A   1      43.819  27.740  28.109  1.00  0.00     0.167 HD
ATOM     51  C   UNL A   1      45.847  31.605  28.425  1.00  0.00     0.031 A 
ATOM     52  C   UNL A   1      43.628  25.057  27.336  1.00  0.00     0.031 A 
ATOM     53  C   UNL A   1      46.850  30.694  27.941  1.00  0.00     0.049 A 
ATOM     54  C   UNL A   1      45.045  25.470  27.047  1.00  0.00     0.074 A 
ATOM     55  C   UNL A   1      48.188  30.943  27.689  1.00  0.00     0.029 A 
ATOM     56  N   UNL A   1      46.628  29.359  27.642  1.00  0.00    -0.354 N 
ATOM     57  N   UNL A   1      45.612  26.641  27.213  1.00  0.00    -0.248 NA
ATOM     58  C   UNL A   1      45.942  24.436  26.511  1.00  0.00     0.031 C 
ATOM     59  C   UNL A   1      48.766  29.767  27.197  1.00  0.00     0.029 A 
ATOM     60  C   UNL A   1      47.799  28.773  27.194  1.00  0.00     0.049 A 
ATOM     61  H   UNL A   1      45.764  28.896  27.734  1.00  0.00     0.167 HD
ATOM     62  C   UNL A   1      46.939  26.477  26.829  1.00  0.00     0.074 A 
ATOM     63  C   UNL A   1      47.091  25.093  26.433  1.00  0.00     0.031 C 
ATOM     64  C   UNL A   1      47.939  27.391  26.810  1.00  0.00     0.031 A 
BRANCH  51  65
ATOM     65  C   UNL A   1      46.232  33.045  28.643  1.00  0.00    -0.014 A 
ATOM     66  C   UNL A   1      46.844  33.462  29.840  1.00  0.00     0.010 A 
ATOM     67  C   UNL A   1      46.007  33.992  27.626  1.00  0.00     0.010 A 
ATOM     68  C   UNL A   1      47.177  34.805  30.036  1.00  0.00     0.020 A 
ATOM     69  C   UNL A   1      46.366  35.331  27.807  1.00  0.00     0.020 A 
ATOM     70  C   UNL A   1      46.930  35.732  29.019  1.00  0.00     0.054 A 
BRANCH  70  71
ATOM     71  S   UNL A   1      47.382  37.467  29.295  1.00  0.00     0.124 S 
ATOM     72  O   UNL A   1      48.831  37.434  29.108  1.00  0.00    -0.237 OA
ATOM     73  O   UNL A   1      46.631  38.165  28.255  1.00  0.00    -0.237 OA
ATOM     74  O   UNL A   1      46.936  37.728  30.661  1.00  0.00    -0.744 OA
ENDBRANCH  70  71
ENDBRANCH  51  65
BRANCH  52  75
ATOM     75  C   UNL A   1      43.170  23.666  27.068  1.00  0.00    -0.014 A 
ATOM     76  C   UNL A   1      42.863  23.259  25.757  1.00  0.00     0.010 A 
ATOM     77  C   UNL A   1      43.052  22.737  28.117  1.00  0.00     0.010 A 
ATOM     78  C   UNL A   1      42.432  21.954  25.502  1.00  0.00     0.020 A 
ATOM     79  C   UNL A   1      42.646  21.423  27.863  1.00  0.00     0.020 A 
ATOM     80  C   UNL A   1      42.329  21.043  26.558  1.00  0.00     0.054 A 
BRANCH  80  81
ATOM     81  S   UNL A   1      41.823  19.338  26.195  1.00  0.00     0.124 S 
ATOM     82  O   UNL A   1      40.407  19.502  25.884  1.00  0.00    -0.237 OA
ATOM     83  O   UNL A   1      42.684  18.986  25.068  1.00  0.00    -0.237 OA
ATOM     84  O   UNL A   1      42.115  18.625  27.437  1.00  0.00    -0.744 OA
ENDBRANCH  80  81
ENDBRANCH  52  75
BRANCH  64  85
ATOM     85  C   UNL A   1      49.304  26.918  26.388  1.00  0.00    -0.014 A 
ATOM     86  C   UNL A   1      50.187  26.323  27.305  1.00  0.00     0.010 A 
ATOM     87  C   UNL A   1      49.683  27.015  25.036  1.00  0.00     0.010 A 
ATOM     88  C   UNL A   1      51.436  25.858  26.884  1.00  0.00     0.020 A 
ATOM     89  C   UNL A   1      50.918  26.528  24.605  1.00  0.00     0.020 A 
ATOM     90  C   UNL A   1      51.793  25.964  25.535  1.00  0.00     0.054 A 
BRANCH  90  91
ATOM     91  S   UNL A   1      53.398  25.308  25.003  1.00  0.00     0.124 S 
ATOM     92  O   UNL A   1      53.412  25.651  23.583  1.00  0.00    -0.237 OA
ATOM     93  O   UNL A   1      54.341  26.047  25.839  1.00  0.00    -0.237 OA
ATOM     94  O   UNL A   1      53.302  23.879  25.298  1.00  0.00    -0.744 OA
ENDBRANCH  90  91
ENDBRANCH  64  85
ENDBRANCH  38  39
ENDBRANCH  30  33
ENDBRANCH  28  29
ENDBRANCH   1  28
TORSDOF 18
ENDMDL
MODEL 2
REMARK VINA RESULT:     -11.1      2.133      8.608
REMARK SMILES CC[NH2+][C@@]1(C(=O)NCCCNC(=O)c2ccc(-c3c4nc(c(-c5ccc(S(=O)(=O)[O-])cc5)c5ccc([nH]5)c(-c5ccc(S(=O)(=O)[O-])cc5)c5nc(c(-c6ccc(S(=O)(=O)[O-])cc6)c6ccc3[nH]6)C=C5)C=C4)cc2)CCC[C@H]1CC[N@H+]1C[C@H](C)CC[C@@H]1C
REMARK SMILES IDX 9 1 8 2 7 3 5 4 6 5 4 7 74 8 77 9 75 10 76 11 3 12 2 15 1 16
REMARK SMILES IDX 78 17 79 18 80 19 81 20 86 21 82 23 85 24 87 25 84 26 83 27
REMARK SMILES IDX 10 28 11 29 12 30 13 32 14 33 15 34 73 35 16 36 72 37 17 38
REMARK SMILES IDX 18 39 19 40 66 41 20 42 71 43 65 44 67 45 21 46 70 47 64 48
REMARK SMILES IDX 63 49 22 51 52 52 33 53 51 54 34 55 37 56 50 57 68 58 35 59
REMARK SMILES IDX 36 60 49 62 69 63 38 64 23 65 24 66 32 67 25 68 31 69 26 70
REMARK SMILES IDX 27 71 28 72 29 73 30 74 53 75 54 76 62 77 55 78 61 79 56 80
REMARK SMILES IDX 57 81 58 82 59 83 60 84 39 85 40 86 48 87 41 88 47 89 42 90
REMARK SMILES IDX 43 91 44 92 45 93 46 94
REMARK H PARENT 7 6 3 13 3 14 80 22 11 31 67 50 37 61
REMARK Flexibility Score: inf
ROOT
ATOM      1  C   UNL A   1      37.756  20.140  24.923  1.00  0.00     0.042 C 
ENDROOT
BRANCH   1   2
ATOM      2  C   UNL A   1      36.513  21.019  24.979  1.00  0.00     0.118 C 
BRANCH   2   3
ATOM      3  N   UNL A   1      35.328  20.358  25.506  1.00  0.00    -0.351 N 
ATOM      4  C   UNL A   1      34.039  20.513  25.071  1.00  0.00     0.281 C 
ATOM      5  O   UNL A   1      33.519  19.462  24.670  1.00  0.00    -0.268 OA
ATOM      6  H   UNL A   1      35.469  19.734  26.254  1.00  0.00     0.163 HD
BRANCH   4   7
ATOM      7  C   UNL A   1      33.239  21.901  25.076  1.00  0.00     0.178 C 
ATOM      8  C   UNL A   1      32.506  22.018  23.725  1.00  0.00     0.079 C 
ATOM      9  C   UNL A   1      34.139  23.184  25.150  1.00  0.00     0.066 C 
ATOM     10  C   UNL A   1      33.517  22.666  22.800  1.00  0.00     0.008 C 
ATOM     11  C   UNL A   1      34.206  23.699  23.679  1.00  0.00     0.011 C 
BRANCH   7  12
ATOM     12  N   UNL A   1      32.261  21.947  26.196  1.00  0.00    -0.334 N 
ATOM     13  H   UNL A   1      32.310  21.046  26.672  1.00  0.00     0.347 HD
ATOM     14  H   UNL A   1      32.545  22.762  26.739  1.00  0.00     0.347 HD
BRANCH  12  15
ATOM     15  C   UNL A   1      30.857  22.195  25.891  1.00  0.00     0.257 C 
ATOM     16  C   UNL A   1      30.362  23.346  26.761  1.00  0.00     0.071 C 
ENDBRANCH  12  15
ENDBRANCH   7  12
BRANCH   9  17
ATOM     17  C   UNL A   1      33.770  24.419  26.037  1.00  0.00     0.072 C 
BRANCH  17  18
ATOM     18  C   UNL A   1      34.137  25.896  25.735  1.00  0.00     0.263 C 
BRANCH  18  19
ATOM     19  N   UNL A   1      33.308  27.069  26.020  1.00  0.00    -0.333 N 
ATOM     20  C   UNL A   1      33.418  28.140  25.035  1.00  0.00     0.265 C 
ATOM     21  C   UNL A   1      31.958  26.879  26.552  1.00  0.00     0.180 C 
ATOM     22  H   UNL A   1      33.775  27.400  26.864  1.00  0.00     0.348 HD
ATOM     23  C   UNL A   1      32.506  27.890  23.842  1.00  0.00     0.041 C 
ATOM     24  C   UNL A   1      30.903  26.707  25.449  1.00  0.00     0.065 C 
ATOM     25  C   UNL A   1      31.558  28.069  27.446  1.00  0.00     0.075 C 
ATOM     26  C   UNL A   1      31.053  27.709  24.293  1.00  0.00     0.015 C 
ATOM     27  C   UNL A   1      32.662  28.978  22.779  1.00  0.00     0.013 C 
ENDBRANCH  18  19
ENDBRANCH  17  18
ENDBRANCH   9  17
ENDBRANCH   4   7
ENDBRANCH   2   3
ENDBRANCH   1   2
BRANCH   1  28
ATOM     28  C   UNL A   1      38.927  20.642  25.760  1.00  0.00     0.118 C 
BRANCH  28  29
ATOM     29  N   UNL A   1      39.932  19.608  25.973  1.00  0.00    -0.352 N 
ATOM     30  C   UNL A   1      41.286  19.712  26.161  1.00  0.00     0.251 C 
ATOM     31  H   UNL A   1      39.582  18.688  25.986  1.00  0.00     0.163 HD
ATOM     32  O   UNL A   1      41.984  18.696  26.056  1.00  0.00    -0.269 OA
BRANCH  30  33
ATOM     33  C   UNL A   1      41.929  21.008  26.473  1.00  0.00     0.039 A 
ATOM     34  C   UNL A   1      42.263  21.875  25.426  1.00  0.00     0.014 A 
ATOM     35  C   UNL A   1      42.267  21.351  27.784  1.00  0.00     0.014 A 
ATOM     36  C   UNL A   1      42.882  23.101  25.699  1.00  0.00     0.010 A 
ATOM     37  C   UNL A   1      42.808  22.605  28.062  1.00  0.00     0.010 A 
ATOM     38  C   UNL A   1      43.134  23.491  27.023  1.00  0.00    -0.014 A 
BRANCH  38  39
ATOM     39  C   UNL A   1      43.762  24.798  27.354  1.00  0.00     0.031 A 
ATOM     40  C   UNL A   1      42.911  25.940  27.848  1.00  0.00     0.074 A 
ATOM     41  C   UNL A   1      45.079  24.990  27.135  1.00  0.00     0.049 A 
ATOM     42  N   UNL A   1      43.243  27.188  28.064  1.00  0.00    -0.248 NA
ATOM     43  C   UNL A   1      41.491  25.645  28.105  1.00  0.00     0.031 C 
ATOM     44  C   UNL A   1      46.012  23.980  26.632  1.00  0.00     0.029 A 
ATOM     45  N   UNL A   1      45.858  26.110  27.292  1.00  0.00    -0.354 N 
ATOM     46  C   UNL A   1      42.072  27.831  28.448  1.00  0.00     0.074 A 
ATOM     47  C   UNL A   1      41.012  26.847  28.394  1.00  0.00     0.031 C 
ATOM     48  C   UNL A   1      47.239  24.520  26.541  1.00  0.00     0.029 A 
ATOM     49  C   UNL A   1      47.173  25.924  26.933  1.00  0.00     0.049 A 
ATOM     50  H   UNL A   1      45.508  26.966  27.631  1.00  0.00     0.167 HD
ATOM     51  C   UNL A   1      41.893  29.120  28.826  1.00  0.00     0.031 A 
ATOM     52  C   UNL A   1      48.207  26.788  26.908  1.00  0.00     0.031 A 
ATOM     53  C   UNL A   1      42.951  30.091  28.905  1.00  0.00     0.049 A 
ATOM     54  C   UNL A   1      47.987  28.213  27.336  1.00  0.00     0.074 A 
ATOM     55  C   UNL A   1      42.881  31.407  29.330  1.00  0.00     0.029 A 
ATOM     56  N   UNL A   1      44.272  29.852  28.558  1.00  0.00    -0.354 N 
ATOM     57  N   UNL A   1      46.879  28.791  27.736  1.00  0.00    -0.248 NA
ATOM     58  C   UNL A   1      49.159  29.100  27.320  1.00  0.00     0.031 C 
ATOM     59  C   UNL A   1      44.153  31.976  29.200  1.00  0.00     0.029 A 
ATOM     60  C   UNL A   1      45.025  30.999  28.746  1.00  0.00     0.049 A 
ATOM     61  H   UNL A   1      44.622  28.994  28.228  1.00  0.00     0.167 HD
ATOM     62  C   UNL A   1      47.228  30.101  28.048  1.00  0.00     0.074 A 
ATOM     63  C   UNL A   1      48.649  30.226  27.800  1.00  0.00     0.031 C 
ATOM     64  C   UNL A   1      46.441  31.107  28.501  1.00  0.00     0.031 A 
BRANCH  51  65
ATOM     65  C   UNL A   1      40.494  29.555  29.178  1.00  0.00    -0.014 A 
ATOM     66  C   UNL A   1      39.479  29.601  28.204  1.00  0.00     0.010 A 
ATOM     67  C   UNL A   1      40.179  29.894  30.507  1.00  0.00     0.010 A 
ATOM     68  C   UNL A   1      38.191  30.026  28.541  1.00  0.00     0.020 A 
ATOM     69  C   UNL A   1      38.884  30.290  30.854  1.00  0.00     0.020 A 
ATOM     70  C   UNL A   1      37.903  30.373  29.864  1.00  0.00     0.054 A 
BRANCH  70  71
ATOM     71  S   UNL A   1      36.221  30.911  30.277  1.00  0.00     0.124 S 
ATOM     72  O   UNL A   1      35.793  29.870  31.209  1.00  0.00    -0.237 OA
ATOM     73  O   UNL A   1      36.439  32.229  30.865  1.00  0.00    -0.237 OA
ATOM     74  O   UNL A   1      35.533  30.914  28.989  1.00  0.00    -0.744 OA
ENDBRANCH  70  71
ENDBRANCH  51  65
BRANCH  52  75
ATOM     75  C   UNL A   1      49.553  26.322  26.475  1.00  0.00    -0.014 A 
ATOM     76  C   UNL A   1      50.002  26.567  25.165  1.00  0.00     0.010 A 
ATOM     77  C   UNL A   1      50.399  25.645  27.372  1.00  0.00     0.010 A 
ATOM     78  C   UNL A   1      51.265  26.130  24.755  1.00  0.00     0.020 A 
ATOM     79  C   UNL A   1      51.672  25.229  26.974  1.00  0.00     0.020 A 
ATOM     80  C   UNL A   1      52.094  25.465  25.665  1.00  0.00     0.054 A 
BRANCH  80  81
ATOM     81  S   UNL A   1      53.752  24.958  25.127  1.00  0.00     0.124 S 
ATOM     82  O   UNL A   1      53.619  23.506  25.065  1.00  0.00    -0.237 OA
ATOM     83  O   UNL A   1      53.889  25.639  23.842  1.00  0.00    -0.237 OA
ATOM     84  O   UNL A   1      54.622  25.463  26.186  1.00  0.00    -0.744 OA
ENDBRANCH  80  81
ENDBRANCH  52  75
BRANCH  64  85
ATOM     85  C   UNL A   1      47.103  32.425  28.803  1.00  0.00    -0.014 A 
ATOM     86  C   UNL A   1      47.649  32.696  30.069  1.00  0.00     0.010 A 
ATOM     87  C   UNL A   1      47.234  33.383  27.781  1.00  0.00     0.010 A 
ATOM     88  C   UNL A   1      48.292  33.912  30.316  1.00  0.00     0.020 A 
ATOM     89  C   UNL A   1      47.898  34.589  28.016  1.00  0.00     0.020 A 
ATOM     90  C   UNL A   1      48.412  34.851  29.286  1.00  0.00     0.054 A 
BRANCH  90  91
ATOM     91  S   UNL A   1      49.294  36.401  29.617  1.00  0.00     0.124 S 
ATOM     92  O   UNL A   1      50.154  36.029  30.737  1.00  0.00    -0.237 OA
ATOM     93  O   UNL A   1      49.981  36.656  28.353  1.00  0.00    -0.237 OA
ATOM     94  O   UNL A   1      48.225  37.345  29.939  1.00  0.00    -0.744 OA
ENDBRANCH  90  91
ENDBRANCH  64  85
ENDBRANCH  38  39
ENDBRANCH  30  33
ENDBRANCH  28  29
ENDBRANCH   1  28
TORSDOF 18
ENDMDL
MODEL 3
REMARK VINA RESULT:     -11.0      5.820     10.540
REMARK SMILES CC[NH2+][C@@]1(C(=O)NCCCNC(=O)c2ccc(-c3c4nc(c(-c5ccc(S(=O)(=O)[O-])cc5)c5ccc([nH]5)c(-c5ccc(S(=O)(=O)[O-])cc5)c5nc(c(-c6ccc(S(=O)(=O)[O-])cc6)c6ccc3[nH]6)C=C5)C=C4)cc2)CCC[C@H]1CC[N@H+]1C[C@H](C)CC[C@@H]1C
REMARK SMILES IDX 9 1 8 2 7 3 5 4 6 5 4 7 74 8 77 9 75 10 76 11 3 12 2 15 1 16
REMARK SMILES IDX 78 17 79 18 80 19 81 20 86 21 82 23 85 24 87 25 84 26 83 27
REMARK SMILES IDX 10 28 11 29 12 30 13 32 14 33 15 34 73 35 16 36 72 37 17 38
REMARK SMILES IDX 18 39 19 40 66 41 20 42 71 43 65 44 67 45 21 46 70 47 64 48
REMARK SMILES IDX 63 49 22 51 52 52 33 53 51 54 34 55 37 56 50 57 68 58 35 59
REMARK SMILES IDX 36 60 49 62 69 63 38 64 23 65 24 66 32 67 25 68 31 69 26 70
REMARK SMILES IDX 27 71 28 72 29 73 30 74 53 75 54 76 62 77 55 78 61 79 56 80
REMARK SMILES IDX 57 81 58 82 59 83 60 84 39 85 40 86 48 87 41 88 47 89 42 90
REMARK SMILES IDX 43 91 44 92 45 93 46 94
REMARK H PARENT 7 6 3 13 3 14 80 22 11 31 67 50 37 61
REMARK Flexibility Score: inf
ROOT
ATOM      1  C   UNL A   1      31.600  31.699  26.753  1.00  0.00     0.042 C 
ENDROOT
BRANCH   1   2
ATOM      2  C   UNL A   1      31.760  30.306  26.158  1.00  0.00     0.118 C 
BRANCH   2   3
ATOM      3  N   UNL A   1      31.593  30.243  24.713  1.00  0.00    -0.351 N 
ATOM      4  C   UNL A   1      31.039  29.218  23.994  1.00  0.00     0.281 C 
ATOM      5  O   UNL A   1      30.046  29.552  23.333  1.00  0.00    -0.268 OA
ATOM      6  H   UNL A   1      31.911  31.020  24.199  1.00  0.00     0.163 HD
BRANCH   4   7
ATOM      7  C   UNL A   1      31.601  27.717  23.972  1.00  0.00     0.178 C 
ATOM      8  C   UNL A   1      32.899  27.696  24.803  1.00  0.00     0.079 C 
ATOM      9  C   UNL A   1      32.027  27.191  22.557  1.00  0.00     0.066 C 
ATOM     10  C   UNL A   1      33.988  28.060  23.814  1.00  0.00     0.008 C 
ATOM     11  C   UNL A   1      33.580  27.336  22.539  1.00  0.00     0.011 C 
BRANCH   7  12
ATOM     12  N   UNL A   1      30.608  26.770  24.547  1.00  0.00    -0.334 N 
ATOM     13  H   UNL A   1      29.683  27.116  24.293  1.00  0.00     0.347 HD
ATOM     14  H   UNL A   1      30.876  25.866  24.160  1.00  0.00     0.347 HD
BRANCH  12  15
ATOM     15  C   UNL A   1      30.602  26.551  25.988  1.00  0.00     0.257 C 
ATOM     16  C   UNL A   1      29.951  25.201  26.276  1.00  0.00     0.071 C 
ENDBRANCH  12  15
ENDBRANCH   7  12
BRANCH   9  17
ATOM     17  C   UNL A   1      31.711  25.738  22.071  1.00  0.00     0.072 C 
BRANCH  17  18
ATOM     18  C   UNL A   1      32.729  24.572  21.969  1.00  0.00     0.263 C 
BRANCH  18  19
ATOM     19  N   UNL A   1      32.943  23.519  22.965  1.00  0.00    -0.333 N 
ATOM     20  C   UNL A   1      34.233  22.847  22.866  1.00  0.00     0.265 C 
ATOM     21  C   UNL A   1      32.477  23.726  24.336  1.00  0.00     0.180 C 
ATOM     22  H   UNL A   1      32.239  22.850  22.650  1.00  0.00     0.348 HD
ATOM     23  C   UNL A   1      35.322  23.631  23.586  1.00  0.00     0.041 C 
ATOM     24  C   UNL A   1      33.520  24.430  25.218  1.00  0.00     0.065 C 
ATOM     25  C   UNL A   1      32.097  22.382  24.986  1.00  0.00     0.075 C 
ATOM     26  C   UNL A   1      34.942  23.873  25.050  1.00  0.00     0.015 C 
ATOM     27  C   UNL A   1      36.689  22.961  23.435  1.00  0.00     0.013 C 
ENDBRANCH  18  19
ENDBRANCH  17  18
ENDBRANCH   9  17
ENDBRANCH   4   7
ENDBRANCH   2   3
ENDBRANCH   1   2
BRANCH   1  28
ATOM     28  C   UNL A   1      32.888  32.310  27.294  1.00  0.00     0.118 C 
BRANCH  28  29
ATOM     29  N   UNL A   1      32.718  33.708  27.666  1.00  0.00    -0.352 N 
ATOM     30  C   UNL A   1      33.308  34.439  28.666  1.00  0.00     0.251 C 
ATOM     31  H   UNL A   1      32.078  34.209  27.110  1.00  0.00     0.163 HD
ATOM     32  O   UNL A   1      32.823  35.535  28.971  1.00  0.00    -0.269 OA
BRANCH  30  33
ATOM     33  C   UNL A   1      34.500  33.943  29.389  1.00  0.00     0.039 A 
ATOM     34  C   UNL A   1      35.769  34.380  28.995  1.00  0.00     0.014 A 
ATOM     35  C   UNL A   1      34.385  32.998  30.411  1.00  0.00     0.014 A 
ATOM     36  C   UNL A   1      36.910  33.914  29.659  1.00  0.00     0.010 A 
ATOM     37  C   UNL A   1      35.513  32.597  31.124  1.00  0.00     0.010 A 
ATOM     38  C   UNL A   1      36.791  33.040  30.749  1.00  0.00    -0.014 A 
BRANCH  38  39
ATOM     39  C   UNL A   1      37.979  32.547  31.498  1.00  0.00     0.031 A 
ATOM     40  C   UNL A   1      38.776  31.384  30.965  1.00  0.00     0.074 A 
ATOM     41  C   UNL A   1      38.296  33.085  32.694  1.00  0.00     0.049 A 
ATOM     42  N   UNL A   1      39.757  30.725  31.529  1.00  0.00    -0.248 NA
ATOM     43  C   UNL A   1      38.400  30.876  29.636  1.00  0.00     0.031 C 
ATOM     44  C   UNL A   1      37.591  34.195  33.339  1.00  0.00     0.029 A 
ATOM     45  N   UNL A   1      39.285  32.757  33.589  1.00  0.00    -0.354 N 
ATOM     46  C   UNL A   1      40.091  29.709  30.640  1.00  0.00     0.074 A 
ATOM     47  C   UNL A   1      39.181  29.811  29.520  1.00  0.00     0.031 C 
ATOM     48  C   UNL A   1      38.181  34.468  34.514  1.00  0.00     0.029 A 
ATOM     49  C   UNL A   1      39.276  33.525  34.729  1.00  0.00     0.049 A 
ATOM     50  H   UNL A   1      39.940  32.040  33.428  1.00  0.00     0.167 HD
ATOM     51  C   UNL A   1      41.075  28.782  30.737  1.00  0.00     0.031 A 
ATOM     52  C   UNL A   1      40.049  33.470  35.831  1.00  0.00     0.031 A 
ATOM     53  C   UNL A   1      41.997  28.698  31.838  1.00  0.00     0.049 A 
ATOM     54  C   UNL A   1      41.138  32.437  35.916  1.00  0.00     0.074 A 
ATOM     55  C   UNL A   1      43.064  27.830  32.002  1.00  0.00     0.029 A 
ATOM     56  N   UNL A   1      41.968  29.513  32.959  1.00  0.00    -0.354 N 
ATOM     57  N   UNL A   1      41.465  31.511  35.045  1.00  0.00    -0.248 NA
ATOM     58  C   UNL A   1      41.972  32.447  37.127  1.00  0.00     0.031 C 
ATOM     59  C   UNL A   1      43.654  28.094  33.243  1.00  0.00     0.029 A 
ATOM     60  C   UNL A   1      42.988  29.161  33.826  1.00  0.00     0.049 A 
ATOM     61  H   UNL A   1      41.318  30.235  33.115  1.00  0.00     0.167 HD
ATOM     62  C   UNL A   1      42.560  30.849  35.590  1.00  0.00     0.074 A 
ATOM     63  C   UNL A   1      42.845  31.486  36.859  1.00  0.00     0.031 C 
ATOM     64  C   UNL A   1      43.265  29.809  35.083  1.00  0.00     0.031 A 
BRANCH  51  65
ATOM     65  C   UNL A   1      41.200  27.779  29.619  1.00  0.00    -0.014 A 
ATOM     66  C   UNL A   1      40.249  26.755  29.452  1.00  0.00     0.010 A 
ATOM     67  C   UNL A   1      42.264  27.877  28.705  1.00  0.00     0.010 A 
ATOM     68  C   UNL A   1      40.388  25.819  28.423  1.00  0.00     0.020 A 
ATOM     69  C   UNL A   1      42.390  26.961  27.656  1.00  0.00     0.020 A 
ATOM     70  C   UNL A   1      41.462  25.926  27.535  1.00  0.00     0.054 A 
BRANCH  70  71
ATOM     71  S   UNL A   1      41.613  24.704  26.202  1.00  0.00     0.124 S 
ATOM     72  O   UNL A   1      41.445  25.535  25.013  1.00  0.00    -0.237 OA
ATOM     73  O   UNL A   1      42.957  24.168  26.408  1.00  0.00    -0.237 OA
ATOM     74  O   UNL A   1      40.526  23.766  26.466  1.00  0.00    -0.744 OA
ENDBRANCH  70  71
ENDBRANCH  51  65
BRANCH  52  75
ATOM     75  C   UNL A   1      39.829  34.438  36.941  1.00  0.00    -0.014 A 
ATOM     76  C   UNL A   1      40.353  35.741  36.861  1.00  0.00     0.010 A 
ATOM     77  C   UNL A   1      39.084  34.070  38.075  1.00  0.00     0.010 A 
ATOM     78  C   UNL A   1      40.148  36.652  37.902  1.00  0.00     0.020 A 
ATOM     79  C   UNL A   1      38.855  34.985  39.106  1.00  0.00     0.020 A 
ATOM     80  C   UNL A   1      39.398  36.269  39.017  1.00  0.00     0.054 A 
BRANCH  80  81
ATOM     81  S   UNL A   1      39.097  37.486  40.330  1.00  0.00     0.124 S 
ATOM     82  O   UNL A   1      38.216  38.439  39.664  1.00  0.00    -0.237 OA
ATOM     83  O   UNL A   1      38.479  36.675  41.377  1.00  0.00    -0.237 OA
ATOM     84  O   UNL A   1      40.434  37.982  40.646  1.00  0.00    -0.744 OA
ENDBRANCH  80  81
ENDBRANCH  52  75
BRANCH  64  85
ATOM     85  C   UNL A   1      44.446  29.317  35.877  1.00  0.00    -0.014 A 
ATOM     86  C   UNL A   1      45.713  29.911  35.746  1.00  0.00     0.010 A 
ATOM     87  C   UNL A   1      44.267  28.284  36.815  1.00  0.00     0.010 A 
ATOM     88  C   UNL A   1      46.787  29.463  36.519  1.00  0.00     0.020 A 
ATOM     89  C   UNL A   1      45.331  27.850  37.609  1.00  0.00     0.020 A 
ATOM     90  C   UNL A   1      46.588  28.434  37.447  1.00  0.00     0.054 A 
BRANCH  90  91
ATOM     91  S   UNL A   1      47.985  27.904  38.475  1.00  0.00     0.124 S 
ATOM     92  O   UNL A   1      48.734  27.051  37.555  1.00  0.00    -0.237 OA
ATOM     93  O   UNL A   1      48.626  29.169  38.824  1.00  0.00    -0.237 OA
ATOM     94  O   UNL A   1      47.348  27.207  39.591  1.00  0.00    -0.744 OA
ENDBRANCH  90  91
ENDBRANCH  64  85
ENDBRANCH  38  39
ENDBRANCH  30  33
ENDBRANCH  28  29
ENDBRANCH   1  28
TORSDOF 18
ENDMDL
