MODEL 1
REMARK VINA RESULT:     -12.7      0.000      0.000
REMARK SMILES CC(=O)Nc1ccc(/C=N/c2ccccc2C(=O)NCCCNC(=O)c2ccc(-c3c4nc(c(-c5ccc(S(=O)(=O)[O-])cc5)c5ccc([nH]5)c(-c5ccc(S(=O)(=O)[O-])cc5)c5nc(c(-c6ccc(S(=O)(=O)[O-])cc6)c6ccc3[nH]6)C=C5)C=C4)cc2)cc1
REMARK SMILES IDX 21 1 20 2 19 3 17 4 18 5 16 7 11 8 12 9 13 10 15 11 14 12
REMARK SMILES IDX 10 13 9 14 8 15 5 16 6 17 87 18 7 19 86 20 4 21 1 22 2 23
REMARK SMILES IDX 3 24 22 26 23 27 24 28 25 30 26 31 27 32 85 33 28 34 84 35
REMARK SMILES IDX 29 36 30 37 31 38 78 39 32 40 83 41 77 42 79 43 33 44 82 45
REMARK SMILES IDX 76 46 75 47 34 49 64 50 45 51 63 52 46 53 49 54 62 55 80 56
REMARK SMILES IDX 47 57 48 58 61 60 81 61 50 62 35 63 36 64 44 65 37 66 43 67
REMARK SMILES IDX 38 68 39 69 40 70 41 71 42 72 65 73 66 74 74 75 67 76 73 77
REMARK SMILES IDX 68 78 69 79 70 80 71 81 72 82 51 83 52 84 60 85 53 86 59 87
REMARK SMILES IDX 54 88 55 89 56 90 57 91 58 92
REMARK H PARENT 19 6 4 25 23 29 79 48 49 59
REMARK Flexibility Score: inf
ROOT
ATOM      1  C   UNL A   1      32.286  27.876  27.255  1.00  0.00     0.042 C 
ENDROOT
BRANCH   1   2
ATOM      2  C   UNL A   1      32.268  26.530  26.562  1.00  0.00     0.118 C 
BRANCH   2   3
ATOM      3  N   UNL A   1      31.217  25.609  26.922  1.00  0.00    -0.352 N 
ATOM      4  C   UNL A   1      30.944  24.365  26.401  1.00  0.00     0.253 C 
ATOM      5  O   UNL A   1      30.160  23.656  27.039  1.00  0.00    -0.269 OA
ATOM      6  H   UNL A   1      30.614  25.912  27.638  1.00  0.00     0.163 HD
BRANCH   4   7
ATOM      7  C   UNL A   1      31.439  23.857  25.083  1.00  0.00     0.065 A 
ATOM      8  C   UNL A   1      31.571  24.554  23.862  1.00  0.00     0.076 A 
ATOM      9  C   UNL A   1      32.015  23.850  22.727  1.00  0.00     0.029 A 
ATOM     10  C   UNL A   1      32.371  22.503  22.786  1.00  0.00     0.002 A 
ATOM     11  C   UNL A   1      31.836  22.498  25.128  1.00  0.00     0.016 A 
ATOM     12  C   UNL A   1      32.294  21.827  23.994  1.00  0.00     0.001 A 
BRANCH   8  13
ATOM     13  N   UNL A   1      31.183  25.880  23.614  1.00  0.00    -0.255 NA
ATOM     14  C   UNL A   1      29.933  26.206  23.650  1.00  0.00     0.119 C 
BRANCH  14  15
ATOM     15  C   UNL A   1      29.519  27.557  23.198  1.00  0.00    -0.007 A 
ATOM     16  C   UNL A   1      28.586  29.963  22.067  1.00  0.00     0.041 A 
ATOM     17  C   UNL A   1      29.929  29.582  21.935  1.00  0.00     0.027 A 
ATOM     18  C   UNL A   1      27.715  29.097  22.732  1.00  0.00     0.027 A 
ATOM     19  C   UNL A   1      30.395  28.387  22.494  1.00  0.00     0.012 A 
ATOM     20  C   UNL A   1      28.177  27.908  23.310  1.00  0.00     0.012 A 
BRANCH  16  21
ATOM     21  N   UNL A   1      28.213  31.173  21.455  1.00  0.00    -0.326 N 
ATOM     22  C   UNL A   1      28.871  32.906  23.136  1.00  0.00     0.114 C 
ATOM     23  C   UNL A   1      28.202  32.473  21.866  1.00  0.00     0.221 C 
ATOM     24  O   UNL A   1      27.660  33.308  21.135  1.00  0.00    -0.275 OA
ATOM     25  H   UNL A   1      27.893  31.056  20.532  1.00  0.00     0.169 HD
ENDBRANCH  16  21
ENDBRANCH  14  15
ENDBRANCH   8  13
ENDBRANCH   4   7
ENDBRANCH   2   3
ENDBRANCH   1   2
BRANCH   1  26
ATOM     26  C   UNL A   1      33.593  28.648  27.153  1.00  0.00     0.118 C 
BRANCH  26  27
ATOM     27  N   UNL A   1      33.578  29.990  27.732  1.00  0.00    -0.352 N 
ATOM     28  C   UNL A   1      34.566  30.755  28.314  1.00  0.00     0.251 C 
ATOM     29  H   UNL A   1      32.698  30.430  27.701  1.00  0.00     0.163 HD
ATOM     30  O   UNL A   1      34.306  31.886  28.706  1.00  0.00    -0.269 OA
BRANCH  28  31
ATOM     31  C   UNL A   1      35.923  30.201  28.515  1.00  0.00     0.039 A 
ATOM     32  C   UNL A   1      36.808  30.160  27.434  1.00  0.00     0.014 A 
ATOM     33  C   UNL A   1      36.328  29.720  29.755  1.00  0.00     0.014 A 
ATOM     34  C   UNL A   1      38.130  29.752  27.620  1.00  0.00     0.010 A 
ATOM     35  C   UNL A   1      37.663  29.409  29.968  1.00  0.00     0.010 A 
ATOM     36  C   UNL A   1      38.580  29.426  28.904  1.00  0.00    -0.014 A 
BRANCH  36  37
ATOM     37  C   UNL A   1      39.983  29.031  29.178  1.00  0.00     0.031 A 
ATOM     38  C   UNL A   1      40.940  30.088  29.651  1.00  0.00     0.074 A 
ATOM     39  C   UNL A   1      40.407  27.783  28.899  1.00  0.00     0.049 A 
ATOM     40  N   UNL A   1      42.245  30.081  29.658  1.00  0.00    -0.248 NA
ATOM     41  C   UNL A   1      40.339  31.345  30.133  1.00  0.00     0.031 C 
ATOM     42  C   UNL A   1      39.561  26.676  28.445  1.00  0.00     0.029 A 
ATOM     43  N   UNL A   1      41.669  27.243  28.927  1.00  0.00    -0.354 N 
ATOM     44  C   UNL A   1      42.621  31.347  30.095  1.00  0.00     0.074 A 
ATOM     45  C   UNL A   1      41.409  32.107  30.300  1.00  0.00     0.031 C 
ATOM     46  C   UNL A   1      40.326  25.590  28.244  1.00  0.00     0.029 A 
ATOM     47  C   UNL A   1      41.721  25.944  28.477  1.00  0.00     0.049 A 
ATOM     48  H   UNL A   1      42.460  27.737  29.240  1.00  0.00     0.167 HD
ATOM     49  C   UNL A   1      43.868  31.825  30.312  1.00  0.00     0.031 A 
ATOM     50  C   UNL A   1      42.779  25.146  28.233  1.00  0.00     0.031 A 
ATOM     51  C   UNL A   1      45.055  31.034  30.129  1.00  0.00     0.049 A 
ATOM     52  C   UNL A   1      44.159  25.702  28.465  1.00  0.00     0.074 A 
ATOM     53  C   UNL A   1      46.373  31.392  30.339  1.00  0.00     0.029 A 
ATOM     54  N   UNL A   1      45.060  29.711  29.708  1.00  0.00    -0.354 N 
ATOM     55  N   UNL A   1      44.503  26.904  28.867  1.00  0.00    -0.248 NA
ATOM     56  C   UNL A   1      45.290  24.803  28.208  1.00  0.00     0.031 C 
ATOM     57  C   UNL A   1      47.178  30.299  30.002  1.00  0.00     0.029 A 
ATOM     58  C   UNL A   1      46.358  29.241  29.640  1.00  0.00     0.049 A 
ATOM     59  H   UNL A   1      44.256  29.186  29.489  1.00  0.00     0.167 HD
ATOM     60  C   UNL A   1      45.892  26.900  28.927  1.00  0.00     0.074 A 
ATOM     61  C   UNL A   1      46.319  25.568  28.545  1.00  0.00     0.031 C 
ATOM     62  C   UNL A   1      46.742  27.904  29.258  1.00  0.00     0.031 A 
BRANCH  49  63
ATOM     63  C   UNL A   1      44.001  33.259  30.757  1.00  0.00    -0.014 A 
ATOM     64  C   UNL A   1      43.997  34.315  29.826  1.00  0.00     0.010 A 
ATOM     65  C   UNL A   1      44.117  33.560  32.127  1.00  0.00     0.010 A 
ATOM     66  C   UNL A   1      44.153  35.636  30.251  1.00  0.00     0.020 A 
ATOM     67  C   UNL A   1      44.239  34.885  32.559  1.00  0.00     0.020 A 
ATOM     68  C   UNL A   1      44.273  35.914  31.616  1.00  0.00     0.054 A 
BRANCH  68  69
ATOM     69  S   UNL A   1      44.444  37.642  32.138  1.00  0.00     0.124 S 
ATOM     70  O   UNL A   1      45.805  37.663  32.668  1.00  0.00    -0.237 OA
ATOM     71  O   UNL A   1      44.245  38.374  30.890  1.00  0.00    -0.237 OA
ATOM     72  O   UNL A   1      43.387  37.812  33.132  1.00  0.00    -0.744 OA
ENDBRANCH  68  69
ENDBRANCH  49  63
BRANCH  50  73
ATOM     73  C   UNL A   1      42.577  23.766  27.703  1.00  0.00    -0.014 A 
ATOM     74  C   UNL A   1      42.683  23.500  26.327  1.00  0.00     0.010 A 
ATOM     75  C   UNL A   1      42.290  22.702  28.579  1.00  0.00     0.010 A 
ATOM     76  C   UNL A   1      42.485  22.204  25.835  1.00  0.00     0.020 A 
ATOM     77  C   UNL A   1      42.124  21.400  28.097  1.00  0.00     0.020 A 
ATOM     78  C   UNL A   1      42.210  21.162  26.724  1.00  0.00     0.054 A 
BRANCH  78  79
ATOM     79  S   UNL A   1      42.005  19.481  26.068  1.00  0.00     0.124 S 
ATOM     80  O   UNL A   1      40.565  19.418  25.837  1.00  0.00    -0.237 OA
ATOM     81  O   UNL A   1      42.839  19.506  24.869  1.00  0.00    -0.237 OA
ATOM     82  O   UNL A   1      42.504  18.631  27.147  1.00  0.00    -0.744 OA
ENDBRANCH  78  79
ENDBRANCH  50  73
BRANCH  62  83
ATOM     83  C   UNL A   1      48.212  27.587  29.253  1.00  0.00    -0.014 A 
ATOM     84  C   UNL A   1      49.010  27.867  28.131  1.00  0.00     0.010 A 
ATOM     85  C   UNL A   1      48.809  27.060  30.413  1.00  0.00     0.010 A 
ATOM     86  C   UNL A   1      50.380  27.601  28.160  1.00  0.00     0.020 A 
ATOM     87  C   UNL A   1      50.183  26.821  30.455  1.00  0.00     0.020 A 
ATOM     88  C   UNL A   1      50.958  27.083  29.323  1.00  0.00     0.054 A 
BRANCH  88  89
ATOM     89  S   UNL A   1      52.748  26.798  29.351  1.00  0.00     0.124 S 
ATOM     90  O   UNL A   1      52.912  26.014  30.572  1.00  0.00    -0.237 OA
ATOM     91  O   UNL A   1      52.975  26.072  28.103  1.00  0.00    -0.237 OA
ATOM     92  O   UNL A   1      53.313  28.145  29.394  1.00  0.00    -0.744 OA
ENDBRANCH  88  89
ENDBRANCH  62  83
ENDBRANCH  36  37
ENDBRANCH  28  31
ENDBRANCH  26  27
ENDBRANCH   1  26
TORSDOF 16
ENDMDL
MODEL 2
REMARK VINA RESULT:     -12.1      5.306     11.264
REMARK SMILES CC(=O)Nc1ccc(/C=N/c2ccccc2C(=O)NCCCNC(=O)c2ccc(-c3c4nc(c(-c5ccc(S(=O)(=O)[O-])cc5)c5ccc([nH]5)c(-c5ccc(S(=O)(=O)[O-])cc5)c5nc(c(-c6ccc(S(=O)(=O)[O-])cc6)c6ccc3[nH]6)C=C5)C=C4)cc2)cc1
REMARK SMILES IDX 21 1 20 2 19 3 17 4 18 5 16 7 11 8 12 9 13 10 15 11 14 12
REMARK SMILES IDX 10 13 9 14 8 15 5 16 6 17 87 18 7 19 86 20 4 21 1 22 2 23
REMARK SMILES IDX 3 24 22 26 23 27 24 28 25 30 26 31 27 32 85 33 28 34 84 35
REMARK SMILES IDX 29 36 30 37 31 38 78 39 32 40 83 41 77 42 79 43 33 44 82 45
REMARK SMILES IDX 76 46 75 47 34 49 64 50 45 51 63 52 46 53 49 54 62 55 80 56
REMARK SMILES IDX 47 57 48 58 61 60 81 61 50 62 35 63 36 64 44 65 37 66 43 67
REMARK SMILES IDX 38 68 39 69 40 70 41 71 42 72 65 73 66 74 74 75 67 76 73 77
REMARK SMILES IDX 68 78 69 79 70 80 71 81 72 82 51 83 52 84 60 85 53 86 59 87
REMARK SMILES IDX 54 88 55 89 56 90 57 91 58 92
REMARK H PARENT 19 6 4 25 23 29 79 48 49 59
REMARK Flexibility Score: inf
ROOT
ATOM      1  C   UNL A   1      37.216  23.166  25.800  1.00  0.00     0.042 C 
ENDROOT
BRANCH   1   2
ATOM      2  C   UNL A   1      36.078  23.741  24.984  1.00  0.00     0.118 C 
BRANCH   2   3
ATOM      3  N   UNL A   1      35.001  24.381  25.700  1.00  0.00    -0.352 N 
ATOM      4  C   UNL A   1      33.765  24.767  25.235  1.00  0.00     0.253 C 
ATOM      5  O   UNL A   1      32.917  25.057  26.085  1.00  0.00    -0.269 OA
ATOM      6  H   UNL A   1      35.174  24.565  26.651  1.00  0.00     0.163 HD
BRANCH   4   7
ATOM      7  C   UNL A   1      33.411  24.962  23.793  1.00  0.00     0.065 A 
ATOM      8  C   UNL A   1      33.150  23.983  22.810  1.00  0.00     0.076 A 
ATOM      9  C   UNL A   1      32.885  24.403  21.493  1.00  0.00     0.029 A 
ATOM     10  C   UNL A   1      32.825  25.753  21.146  1.00  0.00     0.002 A 
ATOM     11  C   UNL A   1      33.313  26.326  23.428  1.00  0.00     0.016 A 
ATOM     12  C   UNL A   1      33.027  26.719  22.119  1.00  0.00     0.001 A 
BRANCH   8  13
ATOM     13  N   UNL A   1      33.249  22.592  22.972  1.00  0.00    -0.255 NA
ATOM     14  C   UNL A   1      32.315  21.943  23.583  1.00  0.00     0.119 C 
BRANCH  14  15
ATOM     15  C   UNL A   1      32.519  20.513  23.919  1.00  0.00    -0.007 A 
ATOM     16  C   UNL A   1      32.562  17.768  24.552  1.00  0.00     0.041 A 
ATOM     17  C   UNL A   1      32.757  18.736  25.547  1.00  0.00     0.027 A 
ATOM     18  C   UNL A   1      32.300  18.200  23.251  1.00  0.00     0.027 A 
ATOM     19  C   UNL A   1      32.734  20.100  25.237  1.00  0.00     0.012 A 
ATOM     20  C   UNL A   1      32.294  19.563  22.927  1.00  0.00     0.012 A 
BRANCH  16  21
ATOM     21  N   UNL A   1      32.587  16.425  24.969  1.00  0.00    -0.326 N 
ATOM     22  C   UNL A   1      35.027  15.937  25.231  1.00  0.00     0.114 C 
ATOM     23  C   UNL A   1      33.586  15.524  25.191  1.00  0.00     0.221 C 
ATOM     24  O   UNL A   1      33.271  14.350  25.407  1.00  0.00    -0.275 OA
ATOM     25  H   UNL A   1      31.689  16.057  25.139  1.00  0.00     0.169 HD
ENDBRANCH  16  21
ENDBRANCH  14  15
ENDBRANCH   8  13
ENDBRANCH   4   7
ENDBRANCH   2   3
ENDBRANCH   1   2
BRANCH   1  26
ATOM     26  C   UNL A   1      38.160  24.185  26.420  1.00  0.00     0.118 C 
BRANCH  26  27
ATOM     27  N   UNL A   1      39.580  23.977  26.145  1.00  0.00    -0.352 N 
ATOM     28  C   UNL A   1      40.712  24.609  26.612  1.00  0.00     0.251 C 
ATOM     29  H   UNL A   1      39.761  23.250  25.507  1.00  0.00     0.163 HD
ATOM     30  O   UNL A   1      41.816  24.225  26.245  1.00  0.00    -0.269 OA
BRANCH  28  31
ATOM     31  C   UNL A   1      40.602  25.780  27.509  1.00  0.00     0.039 A 
ATOM     32  C   UNL A   1      39.673  25.752  28.554  1.00  0.00     0.014 A 
ATOM     33  C   UNL A   1      41.401  26.903  27.329  1.00  0.00     0.014 A 
ATOM     34  C   UNL A   1      39.627  26.791  29.484  1.00  0.00     0.010 A 
ATOM     35  C   UNL A   1      41.429  27.890  28.305  1.00  0.00     0.010 A 
ATOM     36  C   UNL A   1      40.546  27.842  29.395  1.00  0.00    -0.014 A 
BRANCH  36  37
ATOM     37  C   UNL A   1      40.582  28.951  30.379  1.00  0.00     0.031 A 
ATOM     38  C   UNL A   1      41.545  28.852  31.528  1.00  0.00     0.074 A 
ATOM     39  C   UNL A   1      39.694  29.961  30.301  1.00  0.00     0.049 A 
ATOM     40  N   UNL A   1      41.557  29.504  32.658  1.00  0.00    -0.248 NA
ATOM     41  C   UNL A   1      42.610  27.840  31.402  1.00  0.00     0.031 C 
ATOM     42  C   UNL A   1      38.722  30.161  29.223  1.00  0.00     0.029 A 
ATOM     43  N   UNL A   1      39.444  30.998  31.166  1.00  0.00    -0.354 N 
ATOM     44  C   UNL A   1      42.594  28.947  33.399  1.00  0.00     0.074 A 
ATOM     45  C   UNL A   1      43.158  27.877  32.607  1.00  0.00     0.031 C 
ATOM     46  C   UNL A   1      37.987  31.254  29.488  1.00  0.00     0.029 A 
ATOM     47  C   UNL A   1      38.380  31.784  30.787  1.00  0.00     0.049 A 
ATOM     48  H   UNL A   1      39.974  31.162  31.978  1.00  0.00     0.167 HD
ATOM     49  C   UNL A   1      43.038  29.305  34.625  1.00  0.00     0.031 A 
ATOM     50  C   UNL A   1      37.762  32.789  31.440  1.00  0.00     0.031 A 
ATOM     51  C   UNL A   1      42.476  30.395  35.376  1.00  0.00     0.049 A 
ATOM     52  C   UNL A   1      38.260  33.161  32.810  1.00  0.00     0.074 A 
ATOM     53  C   UNL A   1      42.851  30.875  36.617  1.00  0.00     0.029 A 
ATOM     54  N   UNL A   1      41.424  31.190  34.939  1.00  0.00    -0.354 N 
ATOM     55  N   UNL A   1      39.235  32.620  33.506  1.00  0.00    -0.248 NA
ATOM     56  C   UNL A   1      37.579  34.271  33.486  1.00  0.00     0.031 C 
ATOM     57  C   UNL A   1      41.997  31.931  36.950  1.00  0.00     0.029 A 
ATOM     58  C   UNL A   1      41.129  32.149  35.890  1.00  0.00     0.049 A 
ATOM     59  H   UNL A   1      40.957  31.085  34.079  1.00  0.00     0.167 HD
ATOM     60  C   UNL A   1      39.293  33.336  34.696  1.00  0.00     0.074 A 
ATOM     61  C   UNL A   1      38.273  34.363  34.613  1.00  0.00     0.031 C 
ATOM     62  C   UNL A   1      40.106  33.159  35.767  1.00  0.00     0.031 A 
BRANCH  49  63
ATOM     63  C   UNL A   1      44.168  28.507  35.222  1.00  0.00    -0.014 A 
ATOM     64  C   UNL A   1      45.511  28.873  35.011  1.00  0.00     0.010 A 
ATOM     65  C   UNL A   1      43.887  27.381  36.018  1.00  0.00     0.010 A 
ATOM     66  C   UNL A   1      46.548  28.104  35.544  1.00  0.00     0.020 A 
ATOM     67  C   UNL A   1      44.922  26.628  36.582  1.00  0.00     0.020 A 
ATOM     68  C   UNL A   1      46.248  26.985  36.327  1.00  0.00     0.054 A 
BRANCH  68  69
ATOM     69  S   UNL A   1      47.616  26.025  37.029  1.00  0.00     0.124 S 
ATOM     70  O   UNL A   1      47.217  25.907  38.428  1.00  0.00    -0.237 OA
ATOM     71  O   UNL A   1      47.568  24.787  36.255  1.00  0.00    -0.237 OA
ATOM     72  O   UNL A   1      48.790  26.862  36.785  1.00  0.00    -0.744 OA
ENDBRANCH  68  69
ENDBRANCH  49  63
BRANCH  50  73
ATOM     73  C   UNL A   1      36.587  33.475  30.828  1.00  0.00    -0.014 A 
ATOM     74  C   UNL A   1      35.427  33.726  31.581  1.00  0.00     0.010 A 
ATOM     75  C   UNL A   1      36.627  33.895  29.484  1.00  0.00     0.010 A 
ATOM     76  C   UNL A   1      34.325  34.364  30.999  1.00  0.00     0.020 A 
ATOM     77  C   UNL A   1      35.542  34.562  28.908  1.00  0.00     0.020 A 
ATOM     78  C   UNL A   1      34.391  34.781  29.667  1.00  0.00     0.054 A 
BRANCH  78  79
ATOM     79  S   UNL A   1      32.967  35.648  28.947  1.00  0.00     0.124 S 
ATOM     80  O   UNL A   1      32.364  34.609  28.119  1.00  0.00    -0.237 OA
ATOM     81  O   UNL A   1      32.204  36.038  30.131  1.00  0.00    -0.237 OA
ATOM     82  O   UNL A   1      33.577  36.757  28.217  1.00  0.00    -0.744 OA
ENDBRANCH  78  79
ENDBRANCH  50  73
BRANCH  62  83
ATOM     83  C   UNL A   1      39.946  34.117  36.914  1.00  0.00    -0.014 A 
ATOM     84  C   UNL A   1      40.568  35.377  36.899  1.00  0.00     0.010 A 
ATOM     85  C   UNL A   1      39.107  33.773  37.990  1.00  0.00     0.010 A 
ATOM     86  C   UNL A   1      40.376  36.268  37.957  1.00  0.00     0.020 A 
ATOM     87  C   UNL A   1      38.888  34.673  39.033  1.00  0.00     0.020 A 
ATOM     88  C   UNL A   1      39.534  35.912  39.015  1.00  0.00     0.054 A 
BRANCH  88  89
ATOM     89  S   UNL A   1      39.259  37.109  40.348  1.00  0.00     0.124 S 
ATOM     90  O   UNL A   1      40.612  37.313  40.857  1.00  0.00    -0.237 OA
ATOM     91  O   UNL A   1      38.675  38.246  39.639  1.00  0.00    -0.237 OA
ATOM     92  O   UNL A   1      38.349  36.414  41.256  1.00  0.00    -0.744 OA
ENDBRANCH  88  89
ENDBRANCH  62  83
ENDBRANCH  36  37
ENDBRANCH  28  31
ENDBRANCH  26  27
ENDBRANCH   1  26
TORSDOF 16
ENDMDL
MODEL 3
REMARK VINA RESULT:     -11.9      1.440      4.216
REMARK SMILES CC(=O)Nc1ccc(/C=N/c2ccccc2C(=O)NCCCNC(=O)c2ccc(-c3c4nc(c(-c5ccc(S(=O)(=O)[O-])cc5)c5ccc([nH]5)c(-c5ccc(S(=O)(=O)[O-])cc5)c5nc(c(-c6ccc(S(=O)(=O)[O-])cc6)c6ccc3[nH]6)C=C5)C=C4)cc2)cc1
REMARK SMILES IDX 21 1 20 2 19 3 17 4 18 5 16 7 11 8 12 9 13 10 15 11 14 12
REMARK SMILES IDX 10 13 9 14 8 15 5 16 6 17 87 18 7 19 86 20 4 21 1 22 2 23
REMARK SMILES IDX 3 24 22 26 23 27 24 28 25 30 26 31 27 32 85 33 28 34 84 35
REMARK SMILES IDX 29 36 30 37 31 38 78 39 32 40 83 41 77 42 79 43 33 44 82 45
REMARK SMILES IDX 76 46 75 47 34 49 64 50 45 51 63 52 46 53 49 54 62 55 80 56
REMARK SMILES IDX 47 57 48 58 61 60 81 61 50 62 35 63 36 64 44 65 37 66 43 67
REMARK SMILES IDX 38 68 39 69 40 70 41 71 42 72 65 73 66 74 74 75 67 76 73 77
REMARK SMILES IDX 68 78 69 79 70 80 71 81 72 82 51 83 52 84 60 85 53 86 59 87
REMARK SMILES IDX 54 88 55 89 56 90 57 91 58 92
REMARK H PARENT 19 6 4 25 23 29 79 48 49 59
REMARK Flexibility Score: inf
ROOT
ATOM      1  C   UNL A   1      33.624  28.023  25.200  1.00  0.00     0.042 C 
ENDROOT
BRANCH   1   2
ATOM      2  C   UNL A   1      32.376  28.809  24.857  1.00  0.00     0.118 C 
BRANCH   2   3
ATOM      3  N   UNL A   1      32.145  29.122  23.468  1.00  0.00    -0.352 N 
ATOM      4  C   UNL A   1      30.969  29.069  22.755  1.00  0.00     0.253 C 
ATOM      5  O   UNL A   1      30.962  29.627  21.653  1.00  0.00    -0.269 OA
ATOM      6  H   UNL A   1      32.937  29.413  22.961  1.00  0.00     0.163 HD
BRANCH   4   7
ATOM      7  C   UNL A   1      29.749  28.305  23.164  1.00  0.00     0.065 A 
ATOM      8  C   UNL A   1      29.662  27.002  23.700  1.00  0.00     0.076 A 
ATOM      9  C   UNL A   1      28.389  26.464  23.964  1.00  0.00     0.029 A 
ATOM     10  C   UNL A   1      27.220  27.196  23.759  1.00  0.00     0.002 A 
ATOM     11  C   UNL A   1      28.552  29.043  22.993  1.00  0.00     0.016 A 
ATOM     12  C   UNL A   1      27.302  28.496  23.283  1.00  0.00     0.001 A 
BRANCH   8  13
ATOM     13  N   UNL A   1      30.727  26.107  23.890  1.00  0.00    -0.255 NA
ATOM     14  C   UNL A   1      30.499  24.839  23.981  1.00  0.00     0.119 C 
BRANCH  14  15
ATOM     15  C   UNL A   1      31.600  23.927  24.375  1.00  0.00    -0.007 A 
ATOM     16  C   UNL A   1      33.901  22.402  24.939  1.00  0.00     0.041 A 
ATOM     17  C   UNL A   1      32.987  21.984  23.962  1.00  0.00     0.027 A 
ATOM     18  C   UNL A   1      33.667  23.615  25.589  1.00  0.00     0.027 A 
ATOM     19  C   UNL A   1      31.844  22.740  23.678  1.00  0.00     0.012 A 
ATOM     20  C   UNL A   1      32.517  24.368  25.325  1.00  0.00     0.012 A 
BRANCH  16  21
ATOM     21  N   UNL A   1      35.026  21.581  25.138  1.00  0.00    -0.326 N 
ATOM     22  C   UNL A   1      36.787  22.643  23.712  1.00  0.00     0.114 C 
ATOM     23  C   UNL A   1      36.273  21.540  24.588  1.00  0.00     0.221 C 
ATOM     24  O   UNL A   1      37.000  20.582  24.869  1.00  0.00    -0.275 OA
ATOM     25  H   UNL A   1      34.882  20.888  25.822  1.00  0.00     0.169 HD
ENDBRANCH  16  21
ENDBRANCH  14  15
ENDBRANCH   8  13
ENDBRANCH   4   7
ENDBRANCH   2   3
ENDBRANCH   1   2
BRANCH   1  26
ATOM     26  C   UNL A   1      34.150  28.211  26.614  1.00  0.00     0.118 C 
BRANCH  26  27
ATOM     27  N   UNL A   1      33.740  29.447  27.278  1.00  0.00    -0.352 N 
ATOM     28  C   UNL A   1      34.439  30.366  28.030  1.00  0.00     0.251 C 
ATOM     29  H   UNL A   1      32.786  29.664  27.166  1.00  0.00     0.163 HD
ATOM     30  O   UNL A   1      33.865  31.358  28.464  1.00  0.00    -0.269 OA
BRANCH  28  31
ATOM     31  C   UNL A   1      35.862  30.137  28.362  1.00  0.00     0.039 A 
ATOM     32  C   UNL A   1      36.197  29.675  29.639  1.00  0.00     0.014 A 
ATOM     33  C   UNL A   1      36.866  30.375  27.431  1.00  0.00     0.014 A 
ATOM     34  C   UNL A   1      37.517  29.339  29.943  1.00  0.00     0.010 A 
ATOM     35  C   UNL A   1      38.161  29.951  27.694  1.00  0.00     0.010 A 
ATOM     36  C   UNL A   1      38.500  29.424  28.951  1.00  0.00    -0.014 A 
BRANCH  36  37
ATOM     37  C   UNL A   1      39.911  29.038  29.195  1.00  0.00     0.031 A 
ATOM     38  C   UNL A   1      40.874  30.104  29.636  1.00  0.00     0.074 A 
ATOM     39  C   UNL A   1      40.334  27.790  28.916  1.00  0.00     0.049 A 
ATOM     40  N   UNL A   1      42.179  30.102  29.612  1.00  0.00    -0.248 NA
ATOM     41  C   UNL A   1      40.279  31.361  30.122  1.00  0.00     0.031 C 
ATOM     42  C   UNL A   1      39.483  26.675  28.492  1.00  0.00     0.029 A 
ATOM     43  N   UNL A   1      41.599  27.256  28.919  1.00  0.00    -0.354 N 
ATOM     44  C   UNL A   1      42.559  31.374  30.029  1.00  0.00     0.074 A 
ATOM     45  C   UNL A   1      41.349  32.130  30.256  1.00  0.00     0.031 C 
ATOM     46  C   UNL A   1      40.247  25.591  28.282  1.00  0.00     0.029 A 
ATOM     47  C   UNL A   1      41.645  25.953  28.479  1.00  0.00     0.049 A 
ATOM     48  H   UNL A   1      42.395  27.756  29.208  1.00  0.00     0.167 HD
ATOM     49  C   UNL A   1      43.809  31.859  30.212  1.00  0.00     0.031 A 
ATOM     50  C   UNL A   1      42.702  25.158  28.216  1.00  0.00     0.031 A 
ATOM     51  C   UNL A   1      44.995  31.072  30.008  1.00  0.00     0.049 A 
ATOM     52  C   UNL A   1      44.084  25.721  28.411  1.00  0.00     0.074 A 
ATOM     53  C   UNL A   1      46.316  31.437  30.183  1.00  0.00     0.029 A 
ATOM     54  N   UNL A   1      44.996  29.745  29.598  1.00  0.00    -0.354 N 
ATOM     55  N   UNL A   1      44.432  26.929  28.794  1.00  0.00    -0.248 NA
ATOM     56  C   UNL A   1      45.212  24.825  28.135  1.00  0.00     0.031 C 
ATOM     57  C   UNL A   1      47.118  30.345  29.836  1.00  0.00     0.029 A 
ATOM     58  C   UNL A   1      46.294  29.280  29.502  1.00  0.00     0.049 A 
ATOM     59  H   UNL A   1      44.190  29.214  29.402  1.00  0.00     0.167 HD
ATOM     60  C   UNL A   1      45.822  26.931  28.821  1.00  0.00     0.074 A 
ATOM     61  C   UNL A   1      46.246  25.598  28.440  1.00  0.00     0.031 C 
ATOM     62  C   UNL A   1      46.675  27.941  29.123  1.00  0.00     0.031 A 
BRANCH  49  63
ATOM     63  C   UNL A   1      43.946  33.297  30.641  1.00  0.00    -0.014 A 
ATOM     64  C   UNL A   1      44.031  34.336  29.695  1.00  0.00     0.010 A 
ATOM     65  C   UNL A   1      43.976  33.620  32.011  1.00  0.00     0.010 A 
ATOM     66  C   UNL A   1      44.188  35.661  30.108  1.00  0.00     0.020 A 
ATOM     67  C   UNL A   1      44.101  34.949  32.429  1.00  0.00     0.020 A 
ATOM     68  C   UNL A   1      44.223  35.960  31.474  1.00  0.00     0.054 A 
BRANCH  68  69
ATOM     69  S   UNL A   1      44.400  37.693  31.978  1.00  0.00     0.124 S 
ATOM     70  O   UNL A   1      43.847  38.401  30.826  1.00  0.00    -0.237 OA
ATOM     71  O   UNL A   1      43.600  37.754  33.197  1.00  0.00    -0.237 OA
ATOM     72  O   UNL A   1      45.840  37.852  32.173  1.00  0.00    -0.744 OA
ENDBRANCH  68  69
ENDBRANCH  49  63
BRANCH  50  73
ATOM     73  C   UNL A   1      42.493  23.772  27.703  1.00  0.00    -0.014 A 
ATOM     74  C   UNL A   1      42.342  23.529  26.327  1.00  0.00     0.010 A 
ATOM     75  C   UNL A   1      42.459  22.681  28.593  1.00  0.00     0.010 A 
ATOM     76  C   UNL A   1      42.140  22.227  25.852  1.00  0.00     0.020 A 
ATOM     77  C   UNL A   1      42.290  21.376  28.120  1.00  0.00     0.020 A 
ATOM     78  C   UNL A   1      42.118  21.159  26.752  1.00  0.00     0.054 A 
BRANCH  78  79
ATOM     79  S   UNL A   1      41.902  19.474  26.109  1.00  0.00     0.124 S 
ATOM     80  O   UNL A   1      42.305  18.659  27.250  1.00  0.00    -0.237 OA
ATOM     81  O   UNL A   1      40.479  19.443  25.779  1.00  0.00    -0.237 OA
ATOM     82  O   UNL A   1      42.802  19.430  24.959  1.00  0.00    -0.744 OA
ENDBRANCH  78  79
ENDBRANCH  50  73
BRANCH  62  83
ATOM     83  C   UNL A   1      48.146  27.630  29.085  1.00  0.00    -0.014 A 
ATOM     84  C   UNL A   1      48.901  27.840  27.919  1.00  0.00     0.010 A 
ATOM     85  C   UNL A   1      48.788  27.183  30.255  1.00  0.00     0.010 A 
ATOM     86  C   UNL A   1      50.273  27.582  27.915  1.00  0.00     0.020 A 
ATOM     87  C   UNL A   1      50.164  26.954  30.263  1.00  0.00     0.020 A 
ATOM     88  C   UNL A   1      50.896  27.144  29.089  1.00  0.00     0.054 A 
BRANCH  88  89
ATOM     89  S   UNL A   1      52.688  26.868  29.070  1.00  0.00     0.124 S 
ATOM     90  O   UNL A   1      52.900  26.163  30.331  1.00  0.00    -0.237 OA
ATOM     91  O   UNL A   1      52.875  26.067  27.862  1.00  0.00    -0.237 OA
ATOM     92  O   UNL A   1      53.245  28.218  29.009  1.00  0.00    -0.744 OA
ENDBRANCH  88  89
ENDBRANCH  62  83
ENDBRANCH  36  37
ENDBRANCH  28  31
ENDBRANCH  26  27
ENDBRANCH   1  26
TORSDOF 16
ENDMDL
