MODEL 1
REMARK VINA RESULT:     -10.3      0.000      0.000
REMARK SMILES COc1ccc([C@@H](C)NC(=O)CCC(=O)NCCCNC(=O)c2ccc(-c3c4nc(c(-c5ccc(S(=O)(=O)[O-])cc5)c5ccc([nH]5)c(-c5ccc(S(=O)(=O)[O-])cc5)c5nc(c(-c6ccc(S(=O)(=O)[O-])cc6)c6ccc3[nH]6)C=C5)C=C4)cc2)cc1OC
REMARK SMILES IDX 17 1 16 2 14 3 15 4 13 6 12 7 10 8 9 9 11 11 7 12 8 13 6 14
REMARK SMILES IDX 3 15 4 16 84 17 5 18 83 19 2 20 1 21 85 22 86 23 18 24 19 25
REMARK SMILES IDX 20 26 21 27 22 29 23 30 24 31 82 32 25 33 81 34 26 35 27 36
REMARK SMILES IDX 28 37 75 38 29 39 80 40 74 41 76 42 30 43 79 44 73 45 72 46
REMARK SMILES IDX 31 48 61 49 42 50 60 51 43 52 46 53 59 54 77 55 44 56 45 57
REMARK SMILES IDX 58 59 78 60 47 61 32 62 33 63 41 64 34 65 40 66 35 67 36 68
REMARK SMILES IDX 37 69 38 70 39 71 62 72 63 73 71 74 64 75 70 76 65 77 66 78
REMARK SMILES IDX 67 79 68 80 69 81 48 82 49 83 57 84 50 85 56 86 51 87 52 88
REMARK SMILES IDX 53 89 54 90 55 91
REMARK H PARENT 16 5 9 10 20 28 76 47 46 58
REMARK Flexibility Score: inf
ROOT
ATOM      1  C   UNL A   1      42.336  20.934  26.770  1.00  0.00     0.117 C 
ENDROOT
BRANCH   1   2
ATOM      2  N   UNL A   1      42.119  19.709  26.019  1.00  0.00    -0.356 N 
ATOM      3  C   UNL A   1      42.876  18.572  25.980  1.00  0.00     0.220 C 
ATOM      4  O   UNL A   1      42.330  17.478  25.815  1.00  0.00    -0.275 OA
ATOM      5  H   UNL A   1      41.310  19.698  25.456  1.00  0.00     0.163 HD
BRANCH   3   6
ATOM      6  C   UNL A   1      44.377  18.652  26.014  1.00  0.00     0.110 C 
BRANCH   6   7
ATOM      7  C   UNL A   1      44.876  19.127  24.650  1.00  0.00     0.110 C 
BRANCH   7   8
ATOM      8  C   UNL A   1      46.084  20.002  24.841  1.00  0.00     0.220 C 
ATOM      9  N   UNL A   1      45.980  21.305  25.209  1.00  0.00    -0.350 N 
ATOM     10  H   UNL A   1      46.782  21.654  25.662  1.00  0.00     0.164 HD
ATOM     11  O   UNL A   1      47.214  19.513  24.756  1.00  0.00    -0.275 OA
BRANCH   9  12
ATOM     12  C   UNL A   1      44.904  22.297  25.064  1.00  0.00     0.109 C 
ATOM     13  C   UNL A   1      44.705  22.489  23.556  1.00  0.00     0.036 C 
BRANCH  12  14
ATOM     14  C   UNL A   1      45.155  23.640  25.755  1.00  0.00    -0.022 A 
ATOM     15  C   UNL A   1      45.536  26.223  26.915  1.00  0.00     0.160 A 
ATOM     16  C   UNL A   1      45.196  25.123  27.707  1.00  0.00     0.051 A 
ATOM     17  C   UNL A   1      45.775  26.031  25.552  1.00  0.00     0.161 A 
ATOM     18  C   UNL A   1      45.032  23.849  27.135  1.00  0.00     0.010 A 
ATOM     19  C   UNL A   1      45.581  24.747  24.998  1.00  0.00     0.056 A 
BRANCH  15  20
ATOM     20  O   UNL A   1      45.767  27.417  27.544  1.00  0.00    -0.493 OA
ATOM     21  C   UNL A   1      46.264  27.248  28.874  1.00  0.00     0.278 C 
ENDBRANCH  15  20
BRANCH  17  22
ATOM     22  O   UNL A   1      46.227  26.941  24.634  1.00  0.00    -0.493 OA
ATOM     23  C   UNL A   1      47.625  27.076  24.444  1.00  0.00     0.278 C 
ENDBRANCH  17  22
ENDBRANCH  12  14
ENDBRANCH   9  12
ENDBRANCH   7   8
ENDBRANCH   6   7
ENDBRANCH   3   6
ENDBRANCH   1   2
BRANCH   1  24
ATOM     24  C   UNL A   1      41.167  21.611  27.497  1.00  0.00     0.042 C 
BRANCH  24  25
ATOM     25  C   UNL A   1      41.050  23.136  27.560  1.00  0.00     0.118 C 
BRANCH  25  26
ATOM     26  N   UNL A   1      41.393  23.853  26.348  1.00  0.00    -0.352 N 
ATOM     27  C   UNL A   1      41.538  25.211  26.178  1.00  0.00     0.251 C 
ATOM     28  H   UNL A   1      41.539  23.300  25.546  1.00  0.00     0.163 HD
ATOM     29  O   UNL A   1      41.821  25.661  25.065  1.00  0.00    -0.269 OA
BRANCH  27  30
ATOM     30  C   UNL A   1      41.349  26.143  27.314  1.00  0.00     0.039 A 
ATOM     31  C   UNL A   1      42.255  27.193  27.491  1.00  0.00     0.014 A 
ATOM     32  C   UNL A   1      40.326  25.949  28.247  1.00  0.00     0.014 A 
ATOM     33  C   UNL A   1      42.111  28.073  28.573  1.00  0.00     0.010 A 
ATOM     34  C   UNL A   1      40.167  26.846  29.313  1.00  0.00     0.010 A 
ATOM     35  C   UNL A   1      41.056  27.921  29.488  1.00  0.00    -0.014 A 
BRANCH  35  36
ATOM     36  C   UNL A   1      40.869  28.877  30.621  1.00  0.00     0.031 A 
ATOM     37  C   UNL A   1      41.702  28.761  31.872  1.00  0.00     0.074 A 
ATOM     38  C   UNL A   1      39.916  29.828  30.549  1.00  0.00     0.049 A 
ATOM     39  N   UNL A   1      41.637  29.461  32.978  1.00  0.00    -0.248 NA
ATOM     40  C   UNL A   1      42.733  27.712  31.887  1.00  0.00     0.031 C 
ATOM     41  C   UNL A   1      39.027  30.049  29.407  1.00  0.00     0.029 A 
ATOM     42  N   UNL A   1      39.525  30.783  31.460  1.00  0.00    -0.354 N 
ATOM     43  C   UNL A   1      42.607  28.933  33.824  1.00  0.00     0.074 A 
ATOM     44  C   UNL A   1      43.216  27.824  33.117  1.00  0.00     0.031 C 
ATOM     45  C   UNL A   1      38.207  31.076  29.678  1.00  0.00     0.029 A 
ATOM     46  C   UNL A   1      38.476  31.563  31.030  1.00  0.00     0.049 A 
ATOM     47  H   UNL A   1      39.957  30.897  32.337  1.00  0.00     0.167 HD
ATOM     48  C   UNL A   1      42.971  29.337  35.067  1.00  0.00     0.031 A 
ATOM     49  C   UNL A   1      37.794  32.547  31.650  1.00  0.00     0.031 A 
ATOM     50  C   UNL A   1      42.360  30.435  35.775  1.00  0.00     0.049 A 
ATOM     51  C   UNL A   1      38.185  32.955  33.046  1.00  0.00     0.074 A 
ATOM     52  C   UNL A   1      42.680  30.936  37.025  1.00  0.00     0.029 A 
ATOM     53  N   UNL A   1      41.302  31.196  35.301  1.00  0.00    -0.354 N 
ATOM     54  N   UNL A   1      39.137  32.470  33.809  1.00  0.00    -0.248 NA
ATOM     55  C   UNL A   1      37.422  34.051  33.661  1.00  0.00     0.031 C 
ATOM     56  C   UNL A   1      41.779  31.960  37.331  1.00  0.00     0.029 A 
ATOM     57  C   UNL A   1      40.945  32.148  36.242  1.00  0.00     0.049 A 
ATOM     58  H   UNL A   1      40.869  31.076  34.425  1.00  0.00     0.167 HD
ATOM     59  C   UNL A   1      39.109  33.229  34.976  1.00  0.00     0.074 A 
ATOM     60  C   UNL A   1      38.053  34.205  34.818  1.00  0.00     0.031 C 
ATOM     61  C   UNL A   1      39.897  33.126  36.075  1.00  0.00     0.031 A 
BRANCH  48  62
ATOM     62  C   UNL A   1      44.076  28.572  35.753  1.00  0.00    -0.014 A 
ATOM     63  C   UNL A   1      45.428  28.908  35.555  1.00  0.00     0.010 A 
ATOM     64  C   UNL A   1      43.758  27.522  36.635  1.00  0.00     0.010 A 
ATOM     65  C   UNL A   1      46.441  28.174  36.177  1.00  0.00     0.020 A 
ATOM     66  C   UNL A   1      44.768  26.805  37.286  1.00  0.00     0.020 A 
ATOM     67  C   UNL A   1      46.104  27.120  37.034  1.00  0.00     0.054 A 
BRANCH  67  68
ATOM     68  S   UNL A   1      47.441  26.182  37.823  1.00  0.00     0.124 S 
ATOM     69  O   UNL A   1      48.429  27.225  38.080  1.00  0.00    -0.237 OA
ATOM     70  O   UNL A   1      46.788  25.630  39.008  1.00  0.00    -0.237 OA
ATOM     71  O   UNL A   1      47.821  25.200  36.811  1.00  0.00    -0.744 OA
ENDBRANCH  67  68
ENDBRANCH  48  62
BRANCH  49  72
ATOM     72  C   UNL A   1      36.662  33.220  30.950  1.00  0.00    -0.014 A 
ATOM     73  C   UNL A   1      35.366  33.203  31.495  1.00  0.00     0.010 A 
ATOM     74  C   UNL A   1      36.882  33.898  29.736  1.00  0.00     0.010 A 
ATOM     75  C   UNL A   1      34.310  33.839  30.834  1.00  0.00     0.020 A 
ATOM     76  C   UNL A   1      35.835  34.561  29.088  1.00  0.00     0.020 A 
ATOM     77  C   UNL A   1      34.553  34.519  29.637  1.00  0.00     0.054 A 
BRANCH  77  78
ATOM     78  S   UNL A   1      33.178  35.387  28.830  1.00  0.00     0.124 S 
ATOM     79  O   UNL A   1      33.872  36.433  28.087  1.00  0.00    -0.237 OA
ATOM     80  O   UNL A   1      32.572  34.332  28.023  1.00  0.00    -0.237 OA
ATOM     81  O   UNL A   1      32.361  35.850  29.951  1.00  0.00    -0.744 OA
ENDBRANCH  77  78
ENDBRANCH  49  72
BRANCH  61  82
ATOM     82  C   UNL A   1      39.698  34.129  37.183  1.00  0.00    -0.014 A 
ATOM     83  C   UNL A   1      38.863  33.861  38.281  1.00  0.00     0.010 A 
ATOM     84  C   UNL A   1      40.429  35.333  37.159  1.00  0.00     0.010 A 
ATOM     85  C   UNL A   1      38.747  34.786  39.324  1.00  0.00     0.020 A 
ATOM     86  C   UNL A   1      40.339  36.246  38.212  1.00  0.00     0.020 A 
ATOM     87  C   UNL A   1      39.491  35.971  39.286  1.00  0.00     0.054 A 
BRANCH  87  88
ATOM     88  S   UNL A   1      39.375  37.122  40.684  1.00  0.00     0.124 S 
ATOM     89  O   UNL A   1      40.732  37.656  40.752  1.00  0.00    -0.237 OA
ATOM     90  O   UNL A   1      38.351  38.064  40.237  1.00  0.00    -0.237 OA
ATOM     91  O   UNL A   1      38.983  36.270  41.804  1.00  0.00    -0.744 OA
ENDBRANCH  87  88
ENDBRANCH  61  82
ENDBRANCH  35  36
ENDBRANCH  27  30
ENDBRANCH  25  26
ENDBRANCH  24  25
ENDBRANCH   1  24
TORSDOF 19
ENDMDL
MODEL 2
REMARK VINA RESULT:     -10.2      5.728     11.659
REMARK SMILES COc1ccc([C@@H](C)NC(=O)CCC(=O)NCCCNC(=O)c2ccc(-c3c4nc(c(-c5ccc(S(=O)(=O)[O-])cc5)c5ccc([nH]5)c(-c5ccc(S(=O)(=O)[O-])cc5)c5nc(c(-c6ccc(S(=O)(=O)[O-])cc6)c6ccc3[nH]6)C=C5)C=C4)cc2)cc1OC
REMARK SMILES IDX 17 1 16 2 14 3 15 4 13 6 12 7 10 8 9 9 11 11 7 12 8 13 6 14
REMARK SMILES IDX 3 15 4 16 84 17 5 18 83 19 2 20 1 21 85 22 86 23 18 24 19 25
REMARK SMILES IDX 20 26 21 27 22 29 23 30 24 31 82 32 25 33 81 34 26 35 27 36
REMARK SMILES IDX 28 37 75 38 29 39 80 40 74 41 76 42 30 43 79 44 73 45 72 46
REMARK SMILES IDX 31 48 61 49 42 50 60 51 43 52 46 53 59 54 77 55 44 56 45 57
REMARK SMILES IDX 58 59 78 60 47 61 32 62 33 63 41 64 34 65 40 66 35 67 36 68
REMARK SMILES IDX 37 69 38 70 39 71 62 72 63 73 71 74 64 75 70 76 65 77 66 78
REMARK SMILES IDX 67 79 68 80 69 81 48 82 49 83 57 84 50 85 56 86 51 87 52 88
REMARK SMILES IDX 53 89 54 90 55 91
REMARK H PARENT 16 5 9 10 20 28 76 47 46 58
REMARK Flexibility Score: inf
ROOT
ATOM      1  C   UNL A   1      31.534  27.522  26.621  1.00  0.00     0.117 C 
ENDROOT
BRANCH   1   2
ATOM      2  N   UNL A   1      30.673  26.358  26.490  1.00  0.00    -0.356 N 
ATOM      3  C   UNL A   1      30.685  25.376  25.539  1.00  0.00     0.220 C 
ATOM      4  O   UNL A   1      30.354  24.227  25.841  1.00  0.00    -0.275 OA
ATOM      5  H   UNL A   1      29.982  26.265  27.185  1.00  0.00     0.163 HD
BRANCH   3   6
ATOM      6  C   UNL A   1      30.979  25.707  24.102  1.00  0.00     0.110 C 
BRANCH   6   7
ATOM      7  C   UNL A   1      32.464  25.461  23.835  1.00  0.00     0.110 C 
BRANCH   7   8
ATOM      8  C   UNL A   1      32.674  25.244  22.362  1.00  0.00     0.220 C 
ATOM      9  N   UNL A   1      32.713  24.002  21.814  1.00  0.00    -0.350 N 
ATOM     10  H   UNL A   1      32.473  23.982  20.860  1.00  0.00     0.164 HD
ATOM     11  O   UNL A   1      32.719  26.214  21.600  1.00  0.00    -0.275 OA
BRANCH   9  12
ATOM     12  C   UNL A   1      33.045  22.681  22.368  1.00  0.00     0.109 C 
ATOM     13  C   UNL A   1      31.804  22.221  23.142  1.00  0.00     0.036 C 
BRANCH  12  14
ATOM     14  C   UNL A   1      34.289  22.639  23.261  1.00  0.00    -0.022 A 
ATOM     15  C   UNL A   1      36.567  22.398  24.969  1.00  0.00     0.160 A 
ATOM     16  C   UNL A   1      36.670  23.008  23.716  1.00  0.00     0.051 A 
ATOM     17  C   UNL A   1      35.312  21.981  25.420  1.00  0.00     0.161 A 
ATOM     18  C   UNL A   1      35.541  23.145  22.888  1.00  0.00     0.010 A 
ATOM     19  C   UNL A   1      34.199  22.108  24.561  1.00  0.00     0.056 A 
BRANCH  15  20
ATOM     20  O   UNL A   1      37.682  22.374  25.762  1.00  0.00    -0.493 OA
ATOM     21  C   UNL A   1      38.008  23.664  26.287  1.00  0.00     0.278 C 
ENDBRANCH  15  20
BRANCH  17  22
ATOM     22  O   UNL A   1      34.978  21.474  26.647  1.00  0.00    -0.493 OA
ATOM     23  C   UNL A   1      33.961  22.119  27.395  1.00  0.00     0.278 C 
ENDBRANCH  17  22
ENDBRANCH  12  14
ENDBRANCH   9  12
ENDBRANCH   7   8
ENDBRANCH   6   7
ENDBRANCH   3   6
ENDBRANCH   1   2
BRANCH   1  24
ATOM     24  C   UNL A   1      33.039  27.345  26.859  1.00  0.00     0.042 C 
BRANCH  24  25
ATOM     25  C   UNL A   1      34.030  28.464  26.530  1.00  0.00     0.118 C 
BRANCH  25  26
ATOM     26  N   UNL A   1      33.710  29.776  27.058  1.00  0.00    -0.352 N 
ATOM     27  C   UNL A   1      34.504  30.599  27.823  1.00  0.00     0.251 C 
ATOM     28  H   UNL A   1      32.812  30.120  26.844  1.00  0.00     0.163 HD
ATOM     29  O   UNL A   1      34.068  31.687  28.206  1.00  0.00    -0.269 OA
BRANCH  27  30
ATOM     30  C   UNL A   1      35.877  30.191  28.204  1.00  0.00     0.039 A 
ATOM     31  C   UNL A   1      36.903  30.290  27.259  1.00  0.00     0.014 A 
ATOM     32  C   UNL A   1      36.147  29.644  29.462  1.00  0.00     0.014 A 
ATOM     33  C   UNL A   1      38.204  29.886  27.588  1.00  0.00     0.010 A 
ATOM     34  C   UNL A   1      37.454  29.266  29.798  1.00  0.00     0.010 A 
ATOM     35  C   UNL A   1      38.501  29.385  28.867  1.00  0.00    -0.014 A 
BRANCH  35  36
ATOM     36  C   UNL A   1      39.892  28.990  29.241  1.00  0.00     0.031 A 
ATOM     37  C   UNL A   1      40.817  29.971  29.916  1.00  0.00     0.074 A 
ATOM     38  C   UNL A   1      40.348  27.758  28.933  1.00  0.00     0.049 A 
ATOM     39  N   UNL A   1      42.073  29.823  30.258  1.00  0.00    -0.248 NA
ATOM     40  C   UNL A   1      40.260  31.293  30.237  1.00  0.00     0.031 C 
ATOM     41  C   UNL A   1      39.570  26.712  28.268  1.00  0.00     0.029 A 
ATOM     42  N   UNL A   1      41.581  27.179  29.128  1.00  0.00    -0.354 N 
ATOM     43  C   UNL A   1      42.461  31.034  30.823  1.00  0.00     0.074 A 
ATOM     44  C   UNL A   1      41.318  31.919  30.735  1.00  0.00     0.031 C 
ATOM     45  C   UNL A   1      40.336  25.619  28.122  1.00  0.00     0.029 A 
ATOM     46  C   UNL A   1      41.674  25.896  28.640  1.00  0.00     0.049 A 
ATOM     47  H   UNL A   1      42.326  27.640  29.576  1.00  0.00     0.167 HD
ATOM     48  C   UNL A   1      43.652  31.379  31.375  1.00  0.00     0.031 A 
ATOM     49  C   UNL A   1      42.715  25.040  28.596  1.00  0.00     0.031 A 
ATOM     50  C   UNL A   1      44.794  30.503  31.453  1.00  0.00     0.049 A 
ATOM     51  C   UNL A   1      44.041  25.455  29.177  1.00  0.00     0.074 A 
ATOM     52  C   UNL A   1      46.033  30.753  32.020  1.00  0.00     0.029 A 
ATOM     53  N   UNL A   1      44.843  29.213  30.946  1.00  0.00    -0.354 N 
ATOM     54  N   UNL A   1      44.371  26.590  29.747  1.00  0.00    -0.248 NA
ATOM     55  C   UNL A   1      45.132  24.470  29.124  1.00  0.00     0.031 C 
ATOM     56  C   UNL A   1      46.847  29.637  31.805  1.00  0.00     0.029 A 
ATOM     57  C   UNL A   1      46.095  28.663  31.170  1.00  0.00     0.049 A 
ATOM     58  H   UNL A   1      44.097  28.756  30.495  1.00  0.00     0.167 HD
ATOM     59  C   UNL A   1      45.694  26.439  30.153  1.00  0.00     0.074 A 
ATOM     60  C   UNL A   1      46.102  25.105  29.768  1.00  0.00     0.031 C 
ATOM     61  C   UNL A   1      46.493  27.328  30.794  1.00  0.00     0.031 A 
BRANCH  48  62
ATOM     62  C   UNL A   1      43.787  32.778  31.924  1.00  0.00    -0.014 A 
ATOM     63  C   UNL A   1      43.541  33.055  33.282  1.00  0.00     0.010 A 
ATOM     64  C   UNL A   1      44.196  33.826  31.079  1.00  0.00     0.010 A 
ATOM     65  C   UNL A   1      43.644  34.360  33.770  1.00  0.00     0.020 A 
ATOM     66  C   UNL A   1      44.334  35.129  31.571  1.00  0.00     0.020 A 
ATOM     67  C   UNL A   1      44.033  35.391  32.909  1.00  0.00     0.054 A 
BRANCH  67  68
ATOM     68  S   UNL A   1      44.154  37.076  33.571  1.00  0.00     0.124 S 
ATOM     69  O   UNL A   1      42.794  37.310  34.045  1.00  0.00    -0.237 OA
ATOM     70  O   UNL A   1      45.168  36.939  34.613  1.00  0.00    -0.237 OA
ATOM     71  O   UNL A   1      44.556  37.875  32.416  1.00  0.00    -0.744 OA
ENDBRANCH  67  68
ENDBRANCH  48  62
BRANCH  49  72
ATOM     72  C   UNL A   1      42.544  23.695  27.975  1.00  0.00    -0.014 A 
ATOM     73  C   UNL A   1      42.145  22.591  28.749  1.00  0.00     0.010 A 
ATOM     74  C   UNL A   1      42.766  23.516  26.597  1.00  0.00     0.010 A 
ATOM     75  C   UNL A   1      41.983  21.333  28.160  1.00  0.00     0.020 A 
ATOM     76  C   UNL A   1      42.575  22.267  25.999  1.00  0.00     0.020 A 
ATOM     77  C   UNL A   1      42.194  21.180  26.786  1.00  0.00     0.054 A 
BRANCH  77  78
ATOM     78  S   UNL A   1      41.919  19.551  26.035  1.00  0.00     0.124 S 
ATOM     79  O   UNL A   1      40.482  19.570  25.784  1.00  0.00    -0.237 OA
ATOM     80  O   UNL A   1      42.769  19.605  24.849  1.00  0.00    -0.237 OA
ATOM     81  O   UNL A   1      42.363  18.618  27.069  1.00  0.00    -0.744 OA
ENDBRANCH  77  78
ENDBRANCH  49  72
BRANCH  61  82
ATOM     82  C   UNL A   1      47.880  26.879  31.181  1.00  0.00    -0.014 A 
ATOM     83  C   UNL A   1      48.153  26.334  32.448  1.00  0.00     0.010 A 
ATOM     84  C   UNL A   1      48.911  26.933  30.224  1.00  0.00     0.010 A 
ATOM     85  C   UNL A   1      49.436  25.869  32.756  1.00  0.00     0.020 A 
ATOM     86  C   UNL A   1      50.186  26.443  30.517  1.00  0.00     0.020 A 
ATOM     87  C   UNL A   1      50.443  25.921  31.786  1.00  0.00     0.054 A 
BRANCH  87  88
ATOM     88  S   UNL A   1      52.080  25.249  32.188  1.00  0.00     0.124 S 
ATOM     89  O   UNL A   1      52.317  25.799  33.520  1.00  0.00    -0.237 OA
ATOM     90  O   UNL A   1      51.855  23.806  32.135  1.00  0.00    -0.237 OA
ATOM     91  O   UNL A   1      52.942  25.779  31.134  1.00  0.00    -0.744 OA
ENDBRANCH  87  88
ENDBRANCH  61  82
ENDBRANCH  35  36
ENDBRANCH  27  30
ENDBRANCH  25  26
ENDBRANCH  24  25
ENDBRANCH   1  24
TORSDOF 19
ENDMDL
MODEL 3
REMARK VINA RESULT:      -9.9      4.866     10.166
REMARK SMILES COc1ccc([C@@H](C)NC(=O)CCC(=O)NCCCNC(=O)c2ccc(-c3c4nc(c(-c5ccc(S(=O)(=O)[O-])cc5)c5ccc([nH]5)c(-c5ccc(S(=O)(=O)[O-])cc5)c5nc(c(-c6ccc(S(=O)(=O)[O-])cc6)c6ccc3[nH]6)C=C5)C=C4)cc2)cc1OC
REMARK SMILES IDX 17 1 16 2 14 3 15 4 13 6 12 7 10 8 9 9 11 11 7 12 8 13 6 14
REMARK SMILES IDX 3 15 4 16 84 17 5 18 83 19 2 20 1 21 85 22 86 23 18 24 19 25
REMARK SMILES IDX 20 26 21 27 22 29 23 30 24 31 82 32 25 33 81 34 26 35 27 36
REMARK SMILES IDX 28 37 75 38 29 39 80 40 74 41 76 42 30 43 79 44 73 45 72 46
REMARK SMILES IDX 31 48 61 49 42 50 60 51 43 52 46 53 59 54 77 55 44 56 45 57
REMARK SMILES IDX 58 59 78 60 47 61 32 62 33 63 41 64 34 65 40 66 35 67 36 68
REMARK SMILES IDX 37 69 38 70 39 71 62 72 63 73 71 74 64 75 70 76 65 77 66 78
REMARK SMILES IDX 67 79 68 80 69 81 48 82 49 83 57 84 50 85 56 86 51 87 52 88
REMARK SMILES IDX 53 89 54 90 55 91
REMARK H PARENT 16 5 9 10 20 28 76 47 46 58
REMARK Flexibility Score: inf
ROOT
ATOM      1  C   UNL A   1      31.782  27.818  26.839  1.00  0.00     0.117 C 
ENDROOT
BRANCH   1   2
ATOM      2  N   UNL A   1      31.054  26.564  26.758  1.00  0.00    -0.356 N 
ATOM      3  C   UNL A   1      31.128  25.578  25.813  1.00  0.00     0.220 C 
ATOM      4  O   UNL A   1      30.945  24.403  26.138  1.00  0.00    -0.275 OA
ATOM      5  H   UNL A   1      30.414  26.400  27.489  1.00  0.00     0.163 HD
BRANCH   3   6
ATOM      6  C   UNL A   1      31.310  25.924  24.361  1.00  0.00     0.110 C 
BRANCH   6   7
ATOM      7  C   UNL A   1      32.751  25.614  23.957  1.00  0.00     0.110 C 
BRANCH   7   8
ATOM      8  C   UNL A   1      32.806  25.353  22.477  1.00  0.00     0.220 C 
ATOM      9  N   UNL A   1      32.742  24.098  21.963  1.00  0.00    -0.350 N 
ATOM     10  H   UNL A   1      32.408  24.066  21.037  1.00  0.00     0.164 HD
ATOM     11  O   UNL A   1      32.816  26.302  21.688  1.00  0.00    -0.275 OA
BRANCH   9  12
ATOM     12  C   UNL A   1      33.072  22.777  22.518  1.00  0.00     0.109 C 
ATOM     13  C   UNL A   1      31.841  22.331  23.314  1.00  0.00     0.036 C 
BRANCH  12  14
ATOM     14  C   UNL A   1      34.330  22.730  23.391  1.00  0.00    -0.022 A 
ATOM     15  C   UNL A   1      36.632  22.481  25.064  1.00  0.00     0.160 A 
ATOM     16  C   UNL A   1      36.723  23.073  23.802  1.00  0.00     0.051 A 
ATOM     17  C   UNL A   1      35.380  22.087  25.542  1.00  0.00     0.161 A 
ATOM     18  C   UNL A   1      35.582  23.214  22.991  1.00  0.00     0.010 A 
ATOM     19  C   UNL A   1      34.254  22.218  24.699  1.00  0.00     0.056 A 
BRANCH  15  20
ATOM     20  O   UNL A   1      37.760  22.453  25.839  1.00  0.00    -0.493 OA
ATOM     21  C   UNL A   1      38.147  23.753  26.292  1.00  0.00     0.278 C 
ENDBRANCH  15  20
BRANCH  17  22
ATOM     22  O   UNL A   1      35.059  21.601  26.781  1.00  0.00    -0.493 OA
ATOM     23  C   UNL A   1      33.741  21.794  27.266  1.00  0.00     0.278 C 
ENDBRANCH  17  22
ENDBRANCH  12  14
ENDBRANCH   9  12
ENDBRANCH   7   8
ENDBRANCH   6   7
ENDBRANCH   3   6
ENDBRANCH   1   2
BRANCH   1  24
ATOM     24  C   UNL A   1      33.314  27.827  26.757  1.00  0.00     0.042 C 
BRANCH  24  25
ATOM     25  C   UNL A   1      34.070  29.037  26.200  1.00  0.00     0.118 C 
BRANCH  25  26
ATOM     26  N   UNL A   1      33.575  30.339  26.602  1.00  0.00    -0.352 N 
ATOM     27  C   UNL A   1      34.127  31.212  27.511  1.00  0.00     0.251 C 
ATOM     28  H   UNL A   1      32.740  30.634  26.173  1.00  0.00     0.163 HD
ATOM     29  O   UNL A   1      33.564  32.283  27.750  1.00  0.00    -0.269 OA
BRANCH  27  30
ATOM     30  C   UNL A   1      35.387  30.879  28.217  1.00  0.00     0.039 A 
ATOM     31  C   UNL A   1      36.512  31.686  28.019  1.00  0.00     0.014 A 
ATOM     32  C   UNL A   1      35.488  29.736  29.016  1.00  0.00     0.014 A 
ATOM     33  C   UNL A   1      37.722  31.376  28.656  1.00  0.00     0.010 A 
ATOM     34  C   UNL A   1      36.692  29.444  29.673  1.00  0.00     0.010 A 
ATOM     35  C   UNL A   1      37.823  30.261  29.504  1.00  0.00    -0.014 A 
BRANCH  35  36
ATOM     36  C   UNL A   1      39.095  29.945  30.220  1.00  0.00     0.031 A 
ATOM     37  C   UNL A   1      39.989  28.827  29.746  1.00  0.00     0.074 A 
ATOM     38  C   UNL A   1      39.433  30.633  31.330  1.00  0.00     0.049 A 
ATOM     39  N   UNL A   1      41.098  28.372  30.276  1.00  0.00    -0.248 NA
ATOM     40  C   UNL A   1      39.575  28.122  28.524  1.00  0.00     0.031 C 
ATOM     41  C   UNL A   1      38.657  31.730  31.912  1.00  0.00     0.029 A 
ATOM     42  N   UNL A   1      40.510  30.505  32.177  1.00  0.00    -0.354 N 
ATOM     43  C   UNL A   1      41.509  27.321  29.462  1.00  0.00     0.074 A 
ATOM     44  C   UNL A   1      40.504  27.179  28.428  1.00  0.00     0.031 C 
ATOM     45  C   UNL A   1      39.287  32.182  33.009  1.00  0.00     0.029 A 
ATOM     46  C   UNL A   1      40.487  31.382  33.238  1.00  0.00     0.049 A 
ATOM     47  H   UNL A   1      41.229  29.849  32.035  1.00  0.00     0.167 HD
ATOM     48  C   UNL A   1      42.622  26.551  29.554  1.00  0.00     0.031 A 
ATOM     49  C   UNL A   1      41.324  31.521  34.287  1.00  0.00     0.031 A 
ATOM     50  C   UNL A   1      43.618  26.685  30.588  1.00  0.00     0.049 A 
ATOM     51  C   UNL A   1      42.534  30.630  34.395  1.00  0.00     0.074 A 
ATOM     52  C   UNL A   1      44.794  25.971  30.748  1.00  0.00     0.029 A 
ATOM     53  N   UNL A   1      43.554  27.585  31.642  1.00  0.00    -0.354 N 
ATOM     54  N   UNL A   1      42.925  29.673  33.587  1.00  0.00    -0.248 NA
ATOM     55  C   UNL A   1      43.423  30.847  35.546  1.00  0.00     0.031 C 
ATOM     56  C   UNL A   1      45.410  26.399  31.927  1.00  0.00     0.029 A 
ATOM     57  C   UNL A   1      44.658  27.430  32.464  1.00  0.00     0.049 A 
ATOM     58  H   UNL A   1      42.831  28.237  31.783  1.00  0.00     0.167 HD
ATOM     59  C   UNL A   1      44.125  29.201  34.113  1.00  0.00     0.074 A 
ATOM     60  C   UNL A   1      44.396  29.979  35.303  1.00  0.00     0.031 C 
ATOM     61  C   UNL A   1      44.930  28.216  33.644  1.00  0.00     0.031 A 
BRANCH  48  62
ATOM     62  C   UNL A   1      42.816  25.477  28.513  1.00  0.00    -0.014 A 
ATOM     63  C   UNL A   1      42.328  24.172  28.711  1.00  0.00     0.010 A 
ATOM     64  C   UNL A   1      43.467  25.782  27.303  1.00  0.00     0.010 A 
ATOM     65  C   UNL A   1      42.537  23.181  27.749  1.00  0.00     0.020 A 
ATOM     66  C   UNL A   1      43.650  24.802  26.322  1.00  0.00     0.020 A 
ATOM     67  C   UNL A   1      43.205  23.500  26.562  1.00  0.00     0.054 A 
BRANCH  67  68
ATOM     68  S   UNL A   1      43.467  22.192  25.334  1.00  0.00     0.124 S 
ATOM     69  O   UNL A   1      43.377  22.935  24.080  1.00  0.00    -0.237 OA
ATOM     70  O   UNL A   1      44.797  21.694  25.674  1.00  0.00    -0.237 OA
ATOM     71  O   UNL A   1      42.372  21.257  25.582  1.00  0.00    -0.744 OA
ENDBRANCH  67  68
ENDBRANCH  48  62
BRANCH  49  72
ATOM     72  C   UNL A   1      41.044  32.553  35.326  1.00  0.00    -0.014 A 
ATOM     73  C   UNL A   1      40.255  32.248  36.449  1.00  0.00     0.010 A 
ATOM     74  C   UNL A   1      41.581  33.848  35.203  1.00  0.00     0.010 A 
ATOM     75  C   UNL A   1      39.998  33.220  37.422  1.00  0.00     0.020 A 
ATOM     76  C   UNL A   1      41.353  34.813  36.189  1.00  0.00     0.020 A 
ATOM     77  C   UNL A   1      40.555  34.495  37.288  1.00  0.00     0.054 A 
BRANCH  77  78
ATOM     78  S   UNL A   1      40.256  35.721  38.594  1.00  0.00     0.124 S 
ATOM     79  O   UNL A   1      41.564  35.807  39.234  1.00  0.00    -0.237 OA
ATOM     80  O   UNL A   1      39.845  36.896  37.832  1.00  0.00    -0.237 OA
ATOM     81  O   UNL A   1      39.202  35.110  39.401  1.00  0.00    -0.744 OA
ENDBRANCH  77  78
ENDBRANCH  49  72
BRANCH  61  82
ATOM     82  C   UNL A   1      46.220  27.949  34.377  1.00  0.00    -0.014 A 
ATOM     83  C   UNL A   1      47.365  28.738  34.169  1.00  0.00     0.010 A 
ATOM     84  C   UNL A   1      46.257  26.936  35.353  1.00  0.00     0.010 A 
ATOM     85  C   UNL A   1      48.528  28.505  34.910  1.00  0.00     0.020 A 
ATOM     86  C   UNL A   1      47.408  26.718  36.116  1.00  0.00     0.020 A 
ATOM     87  C   UNL A   1      48.540  27.500  35.884  1.00  0.00     0.054 A 
BRANCH  87  88
ATOM     88  S   UNL A   1      50.040  27.263  36.878  1.00  0.00     0.124 S 
ATOM     89  O   UNL A   1      50.358  25.861  36.620  1.00  0.00    -0.237 OA
ATOM     90  O   UNL A   1      50.964  28.234  36.298  1.00  0.00    -0.237 OA
ATOM     91  O   UNL A   1      49.604  27.562  38.240  1.00  0.00    -0.744 OA
ENDBRANCH  87  88
ENDBRANCH  61  82
ENDBRANCH  35  36
ENDBRANCH  27  30
ENDBRANCH  25  26
ENDBRANCH  24  25
ENDBRANCH   1  24
TORSDOF 19
ENDMDL
