MODEL 1
REMARK VINA RESULT:     -10.5      0.000      0.000
REMARK SMILES CC(C)[C@@H]1CSC[C@@H](C(=O)NCCCNC(=O)c2ccc(-c3c4nc(c(-c5ccc(S(=O)(=O)[O-])cc5)c5ccc([nH]5)c(-c5ccc(S(=O)(=O)[O-])cc5)c5nc(c(-c6ccc(S(=O)(=O)[O-])cc6)c6ccc3[nH]6)C=C5)C=C4)cc2)[NH2+]1
REMARK SMILES IDX 14 1 13 2 12 3 11 4 9 5 10 6 8 8 4 9 5 10 78 11 6 12 7 15
REMARK SMILES IDX 2 16 1 17 3 18 15 19 16 20 17 22 18 23 19 24 77 25 20 26
REMARK SMILES IDX 76 27 21 28 22 29 23 30 70 31 24 32 75 33 69 34 71 35 25 36
REMARK SMILES IDX 74 37 68 38 67 39 26 41 56 42 37 43 55 44 38 45 41 46 54 47
REMARK SMILES IDX 72 48 39 49 40 50 53 52 73 53 42 54 27 55 28 56 36 57 29 58
REMARK SMILES IDX 35 59 30 60 31 61 32 62 33 63 34 64 57 65 58 66 66 67 59 68
REMARK SMILES IDX 65 69 60 70 61 71 62 72 63 73 64 74 43 75 44 76 52 77 45 78
REMARK SMILES IDX 51 79 46 80 47 81 48 82 49 83 50 84
REMARK H PARENT 11 7 78 13 78 14 15 21 71 40 41 51
REMARK Flexibility Score: inf
ROOT
ATOM      1  C   UNL A   1      35.488  30.195  28.289  1.00  0.00     0.118 C 
ENDROOT
BRANCH   1   2
ATOM      2  C   UNL A   1      34.765  31.362  27.636  1.00  0.00     0.042 C 
BRANCH   2   3
ATOM      3  C   UNL A   1      35.321  32.723  28.017  1.00  0.00     0.118 C 
BRANCH   3   4
ATOM      4  N   UNL A   1      34.355  33.551  28.722  1.00  0.00    -0.351 N 
ATOM      5  C   UNL A   1      34.340  33.933  30.034  1.00  0.00     0.279 C 
ATOM      6  O   UNL A   1      33.406  34.635  30.429  1.00  0.00    -0.268 OA
ATOM      7  H   UNL A   1      33.605  33.882  28.176  1.00  0.00     0.163 HD
BRANCH   5   8
ATOM      8  C   UNL A   1      35.472  33.504  30.989  1.00  0.00     0.282 C 
ATOM      9  C   UNL A   1      37.713  34.221  31.771  1.00  0.00     0.195 C 
ATOM     10  C   UNL A   1      37.261  34.311  33.241  1.00  0.00     0.135 C 
ATOM     11  N   UNL A   1      36.582  34.482  30.859  1.00  0.00    -0.332 N 
ATOM     12  S   UNL A   1      36.041  33.060  33.747  1.00  0.00    -0.149 SA
ATOM     13  H   UNL A   1      36.928  34.451  29.900  1.00  0.00     0.347 HD
ATOM     14  H   UNL A   1      36.204  35.396  31.106  1.00  0.00     0.347 HD
ATOM     15  C   UNL A   1      34.859  33.257  32.381  1.00  0.00     0.145 C 
BRANCH   9  16
ATOM     16  C   UNL A   1      38.559  32.984  31.315  1.00  0.00     0.042 C 
ATOM     17  C   UNL A   1      39.014  33.165  29.858  1.00  0.00     0.014 C 
ATOM     18  C   UNL A   1      39.781  32.645  32.170  1.00  0.00     0.014 C 
ENDBRANCH   9  16
ENDBRANCH   5   8
ENDBRANCH   3   4
ENDBRANCH   2   3
ENDBRANCH   1   2
BRANCH   1  19
ATOM     19  N   UNL A   1      35.525  30.294  29.743  1.00  0.00    -0.352 N 
ATOM     20  C   UNL A   1      36.513  29.949  30.628  1.00  0.00     0.251 C 
ATOM     21  H   UNL A   1      34.712  30.668  30.154  1.00  0.00     0.163 HD
ATOM     22  O   UNL A   1      36.264  29.943  31.835  1.00  0.00    -0.269 OA
BRANCH  20  23
ATOM     23  C   UNL A   1      37.859  29.575  30.147  1.00  0.00     0.039 A 
ATOM     24  C   UNL A   1      38.162  29.733  28.792  1.00  0.00     0.014 A 
ATOM     25  C   UNL A   1      38.815  29.044  31.017  1.00  0.00     0.014 A 
ATOM     26  C   UNL A   1      39.435  29.400  28.323  1.00  0.00     0.010 A 
ATOM     27  C   UNL A   1      40.112  28.815  30.571  1.00  0.00     0.010 A 
ATOM     28  C   UNL A   1      40.429  28.964  29.214  1.00  0.00    -0.014 A 
BRANCH  28  29
ATOM     29  C   UNL A   1      41.791  28.611  28.738  1.00  0.00     0.031 A 
ATOM     30  C   UNL A   1      42.862  29.669  28.668  1.00  0.00     0.074 A 
ATOM     31  C   UNL A   1      42.053  27.354  28.329  1.00  0.00     0.049 A 
ATOM     32  N   UNL A   1      44.097  29.565  28.252  1.00  0.00    -0.248 NA
ATOM     33  C   UNL A   1      42.486  31.029  29.090  1.00  0.00     0.031 C 
ATOM     34  C   UNL A   1      41.088  26.252  28.300  1.00  0.00     0.029 A 
ATOM     35  N   UNL A   1      43.211  26.790  27.858  1.00  0.00    -0.354 N 
ATOM     36  C   UNL A   1      44.638  30.843  28.349  1.00  0.00     0.074 A 
ATOM     37  C   UNL A   1      43.578  31.719  28.797  1.00  0.00     0.031 C 
ATOM     38  C   UNL A   1      41.703  25.139  27.868  1.00  0.00     0.029 A 
ATOM     39  C   UNL A   1      43.092  25.455  27.555  1.00  0.00     0.049 A 
ATOM     40  H   UNL A   1      44.049  27.295  27.747  1.00  0.00     0.167 HD
ATOM     41  C   UNL A   1      45.909  31.250  28.115  1.00  0.00     0.031 A 
ATOM     42  C   UNL A   1      44.000  24.581  27.078  1.00  0.00     0.031 A 
ATOM     43  C   UNL A   1      46.965  30.373  27.684  1.00  0.00     0.049 A 
ATOM     44  C   UNL A   1      45.408  25.052  26.833  1.00  0.00     0.074 A 
ATOM     45  C   UNL A   1      48.298  30.673  27.466  1.00  0.00     0.029 A 
ATOM     46  N   UNL A   1      46.806  29.023  27.408  1.00  0.00    -0.354 N 
ATOM     47  N   UNL A   1      45.915  26.252  26.990  1.00  0.00    -0.248 NA
ATOM     48  C   UNL A   1      46.371  24.046  26.367  1.00  0.00     0.031 C 
ATOM     49  C   UNL A   1      48.935  29.515  27.009  1.00  0.00     0.029 A 
ATOM     50  C   UNL A   1      48.015  28.479  27.006  1.00  0.00     0.049 A 
ATOM     51  H   UNL A   1      45.962  28.525  27.487  1.00  0.00     0.167 HD
ATOM     52  C   UNL A   1      47.264  26.137  26.672  1.00  0.00     0.074 A 
ATOM     53  C   UNL A   1      47.494  24.748  26.329  1.00  0.00     0.031 C 
ATOM     54  C   UNL A   1      48.226  27.094  26.666  1.00  0.00     0.031 A 
BRANCH  41  55
ATOM     55  C   UNL A   1      46.221  32.710  28.326  1.00  0.00    -0.014 A 
ATOM     56  C   UNL A   1      46.085  33.640  27.277  1.00  0.00     0.010 A 
ATOM     57  C   UNL A   1      46.627  33.165  29.593  1.00  0.00     0.010 A 
ATOM     58  C   UNL A   1      46.398  34.987  27.479  1.00  0.00     0.020 A 
ATOM     59  C   UNL A   1      46.909  34.518  29.808  1.00  0.00     0.020 A 
ATOM     60  C   UNL A   1      46.811  35.417  28.743  1.00  0.00     0.054 A 
BRANCH  60  61
ATOM     61  S   UNL A   1      47.192  37.174  28.980  1.00  0.00     0.124 S 
ATOM     62  O   UNL A   1      47.098  37.309  30.432  1.00  0.00    -0.237 OA
ATOM     63  O   UNL A   1      48.538  37.287  28.426  1.00  0.00    -0.237 OA
ATOM     64  O   UNL A   1      46.149  37.861  28.223  1.00  0.00    -0.744 OA
ENDBRANCH  60  61
ENDBRANCH  41  55
BRANCH  42  65
ATOM     65  C   UNL A   1      43.607  23.167  26.824  1.00  0.00    -0.014 A 
ATOM     66  C   UNL A   1      43.885  22.556  25.589  1.00  0.00     0.010 A 
ATOM     67  C   UNL A   1      42.968  22.417  27.828  1.00  0.00     0.010 A 
ATOM     68  C   UNL A   1      43.514  21.229  25.354  1.00  0.00     0.020 A 
ATOM     69  C   UNL A   1      42.621  21.081  27.608  1.00  0.00     0.020 A 
ATOM     70  C   UNL A   1      42.886  20.498  26.368  1.00  0.00     0.054 A 
BRANCH  70  71
ATOM     71  S   UNL A   1      42.460  18.762  26.061  1.00  0.00     0.124 S 
ATOM     72  O   UNL A   1      42.715  18.151  27.362  1.00  0.00    -0.237 OA
ATOM     73  O   UNL A   1      41.057  18.848  25.665  1.00  0.00    -0.237 OA
ATOM     74  O   UNL A   1      43.377  18.368  24.994  1.00  0.00    -0.744 OA
ENDBRANCH  70  71
ENDBRANCH  42  65
BRANCH  54  75
ATOM     75  C   UNL A   1      49.627  26.663  26.320  1.00  0.00    -0.014 A 
ATOM     76  C   UNL A   1      50.456  26.034  27.266  1.00  0.00     0.010 A 
ATOM     77  C   UNL A   1      50.105  26.856  25.011  1.00  0.00     0.010 A 
ATOM     78  C   UNL A   1      51.754  25.649  26.921  1.00  0.00     0.020 A 
ATOM     79  C   UNL A   1      51.390  26.443  24.653  1.00  0.00     0.020 A 
ATOM     80  C   UNL A   1      52.214  25.858  25.617  1.00  0.00     0.054 A 
BRANCH  80  81
ATOM     81  S   UNL A   1      53.893  25.328  25.186  1.00  0.00     0.124 S 
ATOM     82  O   UNL A   1      54.016  25.799  23.809  1.00  0.00    -0.237 OA
ATOM     83  O   UNL A   1      54.714  26.033  26.168  1.00  0.00    -0.237 OA
ATOM     84  O   UNL A   1      53.850  23.876  25.346  1.00  0.00    -0.744 OA
ENDBRANCH  80  81
ENDBRANCH  54  75
ENDBRANCH  28  29
ENDBRANCH  20  23
ENDBRANCH   1  19
TORSDOF 14
ENDMDL
MODEL 2
REMARK VINA RESULT:     -10.5      5.469     13.656
REMARK SMILES CC(C)[C@@H]1CSC[C@@H](C(=O)NCCCNC(=O)c2ccc(-c3c4nc(c(-c5ccc(S(=O)(=O)[O-])cc5)c5ccc([nH]5)c(-c5ccc(S(=O)(=O)[O-])cc5)c5nc(c(-c6ccc(S(=O)(=O)[O-])cc6)c6ccc3[nH]6)C=C5)C=C4)cc2)[NH2+]1
REMARK SMILES IDX 14 1 13 2 12 3 11 4 9 5 10 6 8 8 4 9 5 10 78 11 6 12 7 15
REMARK SMILES IDX 2 16 1 17 3 18 15 19 16 20 17 22 18 23 19 24 77 25 20 26
REMARK SMILES IDX 76 27 21 28 22 29 23 30 70 31 24 32 75 33 69 34 71 35 25 36
REMARK SMILES IDX 74 37 68 38 67 39 26 41 56 42 37 43 55 44 38 45 41 46 54 47
REMARK SMILES IDX 72 48 39 49 40 50 53 52 73 53 42 54 27 55 28 56 36 57 29 58
REMARK SMILES IDX 35 59 30 60 31 61 32 62 33 63 34 64 57 65 58 66 66 67 59 68
REMARK SMILES IDX 65 69 60 70 61 71 62 72 63 73 64 74 43 75 44 76 52 77 45 78
REMARK SMILES IDX 51 79 46 80 47 81 48 82 49 83 50 84
REMARK H PARENT 11 7 78 13 78 14 15 21 71 40 41 51
REMARK Flexibility Score: inf
ROOT
ATOM      1  C   UNL A   1      40.431  23.256  27.337  1.00  0.00     0.118 C 
ENDROOT
BRANCH   1   2
ATOM      2  C   UNL A   1      40.450  21.758  27.081  1.00  0.00     0.042 C 
BRANCH   2   3
ATOM      3  C   UNL A   1      41.754  21.084  27.468  1.00  0.00     0.118 C 
BRANCH   3   4
ATOM      4  N   UNL A   1      42.535  20.662  26.315  1.00  0.00    -0.351 N 
ATOM      5  C   UNL A   1      43.528  21.330  25.654  1.00  0.00     0.279 C 
ATOM      6  O   UNL A   1      44.054  20.786  24.681  1.00  0.00    -0.268 OA
ATOM      7  H   UNL A   1      42.318  19.770  25.960  1.00  0.00     0.163 HD
BRANCH   5   8
ATOM      8  C   UNL A   1      43.984  22.725  26.127  1.00  0.00     0.282 C 
ATOM      9  C   UNL A   1      45.385  23.814  27.858  1.00  0.00     0.195 C 
ATOM     10  C   UNL A   1      46.302  24.481  26.815  1.00  0.00     0.135 C 
ATOM     11  N   UNL A   1      44.829  22.551  27.336  1.00  0.00    -0.332 N 
ATOM     12  S   UNL A   1      45.466  25.012  25.288  1.00  0.00    -0.149 SA
ATOM     13  H   UNL A   1      44.261  22.123  28.067  1.00  0.00     0.347 HD
ATOM     14  H   UNL A   1      45.619  21.966  27.065  1.00  0.00     0.347 HD
ATOM     15  C   UNL A   1      44.568  23.477  24.915  1.00  0.00     0.145 C 
BRANCH   9  16
ATOM     16  C   UNL A   1      44.295  24.684  28.572  1.00  0.00     0.042 C 
ATOM     17  C   UNL A   1      43.499  23.821  29.564  1.00  0.00     0.014 C 
ATOM     18  C   UNL A   1      44.793  25.933  29.300  1.00  0.00     0.014 C 
ENDBRANCH   9  16
ENDBRANCH   5   8
ENDBRANCH   3   4
ENDBRANCH   2   3
ENDBRANCH   1   2
BRANCH   1  19
ATOM     19  N   UNL A   1      41.009  24.025  26.242  1.00  0.00    -0.352 N 
ATOM     20  C   UNL A   1      41.232  25.372  26.129  1.00  0.00     0.251 C 
ATOM     21  H   UNL A   1      41.283  23.492  25.461  1.00  0.00     0.163 HD
ATOM     22  O   UNL A   1      41.563  25.838  25.036  1.00  0.00    -0.269 OA
BRANCH  20  23
ATOM     23  C   UNL A   1      41.067  26.265  27.296  1.00  0.00     0.039 A 
ATOM     24  C   UNL A   1      41.930  27.355  27.441  1.00  0.00     0.014 A 
ATOM     25  C   UNL A   1      40.088  26.019  28.260  1.00  0.00     0.014 A 
ATOM     26  C   UNL A   1      41.778  28.218  28.527  1.00  0.00     0.010 A 
ATOM     27  C   UNL A   1      39.869  26.938  29.281  1.00  0.00     0.010 A 
ATOM     28  C   UNL A   1      40.729  28.032  29.443  1.00  0.00    -0.014 A 
BRANCH  28  29
ATOM     29  C   UNL A   1      40.546  28.942  30.602  1.00  0.00     0.031 A 
ATOM     30  C   UNL A   1      41.405  28.781  31.829  1.00  0.00     0.074 A 
ATOM     31  C   UNL A   1      39.583  29.884  30.568  1.00  0.00     0.049 A 
ATOM     32  N   UNL A   1      41.376  29.454  32.950  1.00  0.00    -0.248 NA
ATOM     33  C   UNL A   1      42.406  27.700  31.807  1.00  0.00     0.031 C 
ATOM     34  C   UNL A   1      38.653  30.108  29.458  1.00  0.00     0.029 A 
ATOM     35  N   UNL A   1      39.225  30.831  31.494  1.00  0.00    -0.354 N 
ATOM     36  C   UNL A   1      42.339  28.871  33.767  1.00  0.00     0.074 A 
ATOM     37  C   UNL A   1      42.887  27.748  33.040  1.00  0.00     0.031 C 
ATOM     38  C   UNL A   1      37.855  31.147  29.755  1.00  0.00     0.029 A 
ATOM     39  C   UNL A   1      38.190  31.639  31.087  1.00  0.00     0.049 A 
ATOM     40  H   UNL A   1      39.668  30.922  32.368  1.00  0.00     0.167 HD
ATOM     41  C   UNL A   1      42.754  29.252  34.999  1.00  0.00     0.031 A 
ATOM     42  C   UNL A   1      37.578  32.661  31.716  1.00  0.00     0.031 A 
ATOM     43  C   UNL A   1      42.217  30.379  35.713  1.00  0.00     0.049 A 
ATOM     44  C   UNL A   1      38.060  33.072  33.081  1.00  0.00     0.074 A 
ATOM     45  C   UNL A   1      42.600  30.880  36.945  1.00  0.00     0.029 A 
ATOM     46  N   UNL A   1      41.183  31.184  35.256  1.00  0.00    -0.354 N 
ATOM     47  N   UNL A   1      39.015  32.546  33.811  1.00  0.00    -0.248 NA
ATOM     48  C   UNL A   1      37.395  34.227  33.697  1.00  0.00     0.031 C 
ATOM     49  C   UNL A   1      41.762  31.956  37.256  1.00  0.00     0.029 A 
ATOM     50  C   UNL A   1      40.903  32.168  36.189  1.00  0.00     0.049 A 
ATOM     51  H   UNL A   1      40.718  31.072  34.397  1.00  0.00     0.167 HD
ATOM     52  C   UNL A   1      39.086  33.327  34.959  1.00  0.00     0.074 A 
ATOM     53  C   UNL A   1      38.089  34.369  34.817  1.00  0.00     0.031 C 
ATOM     54  C   UNL A   1      39.904  33.196  36.033  1.00  0.00     0.031 A 
BRANCH  41  55
ATOM     55  C   UNL A   1      43.844  28.437  35.647  1.00  0.00    -0.014 A 
ATOM     56  C   UNL A   1      43.537  27.343  36.479  1.00  0.00     0.010 A 
ATOM     57  C   UNL A   1      45.193  28.749  35.402  1.00  0.00     0.010 A 
ATOM     58  C   UNL A   1      44.555  26.608  37.091  1.00  0.00     0.020 A 
ATOM     59  C   UNL A   1      46.217  27.996  35.987  1.00  0.00     0.020 A 
ATOM     60  C   UNL A   1      45.890  26.942  36.842  1.00  0.00     0.054 A 
BRANCH  60  61
ATOM     61  S   UNL A   1      47.192  25.960  37.637  1.00  0.00     0.124 S 
ATOM     62  O   UNL A   1      48.374  26.787  37.407  1.00  0.00    -0.237 OA
ATOM     63  O   UNL A   1      46.737  25.885  39.022  1.00  0.00    -0.237 OA
ATOM     64  O   UNL A   1      47.167  24.695  36.906  1.00  0.00    -0.744 OA
ENDBRANCH  60  61
ENDBRANCH  41  55
BRANCH  42  65
ATOM     65  C   UNL A   1      36.458  33.379  31.047  1.00  0.00    -0.014 A 
ATOM     66  C   UNL A   1      35.282  33.689  31.752  1.00  0.00     0.010 A 
ATOM     67  C   UNL A   1      36.572  33.775  29.702  1.00  0.00     0.010 A 
ATOM     68  C   UNL A   1      34.232  34.363  31.121  1.00  0.00     0.020 A 
ATOM     69  C   UNL A   1      35.536  34.475  29.075  1.00  0.00     0.020 A 
ATOM     70  C   UNL A   1      34.368  34.755  29.785  1.00  0.00     0.054 A 
BRANCH  70  71
ATOM     71  S   UNL A   1      33.016  35.675  29.000  1.00  0.00     0.124 S 
ATOM     72  O   UNL A   1      32.381  34.645  28.185  1.00  0.00    -0.237 OA
ATOM     73  O   UNL A   1      32.243  36.139  30.150  1.00  0.00    -0.237 OA
ATOM     74  O   UNL A   1      33.704  36.727  28.256  1.00  0.00    -0.744 OA
ENDBRANCH  70  71
ENDBRANCH  42  65
BRANCH  54  75
ATOM     75  C   UNL A   1      39.788  34.231  37.122  1.00  0.00    -0.014 A 
ATOM     76  C   UNL A   1      39.065  33.977  38.301  1.00  0.00     0.010 A 
ATOM     77  C   UNL A   1      40.451  35.463  36.975  1.00  0.00     0.010 A 
ATOM     78  C   UNL A   1      38.969  34.956  39.293  1.00  0.00     0.020 A 
ATOM     79  C   UNL A   1      40.384  36.432  37.978  1.00  0.00     0.020 A 
ATOM     80  C   UNL A   1      39.627  36.179  39.124  1.00  0.00     0.054 A 
BRANCH  80  81
ATOM     81  S   UNL A   1      39.507  37.425  40.436  1.00  0.00     0.124 S 
ATOM     82  O   UNL A   1      38.823  36.686  41.493  1.00  0.00    -0.237 OA
ATOM     83  O   UNL A   1      40.908  37.748  40.699  1.00  0.00    -0.237 OA
ATOM     84  O   UNL A   1      38.730  38.500  39.824  1.00  0.00    -0.744 OA
ENDBRANCH  80  81
ENDBRANCH  54  75
ENDBRANCH  28  29
ENDBRANCH  20  23
ENDBRANCH   1  19
TORSDOF 14
ENDMDL
MODEL 3
REMARK VINA RESULT:     -10.4      4.439      6.316
REMARK SMILES CC(C)[C@@H]1CSC[C@@H](C(=O)NCCCNC(=O)c2ccc(-c3c4nc(c(-c5ccc(S(=O)(=O)[O-])cc5)c5ccc([nH]5)c(-c5ccc(S(=O)(=O)[O-])cc5)c5nc(c(-c6ccc(S(=O)(=O)[O-])cc6)c6ccc3[nH]6)C=C5)C=C4)cc2)[NH2+]1
REMARK SMILES IDX 14 1 13 2 12 3 11 4 9 5 10 6 8 8 4 9 5 10 78 11 6 12 7 15
REMARK SMILES IDX 2 16 1 17 3 18 15 19 16 20 17 22 18 23 19 24 77 25 20 26
REMARK SMILES IDX 76 27 21 28 22 29 23 30 70 31 24 32 75 33 69 34 71 35 25 36
REMARK SMILES IDX 74 37 68 38 67 39 26 41 56 42 37 43 55 44 38 45 41 46 54 47
REMARK SMILES IDX 72 48 39 49 40 50 53 52 73 53 42 54 27 55 28 56 36 57 29 58
REMARK SMILES IDX 35 59 30 60 31 61 32 62 33 63 34 64 57 65 58 66 66 67 59 68
REMARK SMILES IDX 65 69 60 70 61 71 62 72 63 73 64 74 43 75 44 76 52 77 45 78
REMARK SMILES IDX 51 79 46 80 47 81 48 82 49 83 50 84
REMARK H PARENT 11 7 78 13 78 14 15 21 71 40 41 51
REMARK Flexibility Score: inf
ROOT
ATOM      1  C   UNL A   1      33.638  28.246  27.038  1.00  0.00     0.118 C 
ENDROOT
BRANCH   1   2
ATOM      2  C   UNL A   1      32.309  27.539  26.828  1.00  0.00     0.042 C 
BRANCH   2   3
ATOM      3  C   UNL A   1      32.441  26.125  26.292  1.00  0.00     0.118 C 
BRANCH   3   4
ATOM      4  N   UNL A   1      31.502  25.198  26.905  1.00  0.00    -0.351 N 
ATOM      5  C   UNL A   1      31.404  23.843  26.756  1.00  0.00     0.279 C 
ATOM      6  O   UNL A   1      30.513  23.249  27.368  1.00  0.00    -0.268 OA
ATOM      7  H   UNL A   1      30.842  25.605  27.513  1.00  0.00     0.163 HD
BRANCH   5   8
ATOM      8  C   UNL A   1      32.395  23.080  25.854  1.00  0.00     0.282 C 
ATOM      9  C   UNL A   1      34.641  22.031  25.908  1.00  0.00     0.195 C 
ATOM     10  C   UNL A   1      34.091  20.642  25.534  1.00  0.00     0.135 C 
ATOM     11  N   UNL A   1      33.627  22.815  26.640  1.00  0.00    -0.332 N 
ATOM     12  S   UNL A   1      32.686  20.658  24.378  1.00  0.00    -0.149 SA
ATOM     13  H   UNL A   1      34.039  23.710  26.903  1.00  0.00     0.347 HD
ATOM     14  H   UNL A   1      33.349  22.262  27.451  1.00  0.00     0.347 HD
ATOM     15  C   UNL A   1      31.649  21.890  25.219  1.00  0.00     0.145 C 
BRANCH   9  16
ATOM     16  C   UNL A   1      35.356  22.884  24.805  1.00  0.00     0.042 C 
ATOM     17  C   UNL A   1      35.914  24.177  25.419  1.00  0.00     0.014 C 
ATOM     18  C   UNL A   1      36.476  22.188  24.030  1.00  0.00     0.014 C 
ENDBRANCH   9  16
ENDBRANCH   5   8
ENDBRANCH   3   4
ENDBRANCH   2   3
ENDBRANCH   1   2
BRANCH   1  19
ATOM     19  N   UNL A   1      33.481  29.654  27.381  1.00  0.00    -0.352 N 
ATOM     20  C   UNL A   1      34.339  30.508  28.024  1.00  0.00     0.251 C 
ATOM     21  H   UNL A   1      32.624  30.055  27.108  1.00  0.00     0.163 HD
ATOM     22  O   UNL A   1      33.931  31.616  28.379  1.00  0.00    -0.269 OA
BRANCH  20  23
ATOM     23  C   UNL A   1      35.734  30.108  28.302  1.00  0.00     0.039 A 
ATOM     24  C   UNL A   1      36.680  30.193  27.277  1.00  0.00     0.014 A 
ATOM     25  C   UNL A   1      36.110  29.623  29.557  1.00  0.00     0.014 A 
ATOM     26  C   UNL A   1      38.007  29.836  27.526  1.00  0.00     0.010 A 
ATOM     27  C   UNL A   1      37.449  29.370  29.833  1.00  0.00     0.010 A 
ATOM     28  C   UNL A   1      38.408  29.446  28.814  1.00  0.00    -0.014 A 
BRANCH  28  29
ATOM     29  C   UNL A   1      39.814  29.067  29.103  1.00  0.00     0.031 A 
ATOM     30  C   UNL A   1      40.749  30.066  29.736  1.00  0.00     0.074 A 
ATOM     31  C   UNL A   1      40.263  27.844  28.758  1.00  0.00     0.049 A 
ATOM     32  N   UNL A   1      42.015  29.936  30.036  1.00  0.00    -0.248 NA
ATOM     33  C   UNL A   1      40.196  31.397  30.042  1.00  0.00     0.031 C 
ATOM     34  C   UNL A   1      39.471  26.805  28.094  1.00  0.00     0.029 A 
ATOM     35  N   UNL A   1      41.497  27.266  28.919  1.00  0.00    -0.354 N 
ATOM     36  C   UNL A   1      42.410  31.166  30.550  1.00  0.00     0.074 A 
ATOM     37  C   UNL A   1      41.271  32.050  30.458  1.00  0.00     0.031 C 
ATOM     38  C   UNL A   1      40.229  25.708  27.936  1.00  0.00     0.029 A 
ATOM     39  C   UNL A   1      41.568  25.976  28.451  1.00  0.00     0.049 A 
ATOM     40  H   UNL A   1      42.260  27.732  29.331  1.00  0.00     0.167 HD
ATOM     41  C   UNL A   1      43.606  31.523  31.080  1.00  0.00     0.031 A 
ATOM     42  C   UNL A   1      42.595  25.104  28.438  1.00  0.00     0.031 A 
ATOM     43  C   UNL A   1      44.734  30.636  31.183  1.00  0.00     0.049 A 
ATOM     44  C   UNL A   1      43.911  25.519  29.038  1.00  0.00     0.074 A 
ATOM     45  C   UNL A   1      45.973  30.882  31.746  1.00  0.00     0.029 A 
ATOM     46  N   UNL A   1      44.756  29.330  30.715  1.00  0.00    -0.354 N 
ATOM     47  N   UNL A   1      44.247  26.668  29.576  1.00  0.00    -0.248 NA
ATOM     48  C   UNL A   1      44.980  24.512  29.048  1.00  0.00     0.031 C 
ATOM     49  C   UNL A   1      46.763  29.741  31.573  1.00  0.00     0.029 A 
ATOM     50  C   UNL A   1      45.995  28.763  30.962  1.00  0.00     0.049 A 
ATOM     51  H   UNL A   1      44.005  28.875  30.274  1.00  0.00     0.167 HD
ATOM     52  C   UNL A   1      45.556  26.510  30.017  1.00  0.00     0.074 A 
ATOM     53  C   UNL A   1      45.943  25.151  29.696  1.00  0.00     0.031 C 
ATOM     54  C   UNL A   1      46.365  27.408  30.633  1.00  0.00     0.031 A 
BRANCH  41  55
ATOM     55  C   UNL A   1      43.746  32.936  31.587  1.00  0.00    -0.014 A 
ATOM     56  C   UNL A   1      44.224  33.964  30.751  1.00  0.00     0.010 A 
ATOM     57  C   UNL A   1      43.371  33.248  32.906  1.00  0.00     0.010 A 
ATOM     58  C   UNL A   1      44.370  35.264  31.240  1.00  0.00     0.020 A 
ATOM     59  C   UNL A   1      43.485  34.556  33.389  1.00  0.00     0.020 A 
ATOM     60  C   UNL A   1      44.002  35.551  32.557  1.00  0.00     0.054 A 
BRANCH  60  61
ATOM     61  S   UNL A   1      44.185  37.253  33.158  1.00  0.00     0.124 S 
ATOM     62  O   UNL A   1      45.578  37.266  33.601  1.00  0.00    -0.237 OA
ATOM     63  O   UNL A   1      43.898  38.046  31.967  1.00  0.00    -0.237 OA
ATOM     64  O   UNL A   1      43.194  37.353  34.226  1.00  0.00    -0.744 OA
ENDBRANCH  60  61
ENDBRANCH  41  55
BRANCH  42  65
ATOM     65  C   UNL A   1      42.409  23.747  27.856  1.00  0.00    -0.014 A 
ATOM     66  C   UNL A   1      42.686  23.504  26.499  1.00  0.00     0.010 A 
ATOM     67  C   UNL A   1      41.970  22.682  28.664  1.00  0.00     0.010 A 
ATOM     68  C   UNL A   1      42.509  22.228  25.956  1.00  0.00     0.020 A 
ATOM     69  C   UNL A   1      41.820  21.398  28.132  1.00  0.00     0.020 A 
ATOM     70  C   UNL A   1      42.080  21.181  26.778  1.00  0.00     0.054 A 
BRANCH  70  71
ATOM     71  S   UNL A   1      41.907  19.522  26.066  1.00  0.00     0.124 S 
ATOM     72  O   UNL A   1      42.417  18.675  27.139  1.00  0.00    -0.237 OA
ATOM     73  O   UNL A   1      40.470  19.434  25.817  1.00  0.00    -0.237 OA
ATOM     74  O   UNL A   1      42.737  19.577  24.864  1.00  0.00    -0.744 OA
ENDBRANCH  70  71
ENDBRANCH  42  65
BRANCH  54  75
ATOM     75  C   UNL A   1      47.736  26.937  31.044  1.00  0.00    -0.014 A 
ATOM     76  C   UNL A   1      47.957  26.320  32.288  1.00  0.00     0.010 A 
ATOM     77  C   UNL A   1      48.810  27.079  30.148  1.00  0.00     0.010 A 
ATOM     78  C   UNL A   1      49.239  25.896  32.646  1.00  0.00     0.020 A 
ATOM     79  C   UNL A   1      50.087  26.627  30.489  1.00  0.00     0.020 A 
ATOM     80  C   UNL A   1      50.298  26.056  31.745  1.00  0.00     0.054 A 
BRANCH  80  81
ATOM     81  S   UNL A   1      51.947  25.476  32.223  1.00  0.00     0.124 S 
ATOM     82  O   UNL A   1      51.705  24.061  32.493  1.00  0.00    -0.237 OA
ATOM     83  O   UNL A   1      52.745  25.762  31.032  1.00  0.00    -0.237 OA
ATOM     84  O   UNL A   1      52.275  26.286  33.395  1.00  0.00    -0.744 OA
ENDBRANCH  80  81
ENDBRANCH  54  75
ENDBRANCH  28  29
ENDBRANCH  20  23
ENDBRANCH   1  19
TORSDOF 14
ENDMDL
