MODEL 1
REMARK VINA RESULT:     -13.9      0.000      0.000
REMARK SMILES Cc1c(NCc2ccccn2)cccc1C(=O)N1CCOC[C@@H]1CC(=O)NCCCNC(=O)c1ccc(-c2c3nc(c(-c4ccc(S(=O)(=O)[O-])cc4)c4ccc([nH]4)c(-c4ccc(S(=O)(=O)[O-])cc4)c4nc(c(-c5ccc(S(=O)(=O)[O-])cc5)c5ccc2[nH]5)C=C4)C=C3)cc1
REMARK SMILES IDX 25 1 26 2 27 3 24 5 23 6 18 7 19 8 20 9 22 10 21 11 16 12
REMARK SMILES IDX 17 13 15 14 1 15 2 16 3 17 12 18 14 19 13 20 4 21 5 23 6 24
REMARK SMILES IDX 7 25 11 26 8 27 10 28 9 29 28 30 29 31 30 32 31 33 32 34
REMARK SMILES IDX 33 36 34 37 35 38 93 39 36 40 92 41 37 42 38 43 39 44 86 45
REMARK SMILES IDX 40 46 91 47 85 48 87 49 41 50 90 51 84 52 83 53 42 55 72 56
REMARK SMILES IDX 53 57 71 58 54 59 57 60 70 61 88 62 55 63 56 64 69 66 89 67
REMARK SMILES IDX 58 68 43 69 44 70 52 71 45 72 51 73 46 74 47 75 48 76 49 77
REMARK SMILES IDX 50 78 73 79 74 80 82 81 75 82 81 83 76 84 77 85 78 86 79 87
REMARK SMILES IDX 80 88 59 89 60 90 68 91 61 92 67 93 62 94 63 95 64 96 65 97
REMARK SMILES IDX 66 98
REMARK H PARENT 27 4 4 22 31 35 87 54 57 65
REMARK Flexibility Score: inf
ROOT
ATOM      1  C   UNL A   1      33.600  28.599  25.137  1.00  0.00     0.222 C 
ATOM      2  O   UNL A   1      33.961  28.511  23.982  1.00  0.00    -0.275 OA
ATOM      3  N   UNL A   1      34.321  29.348  26.088  1.00  0.00    -0.356 N 
ATOM      4  H   UNL A   1      35.297  29.277  26.195  1.00  0.00     0.163 HD
ENDROOT
BRANCH   1   5
ATOM      5  C   UNL A   1      32.318  27.933  25.651  1.00  0.00     0.127 C 
BRANCH   5   6
ATOM      6  C   UNL A   1      31.110  28.254  24.774  1.00  0.00     0.120 C 
ATOM      7  N   UNL A   1      30.878  27.478  23.444  1.00  0.00    -0.331 N 
ATOM      8  C   UNL A   1      29.624  28.045  22.824  1.00  0.00     0.148 C 
ATOM      9  C   UNL A   1      29.779  29.600  22.629  1.00  0.00     0.181 C 
ATOM     10  C   UNL A   1      31.003  29.838  24.585  1.00  0.00     0.185 C 
ATOM     11  O   UNL A   1      29.805  30.235  23.915  1.00  0.00    -0.377 OA
BRANCH   7  12
ATOM     12  C   UNL A   1      31.522  26.161  22.839  1.00  0.00     0.254 C 
ATOM     13  O   UNL A   1      31.785  26.248  21.632  1.00  0.00    -0.269 OA
BRANCH  12  14
ATOM     14  C   UNL A   1      32.004  24.585  23.677  1.00  0.00     0.045 A 
ATOM     15  C   UNL A   1      34.982  23.732  23.512  1.00  0.00     0.047 C 
ATOM     16  C   UNL A   1      33.343  23.592  23.827  1.00  0.00    -0.015 A 
ATOM     17  C   UNL A   1      33.379  22.424  24.570  1.00  0.00     0.038 A 
ATOM     18  C   UNL A   1      32.244  22.275  25.357  1.00  0.00     0.026 A 
ATOM     19  C   UNL A   1      30.886  24.117  24.355  1.00  0.00     0.014 A 
ATOM     20  C   UNL A   1      31.031  23.012  25.203  1.00  0.00     0.003 A 
BRANCH  17  21
ATOM     21  N   UNL A   1      34.476  21.560  24.590  1.00  0.00    -0.379 N 
ATOM     22  H   UNL A   1      35.282  22.055  24.320  1.00  0.00     0.160 HD
BRANCH  21  23
ATOM     23  C   UNL A   1      34.864  20.082  24.893  1.00  0.00     0.169 C 
BRANCH  23  24
ATOM     24  C   UNL A   1      34.217  18.664  24.699  1.00  0.00     0.059 A 
ATOM     25  C   UNL A   1      34.695  17.551  24.020  1.00  0.00     0.026 A 
ATOM     26  N   UNL A   1      33.118  18.441  25.483  1.00  0.00    -0.259 NA
ATOM     27  C   UNL A   1      33.975  16.339  23.934  1.00  0.00     0.004 A 
ATOM     28  C   UNL A   1      32.472  17.237  25.471  1.00  0.00     0.111 A 
ATOM     29  C   UNL A   1      32.832  16.173  24.682  1.00  0.00     0.020 A 
ENDBRANCH  23  24
ENDBRANCH  21  23
ENDBRANCH  17  21
ENDBRANCH  12  14
ENDBRANCH   7  12
ENDBRANCH   5   6
ENDBRANCH   1   5
BRANCH   3  30
ATOM     30  C   UNL A   1      33.512  30.221  26.888  1.00  0.00     0.117 C 
BRANCH  30  31
ATOM     31  C   UNL A   1      33.809  31.822  27.894  1.00  0.00     0.042 C 
BRANCH  31  32
ATOM     32  C   UNL A   1      35.265  32.776  28.484  1.00  0.00     0.118 C 
BRANCH  32  33
ATOM     33  N   UNL A   1      36.686  32.485  29.030  1.00  0.00    -0.352 N 
ATOM     34  C   UNL A   1      37.098  31.232  29.702  1.00  0.00     0.251 C 
ATOM     35  H   UNL A   1      37.367  33.187  28.921  1.00  0.00     0.163 HD
ATOM     36  O   UNL A   1      36.506  30.780  30.678  1.00  0.00    -0.269 OA
BRANCH  34  37
ATOM     37  C   UNL A   1      38.132  30.337  28.935  1.00  0.00     0.039 A 
ATOM     38  C   UNL A   1      38.343  29.765  27.655  1.00  0.00     0.014 A 
ATOM     39  C   UNL A   1      39.254  30.296  29.680  1.00  0.00     0.014 A 
ATOM     40  C   UNL A   1      39.608  29.059  27.281  1.00  0.00     0.010 A 
ATOM     41  C   UNL A   1      40.405  29.627  29.329  1.00  0.00     0.010 A 
ATOM     42  C   UNL A   1      40.665  28.953  28.177  1.00  0.00    -0.014 A 
BRANCH  42  43
ATOM     43  C   UNL A   1      42.051  28.367  28.358  1.00  0.00     0.031 A 
ATOM     44  C   UNL A   1      42.302  26.868  28.294  1.00  0.00     0.074 A 
ATOM     45  C   UNL A   1      43.042  29.094  27.745  1.00  0.00     0.049 A 
ATOM     46  N   UNL A   1      43.470  26.308  28.195  1.00  0.00    -0.248 NA
ATOM     47  C   UNL A   1      41.241  25.869  28.242  1.00  0.00     0.031 C 
ATOM     48  C   UNL A   1      44.237  28.645  26.991  1.00  0.00     0.029 A 
ATOM     49  N   UNL A   1      43.147  30.468  27.579  1.00  0.00    -0.354 N 
ATOM     50  C   UNL A   1      43.317  25.006  27.743  1.00  0.00     0.074 A 
ATOM     51  C   UNL A   1      41.904  24.755  27.879  1.00  0.00     0.031 C 
ATOM     52  C   UNL A   1      45.055  29.694  26.782  1.00  0.00     0.029 A 
ATOM     53  C   UNL A   1      44.511  30.787  27.559  1.00  0.00     0.049 A 
ATOM     54  H   UNL A   1      42.400  31.103  27.493  1.00  0.00     0.167 HD
ATOM     55  C   UNL A   1      44.391  24.324  27.221  1.00  0.00     0.031 A 
ATOM     56  C   UNL A   1      45.101  31.327  28.673  1.00  0.00     0.031 A 
ATOM     57  C   UNL A   1      45.616  25.131  27.280  1.00  0.00     0.049 A 
ATOM     58  C   UNL A   1      46.090  30.367  29.341  1.00  0.00     0.074 A 
ATOM     59  C   UNL A   1      46.478  25.688  26.351  1.00  0.00     0.029 A 
ATOM     60  N   UNL A   1      46.005  25.628  28.510  1.00  0.00    -0.354 N 
ATOM     61  N   UNL A   1      46.449  29.208  28.854  1.00  0.00    -0.248 NA
ATOM     62  C   UNL A   1      46.698  30.605  30.649  1.00  0.00     0.031 C 
ATOM     63  C   UNL A   1      47.342  26.591  27.047  1.00  0.00     0.029 A 
ATOM     64  C   UNL A   1      47.038  26.533  28.395  1.00  0.00     0.049 A 
ATOM     65  H   UNL A   1      45.594  25.366  29.365  1.00  0.00     0.167 HD
ATOM     66  C   UNL A   1      47.163  28.500  29.784  1.00  0.00     0.074 A 
ATOM     67  C   UNL A   1      47.326  29.437  30.882  1.00  0.00     0.031 C 
ATOM     68  C   UNL A   1      47.512  27.187  29.607  1.00  0.00     0.031 A 
BRANCH  55  69
ATOM     69  C   UNL A   1      44.422  22.941  26.564  1.00  0.00    -0.014 A 
ATOM     70  C   UNL A   1      45.634  22.487  25.978  1.00  0.00     0.010 A 
ATOM     71  C   UNL A   1      43.330  22.062  26.440  1.00  0.00     0.010 A 
ATOM     72  C   UNL A   1      45.742  21.267  25.284  1.00  0.00     0.020 A 
ATOM     73  C   UNL A   1      43.429  20.823  25.765  1.00  0.00     0.020 A 
ATOM     74  C   UNL A   1      44.631  20.441  25.172  1.00  0.00     0.054 A 
BRANCH  74  75
ATOM     75  S   UNL A   1      44.772  18.897  24.223  1.00  0.00     0.124 S 
ATOM     76  O   UNL A   1      43.657  18.108  24.743  1.00  0.00    -0.237 OA
ATOM     77  O   UNL A   1      44.631  19.350  22.842  1.00  0.00    -0.237 OA
ATOM     78  O   UNL A   1      46.098  18.393  24.574  1.00  0.00    -0.744 OA
ENDBRANCH  74  75
ENDBRANCH  55  69
BRANCH  56  79
ATOM     79  C   UNL A   1      44.142  32.262  29.370  1.00  0.00    -0.014 A 
ATOM     80  C   UNL A   1      43.349  31.674  30.386  1.00  0.00     0.010 A 
ATOM     81  C   UNL A   1      44.491  33.626  29.491  1.00  0.00     0.010 A 
ATOM     82  C   UNL A   1      43.131  32.348  31.594  1.00  0.00     0.020 A 
ATOM     83  C   UNL A   1      44.268  34.302  30.704  1.00  0.00     0.020 A 
ATOM     84  C   UNL A   1      43.655  33.631  31.768  1.00  0.00     0.054 A 
BRANCH  84  85
ATOM     85  S   UNL A   1      43.726  34.295  33.464  1.00  0.00     0.124 S 
ATOM     86  O   UNL A   1      42.883  33.359  34.199  1.00  0.00    -0.237 OA
ATOM     87  O   UNL A   1      45.156  34.216  33.751  1.00  0.00    -0.237 OA
ATOM     88  O   UNL A   1      43.187  35.647  33.327  1.00  0.00    -0.744 OA
ENDBRANCH  84  85
ENDBRANCH  56  79
BRANCH  68  89
ATOM     89  C   UNL A   1      48.290  26.373  30.615  1.00  0.00    -0.014 A 
ATOM     90  C   UNL A   1      49.546  25.824  30.322  1.00  0.00     0.010 A 
ATOM     91  C   UNL A   1      47.724  26.036  31.870  1.00  0.00     0.010 A 
ATOM     92  C   UNL A   1      50.247  25.066  31.271  1.00  0.00     0.020 A 
ATOM     93  C   UNL A   1      48.401  25.260  32.814  1.00  0.00     0.020 A 
ATOM     94  C   UNL A   1      49.677  24.803  32.517  1.00  0.00     0.054 A 
BRANCH  94  95
ATOM     95  S   UNL A   1      50.606  23.825  33.722  1.00  0.00     0.124 S 
ATOM     96  O   UNL A   1      50.919  22.611  32.971  1.00  0.00    -0.237 OA
ATOM     97  O   UNL A   1      51.744  24.697  34.004  1.00  0.00    -0.237 OA
ATOM     98  O   UNL A   1      49.669  23.645  34.827  1.00  0.00    -0.744 OA
ENDBRANCH  94  95
ENDBRANCH  68  89
ENDBRANCH  42  43
ENDBRANCH  34  37
ENDBRANCH  32  33
ENDBRANCH  31  32
ENDBRANCH  30  31
ENDBRANCH   3  30
TORSDOF 19
ENDMDL
MODEL 2
REMARK VINA RESULT:     -13.8      4.237      9.977
REMARK SMILES Cc1c(NCc2ccccn2)cccc1C(=O)N1CCOC[C@@H]1CC(=O)NCCCNC(=O)c1ccc(-c2c3nc(c(-c4ccc(S(=O)(=O)[O-])cc4)c4ccc([nH]4)c(-c4ccc(S(=O)(=O)[O-])cc4)c4nc(c(-c5ccc(S(=O)(=O)[O-])cc5)c5ccc2[nH]5)C=C4)C=C3)cc1
REMARK SMILES IDX 25 1 26 2 27 3 24 5 23 6 18 7 19 8 20 9 22 10 21 11 16 12
REMARK SMILES IDX 17 13 15 14 1 15 2 16 3 17 12 18 14 19 13 20 4 21 5 23 6 24
REMARK SMILES IDX 7 25 11 26 8 27 10 28 9 29 28 30 29 31 30 32 31 33 32 34
REMARK SMILES IDX 33 36 34 37 35 38 93 39 36 40 92 41 37 42 38 43 39 44 86 45
REMARK SMILES IDX 40 46 91 47 85 48 87 49 41 50 90 51 84 52 83 53 42 55 72 56
REMARK SMILES IDX 53 57 71 58 54 59 57 60 70 61 88 62 55 63 56 64 69 66 89 67
REMARK SMILES IDX 58 68 43 69 44 70 52 71 45 72 51 73 46 74 47 75 48 76 49 77
REMARK SMILES IDX 50 78 73 79 74 80 82 81 75 82 81 83 76 84 77 85 78 86 79 87
REMARK SMILES IDX 80 88 59 89 60 90 68 91 61 92 67 93 62 94 63 95 64 96 65 97
REMARK SMILES IDX 66 98
REMARK H PARENT 27 4 4 22 31 35 87 54 57 65
REMARK Flexibility Score: inf
ROOT
ATOM      1  C   UNL A   1      33.314  27.568  26.639  1.00  0.00     0.222 C 
ATOM      2  O   UNL A   1      33.736  28.370  27.445  1.00  0.00    -0.275 OA
ATOM      3  N   UNL A   1      34.164  26.897  25.739  1.00  0.00    -0.356 N 
ATOM      4  H   UNL A   1      34.853  27.359  25.209  1.00  0.00     0.163 HD
ENDROOT
BRANCH   1   5
ATOM      5  C   UNL A   1      31.829  27.194  26.551  1.00  0.00     0.127 C 
BRANCH   5   6
ATOM      6  C   UNL A   1      31.080  28.043  25.525  1.00  0.00     0.120 C 
ATOM      7  N   UNL A   1      30.285  27.360  24.372  1.00  0.00    -0.331 N 
ATOM      8  C   UNL A   1      29.687  28.470  23.542  1.00  0.00     0.148 C 
ATOM      9  C   UNL A   1      30.826  29.435  23.039  1.00  0.00     0.181 C 
ATOM     10  C   UNL A   1      32.044  29.205  24.999  1.00  0.00     0.185 C 
ATOM     11  O   UNL A   1      31.370  30.144  24.160  1.00  0.00    -0.377 OA
BRANCH   7  12
ATOM     12  C   UNL A   1      29.834  25.861  24.115  1.00  0.00     0.254 C 
ATOM     13  O   UNL A   1      28.797  25.765  23.445  1.00  0.00    -0.269 OA
BRANCH  12  14
ATOM     14  C   UNL A   1      30.662  24.277  24.587  1.00  0.00     0.045 A 
ATOM     15  C   UNL A   1      32.476  22.926  22.464  1.00  0.00     0.047 C 
ATOM     16  C   UNL A   1      31.599  23.082  23.883  1.00  0.00    -0.015 A 
ATOM     17  C   UNL A   1      32.088  21.970  24.546  1.00  0.00     0.038 A 
ATOM     18  C   UNL A   1      31.897  22.059  25.919  1.00  0.00     0.026 A 
ATOM     19  C   UNL A   1      30.379  24.044  25.927  1.00  0.00     0.014 A 
ATOM     20  C   UNL A   1      31.023  22.981  26.572  1.00  0.00     0.003 A 
BRANCH  17  21
ATOM     21  N   UNL A   1      32.775  20.935  23.908  1.00  0.00    -0.379 N 
ATOM     22  H   UNL A   1      33.676  21.247  23.666  1.00  0.00     0.160 HD
BRANCH  21  23
ATOM     23  C   UNL A   1      32.609  19.456  23.449  1.00  0.00     0.169 C 
BRANCH  23  24
ATOM     24  C   UNL A   1      32.998  18.036  23.996  1.00  0.00     0.059 A 
ATOM     25  C   UNL A   1      34.102  17.243  23.714  1.00  0.00     0.026 A 
ATOM     26  N   UNL A   1      32.234  17.617  25.052  1.00  0.00    -0.259 NA
ATOM     27  C   UNL A   1      34.301  15.970  24.293  1.00  0.00     0.004 A 
ATOM     28  C   UNL A   1      32.480  16.426  25.675  1.00  0.00     0.111 A 
ATOM     29  C   UNL A   1      33.469  15.547  25.306  1.00  0.00     0.020 A 
ENDBRANCH  23  24
ENDBRANCH  21  23
ENDBRANCH  17  21
ENDBRANCH  12  14
ENDBRANCH   7  12
ENDBRANCH   5   6
ENDBRANCH   1   5
BRANCH   3  30
ATOM     30  C   UNL A   1      33.942  25.482  25.660  1.00  0.00     0.117 C 
BRANCH  30  31
ATOM     31  C   UNL A   1      35.037  23.938  25.377  1.00  0.00     0.042 C 
BRANCH  31  32
ATOM     32  C   UNL A   1      36.830  23.540  25.461  1.00  0.00     0.118 C 
BRANCH  32  33
ATOM     33  N   UNL A   1      37.949  23.494  26.532  1.00  0.00    -0.352 N 
ATOM     34  C   UNL A   1      39.157  24.350  26.536  1.00  0.00     0.251 C 
ATOM     35  H   UNL A   1      37.849  22.847  27.266  1.00  0.00     0.163 HD
ATOM     36  O   UNL A   1      39.920  24.421  25.577  1.00  0.00    -0.269 OA
BRANCH  34  37
ATOM     37  C   UNL A   1      39.263  25.402  27.694  1.00  0.00     0.039 A 
ATOM     38  C   UNL A   1      39.277  25.470  29.109  1.00  0.00     0.014 A 
ATOM     39  C   UNL A   1      39.685  26.559  27.145  1.00  0.00     0.014 A 
ATOM     40  C   UNL A   1      39.560  26.735  29.858  1.00  0.00     0.010 A 
ATOM     41  C   UNL A   1      39.926  27.719  27.846  1.00  0.00     0.010 A 
ATOM     42  C   UNL A   1      39.855  27.917  29.189  1.00  0.00    -0.014 A 
BRANCH  42  43
ATOM     43  C   UNL A   1      40.157  29.387  29.395  1.00  0.00     0.031 A 
ATOM     44  C   UNL A   1      39.058  30.439  29.386  1.00  0.00     0.074 A 
ATOM     45  C   UNL A   1      41.107  29.627  30.357  1.00  0.00     0.049 A 
ATOM     46  N   UNL A   1      39.193  31.666  29.790  1.00  0.00    -0.248 NA
ATOM     47  C   UNL A   1      37.677  30.167  29.004  1.00  0.00     0.031 C 
ATOM     48  C   UNL A   1      41.176  30.678  31.400  1.00  0.00     0.029 A 
ATOM     49  N   UNL A   1      42.233  28.882  30.683  1.00  0.00    -0.354 N 
ATOM     50  C   UNL A   1      37.940  32.207  30.041  1.00  0.00     0.074 A 
ATOM     51  C   UNL A   1      37.029  31.262  29.444  1.00  0.00     0.031 C 
ATOM     52  C   UNL A   1      42.402  30.676  31.958  1.00  0.00     0.029 A 
ATOM     53  C   UNL A   1      43.203  29.771  31.161  1.00  0.00     0.049 A 
ATOM     54  H   UNL A   1      42.331  27.907  30.592  1.00  0.00     0.167 HD
ATOM     55  C   UNL A   1      37.817  33.344  30.803  1.00  0.00     0.031 A 
ATOM     56  C   UNL A   1      44.240  30.152  30.348  1.00  0.00     0.031 A 
ATOM     57  C   UNL A   1      39.130  33.859  31.212  1.00  0.00     0.049 A 
ATOM     58  C   UNL A   1      44.156  31.623  29.933  1.00  0.00     0.074 A 
ATOM     59  C   UNL A   1      39.794  34.030  32.415  1.00  0.00     0.029 A 
ATOM     60  N   UNL A   1      40.056  34.127  30.222  1.00  0.00    -0.354 N 
ATOM     61  N   UNL A   1      43.279  32.479  30.391  1.00  0.00    -0.248 NA
ATOM     62  C   UNL A   1      45.008  32.231  28.912  1.00  0.00     0.031 C 
ATOM     63  C   UNL A   1      41.160  34.332  32.118  1.00  0.00     0.029 A 
ATOM     64  C   UNL A   1      41.303  34.397  30.744  1.00  0.00     0.049 A 
ATOM     65  H   UNL A   1      39.850  34.127  29.260  1.00  0.00     0.167 HD
ATOM     66  C   UNL A   1      43.322  33.640  29.667  1.00  0.00     0.074 A 
ATOM     67  C   UNL A   1      44.453  33.450  28.774  1.00  0.00     0.031 C 
ATOM     68  C   UNL A   1      42.397  34.639  29.813  1.00  0.00     0.031 A 
BRANCH  55  69
ATOM     69  C   UNL A   1      36.542  34.036  31.296  1.00  0.00    -0.014 A 
ATOM     70  C   UNL A   1      35.399  34.052  30.453  1.00  0.00     0.010 A 
ATOM     71  C   UNL A   1      36.395  34.714  32.521  1.00  0.00     0.010 A 
ATOM     72  C   UNL A   1      34.210  34.727  30.784  1.00  0.00     0.020 A 
ATOM     73  C   UNL A   1      35.197  35.379  32.876  1.00  0.00     0.020 A 
ATOM     74  C   UNL A   1      34.118  35.399  31.996  1.00  0.00     0.054 A 
BRANCH  74  75
ATOM     75  S   UNL A   1      32.595  36.316  32.383  1.00  0.00     0.124 S 
ATOM     76  O   UNL A   1      32.286  36.960  31.108  1.00  0.00    -0.237 OA
ATOM     77  O   UNL A   1      31.675  35.258  32.791  1.00  0.00    -0.237 OA
ATOM     78  O   UNL A   1      33.000  37.228  33.450  1.00  0.00    -0.744 OA
ENDBRANCH  74  75
ENDBRANCH  55  69
BRANCH  56  79
ATOM     79  C   UNL A   1      44.673  28.993  29.482  1.00  0.00    -0.014 A 
ATOM     80  C   UNL A   1      44.093  28.949  28.190  1.00  0.00     0.010 A 
ATOM     81  C   UNL A   1      45.972  28.464  29.657  1.00  0.00     0.010 A 
ATOM     82  C   UNL A   1      44.874  28.625  27.073  1.00  0.00     0.020 A 
ATOM     83  C   UNL A   1      46.753  28.136  28.534  1.00  0.00     0.020 A 
ATOM     84  C   UNL A   1      46.218  28.290  27.250  1.00  0.00     0.054 A 
BRANCH  84  85
ATOM     85  S   UNL A   1      47.294  28.296  25.779  1.00  0.00     0.124 S 
ATOM     86  O   UNL A   1      48.464  29.027  26.253  1.00  0.00    -0.237 OA
ATOM     87  O   UNL A   1      47.493  26.866  25.553  1.00  0.00    -0.237 OA
ATOM     88  O   UNL A   1      46.492  28.985  24.769  1.00  0.00    -0.744 OA
ENDBRANCH  84  85
ENDBRANCH  56  79
BRANCH  68  89
ATOM     89  C   UNL A   1      42.408  35.929  29.025  1.00  0.00    -0.014 A 
ATOM     90  C   UNL A   1      42.081  35.973  27.662  1.00  0.00     0.010 A 
ATOM     91  C   UNL A   1      42.863  37.136  29.611  1.00  0.00     0.010 A 
ATOM     92  C   UNL A   1      42.105  37.180  26.948  1.00  0.00     0.020 A 
ATOM     93  C   UNL A   1      42.916  38.340  28.903  1.00  0.00     0.020 A 
ATOM     94  C   UNL A   1      42.506  38.359  27.578  1.00  0.00     0.054 A 
BRANCH  94  95
ATOM     95  S   UNL A   1      42.523  39.900  26.632  1.00  0.00     0.124 S 
ATOM     96  O   UNL A   1      43.757  39.782  25.858  1.00  0.00    -0.237 OA
ATOM     97  O   UNL A   1      41.288  39.794  25.861  1.00  0.00    -0.237 OA
ATOM     98  O   UNL A   1      42.532  40.942  27.656  1.00  0.00    -0.744 OA
ENDBRANCH  94  95
ENDBRANCH  68  89
ENDBRANCH  42  43
ENDBRANCH  34  37
ENDBRANCH  32  33
ENDBRANCH  31  32
ENDBRANCH  30  31
ENDBRANCH   3  30
TORSDOF 19
ENDMDL
MODEL 3
REMARK VINA RESULT:     -13.6      4.832      7.234
REMARK SMILES Cc1c(NCc2ccccn2)cccc1C(=O)N1CCOC[C@@H]1CC(=O)NCCCNC(=O)c1ccc(-c2c3nc(c(-c4ccc(S(=O)(=O)[O-])cc4)c4ccc([nH]4)c(-c4ccc(S(=O)(=O)[O-])cc4)c4nc(c(-c5ccc(S(=O)(=O)[O-])cc5)c5ccc2[nH]5)C=C4)C=C3)cc1
REMARK SMILES IDX 25 1 26 2 27 3 24 5 23 6 18 7 19 8 20 9 22 10 21 11 16 12
REMARK SMILES IDX 17 13 15 14 1 15 2 16 3 17 12 18 14 19 13 20 4 21 5 23 6 24
REMARK SMILES IDX 7 25 11 26 8 27 10 28 9 29 28 30 29 31 30 32 31 33 32 34
REMARK SMILES IDX 33 36 34 37 35 38 93 39 36 40 92 41 37 42 38 43 39 44 86 45
REMARK SMILES IDX 40 46 91 47 85 48 87 49 41 50 90 51 84 52 83 53 42 55 72 56
REMARK SMILES IDX 53 57 71 58 54 59 57 60 70 61 88 62 55 63 56 64 69 66 89 67
REMARK SMILES IDX 58 68 43 69 44 70 52 71 45 72 51 73 46 74 47 75 48 76 49 77
REMARK SMILES IDX 50 78 73 79 74 80 82 81 75 82 81 83 76 84 77 85 78 86 79 87
REMARK SMILES IDX 80 88 59 89 60 90 68 91 61 92 67 93 62 94 63 95 64 96 65 97
REMARK SMILES IDX 66 98
REMARK H PARENT 27 4 4 22 31 35 87 54 57 65
REMARK Flexibility Score: inf
ROOT
ATOM      1  C   UNL A   1      33.795  29.059  26.945  1.00  0.00     0.222 C 
ATOM      2  O   UNL A   1      34.321  28.446  26.041  1.00  0.00    -0.275 OA
ATOM      3  N   UNL A   1      34.438  30.131  27.593  1.00  0.00    -0.356 N 
ATOM      4  H   UNL A   1      35.369  30.083  27.909  1.00  0.00     0.163 HD
ENDROOT
BRANCH   1   5
ATOM      5  C   UNL A   1      32.377  28.742  27.438  1.00  0.00     0.127 C 
BRANCH   5   6
ATOM      6  C   UNL A   1      31.421  28.438  26.286  1.00  0.00     0.120 C 
ATOM      7  N   UNL A   1      31.369  27.009  25.667  1.00  0.00    -0.331 N 
ATOM      8  C   UNL A   1      30.347  27.056  24.557  1.00  0.00     0.148 C 
ATOM      9  C   UNL A   1      30.731  28.179  23.522  1.00  0.00     0.181 C 
ATOM     10  C   UNL A   1      31.552  29.581  25.177  1.00  0.00     0.185 C 
ATOM     11  O   UNL A   1      30.574  29.463  24.142  1.00  0.00    -0.377 OA
BRANCH   7  12
ATOM     12  C   UNL A   1      31.954  25.611  26.134  1.00  0.00     0.254 C 
ATOM     13  O   UNL A   1      31.250  25.037  26.976  1.00  0.00    -0.269 OA
BRANCH  12  14
ATOM     14  C   UNL A   1      33.453  24.699  25.551  1.00  0.00     0.045 A 
ATOM     15  C   UNL A   1      34.642  22.549  27.445  1.00  0.00     0.047 C 
ATOM     16  C   UNL A   1      34.560  23.586  26.132  1.00  0.00    -0.015 A 
ATOM     17  C   UNL A   1      35.620  23.074  25.403  1.00  0.00     0.038 A 
ATOM     18  C   UNL A   1      35.542  23.421  24.060  1.00  0.00     0.026 A 
ATOM     19  C   UNL A   1      33.705  25.104  24.247  1.00  0.00     0.014 A 
ATOM     20  C   UNL A   1      34.701  24.441  23.520  1.00  0.00     0.003 A 
BRANCH  17  21
ATOM     21  N   UNL A   1      36.590  22.230  25.948  1.00  0.00    -0.379 N 
ATOM     22  H   UNL A   1      36.156  21.588  26.554  1.00  0.00     0.160 HD
BRANCH  21  23
ATOM     23  C   UNL A   1      38.122  21.951  25.925  1.00  0.00     0.169 C 
BRANCH  23  24
ATOM     24  C   UNL A   1      39.391  22.460  26.699  1.00  0.00     0.059 A 
ATOM     25  C   UNL A   1      39.647  23.696  27.277  1.00  0.00     0.026 A 
ATOM     26  N   UNL A   1      40.283  21.472  27.016  1.00  0.00    -0.259 NA
ATOM     27  C   UNL A   1      40.858  23.997  27.939  1.00  0.00     0.004 A 
ATOM     28  C   UNL A   1      41.413  21.743  27.735  1.00  0.00     0.111 A 
ATOM     29  C   UNL A   1      41.769  22.993  28.179  1.00  0.00     0.020 A 
ENDBRANCH  23  24
ENDBRANCH  21  23
ENDBRANCH  17  21
ENDBRANCH  12  14
ENDBRANCH   7  12
ENDBRANCH   5   6
ENDBRANCH   1   5
BRANCH   3  30
ATOM     30  C   UNL A   1      33.622  31.299  27.754  1.00  0.00     0.117 C 
BRANCH  30  31
ATOM     31  C   UNL A   1      33.919  33.190  27.735  1.00  0.00     0.042 C 
BRANCH  31  32
ATOM     32  C   UNL A   1      33.401  34.632  28.749  1.00  0.00     0.118 C 
BRANCH  32  33
ATOM     33  N   UNL A   1      33.952  35.462  29.935  1.00  0.00    -0.352 N 
ATOM     34  C   UNL A   1      33.453  35.392  31.327  1.00  0.00     0.251 C 
ATOM     35  H   UNL A   1      34.692  36.084  29.750  1.00  0.00     0.163 HD
ATOM     36  O   UNL A   1      32.270  35.556  31.614  1.00  0.00    -0.269 OA
BRANCH  34  37
ATOM     37  C   UNL A   1      34.435  34.794  32.392  1.00  0.00     0.039 A 
ATOM     38  C   UNL A   1      34.487  34.474  33.772  1.00  0.00     0.014 A 
ATOM     39  C   UNL A   1      35.452  34.220  31.719  1.00  0.00     0.014 A 
ATOM     40  C   UNL A   1      35.634  33.740  34.392  1.00  0.00     0.010 A 
ATOM     41  C   UNL A   1      36.509  33.561  32.306  1.00  0.00     0.010 A 
ATOM     42  C   UNL A   1      36.708  33.304  33.626  1.00  0.00    -0.014 A 
BRANCH  42  43
ATOM     43  C   UNL A   1      38.054  32.611  33.702  1.00  0.00     0.031 A 
ATOM     44  C   UNL A   1      38.393  31.420  32.818  1.00  0.00     0.074 A 
ATOM     45  C   UNL A   1      39.112  33.475  33.852  1.00  0.00     0.049 A 
ATOM     46  N   UNL A   1      39.584  30.931  32.647  1.00  0.00    -0.248 NA
ATOM     47  C   UNL A   1      37.423  30.734  31.974  1.00  0.00     0.031 C 
ATOM     48  C   UNL A   1      40.462  33.456  33.239  1.00  0.00     0.029 A 
ATOM     49  N   UNL A   1      39.175  34.670  34.554  1.00  0.00    -0.354 N 
ATOM     50  C   UNL A   1      39.601  30.159  31.494  1.00  0.00     0.074 A 
ATOM     51  C   UNL A   1      38.207  29.995  31.167  1.00  0.00     0.031 C 
ATOM     52  C   UNL A   1      41.248  34.357  33.860  1.00  0.00     0.029 A 
ATOM     53  C   UNL A   1      40.493  34.826  35.002  1.00  0.00     0.049 A 
ATOM     54  H   UNL A   1      38.430  35.294  34.710  1.00  0.00     0.167 HD
ATOM     55  C   UNL A   1      40.796  29.828  30.901  1.00  0.00     0.031 A 
ATOM     56  C   UNL A   1      40.805  34.559  36.311  1.00  0.00     0.031 A 
ATOM     57  C   UNL A   1      41.936  30.342  31.671  1.00  0.00     0.049 A 
ATOM     58  C   UNL A   1      41.680  33.312  36.466  1.00  0.00     0.074 A 
ATOM     59  C   UNL A   1      42.943  31.265  31.447  1.00  0.00     0.029 A 
ATOM     60  N   UNL A   1      42.028  29.989  33.004  1.00  0.00    -0.354 N 
ATOM     61  N   UNL A   1      42.196  32.634  35.475  1.00  0.00    -0.248 NA
ATOM     62  C   UNL A   1      41.984  32.686  37.753  1.00  0.00     0.031 C 
ATOM     63  C   UNL A   1      43.591  31.512  32.698  1.00  0.00     0.029 A 
ATOM     64  C   UNL A   1      43.012  30.700  33.657  1.00  0.00     0.049 A 
ATOM     65  H   UNL A   1      41.461  29.310  33.435  1.00  0.00     0.167 HD
ATOM     66  C   UNL A   1      42.734  31.460  35.928  1.00  0.00     0.074 A 
ATOM     67  C   UNL A   1      42.611  31.557  37.372  1.00  0.00     0.031 C 
ATOM     68  C   UNL A   1      43.183  30.477  35.086  1.00  0.00     0.031 A 
BRANCH  55  69
ATOM     69  C   UNL A   1      41.041  29.096  29.577  1.00  0.00    -0.014 A 
ATOM     70  C   UNL A   1      42.036  28.084  29.527  1.00  0.00     0.010 A 
ATOM     71  C   UNL A   1      40.389  29.360  28.358  1.00  0.00     0.010 A 
ATOM     72  C   UNL A   1      42.386  27.410  28.342  1.00  0.00     0.020 A 
ATOM     73  C   UNL A   1      40.717  28.675  27.163  1.00  0.00     0.020 A 
ATOM     74  C   UNL A   1      41.729  27.718  27.157  1.00  0.00     0.054 A 
BRANCH  74  75
ATOM     75  S   UNL A   1      42.235  26.881  25.624  1.00  0.00     0.124 S 
ATOM     76  O   UNL A   1      43.416  26.134  26.052  1.00  0.00    -0.237 OA
ATOM     77  O   UNL A   1      41.065  26.073  25.295  1.00  0.00    -0.237 OA
ATOM     78  O   UNL A   1      42.505  27.981  24.700  1.00  0.00    -0.744 OA
ENDBRANCH  74  75
ENDBRANCH  55  69
BRANCH  56  79
ATOM     79  C   UNL A   1      39.670  34.983  37.213  1.00  0.00    -0.014 A 
ATOM     80  C   UNL A   1      39.068  33.943  37.963  1.00  0.00     0.010 A 
ATOM     81  C   UNL A   1      39.689  36.286  37.760  1.00  0.00     0.010 A 
ATOM     82  C   UNL A   1      38.730  34.144  39.308  1.00  0.00     0.020 A 
ATOM     83  C   UNL A   1      39.345  36.485  39.109  1.00  0.00     0.020 A 
ATOM     84  C   UNL A   1      38.939  35.397  39.888  1.00  0.00     0.054 A 
BRANCH  84  85
ATOM     85  S   UNL A   1      38.898  35.506  41.707  1.00  0.00     0.124 S 
ATOM     86  O   UNL A   1      39.850  34.473  42.102  1.00  0.00    -0.237 OA
ATOM     87  O   UNL A   1      39.334  36.883  41.929  1.00  0.00    -0.237 OA
ATOM     88  O   UNL A   1      37.501  35.229  42.037  1.00  0.00    -0.744 OA
ENDBRANCH  84  85
ENDBRANCH  56  79
BRANCH  68  89
ATOM     89  C   UNL A   1      43.773  29.165  35.551  1.00  0.00    -0.014 A 
ATOM     90  C   UNL A   1      43.066  27.957  35.466  1.00  0.00     0.010 A 
ATOM     91  C   UNL A   1      45.032  29.123  36.200  1.00  0.00     0.010 A 
ATOM     92  C   UNL A   1      43.630  26.753  35.910  1.00  0.00     0.020 A 
ATOM     93  C   UNL A   1      45.593  27.933  36.670  1.00  0.00     0.020 A 
ATOM     94  C   UNL A   1      44.897  26.746  36.494  1.00  0.00     0.054 A 
BRANCH  94  95
ATOM     95  S   UNL A   1      45.600  25.177  37.055  1.00  0.00     0.124 S 
ATOM     96  O   UNL A   1      46.966  25.551  37.412  1.00  0.00    -0.237 OA
ATOM     97  O   UNL A   1      44.729  24.842  38.178  1.00  0.00    -0.237 OA
ATOM     98  O   UNL A   1      45.482  24.302  35.891  1.00  0.00    -0.744 OA
ENDBRANCH  94  95
ENDBRANCH  68  89
ENDBRANCH  42  43
ENDBRANCH  34  37
ENDBRANCH  32  33
ENDBRANCH  31  32
ENDBRANCH  30  31
ENDBRANCH   3  30
TORSDOF 19
ENDMDL
