MODEL 1
REMARK VINA RESULT:     -10.1      0.000      0.000
REMARK SMILES O=C(NCCCNC(=O)c1ccc(N2C(=O)/C(=C\c3ccc4c(c3)OCO4)[NH+]=C2c2ccccc2)cc1)c1ccc(-c2c3nc(c(-c4ccc(S(=O)(=O)[O-])cc4)c4ccc([nH]4)c(-c4ccc(S(=O)(=O)[O-])cc4)c4nc(c(-c5ccc(S(=O)(=O)[O-])cc5)c5ccc2[nH]5)C=C4)C=C3)cc1
REMARK SMILES IDX 4 1 3 2 1 3 2 4 38 6 39 7 97 8 40 9 96 10 41 11 42 12 43 13
REMARK SMILES IDX 90 14 44 15 95 16 89 17 91 18 45 19 94 20 88 21 87 22 46 24
REMARK SMILES IDX 76 25 57 26 75 27 58 28 61 29 74 30 92 31 59 32 60 33 73 35
REMARK SMILES IDX 93 36 62 37 47 38 48 39 56 40 49 41 55 42 50 43 51 44 52 45
REMARK SMILES IDX 53 46 54 47 77 48 78 49 86 50 79 51 85 52 80 53 81 54 82 55
REMARK SMILES IDX 83 56 84 57 63 58 64 59 72 60 65 61 71 62 66 63 67 64 68 65
REMARK SMILES IDX 69 66 70 67 5 68 6 69 7 70 8 71 9 73 10 74 11 75 37 76 12 77
REMARK SMILES IDX 36 78 13 79 14 80 15 81 29 82 16 83 17 84 28 85 18 86 30 88
REMARK SMILES IDX 31 89 35 90 32 91 34 92 33 93 19 94 20 95 24 96 21 97 23 98
REMARK SMILES IDX 22 99 25 100 27 101 26 102
REMARK H PARENT 3 5 91 23 61 34 7 72 28 87
REMARK Flexibility Score: inf
ROOT
ATOM      1  C   UNL A   1      34.393  32.307  29.235  1.00  0.00     0.118 C 
ENDROOT
BRANCH   1   2
ATOM      2  N   UNL A   1      33.989  31.286  28.271  1.00  0.00    -0.352 N 
ATOM      3  O   UNL A   1      34.214  29.584  26.812  1.00  0.00    -0.269 OA
ATOM      4  C   UNL A   1      34.703  30.243  27.726  1.00  0.00     0.251 C 
ATOM      5  H   UNL A   1      33.057  31.357  27.962  1.00  0.00     0.163 HD
BRANCH   4   6
ATOM      6  C   UNL A   1      36.062  29.936  28.222  1.00  0.00     0.039 A 
ATOM      7  C   UNL A   1      37.173  30.210  27.429  1.00  0.00     0.014 A 
ATOM      8  C   UNL A   1      36.233  29.356  29.482  1.00  0.00     0.014 A 
ATOM      9  C   UNL A   1      38.412  29.706  27.788  1.00  0.00     0.010 A 
ATOM     10  C   UNL A   1      37.514  28.980  29.909  1.00  0.00     0.010 A 
ATOM     11  C   UNL A   1      38.612  29.116  29.047  1.00  0.00    -0.014 A 
BRANCH  11  12
ATOM     12  C   UNL A   1      40.000  28.748  29.435  1.00  0.00     0.031 A 
ATOM     13  C   UNL A   1      40.634  27.456  28.997  1.00  0.00     0.074 A 
ATOM     14  C   UNL A   1      40.719  29.655  30.128  1.00  0.00     0.049 A 
ATOM     15  N   UNL A   1      41.867  27.051  29.177  1.00  0.00    -0.248 NA
ATOM     16  C   UNL A   1      39.788  26.493  28.275  1.00  0.00     0.031 C 
ATOM     17  C   UNL A   1      40.202  30.936  30.625  1.00  0.00     0.029 A 
ATOM     18  N   UNL A   1      42.038  29.670  30.498  1.00  0.00    -0.354 N 
ATOM     19  C   UNL A   1      41.945  25.789  28.599  1.00  0.00     0.074 A 
ATOM     20  C   UNL A   1      40.625  25.477  28.095  1.00  0.00     0.031 C 
ATOM     21  C   UNL A   1      41.208  31.643  31.157  1.00  0.00     0.029 A 
ATOM     22  C   UNL A   1      42.418  30.833  31.127  1.00  0.00     0.049 A 
ATOM     23  H   UNL A   1      42.655  28.921  30.330  1.00  0.00     0.167 HD
ATOM     24  C   UNL A   1      43.022  24.971  28.492  1.00  0.00     0.031 A 
ATOM     25  C   UNL A   1      43.600  31.207  31.647  1.00  0.00     0.031 A 
ATOM     26  C   UNL A   1      44.331  25.283  29.011  1.00  0.00     0.049 A 
ATOM     27  C   UNL A   1      44.762  30.266  31.543  1.00  0.00     0.074 A 
ATOM     28  C   UNL A   1      45.486  24.522  28.947  1.00  0.00     0.029 A 
ATOM     29  N   UNL A   1      44.662  26.449  29.687  1.00  0.00    -0.354 N 
ATOM     30  N   UNL A   1      44.817  29.088  30.969  1.00  0.00    -0.248 NA
ATOM     31  C   UNL A   1      46.023  30.705  32.153  1.00  0.00     0.031 C 
ATOM     32  C   UNL A   1      46.498  25.200  29.634  1.00  0.00     0.029 A 
ATOM     33  C   UNL A   1      45.995  26.417  30.065  1.00  0.00     0.049 A 
ATOM     34  H   UNL A   1      44.041  27.190  29.872  1.00  0.00     0.167 HD
ATOM     35  C   UNL A   1      46.123  28.647  31.141  1.00  0.00     0.074 A 
ATOM     36  C   UNL A   1      46.832  29.705  31.834  1.00  0.00     0.031 C 
ATOM     37  C   UNL A   1      46.683  27.470  30.769  1.00  0.00     0.031 A 
BRANCH  24  38
ATOM     38  C   UNL A   1      42.834  23.646  27.795  1.00  0.00    -0.014 A 
ATOM     39  C   UNL A   1      43.262  23.458  26.468  1.00  0.00     0.010 A 
ATOM     40  C   UNL A   1      42.298  22.550  28.498  1.00  0.00     0.010 A 
ATOM     41  C   UNL A   1      43.133  22.210  25.850  1.00  0.00     0.020 A 
ATOM     42  C   UNL A   1      42.193  21.294  27.894  1.00  0.00     0.020 A 
ATOM     43  C   UNL A   1      42.601  21.135  26.568  1.00  0.00     0.054 A 
BRANCH  43  44
ATOM     44  S   UNL A   1      42.487  19.518  25.751  1.00  0.00     0.124 S 
ATOM     45  O   UNL A   1      41.071  19.459  25.398  1.00  0.00    -0.237 OA
ATOM     46  O   UNL A   1      43.408  19.666  24.626  1.00  0.00    -0.237 OA
ATOM     47  O   UNL A   1      42.912  18.576  26.783  1.00  0.00    -0.744 OA
ENDBRANCH  43  44
ENDBRANCH  24  38
BRANCH  25  48
ATOM     48  C   UNL A   1      43.718  32.511  32.356  1.00  0.00    -0.014 A 
ATOM     49  C   UNL A   1      44.100  33.680  31.675  1.00  0.00     0.010 A 
ATOM     50  C   UNL A   1      43.441  32.583  33.735  1.00  0.00     0.010 A 
ATOM     51  C   UNL A   1      44.233  34.888  32.367  1.00  0.00     0.020 A 
ATOM     52  C   UNL A   1      43.533  33.795  34.421  1.00  0.00     0.020 A 
ATOM     53  C   UNL A   1      43.948  34.937  33.735  1.00  0.00     0.054 A 
BRANCH  53  54
ATOM     54  S   UNL A   1      44.105  36.517  34.610  1.00  0.00     0.124 S 
ATOM     55  O   UNL A   1      44.459  36.082  35.958  1.00  0.00    -0.237 OA
ATOM     56  O   UNL A   1      45.166  37.187  33.862  1.00  0.00    -0.237 OA
ATOM     57  O   UNL A   1      42.780  37.117  34.472  1.00  0.00    -0.744 OA
ENDBRANCH  53  54
ENDBRANCH  25  48
BRANCH  37  58
ATOM     58  C   UNL A   1      48.144  27.283  31.088  1.00  0.00    -0.014 A 
ATOM     59  C   UNL A   1      49.144  27.684  30.185  1.00  0.00     0.010 A 
ATOM     60  C   UNL A   1      48.519  26.697  32.311  1.00  0.00     0.010 A 
ATOM     61  C   UNL A   1      50.492  27.451  30.474  1.00  0.00     0.020 A 
ATOM     62  C   UNL A   1      49.865  26.496  32.619  1.00  0.00     0.020 A 
ATOM     63  C   UNL A   1      50.842  26.854  31.689  1.00  0.00     0.054 A 
BRANCH  63  64
ATOM     64  S   UNL A   1      52.597  26.568  32.044  1.00  0.00     0.124 S 
ATOM     65  O   UNL A   1      53.245  27.567  31.199  1.00  0.00    -0.237 OA
ATOM     66  O   UNL A   1      52.677  26.813  33.481  1.00  0.00    -0.237 OA
ATOM     67  O   UNL A   1      52.811  25.180  31.642  1.00  0.00    -0.744 OA
ENDBRANCH  63  64
ENDBRANCH  37  58
ENDBRANCH  11  12
ENDBRANCH   4   6
ENDBRANCH   1   2
BRANCH   1  68
ATOM     68  C   UNL A   1      35.651  33.055  28.825  1.00  0.00     0.042 C 
BRANCH  68  69
ATOM     69  C   UNL A   1      36.600  33.331  29.979  1.00  0.00     0.118 C 
BRANCH  69  70
ATOM     70  N   UNL A   1      36.091  34.357  30.882  1.00  0.00    -0.352 N 
ATOM     71  C   UNL A   1      36.314  34.527  32.225  1.00  0.00     0.251 C 
ATOM     72  H   UNL A   1      35.500  35.025  30.466  1.00  0.00     0.163 HD
ATOM     73  O   UNL A   1      35.660  35.339  32.871  1.00  0.00    -0.269 OA
BRANCH  71  74
ATOM     74  C   UNL A   1      37.333  33.703  32.898  1.00  0.00     0.040 A 
ATOM     75  C   UNL A   1      38.678  34.036  32.747  1.00  0.00     0.018 A 
ATOM     76  C   UNL A   1      36.956  32.618  33.692  1.00  0.00     0.018 A 
ATOM     77  C   UNL A   1      39.639  33.363  33.504  1.00  0.00     0.053 A 
ATOM     78  C   UNL A   1      37.920  31.937  34.434  1.00  0.00     0.053 A 
ATOM     79  C   UNL A   1      39.260  32.345  34.392  1.00  0.00     0.136 A 
BRANCH  79  80
ATOM     80  N   UNL A   1      40.191  31.771  35.282  1.00  0.00    -0.154 N 
ATOM     81  C   UNL A   1      40.678  30.495  35.164  1.00  0.00     0.385 C 
ATOM     82  C   UNL A   1      40.740  32.318  36.414  1.00  0.00     0.295 C 
ATOM     83  O   UNL A   1      40.405  29.632  34.346  1.00  0.00    -0.236 OA
ATOM     84  C   UNL A   1      41.652  30.409  36.305  1.00  0.00     0.216 C 
ATOM     85  N   UNL A   1      41.598  31.569  37.045  1.00  0.00    -0.233 N 
ATOM     86  C   UNL A   1      42.506  29.408  36.564  1.00  0.00     0.068 C 
ATOM     87  H   UNL A   1      42.098  31.783  37.866  1.00  0.00     0.312 HD
BRANCH  82  88
ATOM     88  C   UNL A   1      40.329  33.624  36.954  1.00  0.00     0.065 A 
ATOM     89  C   UNL A   1      41.101  34.749  36.656  1.00  0.00     0.017 A 
ATOM     90  C   UNL A   1      39.238  33.719  37.825  1.00  0.00     0.017 A 
ATOM     91  C   UNL A   1      40.762  35.981  37.215  1.00  0.00     0.001 A 
ATOM     92  C   UNL A   1      38.905  34.953  38.381  1.00  0.00     0.001 A 
ATOM     93  C   UNL A   1      39.667  36.082  38.076  1.00  0.00     0.000 A 
ENDBRANCH  82  88
BRANCH  86  94
ATOM     94  C   UNL A   1      42.718  28.314  35.621  1.00  0.00    -0.017 A 
ATOM     95  C   UNL A   1      43.660  28.411  34.577  1.00  0.00     0.012 A 
ATOM     96  C   UNL A   1      42.075  27.098  35.893  1.00  0.00     0.059 A 
ATOM     97  C   UNL A   1      44.019  27.274  33.843  1.00  0.00     0.051 A 
ATOM     98  C   UNL A   1      42.486  25.993  35.191  1.00  0.00     0.166 A 
ATOM     99  C   UNL A   1      43.442  26.074  34.203  1.00  0.00     0.165 A 
ATOM    100  O   UNL A   1      42.088  24.713  35.427  1.00  0.00    -0.454 OA
ATOM    101  O   UNL A   1      43.762  24.846  33.708  1.00  0.00    -0.454 OA
ATOM    102  C   UNL A   1      43.087  24.006  34.669  1.00  0.00     0.468 C 
ENDBRANCH  86  94
ENDBRANCH  79  80
ENDBRANCH  71  74
ENDBRANCH  69  70
ENDBRANCH  68  69
ENDBRANCH   1  68
TORSDOF 16
ENDMDL
MODEL 2
REMARK VINA RESULT:      -9.9      3.416     11.358
REMARK SMILES O=C(NCCCNC(=O)c1ccc(N2C(=O)/C(=C\c3ccc4c(c3)OCO4)[NH+]=C2c2ccccc2)cc1)c1ccc(-c2c3nc(c(-c4ccc(S(=O)(=O)[O-])cc4)c4ccc([nH]4)c(-c4ccc(S(=O)(=O)[O-])cc4)c4nc(c(-c5ccc(S(=O)(=O)[O-])cc5)c5ccc2[nH]5)C=C4)C=C3)cc1
REMARK SMILES IDX 4 1 3 2 1 3 2 4 38 6 39 7 97 8 40 9 96 10 41 11 42 12 43 13
REMARK SMILES IDX 90 14 44 15 95 16 89 17 91 18 45 19 94 20 88 21 87 22 46 24
REMARK SMILES IDX 76 25 57 26 75 27 58 28 61 29 74 30 92 31 59 32 60 33 73 35
REMARK SMILES IDX 93 36 62 37 47 38 48 39 56 40 49 41 55 42 50 43 51 44 52 45
REMARK SMILES IDX 53 46 54 47 77 48 78 49 86 50 79 51 85 52 80 53 81 54 82 55
REMARK SMILES IDX 83 56 84 57 63 58 64 59 72 60 65 61 71 62 66 63 67 64 68 65
REMARK SMILES IDX 69 66 70 67 5 68 6 69 7 70 8 71 9 73 10 74 11 75 37 76 12 77
REMARK SMILES IDX 36 78 13 79 14 80 15 81 29 82 16 83 17 84 28 85 18 86 30 88
REMARK SMILES IDX 31 89 35 90 32 91 34 92 33 93 19 94 20 95 24 96 21 97 23 98
REMARK SMILES IDX 22 99 25 100 27 101 26 102
REMARK H PARENT 3 5 91 23 61 34 7 72 28 87
REMARK Flexibility Score: inf
ROOT
ATOM      1  C   UNL A   1      40.908  21.908  26.689  1.00  0.00     0.118 C 
ENDROOT
BRANCH   1   2
ATOM      2  N   UNL A   1      39.649  22.131  25.982  1.00  0.00    -0.352 N 
ATOM      3  O   UNL A   1      37.703  23.131  25.443  1.00  0.00    -0.269 OA
ATOM      4  C   UNL A   1      38.794  23.209  26.002  1.00  0.00     0.251 C 
ATOM      5  H   UNL A   1      39.367  21.389  25.397  1.00  0.00     0.163 HD
BRANCH   4   6
ATOM      6  C   UNL A   1      39.177  24.445  26.717  1.00  0.00     0.039 A 
ATOM      7  C   UNL A   1      39.884  25.445  26.056  1.00  0.00     0.014 A 
ATOM      8  C   UNL A   1      38.844  24.605  28.066  1.00  0.00     0.014 A 
ATOM      9  C   UNL A   1      40.447  26.482  26.781  1.00  0.00     0.010 A 
ATOM     10  C   UNL A   1      39.292  25.734  28.766  1.00  0.00     0.010 A 
ATOM     11  C   UNL A   1      40.132  26.665  28.138  1.00  0.00    -0.014 A 
BRANCH  11  12
ATOM     12  C   UNL A   1      40.636  27.890  28.814  1.00  0.00     0.031 A 
ATOM     13  C   UNL A   1      39.751  29.078  29.075  1.00  0.00     0.074 A 
ATOM     14  C   UNL A   1      41.904  27.875  29.275  1.00  0.00     0.049 A 
ATOM     15  N   UNL A   1      40.029  30.171  29.741  1.00  0.00    -0.248 NA
ATOM     16  C   UNL A   1      38.391  29.049  28.517  1.00  0.00     0.031 C 
ATOM     17  C   UNL A   1      42.863  26.784  29.065  1.00  0.00     0.029 A 
ATOM     18  N   UNL A   1      42.595  28.772  30.047  1.00  0.00    -0.354 N 
ATOM     19  C   UNL A   1      38.886  30.960  29.680  1.00  0.00     0.074 A 
ATOM     20  C   UNL A   1      37.922  30.238  28.878  1.00  0.00     0.031 C 
ATOM     21  C   UNL A   1      43.981  27.037  29.759  1.00  0.00     0.029 A 
ATOM     22  C   UNL A   1      43.859  28.346  30.384  1.00  0.00     0.049 A 
ATOM     23  H   UNL A   1      42.223  29.638  30.334  1.00  0.00     0.167 HD
ATOM     24  C   UNL A   1      38.660  32.171  30.248  1.00  0.00     0.031 A 
ATOM     25  C   UNL A   1      44.829  28.945  31.097  1.00  0.00     0.031 A 
ATOM     26  C   UNL A   1      39.632  32.891  31.033  1.00  0.00     0.049 A 
ATOM     27  C   UNL A   1      44.561  30.299  31.683  1.00  0.00     0.074 A 
ATOM     28  C   UNL A   1      39.496  34.121  31.655  1.00  0.00     0.029 A 
ATOM     29  N   UNL A   1      40.919  32.449  31.308  1.00  0.00    -0.354 N 
ATOM     30  N   UNL A   1      43.462  31.013  31.631  1.00  0.00    -0.248 NA
ATOM     31  C   UNL A   1      45.660  30.926  32.426  1.00  0.00     0.031 C 
ATOM     32  C   UNL A   1      40.717  34.448  32.255  1.00  0.00     0.029 A 
ATOM     33  C   UNL A   1      41.593  33.391  32.069  1.00  0.00     0.049 A 
ATOM     34  H   UNL A   1      41.298  31.592  31.006  1.00  0.00     0.167 HD
ATOM     35  C   UNL A   1      43.735  32.174  32.344  1.00  0.00     0.074 A 
ATOM     36  C   UNL A   1      45.087  32.042  32.851  1.00  0.00     0.031 C 
ATOM     37  C   UNL A   1      42.944  33.254  32.553  1.00  0.00     0.031 A 
BRANCH  24  38
ATOM     38  C   UNL A   1      37.310  32.810  30.035  1.00  0.00    -0.014 A 
ATOM     39  C   UNL A   1      36.254  32.591  30.938  1.00  0.00     0.010 A 
ATOM     40  C   UNL A   1      37.114  33.702  28.964  1.00  0.00     0.010 A 
ATOM     41  C   UNL A   1      35.024  33.230  30.761  1.00  0.00     0.020 A 
ATOM     42  C   UNL A   1      35.894  34.365  28.798  1.00  0.00     0.020 A 
ATOM     43  C   UNL A   1      34.852  34.116  29.693  1.00  0.00     0.054 A 
BRANCH  43  44
ATOM     44  S   UNL A   1      33.257  34.964  29.516  1.00  0.00     0.124 S 
ATOM     45  O   UNL A   1      32.525  34.046  28.646  1.00  0.00    -0.237 OA
ATOM     46  O   UNL A   1      32.781  35.034  30.896  1.00  0.00    -0.237 OA
ATOM     47  O   UNL A   1      33.609  36.247  28.914  1.00  0.00    -0.744 OA
ENDBRANCH  43  44
ENDBRANCH  24  38
BRANCH  25  48
ATOM     48  C   UNL A   1      46.155  28.284  31.244  1.00  0.00    -0.014 A 
ATOM     49  C   UNL A   1      47.208  28.554  30.354  1.00  0.00     0.010 A 
ATOM     50  C   UNL A   1      46.366  27.370  32.295  1.00  0.00     0.010 A 
ATOM     51  C   UNL A   1      48.435  27.898  30.493  1.00  0.00     0.020 A 
ATOM     52  C   UNL A   1      47.602  26.745  32.462  1.00  0.00     0.020 A 
ATOM     53  C   UNL A   1      48.624  26.998  31.547  1.00  0.00     0.054 A 
BRANCH  53  54
ATOM     54  S   UNL A   1      50.229  26.175  31.724  1.00  0.00     0.124 S 
ATOM     55  O   UNL A   1      51.129  27.127  31.080  1.00  0.00    -0.237 OA
ATOM     56  O   UNL A   1      50.364  26.058  33.174  1.00  0.00    -0.237 OA
ATOM     57  O   UNL A   1      50.045  24.909  31.019  1.00  0.00    -0.744 OA
ENDBRANCH  53  54
ENDBRANCH  25  48
BRANCH  37  58
ATOM     58  C   UNL A   1      43.522  34.368  33.387  1.00  0.00    -0.014 A 
ATOM     59  C   UNL A   1      43.374  34.384  34.785  1.00  0.00     0.010 A 
ATOM     60  C   UNL A   1      44.225  35.413  32.760  1.00  0.00     0.010 A 
ATOM     61  C   UNL A   1      43.869  35.454  35.536  1.00  0.00     0.020 A 
ATOM     62  C   UNL A   1      44.752  36.466  33.511  1.00  0.00     0.020 A 
ATOM     63  C   UNL A   1      44.552  36.490  34.892  1.00  0.00     0.054 A 
BRANCH  63  64
ATOM     64  S   UNL A   1      45.190  37.863  35.888  1.00  0.00     0.124 S 
ATOM     65  O   UNL A   1      46.586  37.924  35.464  1.00  0.00    -0.237 OA
ATOM     66  O   UNL A   1      44.355  38.983  35.463  1.00  0.00    -0.237 OA
ATOM     67  O   UNL A   1      44.976  37.422  37.265  1.00  0.00    -0.744 OA
ENDBRANCH  63  64
ENDBRANCH  37  58
ENDBRANCH  11  12
ENDBRANCH   4   6
ENDBRANCH   1   2
BRANCH   1  68
ATOM     68  C   UNL A   1      42.083  22.645  26.068  1.00  0.00     0.042 C 
BRANCH  68  69
ATOM     69  C   UNL A   1      43.272  22.794  27.002  1.00  0.00     0.118 C 
BRANCH  69  70
ATOM     70  N   UNL A   1      44.448  22.080  26.521  1.00  0.00    -0.352 N 
ATOM     71  C   UNL A   1      45.656  22.572  26.094  1.00  0.00     0.251 C 
ATOM     72  H   UNL A   1      44.364  21.099  26.499  1.00  0.00     0.163 HD
ATOM     73  O   UNL A   1      46.474  21.840  25.548  1.00  0.00    -0.269 OA
BRANCH  71  74
ATOM     74  C   UNL A   1      45.954  24.005  26.271  1.00  0.00     0.040 A 
ATOM     75  C   UNL A   1      46.253  24.479  27.547  1.00  0.00     0.018 A 
ATOM     76  C   UNL A   1      45.959  24.868  25.174  1.00  0.00     0.018 A 
ATOM     77  C   UNL A   1      46.692  25.795  27.703  1.00  0.00     0.053 A 
ATOM     78  C   UNL A   1      46.381  26.188  25.336  1.00  0.00     0.053 A 
ATOM     79  C   UNL A   1      46.809  26.642  26.590  1.00  0.00     0.136 A 
BRANCH  79  80
ATOM     80  N   UNL A   1      47.405  27.915  26.704  1.00  0.00    -0.154 N 
ATOM     81  C   UNL A   1      46.702  29.092  26.716  1.00  0.00     0.385 C 
ATOM     82  C   UNL A   1      48.738  28.231  26.775  1.00  0.00     0.295 C 
ATOM     83  O   UNL A   1      45.502  29.281  26.604  1.00  0.00    -0.236 OA
ATOM     84  C   UNL A   1      47.783  30.117  26.908  1.00  0.00     0.216 C 
ATOM     85  N   UNL A   1      49.012  29.498  26.898  1.00  0.00    -0.233 N 
ATOM     86  C   UNL A   1      47.621  31.431  27.123  1.00  0.00     0.068 C 
ATOM     87  H   UNL A   1      49.900  29.919  26.969  1.00  0.00     0.312 HD
BRANCH  82  88
ATOM     88  C   UNL A   1      49.808  27.231  26.627  1.00  0.00     0.065 A 
ATOM     89  C   UNL A   1      50.302  26.957  25.350  1.00  0.00     0.017 A 
ATOM     90  C   UNL A   1      50.254  26.502  27.735  1.00  0.00     0.017 A 
ATOM     91  C   UNL A   1      51.267  25.964  25.186  1.00  0.00     0.001 A 
ATOM     92  C   UNL A   1      51.218  25.509  27.564  1.00  0.00     0.001 A 
ATOM     93  C   UNL A   1      51.723  25.242  26.291  1.00  0.00     0.000 A 
ENDBRANCH  82  88
BRANCH  86  94
ATOM     94  C   UNL A   1      46.307  32.012  27.382  1.00  0.00    -0.017 A 
ATOM     95  C   UNL A   1      45.789  32.113  28.689  1.00  0.00     0.012 A 
ATOM     96  C   UNL A   1      45.651  32.622  26.303  1.00  0.00     0.059 A 
ATOM     97  C   UNL A   1      44.648  32.886  28.937  1.00  0.00     0.051 A 
ATOM     98  C   UNL A   1      44.566  33.414  26.587  1.00  0.00     0.166 A 
ATOM     99  C   UNL A   1      44.086  33.555  27.869  1.00  0.00     0.165 A 
ATOM    100  O   UNL A   1      43.906  34.199  25.694  1.00  0.00    -0.454 OA
ATOM    101  O   UNL A   1      43.068  34.458  27.931  1.00  0.00    -0.454 OA
ATOM    102  C   UNL A   1      43.155  35.023  26.605  1.00  0.00     0.468 C 
ENDBRANCH  86  94
ENDBRANCH  79  80
ENDBRANCH  71  74
ENDBRANCH  69  70
ENDBRANCH  68  69
ENDBRANCH   1  68
TORSDOF 16
ENDMDL
MODEL 3
REMARK VINA RESULT:      -9.8      3.508     10.751
REMARK SMILES O=C(NCCCNC(=O)c1ccc(N2C(=O)/C(=C\c3ccc4c(c3)OCO4)[NH+]=C2c2ccccc2)cc1)c1ccc(-c2c3nc(c(-c4ccc(S(=O)(=O)[O-])cc4)c4ccc([nH]4)c(-c4ccc(S(=O)(=O)[O-])cc4)c4nc(c(-c5ccc(S(=O)(=O)[O-])cc5)c5ccc2[nH]5)C=C4)C=C3)cc1
REMARK SMILES IDX 4 1 3 2 1 3 2 4 38 6 39 7 97 8 40 9 96 10 41 11 42 12 43 13
REMARK SMILES IDX 90 14 44 15 95 16 89 17 91 18 45 19 94 20 88 21 87 22 46 24
REMARK SMILES IDX 76 25 57 26 75 27 58 28 61 29 74 30 92 31 59 32 60 33 73 35
REMARK SMILES IDX 93 36 62 37 47 38 48 39 56 40 49 41 55 42 50 43 51 44 52 45
REMARK SMILES IDX 53 46 54 47 77 48 78 49 86 50 79 51 85 52 80 53 81 54 82 55
REMARK SMILES IDX 83 56 84 57 63 58 64 59 72 60 65 61 71 62 66 63 67 64 68 65
REMARK SMILES IDX 69 66 70 67 5 68 6 69 7 70 8 71 9 73 10 74 11 75 37 76 12 77
REMARK SMILES IDX 36 78 13 79 14 80 15 81 29 82 16 83 17 84 28 85 18 86 30 88
REMARK SMILES IDX 31 89 35 90 32 91 34 92 33 93 19 94 20 95 24 96 21 97 23 98
REMARK SMILES IDX 22 99 25 100 27 101 26 102
REMARK H PARENT 3 5 91 23 61 34 7 72 28 87
REMARK Flexibility Score: inf
ROOT
ATOM      1  C   UNL A   1      40.596  21.885  26.523  1.00  0.00     0.118 C 
ENDROOT
BRANCH   1   2
ATOM      2  N   UNL A   1      39.324  22.324  25.954  1.00  0.00    -0.352 N 
ATOM      3  O   UNL A   1      37.492  23.604  25.672  1.00  0.00    -0.269 OA
ATOM      4  C   UNL A   1      38.625  23.496  26.131  1.00  0.00     0.251 C 
ATOM      5  H   UNL A   1      38.899  21.677  25.345  1.00  0.00     0.163 HD
BRANCH   4   6
ATOM      6  C   UNL A   1      39.227  24.609  26.897  1.00  0.00     0.039 A 
ATOM      7  C   UNL A   1      38.978  24.735  28.261  1.00  0.00     0.014 A 
ATOM      8  C   UNL A   1      40.037  25.547  26.249  1.00  0.00     0.014 A 
ATOM      9  C   UNL A   1      39.340  25.898  28.920  1.00  0.00     0.010 A 
ATOM     10  C   UNL A   1      40.528  26.652  26.958  1.00  0.00     0.010 A 
ATOM     11  C   UNL A   1      40.150  26.858  28.292  1.00  0.00    -0.014 A 
BRANCH  11  12
ATOM     12  C   UNL A   1      40.640  28.001  29.108  1.00  0.00     0.031 A 
ATOM     13  C   UNL A   1      42.047  28.058  29.637  1.00  0.00     0.074 A 
ATOM     14  C   UNL A   1      39.804  29.045  29.292  1.00  0.00     0.049 A 
ATOM     15  N   UNL A   1      42.639  29.037  30.276  1.00  0.00    -0.248 NA
ATOM     16  C   UNL A   1      42.899  26.876  29.436  1.00  0.00     0.031 C 
ATOM     17  C   UNL A   1      38.408  29.093  28.840  1.00  0.00     0.029 A 
ATOM     18  N   UNL A   1      40.007  30.275  29.859  1.00  0.00    -0.354 N 
ATOM     19  C   UNL A   1      43.925  28.590  30.558  1.00  0.00     0.074 A 
ATOM     20  C   UNL A   1      44.017  27.237  30.054  1.00  0.00     0.031 C 
ATOM     21  C   UNL A   1      37.911  30.315  29.073  1.00  0.00     0.029 A 
ATOM     22  C   UNL A   1      38.914  31.106  29.772  1.00  0.00     0.049 A 
ATOM     23  H   UNL A   1      40.854  30.540  30.287  1.00  0.00     0.167 HD
ATOM     24  C   UNL A   1      44.937  29.252  31.173  1.00  0.00     0.031 A 
ATOM     25  C   UNL A   1      38.721  32.358  30.224  1.00  0.00     0.031 A 
ATOM     26  C   UNL A   1      44.831  30.596  31.685  1.00  0.00     0.049 A 
ATOM     27  C   UNL A   1      39.848  33.050  30.930  1.00  0.00     0.074 A 
ATOM     28  C   UNL A   1      45.802  31.354  32.319  1.00  0.00     0.029 A 
ATOM     29  N   UNL A   1      43.691  31.384  31.624  1.00  0.00    -0.354 N 
ATOM     30  N   UNL A   1      41.063  32.614  31.162  1.00  0.00    -0.248 NA
ATOM     31  C   UNL A   1      39.580  34.402  31.432  1.00  0.00     0.031 C 
ATOM     32  C   UNL A   1      45.232  32.576  32.692  1.00  0.00     0.029 A 
ATOM     33  C   UNL A   1      43.927  32.609  32.228  1.00  0.00     0.049 A 
ATOM     34  H   UNL A   1      42.839  31.113  31.213  1.00  0.00     0.167 HD
ATOM     35  C   UNL A   1      41.710  33.646  31.830  1.00  0.00     0.074 A 
ATOM     36  C   UNL A   1      40.762  34.739  31.925  1.00  0.00     0.031 C 
ATOM     37  C   UNL A   1      42.970  33.682  32.330  1.00  0.00     0.031 A 
BRANCH  24  38
ATOM     38  C   UNL A   1      46.252  28.532  31.339  1.00  0.00    -0.014 A 
ATOM     39  C   UNL A   1      47.259  28.626  30.361  1.00  0.00     0.010 A 
ATOM     40  C   UNL A   1      46.519  27.818  32.523  1.00  0.00     0.010 A 
ATOM     41  C   UNL A   1      48.494  27.999  30.551  1.00  0.00     0.020 A 
ATOM     42  C   UNL A   1      47.762  27.213  32.729  1.00  0.00     0.020 A 
ATOM     43  C   UNL A   1      48.740  27.298  31.735  1.00  0.00     0.054 A 
BRANCH  43  44
ATOM     44  S   UNL A   1      50.368  26.533  31.970  1.00  0.00     0.124 S 
ATOM     45  O   UNL A   1      50.535  26.621  33.418  1.00  0.00    -0.237 OA
ATOM     46  O   UNL A   1      50.164  25.185  31.443  1.00  0.00    -0.237 OA
ATOM     47  O   UNL A   1      51.266  27.377  31.186  1.00  0.00    -0.744 OA
ENDBRANCH  43  44
ENDBRANCH  24  38
BRANCH  25  48
ATOM     48  C   UNL A   1      37.390  33.006  30.063  1.00  0.00    -0.014 A 
ATOM     49  C   UNL A   1      36.447  33.004  31.105  1.00  0.00     0.010 A 
ATOM     50  C   UNL A   1      37.063  33.635  28.847  1.00  0.00     0.010 A 
ATOM     51  C   UNL A   1      35.192  33.593  30.922  1.00  0.00     0.020 A 
ATOM     52  C   UNL A   1      35.828  34.259  28.673  1.00  0.00     0.020 A 
ATOM     53  C   UNL A   1      34.891  34.216  29.706  1.00  0.00     0.054 A 
BRANCH  53  54
ATOM     54  S   UNL A   1      33.267  34.993  29.496  1.00  0.00     0.124 S 
ATOM     55  O   UNL A   1      33.630  36.347  29.090  1.00  0.00    -0.237 OA
ATOM     56  O   UNL A   1      32.653  34.164  28.460  1.00  0.00    -0.237 OA
ATOM     57  O   UNL A   1      32.658  34.877  30.818  1.00  0.00    -0.744 OA
ENDBRANCH  53  54
ENDBRANCH  25  48
BRANCH  37  58
ATOM     58  C   UNL A   1      43.396  34.961  33.003  1.00  0.00    -0.014 A 
ATOM     59  C   UNL A   1      43.967  36.016  32.269  1.00  0.00     0.010 A 
ATOM     60  C   UNL A   1      43.221  35.108  34.391  1.00  0.00     0.010 A 
ATOM     61  C   UNL A   1      44.407  37.172  32.920  1.00  0.00     0.020 A 
ATOM     62  C   UNL A   1      43.627  36.276  35.039  1.00  0.00     0.020 A 
ATOM     63  C   UNL A   1      44.237  37.292  34.302  1.00  0.00     0.054 A 
BRANCH  63  64
ATOM     64  S   UNL A   1      44.811  38.803  35.122  1.00  0.00     0.124 S 
ATOM     65  O   UNL A   1      46.259  38.700  34.974  1.00  0.00    -0.237 OA
ATOM     66  O   UNL A   1      44.171  39.856  34.336  1.00  0.00    -0.237 OA
ATOM     67  O   UNL A   1      44.313  38.666  36.490  1.00  0.00    -0.744 OA
ENDBRANCH  63  64
ENDBRANCH  37  58
ENDBRANCH  11  12
ENDBRANCH   4   6
ENDBRANCH   1   2
BRANCH   1  68
ATOM     68  C   UNL A   1      41.788  22.178  25.627  1.00  0.00     0.042 C 
BRANCH  68  69
ATOM     69  C   UNL A   1      42.959  22.812  26.357  1.00  0.00     0.118 C 
BRANCH  69  70
ATOM     70  N   UNL A   1      44.186  22.037  26.216  1.00  0.00    -0.352 N 
ATOM     71  C   UNL A   1      45.479  22.469  26.053  1.00  0.00     0.251 C 
ATOM     72  H   UNL A   1      44.070  21.060  26.239  1.00  0.00     0.163 HD
ATOM     73  O   UNL A   1      46.372  21.679  25.766  1.00  0.00    -0.269 OA
BRANCH  71  74
ATOM     74  C   UNL A   1      45.785  23.903  26.201  1.00  0.00     0.040 A 
ATOM     75  C   UNL A   1      45.954  24.429  27.481  1.00  0.00     0.018 A 
ATOM     76  C   UNL A   1      45.924  24.717  25.075  1.00  0.00     0.018 A 
ATOM     77  C   UNL A   1      46.400  25.744  27.626  1.00  0.00     0.053 A 
ATOM     78  C   UNL A   1      46.352  26.035  25.225  1.00  0.00     0.053 A 
ATOM     79  C   UNL A   1      46.653  26.538  26.498  1.00  0.00     0.136 A 
BRANCH  79  80
ATOM     80  N   UNL A   1      47.257  27.806  26.621  1.00  0.00    -0.154 N 
ATOM     81  C   UNL A   1      46.571  28.992  26.564  1.00  0.00     0.385 C 
ATOM     82  C   UNL A   1      48.588  28.107  26.768  1.00  0.00     0.295 C 
ATOM     83  O   UNL A   1      45.383  29.193  26.374  1.00  0.00    -0.236 OA
ATOM     84  C   UNL A   1      47.653  30.008  26.800  1.00  0.00     0.216 C 
ATOM     85  N   UNL A   1      48.871  29.373  26.880  1.00  0.00    -0.233 N 
ATOM     86  C   UNL A   1      47.495  31.327  26.977  1.00  0.00     0.068 C 
ATOM     87  H   UNL A   1      49.758  29.785  26.997  1.00  0.00     0.312 HD
BRANCH  82  88
ATOM     88  C   UNL A   1      49.651  27.091  26.708  1.00  0.00     0.065 A 
ATOM     89  C   UNL A   1      50.108  26.524  27.900  1.00  0.00     0.017 A 
ATOM     90  C   UNL A   1      50.255  26.769  25.488  1.00  0.00     0.017 A 
ATOM     91  C   UNL A   1      51.161  25.610  27.864  1.00  0.00     0.001 A 
ATOM     92  C   UNL A   1      51.308  25.856  25.459  1.00  0.00     0.001 A 
ATOM     93  C   UNL A   1      51.759  25.278  26.646  1.00  0.00     0.000 A 
ENDBRANCH  82  88
BRANCH  86  94
ATOM     94  C   UNL A   1      46.176  31.931  27.141  1.00  0.00    -0.017 A 
ATOM     95  C   UNL A   1      45.577  32.062  28.410  1.00  0.00     0.012 A 
ATOM     96  C   UNL A   1      45.599  32.530  26.013  1.00  0.00     0.059 A 
ATOM     97  C   UNL A   1      44.434  32.854  28.572  1.00  0.00     0.051 A 
ATOM     98  C   UNL A   1      44.510  33.341  26.213  1.00  0.00     0.166 A 
ATOM     99  C   UNL A   1      43.951  33.511  27.459  1.00  0.00     0.165 A 
ATOM    100  O   UNL A   1      43.919  34.120  25.266  1.00  0.00    -0.454 OA
ATOM    101  O   UNL A   1      42.944  34.429  27.441  1.00  0.00    -0.454 OA
ATOM    102  C   UNL A   1      43.124  34.970  26.114  1.00  0.00     0.468 C 
ENDBRANCH  86  94
ENDBRANCH  79  80
ENDBRANCH  71  74
ENDBRANCH  69  70
ENDBRANCH  68  69
ENDBRANCH   1  68
TORSDOF 16
ENDMDL
