MODEL 1
REMARK VINA RESULT:     -10.1      0.000      0.000
REMARK SMILES C=CCN(CC(=O)NCCCNC(=O)c1ccc(-c2c3nc(c(-c4ccc(S(=O)(=O)[O-])cc4)c4ccc([nH]4)c(-c4ccc(S(=O)(=O)[O-])cc4)c4nc(c(-c5ccc(S(=O)(=O)[O-])cc5)c5ccc2[nH]5)C=C4)C=C3)cc1)C(=O)NC(C)(C)CC
REMARK SMILES IDX 9 1 8 2 6 3 7 4 5 6 4 7 3 8 2 9 1 10 75 11 76 12 77 13 78 15
REMARK SMILES IDX 79 16 80 17 81 18 82 19 10 20 11 21 12 22 13 23 14 25 15 26
REMARK SMILES IDX 16 27 74 28 17 29 73 30 18 31 19 32 20 33 67 34 21 35 72 36
REMARK SMILES IDX 66 37 68 38 22 39 71 40 65 41 64 42 23 44 53 45 34 46 52 47
REMARK SMILES IDX 35 48 38 49 51 50 69 51 36 52 37 53 50 55 70 56 39 57 24 58
REMARK SMILES IDX 25 59 33 60 26 61 32 62 27 63 28 64 29 65 30 66 31 67 54 68
REMARK SMILES IDX 55 69 63 70 56 71 62 72 57 73 58 74 59 75 60 76 61 77 40 78
REMARK SMILES IDX 41 79 49 80 42 81 48 82 43 83 44 84 45 85 46 86 47 87
REMARK H PARENT 8 5 77 14 12 24 68 43 38 54
REMARK Flexibility Score: inf
ROOT
ATOM      1  C   UNL A   1      36.406  22.440  25.713  1.00  0.00     0.117 C 
ENDROOT
BRANCH   1   2
ATOM      2  N   UNL A   1      35.490  22.813  26.768  1.00  0.00    -0.354 N 
ATOM      3  C   UNL A   1      34.326  22.218  27.149  1.00  0.00     0.239 C 
ATOM      4  O   UNL A   1      33.874  22.534  28.253  1.00  0.00    -0.273 OA
ATOM      5  H   UNL A   1      35.745  23.612  27.286  1.00  0.00     0.163 HD
BRANCH   3   6
ATOM      6  C   UNL A   1      33.713  21.087  26.314  1.00  0.00     0.221 C 
BRANCH   6   7
ATOM      7  N   UNL A   1      32.585  21.447  25.461  1.00  0.00    -0.312 N 
BRANCH   7   8
ATOM      8  C   UNL A   1      32.234  20.473  24.421  1.00  0.00     0.149 C 
BRANCH   8   9
ATOM      9  C   UNL A   1      33.321  19.445  24.275  1.00  0.00    -0.013 C 
ATOM     10  C   UNL A   1      33.075  18.163  23.964  1.00  0.00     0.006 C 
ENDBRANCH   8   9
ENDBRANCH   7   8
BRANCH   7  11
ATOM     11  C   UNL A   1      31.800  22.555  25.516  1.00  0.00     0.318 C 
ATOM     12  O   UNL A   1      30.712  22.521  26.107  1.00  0.00    -0.249 OA
ATOM     13  N   UNL A   1      32.077  23.765  25.032  1.00  0.00    -0.333 N 
ATOM     14  H   UNL A   1      31.378  24.368  25.375  1.00  0.00     0.165 HD
BRANCH  13  15
ATOM     15  C   UNL A   1      32.982  24.603  24.203  1.00  0.00     0.036 C 
ATOM     16  C   UNL A   1      32.107  25.550  23.361  1.00  0.00     0.034 C 
ATOM     17  C   UNL A   1      33.790  25.494  25.186  1.00  0.00     0.034 C 
BRANCH  15  18
ATOM     18  C   UNL A   1      34.026  23.882  23.328  1.00  0.00     0.024 C 
ATOM     19  C   UNL A   1      33.469  23.186  22.089  1.00  0.00     0.006 C 
ENDBRANCH  15  18
ENDBRANCH  13  15
ENDBRANCH   7  11
ENDBRANCH   6   7
ENDBRANCH   3   6
ENDBRANCH   1   2
BRANCH   1  20
ATOM     20  C   UNL A   1      37.345  23.572  25.329  1.00  0.00     0.042 C 
BRANCH  20  21
ATOM     21  C   UNL A   1      38.168  24.089  26.504  1.00  0.00     0.118 C 
BRANCH  21  22
ATOM     22  N   UNL A   1      39.599  23.853  26.323  1.00  0.00    -0.352 N 
ATOM     23  C   UNL A   1      40.669  24.651  26.639  1.00  0.00     0.251 C 
ATOM     24  H   UNL A   1      39.831  22.989  25.912  1.00  0.00     0.163 HD
ATOM     25  O   UNL A   1      41.771  24.429  26.138  1.00  0.00    -0.269 OA
BRANCH  23  26
ATOM     26  C   UNL A   1      40.483  25.775  27.572  1.00  0.00     0.039 A 
ATOM     27  C   UNL A   1      39.542  25.676  28.599  1.00  0.00     0.014 A 
ATOM     28  C   UNL A   1      41.260  26.926  27.430  1.00  0.00     0.014 A 
ATOM     29  C   UNL A   1      39.446  26.702  29.539  1.00  0.00     0.010 A 
ATOM     30  C   UNL A   1      41.229  27.899  28.416  1.00  0.00     0.010 A 
ATOM     31  C   UNL A   1      40.324  27.797  29.481  1.00  0.00    -0.014 A 
BRANCH  31  32
ATOM     32  C   UNL A   1      40.337  28.848  30.527  1.00  0.00     0.031 A 
ATOM     33  C   UNL A   1      41.262  28.718  31.705  1.00  0.00     0.074 A 
ATOM     34  C   UNL A   1      39.442  29.854  30.466  1.00  0.00     0.049 A 
ATOM     35  N   UNL A   1      41.334  29.456  32.782  1.00  0.00    -0.248 NA
ATOM     36  C   UNL A   1      42.209  27.589  31.686  1.00  0.00     0.031 C 
ATOM     37  C   UNL A   1      38.465  30.057  29.394  1.00  0.00     0.029 A 
ATOM     38  N   UNL A   1      39.197  30.887  31.336  1.00  0.00    -0.354 N 
ATOM     39  C   UNL A   1      42.313  28.870  33.575  1.00  0.00     0.074 A 
ATOM     40  C   UNL A   1      42.772  27.687  32.881  1.00  0.00     0.031 C 
ATOM     41  C   UNL A   1      37.742  31.157  29.659  1.00  0.00     0.029 A 
ATOM     42  C   UNL A   1      38.165  31.707  30.942  1.00  0.00     0.049 A 
ATOM     43  H   UNL A   1      39.710  31.026  32.164  1.00  0.00     0.167 HD
ATOM     44  C   UNL A   1      42.799  29.291  34.766  1.00  0.00     0.031 A 
ATOM     45  C   UNL A   1      37.611  32.770  31.554  1.00  0.00     0.031 A 
ATOM     46  C   UNL A   1      42.342  30.474  35.442  1.00  0.00     0.049 A 
ATOM     47  C   UNL A   1      38.150  33.205  32.888  1.00  0.00     0.074 A 
ATOM     48  C   UNL A   1      42.812  31.028  36.619  1.00  0.00     0.029 A 
ATOM     49  N   UNL A   1      41.305  31.284  35.004  1.00  0.00    -0.354 N 
ATOM     50  N   UNL A   1      39.133  32.685  33.586  1.00  0.00    -0.248 NA
ATOM     51  C   UNL A   1      37.512  34.368  33.518  1.00  0.00     0.031 C 
ATOM     52  C   UNL A   1      42.020  32.138  36.925  1.00  0.00     0.029 A 
ATOM     53  C   UNL A   1      41.097  32.313  35.905  1.00  0.00     0.049 A 
ATOM     54  H   UNL A   1      40.792  31.148  34.174  1.00  0.00     0.167 HD
ATOM     55  C   UNL A   1      39.241  33.469  34.729  1.00  0.00     0.074 A 
ATOM     56  C   UNL A   1      38.239  34.510  34.619  1.00  0.00     0.031 C 
ATOM     57  C   UNL A   1      40.092  33.339  35.776  1.00  0.00     0.031 A 
BRANCH  44  58
ATOM     58  C   UNL A   1      43.875  28.460  35.416  1.00  0.00    -0.014 A 
ATOM     59  C   UNL A   1      43.554  27.430  36.317  1.00  0.00     0.010 A 
ATOM     60  C   UNL A   1      45.225  28.687  35.090  1.00  0.00     0.010 A 
ATOM     61  C   UNL A   1      44.563  26.669  36.913  1.00  0.00     0.020 A 
ATOM     62  C   UNL A   1      46.236  27.908  35.661  1.00  0.00     0.020 A 
ATOM     63  C   UNL A   1      45.898  26.915  36.581  1.00  0.00     0.054 A 
BRANCH  63  64
ATOM     64  S   UNL A   1      47.183  25.892  37.351  1.00  0.00     0.124 S 
ATOM     65  O   UNL A   1      47.088  24.657  36.578  1.00  0.00    -0.237 OA
ATOM     66  O   UNL A   1      48.394  26.679  37.132  1.00  0.00    -0.237 OA
ATOM     67  O   UNL A   1      46.756  25.787  38.744  1.00  0.00    -0.744 OA
ENDBRANCH  63  64
ENDBRANCH  44  58
BRANCH  45  68
ATOM     68  C   UNL A   1      36.483  33.497  30.907  1.00  0.00    -0.014 A 
ATOM     69  C   UNL A   1      35.229  33.574  31.538  1.00  0.00     0.010 A 
ATOM     70  C   UNL A   1      36.662  34.134  29.665  1.00  0.00     0.010 A 
ATOM     71  C   UNL A   1      34.171  34.260  30.934  1.00  0.00     0.020 A 
ATOM     72  C   UNL A   1      35.615  34.845  29.070  1.00  0.00     0.020 A 
ATOM     73  C   UNL A   1      34.371  34.894  29.704  1.00  0.00     0.054 A 
BRANCH  73  74
ATOM     74  S   UNL A   1      32.998  35.821  28.966  1.00  0.00     0.124 S 
ATOM     75  O   UNL A   1      33.699  36.883  28.250  1.00  0.00    -0.237 OA
ATOM     76  O   UNL A   1      32.351  34.814  28.130  1.00  0.00    -0.237 OA
ATOM     77  O   UNL A   1      32.217  36.256  30.123  1.00  0.00    -0.744 OA
ENDBRANCH  73  74
ENDBRANCH  45  68
BRANCH  57  78
ATOM     78  C   UNL A   1      39.994  34.355  36.883  1.00  0.00    -0.014 A 
ATOM     79  C   UNL A   1      40.725  35.554  36.831  1.00  0.00     0.010 A 
ATOM     80  C   UNL A   1      39.090  34.145  37.941  1.00  0.00     0.010 A 
ATOM     81  C   UNL A   1      40.564  36.521  37.826  1.00  0.00     0.020 A 
ATOM     82  C   UNL A   1      38.906  35.121  38.922  1.00  0.00     0.020 A 
ATOM     83  C   UNL A   1      39.650  36.301  38.862  1.00  0.00     0.054 A 
BRANCH  83  84
ATOM     84  S   UNL A   1      39.402  37.606  40.096  1.00  0.00     0.124 S 
ATOM     85  O   UNL A   1      40.676  38.320  40.043  1.00  0.00    -0.237 OA
ATOM     86  O   UNL A   1      38.252  38.335  39.563  1.00  0.00    -0.237 OA
ATOM     87  O   UNL A   1      39.151  36.873  41.333  1.00  0.00    -0.744 OA
ENDBRANCH  83  84
ENDBRANCH  57  78
ENDBRANCH  31  32
ENDBRANCH  23  26
ENDBRANCH  21  22
ENDBRANCH  20  21
ENDBRANCH   1  20
TORSDOF 19
ENDMDL
MODEL 2
REMARK VINA RESULT:     -10.0      4.286     10.145
REMARK SMILES C=CCN(CC(=O)NCCCNC(=O)c1ccc(-c2c3nc(c(-c4ccc(S(=O)(=O)[O-])cc4)c4ccc([nH]4)c(-c4ccc(S(=O)(=O)[O-])cc4)c4nc(c(-c5ccc(S(=O)(=O)[O-])cc5)c5ccc2[nH]5)C=C4)C=C3)cc1)C(=O)NC(C)(C)CC
REMARK SMILES IDX 9 1 8 2 6 3 7 4 5 6 4 7 3 8 2 9 1 10 75 11 76 12 77 13 78 15
REMARK SMILES IDX 79 16 80 17 81 18 82 19 10 20 11 21 12 22 13 23 14 25 15 26
REMARK SMILES IDX 16 27 74 28 17 29 73 30 18 31 19 32 20 33 67 34 21 35 72 36
REMARK SMILES IDX 66 37 68 38 22 39 71 40 65 41 64 42 23 44 53 45 34 46 52 47
REMARK SMILES IDX 35 48 38 49 51 50 69 51 36 52 37 53 50 55 70 56 39 57 24 58
REMARK SMILES IDX 25 59 33 60 26 61 32 62 27 63 28 64 29 65 30 66 31 67 54 68
REMARK SMILES IDX 55 69 63 70 56 71 62 72 57 73 58 74 59 75 60 76 61 77 40 78
REMARK SMILES IDX 41 79 49 80 42 81 48 82 43 83 44 84 45 85 46 86 47 87
REMARK H PARENT 8 5 77 14 12 24 68 43 38 54
REMARK Flexibility Score: inf
ROOT
ATOM      1  C   UNL A   1      32.444  26.553  25.505  1.00  0.00     0.117 C 
ENDROOT
BRANCH   1   2
ATOM      2  N   UNL A   1      31.541  25.570  26.062  1.00  0.00    -0.354 N 
ATOM      3  C   UNL A   1      31.808  24.313  26.513  1.00  0.00     0.239 C 
ATOM      4  O   UNL A   1      30.944  23.776  27.211  1.00  0.00    -0.273 OA
ATOM      5  H   UNL A   1      30.599  25.849  26.125  1.00  0.00     0.163 HD
BRANCH   3   6
ATOM      6  C   UNL A   1      33.188  23.679  26.300  1.00  0.00     0.221 C 
BRANCH   6   7
ATOM      7  N   UNL A   1      33.256  22.572  25.350  1.00  0.00    -0.312 N 
BRANCH   7   8
ATOM      8  C   UNL A   1      32.266  22.599  24.267  1.00  0.00     0.149 C 
BRANCH   8   9
ATOM      9  C   UNL A   1      32.936  22.857  22.948  1.00  0.00    -0.013 C 
ATOM     10  C   UNL A   1      33.312  24.081  22.548  1.00  0.00     0.006 C 
ENDBRANCH   8   9
ENDBRANCH   7   8
BRANCH   7  11
ATOM     11  C   UNL A   1      34.130  21.532  25.323  1.00  0.00     0.318 C 
ATOM     12  O   UNL A   1      33.730  20.375  25.516  1.00  0.00    -0.249 OA
ATOM     13  N   UNL A   1      35.433  21.580  25.051  1.00  0.00    -0.333 N 
ATOM     14  H   UNL A   1      35.732  20.645  24.961  1.00  0.00     0.165 HD
BRANCH  13  15
ATOM     15  C   UNL A   1      36.632  22.426  24.824  1.00  0.00     0.036 C 
ATOM     16  C   UNL A   1      36.695  22.761  23.322  1.00  0.00     0.034 C 
ATOM     17  C   UNL A   1      36.380  23.765  25.571  1.00  0.00     0.034 C 
BRANCH  15  18
ATOM     18  C   UNL A   1      37.988  21.903  25.337  1.00  0.00     0.024 C 
ATOM     19  C   UNL A   1      38.745  22.853  26.261  1.00  0.00     0.006 C 
ENDBRANCH  15  18
ENDBRANCH  13  15
ENDBRANCH   7  11
ENDBRANCH   6   7
ENDBRANCH   3   6
ENDBRANCH   1   2
BRANCH   1  20
ATOM     20  C   UNL A   1      33.496  27.009  26.503  1.00  0.00     0.042 C 
BRANCH  20  21
ATOM     21  C   UNL A   1      34.356  28.155  25.982  1.00  0.00     0.118 C 
BRANCH  21  22
ATOM     22  N   UNL A   1      33.854  29.460  26.409  1.00  0.00    -0.352 N 
ATOM     23  C   UNL A   1      34.310  30.297  27.395  1.00  0.00     0.251 C 
ATOM     24  H   UNL A   1      33.070  29.788  25.912  1.00  0.00     0.163 HD
ATOM     25  O   UNL A   1      33.587  31.200  27.818  1.00  0.00    -0.269 OA
BRANCH  23  26
ATOM     26  C   UNL A   1      35.662  30.101  27.945  1.00  0.00     0.039 A 
ATOM     27  C   UNL A   1      35.818  29.581  29.231  1.00  0.00     0.014 A 
ATOM     28  C   UNL A   1      36.776  30.424  27.169  1.00  0.00     0.014 A 
ATOM     29  C   UNL A   1      37.101  29.301  29.704  1.00  0.00     0.010 A 
ATOM     30  C   UNL A   1      38.041  30.059  27.602  1.00  0.00     0.010 A 
ATOM     31  C   UNL A   1      38.217  29.493  28.873  1.00  0.00    -0.014 A 
BRANCH  31  32
ATOM     32  C   UNL A   1      39.583  29.096  29.290  1.00  0.00     0.031 A 
ATOM     33  C   UNL A   1      40.478  30.099  29.964  1.00  0.00     0.074 A 
ATOM     34  C   UNL A   1      40.048  27.874  28.961  1.00  0.00     0.049 A 
ATOM     35  N   UNL A   1      41.740  29.990  30.288  1.00  0.00    -0.248 NA
ATOM     36  C   UNL A   1      39.886  31.408  30.288  1.00  0.00     0.031 C 
ATOM     37  C   UNL A   1      39.285  26.835  28.266  1.00  0.00     0.029 A 
ATOM     38  N   UNL A   1      41.281  27.305  29.153  1.00  0.00    -0.354 N 
ATOM     39  C   UNL A   1      42.097  31.219  30.829  1.00  0.00     0.074 A 
ATOM     40  C   UNL A   1      40.935  32.075  30.745  1.00  0.00     0.031 C 
ATOM     41  C   UNL A   1      40.060  25.750  28.109  1.00  0.00     0.029 A 
ATOM     42  C   UNL A   1      41.387  26.032  28.643  1.00  0.00     0.049 A 
ATOM     43  H   UNL A   1      42.021  27.765  29.612  1.00  0.00     0.167 HD
ATOM     44  C   UNL A   1      43.282  31.593  31.366  1.00  0.00     0.031 A 
ATOM     45  C   UNL A   1      42.440  25.194  28.594  1.00  0.00     0.031 A 
ATOM     46  C   UNL A   1      44.427  30.730  31.453  1.00  0.00     0.049 A 
ATOM     47  C   UNL A   1      43.752  25.641  29.174  1.00  0.00     0.074 A 
ATOM     48  C   UNL A   1      45.655  30.986  32.038  1.00  0.00     0.029 A 
ATOM     49  N   UNL A   1      44.490  29.444  30.937  1.00  0.00    -0.354 N 
ATOM     50  N   UNL A   1      44.049  26.779  29.757  1.00  0.00    -0.248 NA
ATOM     51  C   UNL A   1      44.873  24.694  29.095  1.00  0.00     0.031 C 
ATOM     52  C   UNL A   1      46.480  29.879  31.822  1.00  0.00     0.029 A 
ATOM     53  C   UNL A   1      45.746  28.907  31.158  1.00  0.00     0.049 A 
ATOM     54  H   UNL A   1      43.751  28.981  30.481  1.00  0.00     0.167 HD
ATOM     55  C   UNL A   1      45.385  26.677  30.128  1.00  0.00     0.074 A 
ATOM     56  C   UNL A   1      45.832  25.360  29.724  1.00  0.00     0.031 C 
ATOM     57  C   UNL A   1      46.171  27.592  30.746  1.00  0.00     0.031 A 
BRANCH  44  58
ATOM     58  C   UNL A   1      43.398  33.000  31.892  1.00  0.00    -0.014 A 
ATOM     59  C   UNL A   1      43.696  34.075  31.035  1.00  0.00     0.010 A 
ATOM     60  C   UNL A   1      43.167  33.257  33.256  1.00  0.00     0.010 A 
ATOM     61  C   UNL A   1      43.802  35.374  31.538  1.00  0.00     0.020 A 
ATOM     62  C   UNL A   1      43.242  34.560  33.758  1.00  0.00     0.020 A 
ATOM     63  C   UNL A   1      43.576  35.608  32.898  1.00  0.00     0.054 A 
BRANCH  63  64
ATOM     64  S   UNL A   1      43.694  37.309  33.515  1.00  0.00     0.124 S 
ATOM     65  O   UNL A   1      44.877  37.238  34.368  1.00  0.00    -0.237 OA
ATOM     66  O   UNL A   1      43.851  38.085  32.287  1.00  0.00    -0.237 OA
ATOM     67  O   UNL A   1      42.430  37.512  34.219  1.00  0.00    -0.744 OA
ENDBRANCH  63  64
ENDBRANCH  44  58
BRANCH  45  68
ATOM     68  C   UNL A   1      42.292  23.847  27.974  1.00  0.00    -0.014 A 
ATOM     69  C   UNL A   1      42.576  23.655  26.612  1.00  0.00     0.010 A 
ATOM     70  C   UNL A   1      41.884  22.745  28.749  1.00  0.00     0.010 A 
ATOM     71  C   UNL A   1      42.442  22.390  26.030  1.00  0.00     0.020 A 
ATOM     72  C   UNL A   1      41.775  21.474  28.178  1.00  0.00     0.020 A 
ATOM     73  C   UNL A   1      42.044  21.307  26.818  1.00  0.00     0.054 A 
BRANCH  73  74
ATOM     74  S   UNL A   1      41.928  19.666  26.051  1.00  0.00     0.124 S 
ATOM     75  O   UNL A   1      42.368  18.793  27.135  1.00  0.00    -0.237 OA
ATOM     76  O   UNL A   1      40.512  19.581  25.704  1.00  0.00    -0.237 OA
ATOM     77  O   UNL A   1      42.838  19.756  24.911  1.00  0.00    -0.744 OA
ENDBRANCH  73  74
ENDBRANCH  45  68
BRANCH  57  78
ATOM     78  C   UNL A   1      47.594  27.200  31.044  1.00  0.00    -0.014 A 
ATOM     79  C   UNL A   1      47.935  26.587  32.262  1.00  0.00     0.010 A 
ATOM     80  C   UNL A   1      48.581  27.365  30.056  1.00  0.00     0.010 A 
ATOM     81  C   UNL A   1      49.244  26.158  32.492  1.00  0.00     0.020 A 
ATOM     82  C   UNL A   1      49.884  26.912  30.271  1.00  0.00     0.020 A 
ATOM     83  C   UNL A   1      50.209  26.317  31.492  1.00  0.00     0.054 A 
BRANCH  83  84
ATOM     84  S   UNL A   1      51.881  25.679  31.786  1.00  0.00     0.124 S 
ATOM     85  O   UNL A   1      52.555  26.003  30.532  1.00  0.00    -0.237 OA
ATOM     86  O   UNL A   1      52.316  26.448  32.950  1.00  0.00    -0.237 OA
ATOM     87  O   UNL A   1      51.671  24.254  32.030  1.00  0.00    -0.744 OA
ENDBRANCH  83  84
ENDBRANCH  57  78
ENDBRANCH  31  32
ENDBRANCH  23  26
ENDBRANCH  21  22
ENDBRANCH  20  21
ENDBRANCH   1  20
TORSDOF 19
ENDMDL
MODEL 3
REMARK VINA RESULT:      -9.5      3.274      4.212
REMARK SMILES C=CCN(CC(=O)NCCCNC(=O)c1ccc(-c2c3nc(c(-c4ccc(S(=O)(=O)[O-])cc4)c4ccc([nH]4)c(-c4ccc(S(=O)(=O)[O-])cc4)c4nc(c(-c5ccc(S(=O)(=O)[O-])cc5)c5ccc2[nH]5)C=C4)C=C3)cc1)C(=O)NC(C)(C)CC
REMARK SMILES IDX 9 1 8 2 6 3 7 4 5 6 4 7 3 8 2 9 1 10 75 11 76 12 77 13 78 15
REMARK SMILES IDX 79 16 80 17 81 18 82 19 10 20 11 21 12 22 13 23 14 25 15 26
REMARK SMILES IDX 16 27 74 28 17 29 73 30 18 31 19 32 20 33 67 34 21 35 72 36
REMARK SMILES IDX 66 37 68 38 22 39 71 40 65 41 64 42 23 44 53 45 34 46 52 47
REMARK SMILES IDX 35 48 38 49 51 50 69 51 36 52 37 53 50 55 70 56 39 57 24 58
REMARK SMILES IDX 25 59 33 60 26 61 32 62 27 63 28 64 29 65 30 66 31 67 54 68
REMARK SMILES IDX 55 69 63 70 56 71 62 72 57 73 58 74 59 75 60 76 61 77 40 78
REMARK SMILES IDX 41 79 49 80 42 81 48 82 43 83 44 84 45 85 46 86 47 87
REMARK H PARENT 8 5 77 14 12 24 68 43 38 54
REMARK Flexibility Score: inf
ROOT
ATOM      1  C   UNL A   1      34.525  22.143  25.177  1.00  0.00     0.117 C 
ENDROOT
BRANCH   1   2
ATOM      2  N   UNL A   1      34.660  22.526  23.789  1.00  0.00    -0.354 N 
ATOM      3  C   UNL A   1      33.725  23.037  22.941  1.00  0.00     0.239 C 
ATOM      4  O   UNL A   1      34.140  23.561  21.904  1.00  0.00    -0.273 OA
ATOM      5  H   UNL A   1      35.557  22.399  23.400  1.00  0.00     0.163 HD
BRANCH   3   6
ATOM      6  C   UNL A   1      32.249  23.108  23.352  1.00  0.00     0.221 C 
BRANCH   6   7
ATOM      7  N   UNL A   1      31.611  24.418  23.259  1.00  0.00    -0.312 N 
BRANCH   7   8
ATOM      8  C   UNL A   1      30.395  24.594  24.061  1.00  0.00     0.149 C 
BRANCH   8   9
ATOM      9  C   UNL A   1      30.737  24.702  25.520  1.00  0.00    -0.013 C 
ATOM     10  C   UNL A   1      30.646  23.668  26.369  1.00  0.00     0.006 C 
ENDBRANCH   8   9
ENDBRANCH   7   8
BRANCH   7  11
ATOM     11  C   UNL A   1      32.007  25.505  22.546  1.00  0.00     0.318 C 
ATOM     12  O   UNL A   1      31.837  25.544  21.319  1.00  0.00    -0.249 OA
ATOM     13  N   UNL A   1      32.545  26.628  23.019  1.00  0.00    -0.333 N 
ATOM     14  H   UNL A   1      32.567  27.263  22.267  1.00  0.00     0.165 HD
BRANCH  13  15
ATOM     15  C   UNL A   1      33.126  27.341  24.186  1.00  0.00     0.036 C 
ATOM     16  C   UNL A   1      33.999  26.339  24.964  1.00  0.00     0.034 C 
ATOM     17  C   UNL A   1      34.085  28.423  23.616  1.00  0.00     0.034 C 
BRANCH  15  18
ATOM     18  C   UNL A   1      32.158  28.086  25.126  1.00  0.00     0.024 C 
ATOM     19  C   UNL A   1      31.008  28.814  24.434  1.00  0.00     0.006 C 
ENDBRANCH  15  18
ENDBRANCH  13  15
ENDBRANCH   7  11
ENDBRANCH   6   7
ENDBRANCH   3   6
ENDBRANCH   1   2
BRANCH   1  20
ATOM     20  C   UNL A   1      35.276  23.074  26.114  1.00  0.00     0.042 C 
BRANCH  20  21
ATOM     21  C   UNL A   1      36.606  23.553  25.542  1.00  0.00     0.118 C 
BRANCH  21  22
ATOM     22  N   UNL A   1      37.700  22.630  25.840  1.00  0.00    -0.352 N 
ATOM     23  C   UNL A   1      38.965  22.886  26.302  1.00  0.00     0.251 C 
ATOM     24  H   UNL A   1      37.496  21.679  25.686  1.00  0.00     0.163 HD
ATOM     25  O   UNL A   1      39.843  22.029  26.199  1.00  0.00    -0.269 OA
BRANCH  23  26
ATOM     26  C   UNL A   1      39.263  24.194  26.909  1.00  0.00     0.039 A 
ATOM     27  C   UNL A   1      38.853  24.461  28.218  1.00  0.00     0.014 A 
ATOM     28  C   UNL A   1      39.965  25.152  26.176  1.00  0.00     0.014 A 
ATOM     29  C   UNL A   1      39.230  25.661  28.820  1.00  0.00     0.010 A 
ATOM     30  C   UNL A   1      40.417  26.301  26.807  1.00  0.00     0.010 A 
ATOM     31  C   UNL A   1      40.056  26.567  28.135  1.00  0.00    -0.014 A 
BRANCH  31  32
ATOM     32  C   UNL A   1      40.578  27.796  28.779  1.00  0.00     0.031 A 
ATOM     33  C   UNL A   1      41.960  27.800  29.370  1.00  0.00     0.074 A 
ATOM     34  C   UNL A   1      39.766  28.862  28.927  1.00  0.00     0.049 A 
ATOM     35  N   UNL A   1      42.549  28.724  30.083  1.00  0.00    -0.248 NA
ATOM     36  C   UNL A   1      42.778  26.593  29.158  1.00  0.00     0.031 C 
ATOM     37  C   UNL A   1      38.389  28.955  28.435  1.00  0.00     0.029 A 
ATOM     38  N   UNL A   1      39.976  30.066  29.549  1.00  0.00    -0.354 N 
ATOM     39  C   UNL A   1      43.791  28.202  30.424  1.00  0.00     0.074 A 
ATOM     40  C   UNL A   1      43.853  26.862  29.883  1.00  0.00     0.031 C 
ATOM     41  C   UNL A   1      37.887  30.158  28.756  1.00  0.00     0.029 A 
ATOM     42  C   UNL A   1      38.883  30.901  29.520  1.00  0.00     0.049 A 
ATOM     43  H   UNL A   1      40.828  30.310  29.977  1.00  0.00     0.167 HD
ATOM     44  C   UNL A   1      44.796  28.794  31.110  1.00  0.00     0.031 A 
ATOM     45  C   UNL A   1      38.697  32.119  30.064  1.00  0.00     0.031 A 
ATOM     46  C   UNL A   1      44.727  30.131  31.634  1.00  0.00     0.049 A 
ATOM     47  C   UNL A   1      39.820  32.746  30.842  1.00  0.00     0.074 A 
ATOM     48  C   UNL A   1      45.712  30.851  32.286  1.00  0.00     0.029 A 
ATOM     49  N   UNL A   1      43.607  30.947  31.573  1.00  0.00    -0.354 N 
ATOM     50  N   UNL A   1      41.019  32.270  31.086  1.00  0.00    -0.248 NA
ATOM     51  C   UNL A   1      39.569  34.074  31.419  1.00  0.00     0.031 C 
ATOM     52  C   UNL A   1      45.169  32.080  32.672  1.00  0.00     0.029 A 
ATOM     53  C   UNL A   1      43.865  32.151  32.205  1.00  0.00     0.049 A 
ATOM     54  H   UNL A   1      42.755  30.707  31.142  1.00  0.00     0.167 HD
ATOM     55  C   UNL A   1      41.670  33.248  31.828  1.00  0.00     0.074 A 
ATOM     56  C   UNL A   1      40.741  34.350  31.976  1.00  0.00     0.031 C 
ATOM     57  C   UNL A   1      42.924  33.235  32.342  1.00  0.00     0.031 A 
BRANCH  44  58
ATOM     58  C   UNL A   1      46.053  27.996  31.337  1.00  0.00    -0.014 A 
ATOM     59  C   UNL A   1      47.109  28.023  30.408  1.00  0.00     0.010 A 
ATOM     60  C   UNL A   1      46.198  27.238  32.513  1.00  0.00     0.010 A 
ATOM     61  C   UNL A   1      48.269  27.277  30.632  1.00  0.00     0.020 A 
ATOM     62  C   UNL A   1      47.369  26.513  32.755  1.00  0.00     0.020 A 
ATOM     63  C   UNL A   1      48.390  26.525  31.804  1.00  0.00     0.054 A 
BRANCH  63  64
ATOM     64  S   UNL A   1      49.919  25.588  32.077  1.00  0.00     0.124 S 
ATOM     65  O   UNL A   1      50.200  25.074  30.740  1.00  0.00    -0.237 OA
ATOM     66  O   UNL A   1      50.840  26.612  32.563  1.00  0.00    -0.237 OA
ATOM     67  O   UNL A   1      49.537  24.580  33.063  1.00  0.00    -0.744 OA
ENDBRANCH  63  64
ENDBRANCH  44  58
BRANCH  45  68
ATOM     68  C   UNL A   1      37.396  32.823  29.887  1.00  0.00    -0.014 A 
ATOM     69  C   UNL A   1      37.156  33.599  28.740  1.00  0.00     0.010 A 
ATOM     70  C   UNL A   1      36.382  32.704  30.856  1.00  0.00     0.010 A 
ATOM     71  C   UNL A   1      35.934  34.256  28.571  1.00  0.00     0.020 A 
ATOM     72  C   UNL A   1      35.148  33.337  30.677  1.00  0.00     0.020 A 
ATOM     73  C   UNL A   1      34.936  34.119  29.540  1.00  0.00     0.054 A 
BRANCH  73  74
ATOM     74  S   UNL A   1      33.340  34.940  29.273  1.00  0.00     0.124 S 
ATOM     75  O   UNL A   1      33.751  36.240  28.753  1.00  0.00    -0.237 OA
ATOM     76  O   UNL A   1      32.687  34.052  28.314  1.00  0.00    -0.237 OA
ATOM     77  O   UNL A   1      32.737  34.959  30.604  1.00  0.00    -0.744 OA
ENDBRANCH  73  74
ENDBRANCH  45  68
BRANCH  57  78
ATOM     78  C   UNL A   1      43.379  34.454  33.100  1.00  0.00    -0.014 A 
ATOM     79  C   UNL A   1      43.849  35.592  32.423  1.00  0.00     0.010 A 
ATOM     80  C   UNL A   1      43.247  34.490  34.500  1.00  0.00     0.010 A 
ATOM     81  C   UNL A   1      44.194  36.743  33.136  1.00  0.00     0.020 A 
ATOM     82  C   UNL A   1      43.563  35.648  35.213  1.00  0.00     0.020 A 
ATOM     83  C   UNL A   1      44.041  36.766  34.526  1.00  0.00     0.054 A 
BRANCH  83  84
ATOM     84  S   UNL A   1      44.420  38.299  35.418  1.00  0.00     0.124 S 
ATOM     85  O   UNL A   1      43.779  38.065  36.709  1.00  0.00    -0.237 OA
ATOM     86  O   UNL A   1      45.881  38.306  35.434  1.00  0.00    -0.237 OA
ATOM     87  O   UNL A   1      43.805  39.339  34.598  1.00  0.00    -0.744 OA
ENDBRANCH  83  84
ENDBRANCH  57  78
ENDBRANCH  31  32
ENDBRANCH  23  26
ENDBRANCH  21  22
ENDBRANCH  20  21
ENDBRANCH   1  20
TORSDOF 19
ENDMDL
