MODEL 1
REMARK VINA RESULT:     -11.7      0.000      0.000
REMARK SMILES CCC1CN(c2cccc(F)c2C(=O)NCCCNC(=O)c2ccc(-c3c4nc(c(-c5ccc(S(=O)(=O)[O-])cc5)c5ccc([nH]5)c(-c5ccc(S(=O)(=O)[O-])cc5)c5nc(c(-c6ccc(S(=O)(=O)[O-])cc6)c6ccc3[nH]6)C=C5)C=C4)cc2)C1
REMARK SMILES IDX 17 1 16 2 15 3 13 4 14 5 12 7 6 8 7 9 8 10 10 11 9 12 11 13
REMARK SMILES IDX 5 14 3 15 4 16 82 17 2 18 1 19 18 20 19 21 20 22 21 24 22 25
REMARK SMILES IDX 23 26 81 27 24 28 80 29 25 30 26 31 27 32 74 33 28 34 79 35
REMARK SMILES IDX 73 36 75 37 29 38 78 39 72 40 71 41 30 43 60 44 41 45 59 46
REMARK SMILES IDX 42 47 45 48 58 49 76 50 43 51 44 52 57 54 77 55 46 56 31 57
REMARK SMILES IDX 32 58 40 59 33 60 39 61 34 62 35 63 36 64 37 65 38 66 61 67
REMARK SMILES IDX 62 68 70 69 63 70 69 71 64 72 65 73 66 74 67 75 68 76 47 77
REMARK SMILES IDX 48 78 56 79 49 80 55 81 50 82 51 83 52 84 53 85 54 86
REMARK H PARENT 15 6 19 23 75 42 45 53
REMARK Flexibility Score: inf
ROOT
ATOM      1  C   UNL A   1      37.373  23.713  25.542  1.00  0.00     0.042 C 
ENDROOT
BRANCH   1   2
ATOM      2  C   UNL A   1      37.081  22.213  25.605  1.00  0.00     0.118 C 
BRANCH   2   3
ATOM      3  N   UNL A   1      36.009  21.929  26.536  1.00  0.00    -0.352 N 
ATOM      4  C   UNL A   1      34.675  21.632  26.463  1.00  0.00     0.256 C 
ATOM      5  O   UNL A   1      34.197  21.433  27.583  1.00  0.00    -0.269 OA
ATOM      6  H   UNL A   1      36.322  21.958  27.468  1.00  0.00     0.163 HD
BRANCH   4   7
ATOM      7  C   UNL A   1      33.840  21.485  25.215  1.00  0.00     0.098 A 
ATOM      8  C   UNL A   1      33.231  22.638  24.634  1.00  0.00     0.053 A 
ATOM      9  C   UNL A   1      32.326  22.487  23.557  1.00  0.00     0.027 A 
ATOM     10  C   UNL A   1      32.033  21.238  23.022  1.00  0.00     0.005 A 
ATOM     11  C   UNL A   1      33.586  20.257  24.590  1.00  0.00     0.138 A 
ATOM     12  C   UNL A   1      32.679  20.125  23.531  1.00  0.00     0.040 A 
ATOM     13  F   UNL A   1      34.248  19.140  24.906  1.00  0.00    -0.206 F 
BRANCH   8  14
ATOM     14  N   UNL A   1      33.525  23.953  25.058  1.00  0.00    -0.370 N 
ATOM     15  C   UNL A   1      33.230  25.997  25.241  1.00  0.00     0.028 C 
ATOM     16  C   UNL A   1      33.882  25.059  24.216  1.00  0.00     0.122 C 
ATOM     17  C   UNL A   1      32.957  24.749  26.093  1.00  0.00     0.122 C 
BRANCH  15  18
ATOM     18  C   UNL A   1      34.008  27.160  25.854  1.00  0.00     0.004 C 
ATOM     19  C   UNL A   1      33.183  28.415  26.089  1.00  0.00     0.004 C 
ENDBRANCH  15  18
ENDBRANCH   8  14
ENDBRANCH   4   7
ENDBRANCH   2   3
ENDBRANCH   1   2
BRANCH   1  20
ATOM     20  C   UNL A   1      38.400  24.180  26.578  1.00  0.00     0.118 C 
BRANCH  20  21
ATOM     21  N   UNL A   1      39.749  24.233  26.027  1.00  0.00    -0.352 N 
ATOM     22  C   UNL A   1      40.756  25.146  26.224  1.00  0.00     0.251 C 
ATOM     23  H   UNL A   1      39.975  23.495  25.416  1.00  0.00     0.163 HD
ATOM     24  O   UNL A   1      41.714  25.159  25.458  1.00  0.00    -0.269 OA
BRANCH  22  25
ATOM     25  C   UNL A   1      40.697  26.102  27.350  1.00  0.00     0.039 A 
ATOM     26  C   UNL A   1      41.575  27.190  27.363  1.00  0.00     0.014 A 
ATOM     27  C   UNL A   1      39.825  25.894  28.423  1.00  0.00     0.014 A 
ATOM     28  C   UNL A   1      41.540  28.098  28.424  1.00  0.00     0.010 A 
ATOM     29  C   UNL A   1      39.741  26.839  29.441  1.00  0.00     0.010 A 
ATOM     30  C   UNL A   1      40.602  27.944  29.458  1.00  0.00    -0.014 A 
BRANCH  30  31
ATOM     31  C   UNL A   1      40.509  28.925  30.569  1.00  0.00     0.031 A 
ATOM     32  C   UNL A   1      41.401  28.792  31.775  1.00  0.00     0.074 A 
ATOM     33  C   UNL A   1      39.567  29.887  30.528  1.00  0.00     0.049 A 
ATOM     34  N   UNL A   1      41.410  29.497  32.877  1.00  0.00    -0.248 NA
ATOM     35  C   UNL A   1      42.391  27.703  31.749  1.00  0.00     0.031 C 
ATOM     36  C   UNL A   1      38.611  30.089  29.437  1.00  0.00     0.029 A 
ATOM     37  N   UNL A   1      39.249  30.868  31.433  1.00  0.00    -0.354 N 
ATOM     38  C   UNL A   1      42.390  28.927  33.682  1.00  0.00     0.074 A 
ATOM     39  C   UNL A   1      42.913  27.785  32.964  1.00  0.00     0.031 C 
ATOM     40  C   UNL A   1      37.826  31.137  29.728  1.00  0.00     0.029 A 
ATOM     41  C   UNL A   1      38.194  31.658  31.041  1.00  0.00     0.049 A 
ATOM     42  H   UNL A   1      39.731  30.995  32.282  1.00  0.00     0.167 HD
ATOM     43  C   UNL A   1      42.830  29.328  34.900  1.00  0.00     0.031 A 
ATOM     44  C   UNL A   1      37.583  32.680  31.669  1.00  0.00     0.031 A 
ATOM     45  C   UNL A   1      42.306  30.466  35.606  1.00  0.00     0.049 A 
ATOM     46  C   UNL A   1      38.087  33.114  33.017  1.00  0.00     0.074 A 
ATOM     47  C   UNL A   1      42.712  30.989  36.822  1.00  0.00     0.029 A 
ATOM     48  N   UNL A   1      41.257  31.259  35.161  1.00  0.00    -0.354 N 
ATOM     49  N   UNL A   1      39.058  32.602  33.736  1.00  0.00    -0.248 NA
ATOM     50  C   UNL A   1      37.426  34.273  33.631  1.00  0.00     0.031 C 
ATOM     51  C   UNL A   1      41.876  32.067  37.134  1.00  0.00     0.029 A 
ATOM     52  C   UNL A   1      40.989  32.253  36.086  1.00  0.00     0.049 A 
ATOM     53  H   UNL A   1      40.774  31.131  34.313  1.00  0.00     0.167 HD
ATOM     54  C   UNL A   1      39.137  33.387  34.880  1.00  0.00     0.074 A 
ATOM     55  C   UNL A   1      38.127  34.419  34.747  1.00  0.00     0.031 C 
ATOM     56  C   UNL A   1      39.972  33.267  35.942  1.00  0.00     0.031 A 
BRANCH  43  57
ATOM     57  C   UNL A   1      43.926  28.513  35.539  1.00  0.00    -0.014 A 
ATOM     58  C   UNL A   1      45.282  28.801  35.294  1.00  0.00     0.010 A 
ATOM     59  C   UNL A   1      43.600  27.445  36.393  1.00  0.00     0.010 A 
ATOM     60  C   UNL A   1      46.287  27.997  35.836  1.00  0.00     0.020 A 
ATOM     61  C   UNL A   1      44.605  26.657  36.966  1.00  0.00     0.020 A 
ATOM     62  C   UNL A   1      45.942  26.923  36.661  1.00  0.00     0.054 A 
BRANCH  62  63
ATOM     63  S   UNL A   1      47.266  25.886  37.341  1.00  0.00     0.124 S 
ATOM     64  O   UNL A   1      48.462  26.618  36.927  1.00  0.00    -0.237 OA
ATOM     65  O   UNL A   1      46.985  25.902  38.774  1.00  0.00    -0.237 OA
ATOM     66  O   UNL A   1      47.068  24.596  36.684  1.00  0.00    -0.744 OA
ENDBRANCH  62  63
ENDBRANCH  43  57
BRANCH  44  67
ATOM     67  C   UNL A   1      36.439  33.366  31.010  1.00  0.00    -0.014 A 
ATOM     68  C   UNL A   1      35.330  33.788  31.762  1.00  0.00     0.010 A 
ATOM     69  C   UNL A   1      36.483  33.654  29.633  1.00  0.00     0.010 A 
ATOM     70  C   UNL A   1      34.283  34.484  31.149  1.00  0.00     0.020 A 
ATOM     71  C   UNL A   1      35.450  34.373  29.022  1.00  0.00     0.020 A 
ATOM     72  C   UNL A   1      34.354  34.779  29.785  1.00  0.00     0.054 A 
BRANCH  72  73
ATOM     73  S   UNL A   1      33.025  35.758  29.031  1.00  0.00     0.124 S 
ATOM     74  O   UNL A   1      32.213  36.114  30.190  1.00  0.00    -0.237 OA
ATOM     75  O   UNL A   1      33.757  36.858  28.407  1.00  0.00    -0.237 OA
ATOM     76  O   UNL A   1      32.403  34.825  28.093  1.00  0.00    -0.744 OA
ENDBRANCH  72  73
ENDBRANCH  44  67
BRANCH  56  77
ATOM     77  C   UNL A   1      39.846  34.292  37.039  1.00  0.00    -0.014 A 
ATOM     78  C   UNL A   1      40.414  35.571  36.909  1.00  0.00     0.010 A 
ATOM     79  C   UNL A   1      39.098  33.986  38.190  1.00  0.00     0.010 A 
ATOM     80  C   UNL A   1      40.261  36.517  37.926  1.00  0.00     0.020 A 
ATOM     81  C   UNL A   1      38.919  34.938  39.196  1.00  0.00     0.020 A 
ATOM     82  C   UNL A   1      39.514  36.195  39.063  1.00  0.00     0.054 A 
BRANCH  82  83
ATOM     83  S   UNL A   1      39.290  37.455  40.347  1.00  0.00     0.124 S 
ATOM     84  O   UNL A   1      38.478  38.453  39.655  1.00  0.00    -0.237 OA
ATOM     85  O   UNL A   1      38.610  36.716  41.408  1.00  0.00    -0.237 OA
ATOM     86  O   UNL A   1      40.654  37.873  40.665  1.00  0.00    -0.744 OA
ENDBRANCH  82  83
ENDBRANCH  56  77
ENDBRANCH  30  31
ENDBRANCH  22  25
ENDBRANCH  20  21
ENDBRANCH   1  20
TORSDOF 15
ENDMDL
MODEL 2
REMARK VINA RESULT:     -11.7      4.753     10.542
REMARK SMILES CCC1CN(c2cccc(F)c2C(=O)NCCCNC(=O)c2ccc(-c3c4nc(c(-c5ccc(S(=O)(=O)[O-])cc5)c5ccc([nH]5)c(-c5ccc(S(=O)(=O)[O-])cc5)c5nc(c(-c6ccc(S(=O)(=O)[O-])cc6)c6ccc3[nH]6)C=C5)C=C4)cc2)C1
REMARK SMILES IDX 17 1 16 2 15 3 13 4 14 5 12 7 6 8 7 9 8 10 10 11 9 12 11 13
REMARK SMILES IDX 5 14 3 15 4 16 82 17 2 18 1 19 18 20 19 21 20 22 21 24 22 25
REMARK SMILES IDX 23 26 81 27 24 28 80 29 25 30 26 31 27 32 74 33 28 34 79 35
REMARK SMILES IDX 73 36 75 37 29 38 78 39 72 40 71 41 30 43 60 44 41 45 59 46
REMARK SMILES IDX 42 47 45 48 58 49 76 50 43 51 44 52 57 54 77 55 46 56 31 57
REMARK SMILES IDX 32 58 40 59 33 60 39 61 34 62 35 63 36 64 37 65 38 66 61 67
REMARK SMILES IDX 62 68 70 69 63 70 69 71 64 72 65 73 66 74 67 75 68 76 47 77
REMARK SMILES IDX 48 78 56 79 49 80 55 81 50 82 51 83 52 84 53 85 54 86
REMARK H PARENT 15 6 19 23 75 42 45 53
REMARK Flexibility Score: inf
ROOT
ATOM      1  C   UNL A   1      33.954  27.817  25.609  1.00  0.00     0.042 C 
ENDROOT
BRANCH   1   2
ATOM      2  C   UNL A   1      33.338  28.584  24.438  1.00  0.00     0.118 C 
BRANCH   2   3
ATOM      3  N   UNL A   1      33.026  27.694  23.339  1.00  0.00    -0.352 N 
ATOM      4  C   UNL A   1      31.911  27.325  22.637  1.00  0.00     0.256 C 
ATOM      5  O   UNL A   1      32.189  26.531  21.735  1.00  0.00    -0.269 OA
ATOM      6  H   UNL A   1      33.829  27.231  23.009  1.00  0.00     0.163 HD
BRANCH   4   7
ATOM      7  C   UNL A   1      30.502  27.826  22.836  1.00  0.00     0.098 A 
ATOM      8  C   UNL A   1      29.563  27.024  23.552  1.00  0.00     0.053 A 
ATOM      9  C   UNL A   1      28.205  27.416  23.610  1.00  0.00     0.027 A 
ATOM     10  C   UNL A   1      27.758  28.588  23.010  1.00  0.00     0.005 A 
ATOM     11  C   UNL A   1      30.028  29.041  22.323  1.00  0.00     0.138 A 
ATOM     12  C   UNL A   1      28.679  29.407  22.381  1.00  0.00     0.040 A 
ATOM     13  F   UNL A   1      30.842  29.970  21.812  1.00  0.00    -0.206 F 
BRANCH   8  14
ATOM     14  N   UNL A   1      29.935  25.858  24.258  1.00  0.00    -0.370 N 
ATOM     15  C   UNL A   1      31.206  24.347  24.888  1.00  0.00     0.028 C 
ATOM     16  C   UNL A   1      30.284  24.590  23.685  1.00  0.00     0.122 C 
ATOM     17  C   UNL A   1      30.713  25.692  25.440  1.00  0.00     0.122 C 
BRANCH  15  18
ATOM     18  C   UNL A   1      31.067  23.093  25.749  1.00  0.00     0.004 C 
ATOM     19  C   UNL A   1      31.947  21.932  25.318  1.00  0.00     0.004 C 
ENDBRANCH  15  18
ENDBRANCH   8  14
ENDBRANCH   4   7
ENDBRANCH   2   3
ENDBRANCH   1   2
BRANCH   1  20
ATOM     20  C   UNL A   1      33.472  28.304  26.979  1.00  0.00     0.118 C 
BRANCH  20  21
ATOM     21  N   UNL A   1      33.474  29.758  27.077  1.00  0.00    -0.352 N 
ATOM     22  C   UNL A   1      34.364  30.610  27.683  1.00  0.00     0.251 C 
ATOM     23  H   UNL A   1      32.714  30.203  26.635  1.00  0.00     0.163 HD
ATOM     24  O   UNL A   1      34.039  31.775  27.886  1.00  0.00    -0.269 OA
BRANCH  22  25
ATOM     25  C   UNL A   1      35.706  30.135  28.084  1.00  0.00     0.039 A 
ATOM     26  C   UNL A   1      36.724  30.091  27.127  1.00  0.00     0.014 A 
ATOM     27  C   UNL A   1      35.945  29.675  29.382  1.00  0.00     0.014 A 
ATOM     28  C   UNL A   1      37.995  29.636  27.486  1.00  0.00     0.010 A 
ATOM     29  C   UNL A   1      37.230  29.293  29.757  1.00  0.00     0.010 A 
ATOM     30  C   UNL A   1      38.265  29.259  28.812  1.00  0.00    -0.014 A 
BRANCH  30  31
ATOM     31  C   UNL A   1      39.622  28.824  29.231  1.00  0.00     0.031 A 
ATOM     32  C   UNL A   1      40.534  29.779  29.954  1.00  0.00     0.074 A 
ATOM     33  C   UNL A   1      40.061  27.598  28.888  1.00  0.00     0.049 A 
ATOM     34  N   UNL A   1      41.777  29.611  30.326  1.00  0.00    -0.248 NA
ATOM     35  C   UNL A   1      39.984  31.105  30.275  1.00  0.00     0.031 C 
ATOM     36  C   UNL A   1      39.288  26.600  28.143  1.00  0.00     0.029 A 
ATOM     37  N   UNL A   1      41.268  26.985  29.109  1.00  0.00    -0.354 N 
ATOM     38  C   UNL A   1      42.164  30.814  30.905  1.00  0.00     0.074 A 
ATOM     39  C   UNL A   1      41.042  31.720  30.784  1.00  0.00     0.031 C 
ATOM     40  C   UNL A   1      40.034  25.497  27.984  1.00  0.00     0.029 A 
ATOM     41  C   UNL A   1      41.348  25.719  28.578  1.00  0.00     0.049 A 
ATOM     42  H   UNL A   1      42.007  27.411  29.601  1.00  0.00     0.167 HD
ATOM     43  C   UNL A   1      43.339  31.132  31.500  1.00  0.00     0.031 A 
ATOM     44  C   UNL A   1      42.367  24.839  28.561  1.00  0.00     0.031 A 
ATOM     45  C   UNL A   1      44.450  30.226  31.618  1.00  0.00     0.049 A 
ATOM     46  C   UNL A   1      43.661  25.206  29.231  1.00  0.00     0.074 A 
ATOM     47  C   UNL A   1      45.667  30.429  32.244  1.00  0.00     0.029 A 
ATOM     48  N   UNL A   1      44.481  28.941  31.093  1.00  0.00    -0.354 N 
ATOM     49  N   UNL A   1      43.988  26.327  29.830  1.00  0.00    -0.248 NA
ATOM     50  C   UNL A   1      44.718  24.187  29.238  1.00  0.00     0.031 C 
ATOM     51  C   UNL A   1      46.451  29.285  32.056  1.00  0.00     0.029 A 
ATOM     52  C   UNL A   1      45.701  28.348  31.364  1.00  0.00     0.049 A 
ATOM     53  H   UNL A   1      43.743  28.516  30.600  1.00  0.00     0.167 HD
ATOM     54  C   UNL A   1      45.282  26.142  30.302  1.00  0.00     0.074 A 
ATOM     55  C   UNL A   1      45.670  24.794  29.934  1.00  0.00     0.031 C 
ATOM     56  C   UNL A   1      46.075  27.007  30.981  1.00  0.00     0.031 A 
BRANCH  43  57
ATOM     57  C   UNL A   1      43.474  32.527  32.057  1.00  0.00    -0.014 A 
ATOM     58  C   UNL A   1      43.054  32.830  33.366  1.00  0.00     0.010 A 
ATOM     59  C   UNL A   1      44.024  33.550  31.265  1.00  0.00     0.010 A 
ATOM     60  C   UNL A   1      43.120  34.140  33.847  1.00  0.00     0.020 A 
ATOM     61  C   UNL A   1      44.122  34.857  31.755  1.00  0.00     0.020 A 
ATOM     62  C   UNL A   1      43.644  35.148  33.034  1.00  0.00     0.054 A 
BRANCH  62  63
ATOM     63  S   UNL A   1      43.704  36.843  33.677  1.00  0.00     0.124 S 
ATOM     64  O   UNL A   1      42.528  36.877  34.544  1.00  0.00    -0.237 OA
ATOM     65  O   UNL A   1      44.992  36.882  34.366  1.00  0.00    -0.237 OA
ATOM     66  O   UNL A   1      43.617  37.673  32.478  1.00  0.00    -0.744 OA
ENDBRANCH  62  63
ENDBRANCH  43  57
BRANCH  44  67
ATOM     67  C   UNL A   1      42.183  23.519  27.898  1.00  0.00    -0.014 A 
ATOM     68  C   UNL A   1      42.761  23.263  26.643  1.00  0.00     0.010 A 
ATOM     69  C   UNL A   1      41.478  22.490  28.550  1.00  0.00     0.010 A 
ATOM     70  C   UNL A   1      42.636  22.003  26.051  1.00  0.00     0.020 A 
ATOM     71  C   UNL A   1      41.372  21.221  27.972  1.00  0.00     0.020 A 
ATOM     72  C   UNL A   1      41.949  20.988  26.723  1.00  0.00     0.054 A 
BRANCH  72  73
ATOM     73  S   UNL A   1      41.873  19.338  25.972  1.00  0.00     0.124 S 
ATOM     74  O   UNL A   1      42.370  18.488  27.049  1.00  0.00    -0.237 OA
ATOM     75  O   UNL A   1      40.453  19.198  25.658  1.00  0.00    -0.237 OA
ATOM     76  O   UNL A   1      42.750  19.451  24.807  1.00  0.00    -0.744 OA
ENDBRANCH  72  73
ENDBRANCH  44  67
BRANCH  56  77
ATOM     77  C   UNL A   1      47.438  26.517  31.393  1.00  0.00    -0.014 A 
ATOM     78  C   UNL A   1      47.666  25.992  32.677  1.00  0.00     0.010 A 
ATOM     79  C   UNL A   1      48.490  26.529  30.459  1.00  0.00     0.010 A 
ATOM     80  C   UNL A   1      48.932  25.516  33.029  1.00  0.00     0.020 A 
ATOM     81  C   UNL A   1      49.749  26.027  30.798  1.00  0.00     0.020 A 
ATOM     82  C   UNL A   1      49.965  25.535  32.088  1.00  0.00     0.054 A 
BRANCH  82  83
ATOM     83  S   UNL A   1      51.584  24.867  32.554  1.00  0.00     0.124 S 
ATOM     84  O   UNL A   1      51.572  25.027  34.006  1.00  0.00    -0.237 OA
ATOM     85  O   UNL A   1      51.515  23.490  32.072  1.00  0.00    -0.237 OA
ATOM     86  O   UNL A   1      52.531  25.722  31.841  1.00  0.00    -0.744 OA
ENDBRANCH  82  83
ENDBRANCH  56  77
ENDBRANCH  30  31
ENDBRANCH  22  25
ENDBRANCH  20  21
ENDBRANCH   1  20
TORSDOF 15
ENDMDL
MODEL 3
REMARK VINA RESULT:     -11.5      4.530     10.372
REMARK SMILES CCC1CN(c2cccc(F)c2C(=O)NCCCNC(=O)c2ccc(-c3c4nc(c(-c5ccc(S(=O)(=O)[O-])cc5)c5ccc([nH]5)c(-c5ccc(S(=O)(=O)[O-])cc5)c5nc(c(-c6ccc(S(=O)(=O)[O-])cc6)c6ccc3[nH]6)C=C5)C=C4)cc2)C1
REMARK SMILES IDX 17 1 16 2 15 3 13 4 14 5 12 7 6 8 7 9 8 10 10 11 9 12 11 13
REMARK SMILES IDX 5 14 3 15 4 16 82 17 2 18 1 19 18 20 19 21 20 22 21 24 22 25
REMARK SMILES IDX 23 26 81 27 24 28 80 29 25 30 26 31 27 32 74 33 28 34 79 35
REMARK SMILES IDX 73 36 75 37 29 38 78 39 72 40 71 41 30 43 60 44 41 45 59 46
REMARK SMILES IDX 42 47 45 48 58 49 76 50 43 51 44 52 57 54 77 55 46 56 31 57
REMARK SMILES IDX 32 58 40 59 33 60 39 61 34 62 35 63 36 64 37 65 38 66 61 67
REMARK SMILES IDX 62 68 70 69 63 70 69 71 64 72 65 73 66 74 67 75 68 76 47 77
REMARK SMILES IDX 48 78 56 79 49 80 55 81 50 82 51 83 52 84 53 85 54 86
REMARK H PARENT 15 6 19 23 75 42 45 53
REMARK Flexibility Score: inf
ROOT
ATOM      1  C   UNL A   1      34.350  27.726  25.784  1.00  0.00     0.042 C 
ENDROOT
BRANCH   1   2
ATOM      2  C   UNL A   1      33.874  28.425  24.509  1.00  0.00     0.118 C 
BRANCH   2   3
ATOM      3  N   UNL A   1      33.524  27.462  23.486  1.00  0.00    -0.352 N 
ATOM      4  C   UNL A   1      32.767  26.325  23.401  1.00  0.00     0.256 C 
ATOM      5  O   UNL A   1      32.759  25.875  22.252  1.00  0.00    -0.269 OA
ATOM      6  H   UNL A   1      33.941  27.684  22.623  1.00  0.00     0.163 HD
BRANCH   4   7
ATOM      7  C   UNL A   1      31.966  25.678  24.503  1.00  0.00     0.098 A 
ATOM      8  C   UNL A   1      32.453  24.489  25.124  1.00  0.00     0.053 A 
ATOM      9  C   UNL A   1      31.638  23.795  26.049  1.00  0.00     0.027 A 
ATOM     10  C   UNL A   1      30.374  24.258  26.397  1.00  0.00     0.005 A 
ATOM     11  C   UNL A   1      30.726  26.157  24.947  1.00  0.00     0.138 A 
ATOM     12  C   UNL A   1      29.928  25.451  25.855  1.00  0.00     0.040 A 
ATOM     13  F   UNL A   1      30.254  27.356  24.597  1.00  0.00    -0.206 F 
BRANCH   8  14
ATOM     14  N   UNL A   1      33.752  23.983  24.894  1.00  0.00    -0.370 N 
ATOM     15  C   UNL A   1      35.290  22.595  24.980  1.00  0.00     0.028 C 
ATOM     16  C   UNL A   1      34.747  23.704  25.891  1.00  0.00     0.122 C 
ATOM     17  C   UNL A   1      34.226  23.021  23.958  1.00  0.00     0.122 C 
BRANCH  15  18
ATOM     18  C   UNL A   1      36.757  22.566  24.559  1.00  0.00     0.004 C 
ATOM     19  C   UNL A   1      37.415  21.200  24.659  1.00  0.00     0.004 C 
ENDBRANCH  15  18
ENDBRANCH   8  14
ENDBRANCH   4   7
ENDBRANCH   2   3
ENDBRANCH   1   2
BRANCH   1  20
ATOM     20  C   UNL A   1      33.567  28.136  27.034  1.00  0.00     0.118 C 
BRANCH  20  21
ATOM     21  N   UNL A   1      33.446  29.583  27.157  1.00  0.00    -0.352 N 
ATOM     22  C   UNL A   1      34.268  30.497  27.768  1.00  0.00     0.251 C 
ATOM     23  H   UNL A   1      32.646  29.968  26.731  1.00  0.00     0.163 HD
ATOM     24  O   UNL A   1      33.848  31.628  27.994  1.00  0.00    -0.269 OA
BRANCH  22  25
ATOM     25  C   UNL A   1      35.650  30.133  28.147  1.00  0.00     0.039 A 
ATOM     26  C   UNL A   1      35.898  29.669  29.443  1.00  0.00     0.014 A 
ATOM     27  C   UNL A   1      36.709  30.308  27.252  1.00  0.00     0.014 A 
ATOM     28  C   UNL A   1      37.199  29.329  29.821  1.00  0.00     0.010 A 
ATOM     29  C   UNL A   1      37.992  29.899  27.606  1.00  0.00     0.010 A 
ATOM     30  C   UNL A   1      38.252  29.416  28.896  1.00  0.00    -0.014 A 
BRANCH  30  31
ATOM     31  C   UNL A   1      39.634  29.009  29.258  1.00  0.00     0.031 A 
ATOM     32  C   UNL A   1      40.564  29.992  29.919  1.00  0.00     0.074 A 
ATOM     33  C   UNL A   1      40.076  27.783  28.918  1.00  0.00     0.049 A 
ATOM     34  N   UNL A   1      41.826  29.850  30.234  1.00  0.00    -0.248 NA
ATOM     35  C   UNL A   1      40.008  31.316  30.240  1.00  0.00     0.031 C 
ATOM     36  C   UNL A   1      39.285  26.760  28.230  1.00  0.00     0.029 A 
ATOM     37  N   UNL A   1      41.302  27.193  29.093  1.00  0.00    -0.354 N 
ATOM     38  C   UNL A   1      42.220  31.071  30.771  1.00  0.00     0.074 A 
ATOM     39  C   UNL A   1      41.079  31.956  30.687  1.00  0.00     0.031 C 
ATOM     40  C   UNL A   1      40.040  25.665  28.056  1.00  0.00     0.029 A 
ATOM     41  C   UNL A   1      41.377  25.919  28.583  1.00  0.00     0.049 A 
ATOM     42  H   UNL A   1      42.056  27.640  29.541  1.00  0.00     0.167 HD
ATOM     43  C   UNL A   1      43.417  31.418  31.304  1.00  0.00     0.031 A 
ATOM     44  C   UNL A   1      42.408  25.054  28.534  1.00  0.00     0.031 A 
ATOM     45  C   UNL A   1      44.547  30.531  31.385  1.00  0.00     0.049 A 
ATOM     46  C   UNL A   1      43.726  25.454  29.134  1.00  0.00     0.074 A 
ATOM     47  C   UNL A   1      45.789  30.765  31.949  1.00  0.00     0.029 A 
ATOM     48  N   UNL A   1      44.573  29.237  30.884  1.00  0.00    -0.354 N 
ATOM     49  N   UNL A   1      44.063  26.591  29.696  1.00  0.00    -0.248 NA
ATOM     50  C   UNL A   1      44.799  24.451  29.110  1.00  0.00     0.031 C 
ATOM     51  C   UNL A   1      46.581  29.630  31.745  1.00  0.00     0.029 A 
ATOM     52  C   UNL A   1      45.815  28.667  31.108  1.00  0.00     0.049 A 
ATOM     53  H   UNL A   1      43.820  28.790  30.435  1.00  0.00     0.167 HD
ATOM     54  C   UNL A   1      45.381  26.435  30.109  1.00  0.00     0.074 A 
ATOM     55  C   UNL A   1      45.773  25.086  29.748  1.00  0.00     0.031 C 
ATOM     56  C   UNL A   1      46.191  27.325  30.733  1.00  0.00     0.031 A 
BRANCH  43  57
ATOM     57  C   UNL A   1      43.555  32.825  31.828  1.00  0.00    -0.014 A 
ATOM     58  C   UNL A   1      43.171  33.153  33.142  1.00  0.00     0.010 A 
ATOM     59  C   UNL A   1      44.072  33.836  30.998  1.00  0.00     0.010 A 
ATOM     60  C   UNL A   1      43.239  34.473  33.593  1.00  0.00     0.020 A 
ATOM     61  C   UNL A   1      44.174  35.154  31.457  1.00  0.00     0.020 A 
ATOM     62  C   UNL A   1      43.731  35.468  32.744  1.00  0.00     0.054 A 
BRANCH  62  63
ATOM     63  S   UNL A   1      43.794  37.177  33.349  1.00  0.00     0.124 S 
ATOM     64  O   UNL A   1      45.079  37.200  34.047  1.00  0.00    -0.237 OA
ATOM     65  O   UNL A   1      43.737  37.958  32.117  1.00  0.00    -0.237 OA
ATOM     66  O   UNL A   1      42.618  37.285  34.208  1.00  0.00    -0.744 OA
ENDBRANCH  62  63
ENDBRANCH  43  57
BRANCH  44  67
ATOM     67  C   UNL A   1      42.214  23.718  27.906  1.00  0.00    -0.014 A 
ATOM     68  C   UNL A   1      42.597  23.494  26.573  1.00  0.00     0.010 A 
ATOM     69  C   UNL A   1      41.700  22.648  28.660  1.00  0.00     0.010 A 
ATOM     70  C   UNL A   1      42.468  22.223  26.004  1.00  0.00     0.020 A 
ATOM     71  C   UNL A   1      41.594  21.370  28.103  1.00  0.00     0.020 A 
ATOM     72  C   UNL A   1      41.975  21.167  26.776  1.00  0.00     0.054 A 
BRANCH  72  73
ATOM     73  S   UNL A   1      41.897  19.509  26.042  1.00  0.00     0.124 S 
ATOM     74  O   UNL A   1      40.471  19.364  25.766  1.00  0.00    -0.237 OA
ATOM     75  O   UNL A   1      42.759  19.643  24.869  1.00  0.00    -0.237 OA
ATOM     76  O   UNL A   1      42.423  18.644  27.095  1.00  0.00    -0.744 OA
ENDBRANCH  72  73
ENDBRANCH  44  67
BRANCH  56  77
ATOM     77  C   UNL A   1      47.580  26.864  31.089  1.00  0.00    -0.014 A 
ATOM     78  C   UNL A   1      47.844  26.227  32.314  1.00  0.00     0.010 A 
ATOM     79  C   UNL A   1      48.621  27.019  30.156  1.00  0.00     0.010 A 
ATOM     80  C   UNL A   1      49.135  25.781  32.612  1.00  0.00     0.020 A 
ATOM     81  C   UNL A   1      49.906  26.548  30.439  1.00  0.00     0.020 A 
ATOM     82  C   UNL A   1      50.157  25.943  31.672  1.00  0.00     0.054 A 
BRANCH  82  83
ATOM     83  S   UNL A   1      51.811  25.313  32.064  1.00  0.00     0.124 S 
ATOM     84  O   UNL A   1      52.094  25.971  33.336  1.00  0.00    -0.237 OA
ATOM     85  O   UNL A   1      51.596  23.869  32.137  1.00  0.00    -0.237 OA
ATOM     86  O   UNL A   1      52.628  25.757  30.937  1.00  0.00    -0.744 OA
ENDBRANCH  82  83
ENDBRANCH  56  77
ENDBRANCH  30  31
ENDBRANCH  22  25
ENDBRANCH  20  21
ENDBRANCH   1  20
TORSDOF 15
ENDMDL
