MODEL 1
REMARK VINA RESULT:     -12.0      0.000      0.000
REMARK SMILES Cc1cc(C[NH+]2C[C@@H](C)[C@H](C)C2)oc1C(=O)NCCCNC(=O)c1ccc(-c2c3nc(c(-c4ccc(S(=O)(=O)[O-])cc4)c4ccc([nH]4)c(-c4ccc(S(=O)(=O)[O-])cc4)c4nc(c(-c5ccc(S(=O)(=O)[O-])cc5)c5ccc2[nH]5)C=C4)C=C3)cc1
REMARK SMILES IDX 19 1 18 2 17 3 15 4 16 5 14 7 1 8 2 9 3 10 4 11 13 12 5 13
REMARK SMILES IDX 6 14 7 15 12 16 8 18 10 19 9 20 11 21 20 22 21 23 22 24
REMARK SMILES IDX 23 26 24 27 25 28 83 29 26 30 82 31 27 32 28 33 29 34 76 35
REMARK SMILES IDX 30 36 81 37 75 38 77 39 31 40 80 41 74 42 73 43 32 45 62 46
REMARK SMILES IDX 43 47 61 48 44 49 47 50 60 51 78 52 45 53 46 54 59 56 79 57
REMARK SMILES IDX 48 58 33 59 34 60 42 61 35 62 41 63 36 64 37 65 38 66 39 67
REMARK SMILES IDX 40 68 63 69 64 70 72 71 65 72 71 73 66 74 67 75 68 76 69 77
REMARK SMILES IDX 70 78 49 79 50 80 58 81 51 82 57 83 52 84 53 85 54 86 55 87
REMARK SMILES IDX 56 88
REMARK H PARENT 17 6 6 17 21 25 77 44 47 55
REMARK Flexibility Score: inf
ROOT
ATOM      1  C   UNL A   1      37.230  22.936  26.007  1.00  0.00     0.042 C 
ENDROOT
BRANCH   1   2
ATOM      2  C   UNL A   1      37.024  22.509  24.565  1.00  0.00     0.118 C 
BRANCH   2   3
ATOM      3  N   UNL A   1      36.279  23.451  23.765  1.00  0.00    -0.349 N 
ATOM      4  C   UNL A   1      34.922  23.580  23.580  1.00  0.00     0.287 C 
ATOM      5  O   UNL A   1      34.590  24.442  22.762  1.00  0.00    -0.266 OA
ATOM      6  H   UNL A   1      36.829  24.105  23.276  1.00  0.00     0.163 HD
BRANCH   4   7
ATOM      7  C   UNL A   1      33.947  22.745  24.273  1.00  0.00     0.194 A 
ATOM      8  C   UNL A   1      32.856  23.943  26.347  1.00  0.00     0.049 C 
ATOM      9  C   UNL A   1      33.087  22.849  25.370  1.00  0.00     0.001 A 
ATOM     10  C   UNL A   1      32.360  21.625  25.424  1.00  0.00     0.056 A 
ATOM     11  C   UNL A   1      32.836  20.822  24.419  1.00  0.00     0.159 A 
ATOM     12  O   UNL A   1      33.761  21.504  23.699  1.00  0.00    -0.450 OA
BRANCH  11  13
ATOM     13  C   UNL A   1      32.548  19.418  24.005  1.00  0.00     0.338 C 
BRANCH  13  14
ATOM     14  N   UNL A   1      33.064  18.390  24.914  1.00  0.00    -0.328 N 
ATOM     15  C   UNL A   1      32.188  17.226  25.068  1.00  0.00     0.266 C 
ATOM     16  C   UNL A   1      34.428  17.924  24.650  1.00  0.00     0.266 C 
ATOM     17  H   UNL A   1      33.087  18.909  25.792  1.00  0.00     0.348 HD
ATOM     18  C   UNL A   1      33.130  16.160  25.621  1.00  0.00     0.049 C 
ATOM     19  C   UNL A   1      34.384  16.399  24.781  1.00  0.00     0.049 C 
ATOM     20  C   UNL A   1      32.558  14.756  25.491  1.00  0.00     0.014 C 
ATOM     21  C   UNL A   1      35.660  15.822  25.372  1.00  0.00     0.014 C 
ENDBRANCH  13  14
ENDBRANCH  11  13
ENDBRANCH   4   7
ENDBRANCH   2   3
ENDBRANCH   1   2
BRANCH   1  22
ATOM     22  C   UNL A   1      38.088  24.178  26.191  1.00  0.00     0.118 C 
BRANCH  22  23
ATOM     23  N   UNL A   1      39.521  23.914  26.116  1.00  0.00    -0.352 N 
ATOM     24  C   UNL A   1      40.604  24.559  26.667  1.00  0.00     0.251 C 
ATOM     25  H   UNL A   1      39.755  23.130  25.568  1.00  0.00     0.163 HD
ATOM     26  O   UNL A   1      41.733  24.222  26.320  1.00  0.00    -0.269 OA
BRANCH  24  27
ATOM     27  C   UNL A   1      40.436  25.670  27.635  1.00  0.00     0.039 A 
ATOM     28  C   UNL A   1      39.444  25.573  28.619  1.00  0.00     0.014 A 
ATOM     29  C   UNL A   1      41.226  26.816  27.576  1.00  0.00     0.014 A 
ATOM     30  C   UNL A   1      39.319  26.575  29.589  1.00  0.00     0.010 A 
ATOM     31  C   UNL A   1      41.187  27.746  28.609  1.00  0.00     0.010 A 
ATOM     32  C   UNL A   1      40.227  27.645  29.626  1.00  0.00    -0.014 A 
BRANCH  32  33
ATOM     33  C   UNL A   1      40.192  28.678  30.696  1.00  0.00     0.031 A 
ATOM     34  C   UNL A   1      41.106  28.559  31.891  1.00  0.00     0.074 A 
ATOM     35  C   UNL A   1      39.280  29.671  30.643  1.00  0.00     0.049 A 
ATOM     36  N   UNL A   1      41.139  29.283  32.980  1.00  0.00    -0.248 NA
ATOM     37  C   UNL A   1      42.084  27.458  31.876  1.00  0.00     0.031 C 
ATOM     38  C   UNL A   1      38.305  29.876  29.569  1.00  0.00     0.029 A 
ATOM     39  N   UNL A   1      39.019  30.694  31.522  1.00  0.00    -0.354 N 
ATOM     40  C   UNL A   1      42.109  28.703  33.791  1.00  0.00     0.074 A 
ATOM     41  C   UNL A   1      42.604  27.539  33.092  1.00  0.00     0.031 C 
ATOM     42  C   UNL A   1      37.582  30.977  29.833  1.00  0.00     0.029 A 
ATOM     43  C   UNL A   1      38.003  31.528  31.116  1.00  0.00     0.049 A 
ATOM     44  H   UNL A   1      39.512  30.818  32.366  1.00  0.00     0.167 HD
ATOM     45  C   UNL A   1      42.567  29.114  34.998  1.00  0.00     0.031 A 
ATOM     46  C   UNL A   1      37.467  32.613  31.709  1.00  0.00     0.031 A 
ATOM     47  C   UNL A   1      42.106  30.297  35.672  1.00  0.00     0.049 A 
ATOM     48  C   UNL A   1      38.005  33.061  33.040  1.00  0.00     0.074 A 
ATOM     49  C   UNL A   1      42.559  30.839  36.861  1.00  0.00     0.029 A 
ATOM     50  N   UNL A   1      41.096  31.127  35.211  1.00  0.00    -0.354 N 
ATOM     51  N   UNL A   1      38.961  32.529  33.764  1.00  0.00    -0.248 NA
ATOM     52  C   UNL A   1      37.398  34.263  33.631  1.00  0.00     0.031 C 
ATOM     53  C   UNL A   1      41.792  31.975  37.142  1.00  0.00     0.029 A 
ATOM     54  C   UNL A   1      40.899  32.167  36.101  1.00  0.00     0.049 A 
ATOM     55  H   UNL A   1      40.593  30.994  34.375  1.00  0.00     0.167 HD
ATOM     56  C   UNL A   1      39.090  33.347  34.880  1.00  0.00     0.074 A 
ATOM     57  C   UNL A   1      38.123  34.415  34.730  1.00  0.00     0.031 C 
ATOM     58  C   UNL A   1      39.935  33.226  35.934  1.00  0.00     0.031 A 
BRANCH  45  59
ATOM     59  C   UNL A   1      43.630  28.279  35.664  1.00  0.00    -0.014 A 
ATOM     60  C   UNL A   1      44.996  28.521  35.433  1.00  0.00     0.010 A 
ATOM     61  C   UNL A   1      43.259  27.263  36.563  1.00  0.00     0.010 A 
ATOM     62  C   UNL A   1      45.970  27.738  36.057  1.00  0.00     0.020 A 
ATOM     63  C   UNL A   1      44.231  26.496  37.213  1.00  0.00     0.020 A 
ATOM     64  C   UNL A   1      45.581  26.728  36.941  1.00  0.00     0.054 A 
BRANCH  64  65
ATOM     65  S   UNL A   1      46.868  25.746  37.759  1.00  0.00     0.124 S 
ATOM     66  O   UNL A   1      46.247  24.424  37.814  1.00  0.00    -0.237 OA
ATOM     67  O   UNL A   1      47.997  25.870  36.841  1.00  0.00    -0.237 OA
ATOM     68  O   UNL A   1      47.042  26.407  39.050  1.00  0.00    -0.744 OA
ENDBRANCH  64  65
ENDBRANCH  45  59
BRANCH  46  69
ATOM     69  C   UNL A   1      36.378  33.370  31.034  1.00  0.00    -0.014 A 
ATOM     70  C   UNL A   1      35.156  33.593  31.695  1.00  0.00     0.010 A 
ATOM     71  C   UNL A   1      36.557  33.885  29.737  1.00  0.00     0.010 A 
ATOM     72  C   UNL A   1      34.128  34.301  31.065  1.00  0.00     0.020 A 
ATOM     73  C   UNL A   1      35.540  34.616  29.115  1.00  0.00     0.020 A 
ATOM     74  C   UNL A   1      34.328  34.809  29.779  1.00  0.00     0.054 A 
BRANCH  74  75
ATOM     75  S   UNL A   1      32.999  35.772  29.003  1.00  0.00     0.124 S 
ATOM     76  O   UNL A   1      33.745  36.822  28.317  1.00  0.00    -0.237 OA
ATOM     77  O   UNL A   1      32.356  34.784  28.140  1.00  0.00    -0.237 OA
ATOM     78  O   UNL A   1      32.192  36.214  30.138  1.00  0.00    -0.744 OA
ENDBRANCH  74  75
ENDBRANCH  46  69
BRANCH  58  79
ATOM     79  C   UNL A   1      39.881  34.294  36.992  1.00  0.00    -0.014 A 
ATOM     80  C   UNL A   1      40.563  35.513  36.832  1.00  0.00     0.010 A 
ATOM     81  C   UNL A   1      39.084  34.095  38.133  1.00  0.00     0.010 A 
ATOM     82  C   UNL A   1      40.470  36.504  37.811  1.00  0.00     0.020 A 
ATOM     83  C   UNL A   1      38.969  35.094  39.102  1.00  0.00     0.020 A 
ATOM     84  C   UNL A   1      39.674  36.288  38.941  1.00  0.00     0.054 A 
BRANCH  84  85
ATOM     85  S   UNL A   1      39.533  37.610  40.175  1.00  0.00     0.124 S 
ATOM     86  O   UNL A   1      40.910  38.084  40.271  1.00  0.00    -0.237 OA
ATOM     87  O   UNL A   1      38.591  38.534  39.549  1.00  0.00    -0.237 OA
ATOM     88  O   UNL A   1      39.026  36.923  41.361  1.00  0.00    -0.744 OA
ENDBRANCH  84  85
ENDBRANCH  58  79
ENDBRANCH  32  33
ENDBRANCH  24  27
ENDBRANCH  22  23
ENDBRANCH   1  22
TORSDOF 15
ENDMDL
MODEL 2
REMARK VINA RESULT:     -11.6      4.380     10.119
REMARK SMILES Cc1cc(C[NH+]2C[C@@H](C)[C@H](C)C2)oc1C(=O)NCCCNC(=O)c1ccc(-c2c3nc(c(-c4ccc(S(=O)(=O)[O-])cc4)c4ccc([nH]4)c(-c4ccc(S(=O)(=O)[O-])cc4)c4nc(c(-c5ccc(S(=O)(=O)[O-])cc5)c5ccc2[nH]5)C=C4)C=C3)cc1
REMARK SMILES IDX 19 1 18 2 17 3 15 4 16 5 14 7 1 8 2 9 3 10 4 11 13 12 5 13
REMARK SMILES IDX 6 14 7 15 12 16 8 18 10 19 9 20 11 21 20 22 21 23 22 24
REMARK SMILES IDX 23 26 24 27 25 28 83 29 26 30 82 31 27 32 28 33 29 34 76 35
REMARK SMILES IDX 30 36 81 37 75 38 77 39 31 40 80 41 74 42 73 43 32 45 62 46
REMARK SMILES IDX 43 47 61 48 44 49 47 50 60 51 78 52 45 53 46 54 59 56 79 57
REMARK SMILES IDX 48 58 33 59 34 60 42 61 35 62 41 63 36 64 37 65 38 66 39 67
REMARK SMILES IDX 40 68 63 69 64 70 72 71 65 72 71 73 66 74 67 75 68 76 69 77
REMARK SMILES IDX 70 78 49 79 50 80 58 81 51 82 57 83 52 84 53 85 54 86 55 87
REMARK SMILES IDX 56 88
REMARK H PARENT 17 6 6 17 21 25 77 44 47 55
REMARK Flexibility Score: inf
ROOT
ATOM      1  C   UNL A   1      33.884  27.567  26.390  1.00  0.00     0.042 C 
ENDROOT
BRANCH   1   2
ATOM      2  C   UNL A   1      33.015  26.488  25.768  1.00  0.00     0.118 C 
BRANCH   2   3
ATOM      3  N   UNL A   1      33.348  26.171  24.400  1.00  0.00    -0.349 N 
ATOM      4  C   UNL A   1      33.896  25.030  23.861  1.00  0.00     0.287 C 
ATOM      5  O   UNL A   1      34.140  25.092  22.654  1.00  0.00    -0.266 OA
ATOM      6  H   UNL A   1      33.149  26.883  23.749  1.00  0.00     0.163 HD
BRANCH   4   7
ATOM      7  C   UNL A   1      34.195  23.844  24.658  1.00  0.00     0.194 A 
ATOM      8  C   UNL A   1      36.501  24.005  25.916  1.00  0.00     0.049 C 
ATOM      9  C   UNL A   1      35.211  23.395  25.505  1.00  0.00     0.001 A 
ATOM     10  C   UNL A   1      34.787  22.127  25.998  1.00  0.00     0.056 A 
ATOM     11  C   UNL A   1      33.587  21.836  25.401  1.00  0.00     0.159 A 
ATOM     12  O   UNL A   1      33.207  22.882  24.625  1.00  0.00    -0.450 OA
BRANCH  11  13
ATOM     13  C   UNL A   1      32.685  20.648  25.436  1.00  0.00     0.338 C 
BRANCH  13  14
ATOM     14  N   UNL A   1      33.365  19.355  25.328  1.00  0.00    -0.328 N 
ATOM     15  C   UNL A   1      32.695  18.260  26.033  1.00  0.00     0.266 C 
ATOM     16  C   UNL A   1      33.696  18.912  23.971  1.00  0.00     0.266 C 
ATOM     17  H   UNL A   1      34.246  19.565  25.799  1.00  0.00     0.348 HD
ATOM     18  C   UNL A   1      33.290  17.017  25.379  1.00  0.00     0.049 C 
ATOM     19  C   UNL A   1      33.314  17.431  23.908  1.00  0.00     0.049 C 
ATOM     20  C   UNL A   1      32.469  15.765  25.655  1.00  0.00     0.014 C 
ATOM     21  C   UNL A   1      34.257  16.617  23.037  1.00  0.00     0.014 C 
ENDBRANCH  13  14
ENDBRANCH  11  13
ENDBRANCH   4   7
ENDBRANCH   2   3
ENDBRANCH   1   2
BRANCH   1  22
ATOM     22  C   UNL A   1      33.906  28.886  25.634  1.00  0.00     0.118 C 
BRANCH  22  23
ATOM     23  N   UNL A   1      33.711  30.052  26.488  1.00  0.00    -0.352 N 
ATOM     24  C   UNL A   1      34.455  30.566  27.525  1.00  0.00     0.251 C 
ATOM     25  H   UNL A   1      32.896  30.566  26.284  1.00  0.00     0.163 HD
ATOM     26  O   UNL A   1      33.985  31.487  28.191  1.00  0.00    -0.269 OA
BRANCH  24  27
ATOM     27  C   UNL A   1      35.784  30.012  27.877  1.00  0.00     0.039 A 
ATOM     28  C   UNL A   1      36.824  30.088  26.942  1.00  0.00     0.014 A 
ATOM     29  C   UNL A   1      36.017  29.397  29.105  1.00  0.00     0.014 A 
ATOM     30  C   UNL A   1      38.106  29.639  27.282  1.00  0.00     0.010 A 
ATOM     31  C   UNL A   1      37.314  29.069  29.488  1.00  0.00     0.010 A 
ATOM     32  C   UNL A   1      38.376  29.176  28.579  1.00  0.00    -0.014 A 
BRANCH  32  33
ATOM     33  C   UNL A   1      39.744  28.782  29.013  1.00  0.00     0.031 A 
ATOM     34  C   UNL A   1      40.618  29.771  29.744  1.00  0.00     0.074 A 
ATOM     35  C   UNL A   1      40.236  27.573  28.672  1.00  0.00     0.049 A 
ATOM     36  N   UNL A   1      41.874  29.662  30.093  1.00  0.00    -0.248 NA
ATOM     37  C   UNL A   1      40.012  31.067  30.094  1.00  0.00     0.031 C 
ATOM     38  C   UNL A   1      39.515  26.539  27.925  1.00  0.00     0.029 A 
ATOM     39  N   UNL A   1      41.467  27.010  28.904  1.00  0.00    -0.354 N 
ATOM     40  C   UNL A   1      42.216  30.883  30.665  1.00  0.00     0.074 A 
ATOM     41  C   UNL A   1      41.052  31.735  30.570  1.00  0.00     0.031 C 
ATOM     42  C   UNL A   1      40.300  25.458  27.796  1.00  0.00     0.029 A 
ATOM     43  C   UNL A   1      41.597  25.735  28.404  1.00  0.00     0.049 A 
ATOM     44  H   UNL A   1      42.190  27.476  29.383  1.00  0.00     0.167 HD
ATOM     45  C   UNL A   1      43.384  31.257  31.241  1.00  0.00     0.031 A 
ATOM     46  C   UNL A   1      42.642  24.885  28.427  1.00  0.00     0.031 A 
ATOM     47  C   UNL A   1      44.526  30.394  31.374  1.00  0.00     0.049 A 
ATOM     48  C   UNL A   1      43.922  25.315  29.089  1.00  0.00     0.074 A 
ATOM     49  C   UNL A   1      45.728  30.653  32.008  1.00  0.00     0.029 A 
ATOM     50  N   UNL A   1      44.603  29.102  30.877  1.00  0.00    -0.354 N 
ATOM     51  N   UNL A   1      44.205  26.456  29.672  1.00  0.00    -0.248 NA
ATOM     52  C   UNL A   1      45.022  24.339  29.104  1.00  0.00     0.031 C 
ATOM     53  C   UNL A   1      46.551  29.532  31.855  1.00  0.00     0.029 A 
ATOM     54  C   UNL A   1      45.840  28.557  31.174  1.00  0.00     0.049 A 
ATOM     55  H   UNL A   1      43.885  28.642  30.385  1.00  0.00     0.167 HD
ATOM     56  C   UNL A   1      45.504  26.324  30.148  1.00  0.00     0.074 A 
ATOM     57  C   UNL A   1      45.946  24.990  29.797  1.00  0.00     0.031 C 
ATOM     58  C   UNL A   1      46.262  27.225  30.820  1.00  0.00     0.031 A 
BRANCH  45  59
ATOM     59  C   UNL A   1      43.481  32.661  31.777  1.00  0.00    -0.014 A 
ATOM     60  C   UNL A   1      43.182  32.948  33.122  1.00  0.00     0.010 A 
ATOM     61  C   UNL A   1      43.916  33.702  30.937  1.00  0.00     0.010 A 
ATOM     62  C   UNL A   1      43.275  34.256  33.605  1.00  0.00     0.020 A 
ATOM     63  C   UNL A   1      44.040  35.007  31.425  1.00  0.00     0.020 A 
ATOM     64  C   UNL A   1      43.702  35.278  32.752  1.00  0.00     0.054 A 
BRANCH  64  65
ATOM     65  S   UNL A   1      43.841  36.960  33.415  1.00  0.00     0.124 S 
ATOM     66  O   UNL A   1      45.086  36.880  34.176  1.00  0.00    -0.237 OA
ATOM     67  O   UNL A   1      43.898  37.777  32.206  1.00  0.00    -0.237 OA
ATOM     68  O   UNL A   1      42.630  37.120  34.215  1.00  0.00    -0.744 OA
ENDBRANCH  64  65
ENDBRANCH  45  59
BRANCH  46  69
ATOM     69  C   UNL A   1      42.511  23.527  27.831  1.00  0.00    -0.014 A 
ATOM     70  C   UNL A   1      42.949  23.288  26.515  1.00  0.00     0.010 A 
ATOM     71  C   UNL A   1      41.965  22.465  28.573  1.00  0.00     0.010 A 
ATOM     72  C   UNL A   1      42.827  22.016  25.947  1.00  0.00     0.020 A 
ATOM     73  C   UNL A   1      41.866  21.186  28.017  1.00  0.00     0.020 A 
ATOM     74  C   UNL A   1      42.287  20.972  26.704  1.00  0.00     0.054 A 
BRANCH  74  75
ATOM     75  S   UNL A   1      42.189  19.318  25.964  1.00  0.00     0.124 S 
ATOM     76  O   UNL A   1      42.726  18.477  27.030  1.00  0.00    -0.237 OA
ATOM     77  O   UNL A   1      40.759  19.173  25.702  1.00  0.00    -0.237 OA
ATOM     78  O   UNL A   1      43.024  19.428  24.771  1.00  0.00    -0.744 OA
ENDBRANCH  74  75
ENDBRANCH  46  69
BRANCH  58  79
ATOM     79  C   UNL A   1      47.635  26.790  31.254  1.00  0.00    -0.014 A 
ATOM     80  C   UNL A   1      47.852  26.215  32.517  1.00  0.00     0.010 A 
ATOM     81  C   UNL A   1      48.711  26.905  30.355  1.00  0.00     0.010 A 
ATOM     82  C   UNL A   1      49.130  25.786  32.885  1.00  0.00     0.020 A 
ATOM     83  C   UNL A   1      49.984  26.454  30.709  1.00  0.00     0.020 A 
ATOM     84  C   UNL A   1      50.188  25.908  31.979  1.00  0.00     0.054 A 
BRANCH  84  85
ATOM     85  S   UNL A   1      51.827  25.300  32.463  1.00  0.00     0.124 S 
ATOM     86  O   UNL A   1      52.700  26.007  31.532  1.00  0.00    -0.237 OA
ATOM     87  O   UNL A   1      51.925  25.718  33.859  1.00  0.00    -0.237 OA
ATOM     88  O   UNL A   1      51.734  23.856  32.257  1.00  0.00    -0.744 OA
ENDBRANCH  84  85
ENDBRANCH  58  79
ENDBRANCH  32  33
ENDBRANCH  24  27
ENDBRANCH  22  23
ENDBRANCH   1  22
TORSDOF 15
ENDMDL
MODEL 3
REMARK VINA RESULT:     -11.6      6.846     13.099
REMARK SMILES Cc1cc(C[NH+]2C[C@@H](C)[C@H](C)C2)oc1C(=O)NCCCNC(=O)c1ccc(-c2c3nc(c(-c4ccc(S(=O)(=O)[O-])cc4)c4ccc([nH]4)c(-c4ccc(S(=O)(=O)[O-])cc4)c4nc(c(-c5ccc(S(=O)(=O)[O-])cc5)c5ccc2[nH]5)C=C4)C=C3)cc1
REMARK SMILES IDX 19 1 18 2 17 3 15 4 16 5 14 7 1 8 2 9 3 10 4 11 13 12 5 13
REMARK SMILES IDX 6 14 7 15 12 16 8 18 10 19 9 20 11 21 20 22 21 23 22 24
REMARK SMILES IDX 23 26 24 27 25 28 83 29 26 30 82 31 27 32 28 33 29 34 76 35
REMARK SMILES IDX 30 36 81 37 75 38 77 39 31 40 80 41 74 42 73 43 32 45 62 46
REMARK SMILES IDX 43 47 61 48 44 49 47 50 60 51 78 52 45 53 46 54 59 56 79 57
REMARK SMILES IDX 48 58 33 59 34 60 42 61 35 62 41 63 36 64 37 65 38 66 39 67
REMARK SMILES IDX 40 68 63 69 64 70 72 71 65 72 71 73 66 74 67 75 68 76 69 77
REMARK SMILES IDX 70 78 49 79 50 80 58 81 51 82 57 83 52 84 53 85 54 86 55 87
REMARK SMILES IDX 56 88
REMARK H PARENT 17 6 6 17 21 25 77 44 47 55
REMARK Flexibility Score: inf
ROOT
ATOM      1  C   UNL A   1      37.532  33.496  33.478  1.00  0.00     0.042 C 
ENDROOT
BRANCH   1   2
ATOM      2  C   UNL A   1      36.380  34.473  33.322  1.00  0.00     0.118 C 
BRANCH   2   3
ATOM      3  N   UNL A   1      35.080  33.908  33.593  1.00  0.00    -0.349 N 
ATOM      4  C   UNL A   1      34.032  33.645  32.740  1.00  0.00     0.287 C 
ATOM      5  O   UNL A   1      33.008  33.231  33.291  1.00  0.00    -0.266 OA
ATOM      6  H   UNL A   1      34.917  33.673  34.535  1.00  0.00     0.163 HD
BRANCH   4   7
ATOM      7  C   UNL A   1      34.111  33.863  31.300  1.00  0.00     0.194 A 
ATOM      8  C   UNL A   1      33.196  36.219  30.565  1.00  0.00     0.049 C 
ATOM      9  C   UNL A   1      33.805  34.876  30.388  1.00  0.00     0.001 A 
ATOM     10  C   UNL A   1      34.223  34.401  29.111  1.00  0.00     0.056 A 
ATOM     11  C   UNL A   1      34.699  33.127  29.284  1.00  0.00     0.159 A 
ATOM     12  O   UNL A   1      34.672  32.812  30.603  1.00  0.00    -0.450 OA
BRANCH  11  13
ATOM     13  C   UNL A   1      35.200  32.083  28.343  1.00  0.00     0.338 C 
BRANCH  13  14
ATOM     14  N   UNL A   1      34.293  30.949  28.141  1.00  0.00    -0.328 N 
ATOM     15  C   UNL A   1      33.118  31.256  27.322  1.00  0.00     0.266 C 
ATOM     16  C   UNL A   1      34.908  29.715  27.645  1.00  0.00     0.266 C 
ATOM     17  H   UNL A   1      33.995  30.772  29.100  1.00  0.00     0.348 HD
ATOM     18  C   UNL A   1      32.645  29.876  26.874  1.00  0.00     0.049 C 
ATOM     19  C   UNL A   1      33.972  29.191  26.551  1.00  0.00     0.049 C 
ATOM     20  C   UNL A   1      31.684  29.946  25.696  1.00  0.00     0.014 C 
ATOM     21  C   UNL A   1      33.906  27.673  26.511  1.00  0.00     0.014 C 
ENDBRANCH  13  14
ENDBRANCH  11  13
ENDBRANCH   4   7
ENDBRANCH   2   3
ENDBRANCH   1   2
BRANCH   1  22
ATOM     22  C   UNL A   1      37.821  32.646  32.252  1.00  0.00     0.118 C 
BRANCH  22  23
ATOM     23  N   UNL A   1      36.871  31.556  32.059  1.00  0.00    -0.352 N 
ATOM     24  C   UNL A   1      36.951  30.382  31.345  1.00  0.00     0.251 C 
ATOM     25  H   UNL A   1      36.013  31.685  32.526  1.00  0.00     0.163 HD
ATOM     26  O   UNL A   1      35.939  29.696  31.219  1.00  0.00    -0.269 OA
BRANCH  24  27
ATOM     27  C   UNL A   1      38.214  29.951  30.699  1.00  0.00     0.039 A 
ATOM     28  C   UNL A   1      38.385  30.164  29.326  1.00  0.00     0.014 A 
ATOM     29  C   UNL A   1      39.224  29.318  31.420  1.00  0.00     0.014 A 
ATOM     30  C   UNL A   1      39.598  29.834  28.711  1.00  0.00     0.010 A 
ATOM     31  C   UNL A   1      40.470  29.108  30.839  1.00  0.00     0.010 A 
ATOM     32  C   UNL A   1      40.674  29.353  29.474  1.00  0.00    -0.014 A 
BRANCH  32  33
ATOM     33  C   UNL A   1      42.011  29.083  28.880  1.00  0.00     0.031 A 
ATOM     34  C   UNL A   1      42.331  27.715  28.331  1.00  0.00     0.074 A 
ATOM     35  C   UNL A   1      42.968  30.034  28.915  1.00  0.00     0.049 A 
ATOM     36  N   UNL A   1      43.470  27.248  27.888  1.00  0.00    -0.248 NA
ATOM     37  C   UNL A   1      41.235  26.730  28.313  1.00  0.00     0.031 C 
ATOM     38  C   UNL A   1      42.807  31.384  29.461  1.00  0.00     0.029 A 
ATOM     39  N   UNL A   1      44.273  30.006  28.489  1.00  0.00    -0.354 N 
ATOM     40  C   UNL A   1      43.237  25.912  27.578  1.00  0.00     0.074 A 
ATOM     41  C   UNL A   1      41.864  25.629  27.931  1.00  0.00     0.031 C 
ATOM     42  C   UNL A   1      43.954  32.065  29.300  1.00  0.00     0.029 A 
ATOM     43  C   UNL A   1      44.947  31.189  28.688  1.00  0.00     0.049 A 
ATOM     44  H   UNL A   1      44.689  29.212  28.079  1.00  0.00     0.167 HD
ATOM     45  C   UNL A   1      44.080  25.006  27.027  1.00  0.00     0.031 A 
ATOM     46  C   UNL A   1      46.221  31.531  28.412  1.00  0.00     0.031 A 
ATOM     47  C   UNL A   1      45.432  25.302  26.635  1.00  0.00     0.049 A 
ATOM     48  C   UNL A   1      47.132  30.515  27.782  1.00  0.00     0.074 A 
ATOM     49  C   UNL A   1      46.342  24.475  26.000  1.00  0.00     0.029 A 
ATOM     50  N   UNL A   1      46.063  26.520  26.830  1.00  0.00    -0.354 N 
ATOM     51  N   UNL A   1      46.875  29.273  27.447  1.00  0.00    -0.248 NA
ATOM     52  C   UNL A   1      48.505  30.949  27.485  1.00  0.00     0.031 C 
ATOM     53  C   UNL A   1      47.540  25.181  25.850  1.00  0.00     0.029 A 
ATOM     54  C   UNL A   1      47.357  26.463  26.344  1.00  0.00     0.049 A 
ATOM     55  H   UNL A   1      45.652  27.308  27.253  1.00  0.00     0.167 HD
ATOM     56  C   UNL A   1      48.044  28.787  26.873  1.00  0.00     0.074 A 
ATOM     57  C   UNL A   1      49.004  29.871  26.895  1.00  0.00     0.031 C 
ATOM     58  C   UNL A   1      48.299  27.554  26.370  1.00  0.00     0.031 A 
BRANCH  45  59
ATOM     59  C   UNL A   1      43.560  23.610  26.806  1.00  0.00    -0.014 A 
ATOM     60  C   UNL A   1      43.206  23.160  25.521  1.00  0.00     0.010 A 
ATOM     61  C   UNL A   1      43.460  22.722  27.892  1.00  0.00     0.010 A 
ATOM     62  C   UNL A   1      42.724  21.862  25.333  1.00  0.00     0.020 A 
ATOM     63  C   UNL A   1      43.007  21.413  27.703  1.00  0.00     0.020 A 
ATOM     64  C   UNL A   1      42.625  20.997  26.426  1.00  0.00     0.054 A 
BRANCH  64  65
ATOM     65  S   UNL A   1      42.023  19.309  26.146  1.00  0.00     0.124 S 
ATOM     66  O   UNL A   1      42.807  18.900  24.983  1.00  0.00    -0.237 OA
ATOM     67  O   UNL A   1      42.362  18.638  27.398  1.00  0.00    -0.237 OA
ATOM     68  O   UNL A   1      40.594  19.486  25.904  1.00  0.00    -0.744 OA
ENDBRANCH  64  65
ENDBRANCH  45  59
BRANCH  46  69
ATOM     69  C   UNL A   1      46.701  32.909  28.703  1.00  0.00    -0.014 A 
ATOM     70  C   UNL A   1      46.563  33.925  27.739  1.00  0.00     0.010 A 
ATOM     71  C   UNL A   1      47.284  33.222  29.945  1.00  0.00     0.010 A 
ATOM     72  C   UNL A   1      47.015  35.220  28.003  1.00  0.00     0.020 A 
ATOM     73  C   UNL A   1      47.713  34.523  30.222  1.00  0.00     0.020 A 
ATOM     74  C   UNL A   1      47.586  35.512  29.245  1.00  0.00     0.054 A 
BRANCH  74  75
ATOM     75  S   UNL A   1      48.115  37.214  29.587  1.00  0.00     0.124 S 
ATOM     76  O   UNL A   1      48.936  37.517  28.419  1.00  0.00    -0.237 OA
ATOM     77  O   UNL A   1      46.844  37.929  29.670  1.00  0.00    -0.237 OA
ATOM     78  O   UNL A   1      48.839  37.099  30.850  1.00  0.00    -0.744 OA
ENDBRANCH  74  75
ENDBRANCH  46  69
BRANCH  58  79
ATOM     79  C   UNL A   1      49.656  27.318  25.766  1.00  0.00    -0.014 A 
ATOM     80  C   UNL A   1      50.736  26.877  26.550  1.00  0.00     0.010 A 
ATOM     81  C   UNL A   1      49.833  27.482  24.380  1.00  0.00     0.010 A 
ATOM     82  C   UNL A   1      51.979  26.631  25.961  1.00  0.00     0.020 A 
ATOM     83  C   UNL A   1      51.067  27.212  23.784  1.00  0.00     0.020 A 
ATOM     84  C   UNL A   1      52.137  26.800  24.582  1.00  0.00     0.054 A 
BRANCH  84  85
ATOM     85  S   UNL A   1      53.747  26.428  23.836  1.00  0.00     0.124 S 
ATOM     86  O   UNL A   1      54.212  25.315  24.658  1.00  0.00    -0.237 OA
ATOM     87  O   UNL A   1      53.393  26.090  22.460  1.00  0.00    -0.237 OA
ATOM     88  O   UNL A   1      54.496  27.674  23.991  1.00  0.00    -0.744 OA
ENDBRANCH  84  85
ENDBRANCH  58  79
ENDBRANCH  32  33
ENDBRANCH  24  27
ENDBRANCH  22  23
ENDBRANCH   1  22
TORSDOF 15
ENDMDL
