MODEL 1
REMARK VINA RESULT:     -14.4      0.000      0.000
REMARK SMILES N#Cc1cc2c(nc1N1CC[NH+]([C@H](C(=O)NCCCNC(=O)c3ccc(-c4c5nc(c(-c6ccc(S(=O)(=O)[O-])cc6)c6ccc([nH]6)c(-c6ccc(S(=O)(=O)[O-])cc6)c6nc(c(-c7ccc(S(=O)(=O)[O-])cc7)c7ccc4[nH]7)C=C6)C=C5)cc3)c3c[nH]c4cc(Cl)ccc34)CC1)CCCC2
REMARK SMILES IDX 18 1 17 2 16 3 14 4 15 5 13 7 12 8 9 9 10 10 94 11 11 12
REMARK SMILES IDX 93 13 8 15 3 16 4 17 5 18 7 19 6 20 98 21 95 22 97 23 96 24
REMARK SMILES IDX 2 25 1 26 83 27 84 28 92 29 85 30 86 31 91 32 87 34 90 35
REMARK SMILES IDX 88 36 89 37 19 38 20 39 21 40 22 42 23 43 24 44 82 45 25 46
REMARK SMILES IDX 81 47 26 48 27 49 28 50 75 51 29 52 80 53 74 54 76 55 30 56
REMARK SMILES IDX 79 57 73 58 72 59 31 61 61 62 42 63 60 64 43 65 46 66 59 67
REMARK SMILES IDX 77 68 44 69 45 70 58 72 78 73 47 74 32 75 33 76 41 77 34 78
REMARK SMILES IDX 40 79 35 80 36 81 37 82 38 83 39 84 62 85 63 86 71 87 64 88
REMARK SMILES IDX 70 89 65 90 66 91 67 92 68 93 69 94 48 95 49 96 57 97 50 98
REMARK SMILES IDX 56 99 51 100 52 101 53 102 54 103 55 104
REMARK H PARENT 16 6 12 14 85 33 20 41 76 60 46 71
REMARK Flexibility Score: inf
ROOT
ATOM      1  C   UNL A   1      37.734  23.593  25.532  1.00  0.00     0.042 C 
ENDROOT
BRANCH   1   2
ATOM      2  C   UNL A   1      36.944  22.264  25.650  1.00  0.00     0.118 C 
BRANCH   2   3
ATOM      3  N   UNL A   1      35.902  22.176  26.677  1.00  0.00    -0.351 N 
ATOM      4  C   UNL A   1      34.539  21.953  26.648  1.00  0.00     0.283 C 
ATOM      5  O   UNL A   1      34.053  21.726  27.766  1.00  0.00    -0.268 OA
ATOM      6  H   UNL A   1      36.250  22.302  27.590  1.00  0.00     0.163 HD
BRANCH   4   7
ATOM      7  C   UNL A   1      33.659  22.000  25.321  1.00  0.00     0.307 C 
BRANCH   7   8
ATOM      8  N   UNL A   1      33.853  23.318  24.641  1.00  0.00    -0.318 N 
ATOM      9  N   UNL A   1      32.710  25.802  23.756  1.00  0.00    -0.344 N 
ATOM     10  C   UNL A   1      33.621  25.869  24.879  1.00  0.00     0.179 C 
ATOM     11  C   UNL A   1      33.083  24.863  22.711  1.00  0.00     0.179 C 
ATOM     12  C   UNL A   1      33.746  24.475  25.542  1.00  0.00     0.284 C 
ATOM     13  C   UNL A   1      33.257  23.446  23.301  1.00  0.00     0.284 C 
ATOM     14  H   UNL A   1      34.841  23.328  24.385  1.00  0.00     0.349 HD
BRANCH   9  15
ATOM     15  C   UNL A   1      31.487  26.411  23.751  1.00  0.00     0.147 A 
ATOM     16  C   UNL A   1      30.365  25.926  24.424  1.00  0.00     0.095 A 
ATOM     17  C   UNL A   1      29.103  26.461  24.144  1.00  0.00     0.029 A 
ATOM     18  C   UNL A   1      29.008  27.611  23.374  1.00  0.00    -0.025 A 
ATOM     19  N   UNL A   1      31.397  27.533  23.008  1.00  0.00    -0.234 NA
ATOM     20  C   UNL A   1      30.194  28.147  22.877  1.00  0.00     0.046 A 
ATOM     21  C   UNL A   1      27.672  28.251  23.123  1.00  0.00     0.037 C 
ATOM     22  C   UNL A   1      30.232  29.542  22.313  1.00  0.00     0.056 C 
ATOM     23  C   UNL A   1      27.793  29.750  22.864  1.00  0.00     0.005 C 
ATOM     24  C   UNL A   1      28.872  30.025  21.820  1.00  0.00     0.007 C 
BRANCH  16  25
ATOM     25  C   UNL A   1      30.472  25.096  25.569  1.00  0.00     0.103 C 
ATOM     26  N   UNL A   1      30.401  24.315  26.437  1.00  0.00    -0.192 NA
ENDBRANCH  16  25
ENDBRANCH   9  15
ENDBRANCH   7   8
BRANCH   7  27
ATOM     27  C   UNL A   1      33.798  20.720  24.395  1.00  0.00     0.044 A 
ATOM     28  C   UNL A   1      32.726  20.441  23.546  1.00  0.00     0.094 A 
ATOM     29  C   UNL A   1      34.033  19.305  24.681  1.00  0.00     0.009 A 
ATOM     30  N   UNL A   1      31.957  19.769  24.534  1.00  0.00    -0.361 N 
ATOM     31  C   UNL A   1      32.796  18.879  25.153  1.00  0.00     0.047 A 
ATOM     32  C   UNL A   1      34.827  18.246  24.181  1.00  0.00     0.012 A 
ATOM     33  H   UNL A   1      31.005  19.914  24.735  1.00  0.00     0.166 HD
ATOM     34  C   UNL A   1      32.507  17.648  25.724  1.00  0.00     0.047 A 
ATOM     35  C   UNL A   1      34.498  16.922  24.527  1.00  0.00     0.021 A 
ATOM     36  C   UNL A   1      33.398  16.647  25.347  1.00  0.00     0.043 A 
ATOM     37  Cl  UNL A   1      32.999  15.014  25.721  1.00  0.00    -0.084 Cl
ENDBRANCH   7  27
ENDBRANCH   4   7
ENDBRANCH   2   3
ENDBRANCH   1   2
BRANCH   1  38
ATOM     38  C   UNL A   1      38.803  23.885  26.592  1.00  0.00     0.118 C 
BRANCH  38  39
ATOM     39  N   UNL A   1      40.068  24.244  25.998  1.00  0.00    -0.352 N 
ATOM     40  C   UNL A   1      40.800  25.394  26.157  1.00  0.00     0.251 C 
ATOM     41  H   UNL A   1      40.460  23.572  25.395  1.00  0.00     0.163 HD
ATOM     42  O   UNL A   1      41.652  25.675  25.317  1.00  0.00    -0.269 OA
BRANCH  40  43
ATOM     43  C   UNL A   1      40.573  26.301  27.310  1.00  0.00     0.039 A 
ATOM     44  C   UNL A   1      41.298  27.494  27.369  1.00  0.00     0.014 A 
ATOM     45  C   UNL A   1      39.732  25.950  28.372  1.00  0.00     0.014 A 
ATOM     46  C   UNL A   1      41.166  28.340  28.475  1.00  0.00     0.010 A 
ATOM     47  C   UNL A   1      39.551  26.830  29.446  1.00  0.00     0.010 A 
ATOM     48  C   UNL A   1      40.281  28.026  29.520  1.00  0.00    -0.014 A 
BRANCH  48  49
ATOM     49  C   UNL A   1      40.144  28.934  30.694  1.00  0.00     0.031 A 
ATOM     50  C   UNL A   1      41.047  28.780  31.892  1.00  0.00     0.074 A 
ATOM     51  C   UNL A   1      39.211  29.908  30.684  1.00  0.00     0.049 A 
ATOM     52  N   UNL A   1      41.089  29.492  32.990  1.00  0.00    -0.248 NA
ATOM     53  C   UNL A   1      42.021  27.677  31.858  1.00  0.00     0.031 C 
ATOM     54  C   UNL A   1      38.268  30.160  29.593  1.00  0.00     0.029 A 
ATOM     55  N   UNL A   1      38.909  30.876  31.611  1.00  0.00    -0.354 N 
ATOM     56  C   UNL A   1      42.091  28.929  33.773  1.00  0.00     0.074 A 
ATOM     57  C   UNL A   1      42.590  27.778  33.052  1.00  0.00     0.031 C 
ATOM     58  C   UNL A   1      37.527  31.239  29.891  1.00  0.00     0.029 A 
ATOM     59  C   UNL A   1      37.904  31.729  31.215  1.00  0.00     0.049 A 
ATOM     60  H   UNL A   1      39.369  30.953  32.478  1.00  0.00     0.167 HD
ATOM     61  C   UNL A   1      42.574  29.344  34.969  1.00  0.00     0.031 A 
ATOM     62  C   UNL A   1      37.346  32.785  31.841  1.00  0.00     0.031 A 
ATOM     63  C   UNL A   1      42.074  30.486  35.689  1.00  0.00     0.049 A 
ATOM     64  C   UNL A   1      37.855  33.188  33.198  1.00  0.00     0.074 A 
ATOM     65  C   UNL A   1      42.516  31.000  36.896  1.00  0.00     0.029 A 
ATOM     66  N   UNL A   1      41.023  31.290  35.274  1.00  0.00    -0.354 N 
ATOM     67  N   UNL A   1      38.838  32.670  33.897  1.00  0.00    -0.248 NA
ATOM     68  C   UNL A   1      37.185  34.322  33.851  1.00  0.00     0.031 C 
ATOM     69  C   UNL A   1      41.689  32.071  37.244  1.00  0.00     0.029 A 
ATOM     70  C   UNL A   1      40.780  32.275  36.218  1.00  0.00     0.049 A 
ATOM     71  H   UNL A   1      40.523  31.178  34.433  1.00  0.00     0.167 HD
ATOM     72  C   UNL A   1      38.919  33.430  35.060  1.00  0.00     0.074 A 
ATOM     73  C   UNL A   1      37.900  34.455  34.960  1.00  0.00     0.031 C 
ATOM     74  C   UNL A   1      39.761  33.289  36.113  1.00  0.00     0.031 A 
BRANCH  61  75
ATOM     75  C   UNL A   1      43.707  28.559  35.582  1.00  0.00    -0.014 A 
ATOM     76  C   UNL A   1      43.453  27.449  36.409  1.00  0.00     0.010 A 
ATOM     77  C   UNL A   1      45.040  28.890  35.276  1.00  0.00     0.010 A 
ATOM     78  C   UNL A   1      44.509  26.707  36.945  1.00  0.00     0.020 A 
ATOM     79  C   UNL A   1      46.099  28.131  35.783  1.00  0.00     0.020 A 
ATOM     80  C   UNL A   1      45.826  27.051  36.626  1.00  0.00     0.054 A 
BRANCH  80  81
ATOM     81  S   UNL A   1      47.171  26.048  37.314  1.00  0.00     0.124 S 
ATOM     82  O   UNL A   1      46.769  24.697  36.930  1.00  0.00    -0.237 OA
ATOM     83  O   UNL A   1      48.344  26.574  36.623  1.00  0.00    -0.237 OA
ATOM     84  O   UNL A   1      47.117  26.326  38.747  1.00  0.00    -0.744 OA
ENDBRANCH  80  81
ENDBRANCH  61  75
BRANCH  62  85
ATOM     85  C   UNL A   1      36.254  33.551  31.175  1.00  0.00    -0.014 A 
ATOM     86  C   UNL A   1      35.107  33.930  31.895  1.00  0.00     0.010 A 
ATOM     87  C   UNL A   1      36.363  33.925  29.822  1.00  0.00     0.010 A 
ATOM     88  C   UNL A   1      34.088  34.660  31.273  1.00  0.00     0.020 A 
ATOM     89  C   UNL A   1      35.363  34.683  29.206  1.00  0.00     0.020 A 
ATOM     90  C   UNL A   1      34.228  35.039  29.935  1.00  0.00     0.054 A 
BRANCH  90  91
ATOM     91  S   UNL A   1      32.917  36.036  29.172  1.00  0.00     0.124 S 
ATOM     92  O   UNL A   1      32.306  35.084  28.250  1.00  0.00    -0.237 OA
ATOM     93  O   UNL A   1      32.103  36.414  30.324  1.00  0.00    -0.237 OA
ATOM     94  O   UNL A   1      33.644  37.136  28.543  1.00  0.00    -0.744 OA
ENDBRANCH  90  91
ENDBRANCH  62  85
BRANCH  74  95
ATOM     95  C   UNL A   1      39.639  34.273  37.249  1.00  0.00    -0.014 A 
ATOM     96  C   UNL A   1      38.954  33.940  38.430  1.00  0.00     0.010 A 
ATOM     97  C   UNL A   1      40.292  35.517  37.166  1.00  0.00     0.010 A 
ATOM     98  C   UNL A   1      38.904  34.840  39.498  1.00  0.00     0.020 A 
ATOM     99  C   UNL A   1      40.274  36.407  38.244  1.00  0.00     0.020 A 
ATOM    100  C   UNL A   1      39.571  36.065  39.401  1.00  0.00     0.054 A 
BRANCH 100 101
ATOM    101  S   UNL A   1      39.534  37.188  40.824  1.00  0.00     0.124 S 
ATOM    102  O   UNL A   1      38.734  38.300  40.315  1.00  0.00    -0.237 OA
ATOM    103  O   UNL A   1      38.894  36.373  41.854  1.00  0.00    -0.237 OA
ATOM    104  O   UNL A   1      40.942  37.494  41.064  1.00  0.00    -0.744 OA
ENDBRANCH 100 101
ENDBRANCH  74  95
ENDBRANCH  48  49
ENDBRANCH  40  43
ENDBRANCH  38  39
ENDBRANCH   1  38
TORSDOF 17
ENDMDL
MODEL 2
REMARK VINA RESULT:     -14.3      0.402      7.674
REMARK SMILES N#Cc1cc2c(nc1N1CC[NH+]([C@H](C(=O)NCCCNC(=O)c3ccc(-c4c5nc(c(-c6ccc(S(=O)(=O)[O-])cc6)c6ccc([nH]6)c(-c6ccc(S(=O)(=O)[O-])cc6)c6nc(c(-c7ccc(S(=O)(=O)[O-])cc7)c7ccc4[nH]7)C=C6)C=C5)cc3)c3c[nH]c4cc(Cl)ccc34)CC1)CCCC2
REMARK SMILES IDX 18 1 17 2 16 3 14 4 15 5 13 7 12 8 9 9 10 10 94 11 11 12
REMARK SMILES IDX 93 13 8 15 3 16 4 17 5 18 7 19 6 20 98 21 95 22 97 23 96 24
REMARK SMILES IDX 2 25 1 26 83 27 84 28 92 29 85 30 86 31 91 32 87 34 90 35
REMARK SMILES IDX 88 36 89 37 19 38 20 39 21 40 22 42 23 43 24 44 82 45 25 46
REMARK SMILES IDX 81 47 26 48 27 49 28 50 75 51 29 52 80 53 74 54 76 55 30 56
REMARK SMILES IDX 79 57 73 58 72 59 31 61 61 62 42 63 60 64 43 65 46 66 59 67
REMARK SMILES IDX 77 68 44 69 45 70 58 72 78 73 47 74 32 75 33 76 41 77 34 78
REMARK SMILES IDX 40 79 35 80 36 81 37 82 38 83 39 84 62 85 63 86 71 87 64 88
REMARK SMILES IDX 70 89 65 90 66 91 67 92 68 93 69 94 48 95 49 96 57 97 50 98
REMARK SMILES IDX 56 99 51 100 52 101 53 102 54 103 55 104
REMARK H PARENT 16 6 12 14 85 33 20 41 76 60 46 71
REMARK Flexibility Score: inf
ROOT
ATOM      1  C   UNL A   1      37.576  23.583  25.441  1.00  0.00     0.042 C 
ENDROOT
BRANCH   1   2
ATOM      2  C   UNL A   1      36.887  22.197  25.549  1.00  0.00     0.118 C 
BRANCH   2   3
ATOM      3  N   UNL A   1      35.862  22.021  26.581  1.00  0.00    -0.351 N 
ATOM      4  C   UNL A   1      34.509  21.743  26.556  1.00  0.00     0.283 C 
ATOM      5  O   UNL A   1      34.046  21.447  27.667  1.00  0.00    -0.268 OA
ATOM      6  H   UNL A   1      36.215  22.121  27.495  1.00  0.00     0.163 HD
BRANCH   4   7
ATOM      7  C   UNL A   1      33.612  21.811  25.240  1.00  0.00     0.307 C 
BRANCH   7   8
ATOM      8  N   UNL A   1      33.836  23.120  24.553  1.00  0.00    -0.318 N 
ATOM      9  N   UNL A   1      32.762  25.643  23.692  1.00  0.00    -0.344 N 
ATOM     10  C   UNL A   1      33.704  25.679  24.790  1.00  0.00     0.179 C 
ATOM     11  C   UNL A   1      33.073  24.689  22.639  1.00  0.00     0.179 C 
ATOM     12  C   UNL A   1      33.795  24.282  25.453  1.00  0.00     0.284 C 
ATOM     13  C   UNL A   1      33.211  23.268  23.228  1.00  0.00     0.284 C 
ATOM     14  H   UNL A   1      34.817  23.094  24.271  1.00  0.00     0.349 HD
BRANCH   9  15
ATOM     15  C   UNL A   1      31.562  26.296  23.716  1.00  0.00     0.147 A 
ATOM     16  C   UNL A   1      30.452  25.872  24.447  1.00  0.00     0.095 A 
ATOM     17  C   UNL A   1      29.200  26.446  24.202  1.00  0.00     0.029 A 
ATOM     18  C   UNL A   1      29.115  27.576  23.402  1.00  0.00    -0.025 A 
ATOM     19  N   UNL A   1      31.483  27.400  22.945  1.00  0.00    -0.234 NA
ATOM     20  C   UNL A   1      30.299  28.054  22.843  1.00  0.00     0.046 A 
ATOM     21  C   UNL A   1      27.794  28.258  23.185  1.00  0.00     0.037 C 
ATOM     22  C   UNL A   1      30.364  29.430  22.237  1.00  0.00     0.056 C 
ATOM     23  C   UNL A   1      27.958  29.743  22.878  1.00  0.00     0.005 C 
ATOM     24  C   UNL A   1      29.003  29.949  21.784  1.00  0.00     0.007 C 
BRANCH  16  25
ATOM     25  C   UNL A   1      30.576  25.071  25.611  1.00  0.00     0.103 C 
ATOM     26  N   UNL A   1      30.496  24.341  26.522  1.00  0.00    -0.192 NA
ENDBRANCH  16  25
ENDBRANCH   9  15
ENDBRANCH   7   8
BRANCH   7  27
ATOM     27  C   UNL A   1      33.700  20.524  24.318  1.00  0.00     0.044 A 
ATOM     28  C   UNL A   1      32.570  20.221  23.556  1.00  0.00     0.094 A 
ATOM     29  C   UNL A   1      33.978  19.116  24.598  1.00  0.00     0.009 A 
ATOM     30  N   UNL A   1      31.889  19.548  24.606  1.00  0.00    -0.361 N 
ATOM     31  C   UNL A   1      32.787  18.676  25.168  1.00  0.00     0.047 A 
ATOM     32  C   UNL A   1      34.748  18.064  24.048  1.00  0.00     0.012 A 
ATOM     33  H   UNL A   1      30.953  19.681  24.879  1.00  0.00     0.166 HD
ATOM     34  C   UNL A   1      32.562  17.448  25.770  1.00  0.00     0.047 A 
ATOM     35  C   UNL A   1      34.466  16.739  24.430  1.00  0.00     0.021 A 
ATOM     36  C   UNL A   1      33.437  16.456  25.334  1.00  0.00     0.043 A 
ATOM     37  Cl  UNL A   1      33.093  14.821  25.753  1.00  0.00    -0.084 Cl
ENDBRANCH   7  27
ENDBRANCH   4   7
ENDBRANCH   2   3
ENDBRANCH   1   2
BRANCH   1  38
ATOM     38  C   UNL A   1      38.525  23.998  26.571  1.00  0.00     0.118 C 
BRANCH  38  39
ATOM     39  N   UNL A   1      39.898  24.055  26.129  1.00  0.00    -0.352 N 
ATOM     40  C   UNL A   1      40.843  25.020  26.370  1.00  0.00     0.251 C 
ATOM     41  H   UNL A   1      40.198  23.296  25.578  1.00  0.00     0.163 HD
ATOM     42  O   UNL A   1      41.825  25.084  25.635  1.00  0.00    -0.269 OA
BRANCH  40  43
ATOM     43  C   UNL A   1      40.691  25.987  27.486  1.00  0.00     0.039 A 
ATOM     44  C   UNL A   1      41.538  27.098  27.521  1.00  0.00     0.014 A 
ATOM     45  C   UNL A   1      39.798  25.766  28.540  1.00  0.00     0.014 A 
ATOM     46  C   UNL A   1      41.477  27.993  28.594  1.00  0.00     0.010 A 
ATOM     47  C   UNL A   1      39.692  26.698  29.579  1.00  0.00     0.010 A 
ATOM     48  C   UNL A   1      40.543  27.812  29.629  1.00  0.00    -0.014 A 
BRANCH  48  49
ATOM     49  C   UNL A   1      40.482  28.772  30.768  1.00  0.00     0.031 A 
ATOM     50  C   UNL A   1      39.475  29.896  30.770  1.00  0.00     0.074 A 
ATOM     51  C   UNL A   1      41.326  28.632  31.810  1.00  0.00     0.049 A 
ATOM     52  N   UNL A   1      39.262  30.808  31.684  1.00  0.00    -0.248 NA
ATOM     53  C   UNL A   1      38.605  30.018  29.589  1.00  0.00     0.031 C 
ATOM     54  C   UNL A   1      42.352  27.594  31.929  1.00  0.00     0.029 A 
ATOM     55  N   UNL A   1      41.449  29.352  32.974  1.00  0.00    -0.354 N 
ATOM     56  C   UNL A   1      38.234  31.607  31.193  1.00  0.00     0.074 A 
ATOM     57  C   UNL A   1      37.910  31.111  29.874  1.00  0.00     0.031 C 
ATOM     58  C   UNL A   1      42.966  27.715  33.117  1.00  0.00     0.029 A 
ATOM     59  C   UNL A   1      42.414  28.867  33.826  1.00  0.00     0.049 A 
ATOM     60  H   UNL A   1      40.897  30.140  33.178  1.00  0.00     0.167 HD
ATOM     61  C   UNL A   1      37.597  32.642  31.793  1.00  0.00     0.031 A 
ATOM     62  C   UNL A   1      42.814  29.296  35.040  1.00  0.00     0.031 A 
ATOM     63  C   UNL A   1      37.923  33.140  33.104  1.00  0.00     0.049 A 
ATOM     64  C   UNL A   1      42.137  30.489  35.658  1.00  0.00     0.074 A 
ATOM     65  C   UNL A   1      37.318  34.167  33.806  1.00  0.00     0.029 A 
ATOM     66  N   UNL A   1      38.940  32.652  33.910  1.00  0.00    -0.354 N 
ATOM     67  N   UNL A   1      41.133  31.198  35.196  1.00  0.00    -0.248 NA
ATOM     68  C   UNL A   1      42.638  30.937  36.965  1.00  0.00     0.031 C 
ATOM     69  C   UNL A   1      38.012  34.346  35.006  1.00  0.00     0.029 A 
ATOM     70  C   UNL A   1      39.001  33.379  35.087  1.00  0.00     0.049 A 
ATOM     71  H   UNL A   1      39.532  31.899  33.679  1.00  0.00     0.167 HD
ATOM     72  C   UNL A   1      40.870  32.160  36.166  1.00  0.00     0.074 A 
ATOM     73  C   UNL A   1      41.804  31.929  37.249  1.00  0.00     0.031 C 
ATOM     74  C   UNL A   1      39.938  33.145  36.158  1.00  0.00     0.031 A 
BRANCH  61  75
ATOM     75  C   UNL A   1      36.477  33.313  31.038  1.00  0.00    -0.014 A 
ATOM     76  C   UNL A   1      35.157  33.283  31.525  1.00  0.00     0.010 A 
ATOM     77  C   UNL A   1      36.753  34.038  29.863  1.00  0.00     0.010 A 
ATOM     78  C   UNL A   1      34.132  33.936  30.837  1.00  0.00     0.020 A 
ATOM     79  C   UNL A   1      35.737  34.720  29.189  1.00  0.00     0.020 A 
ATOM     80  C   UNL A   1      34.428  34.653  29.674  1.00  0.00     0.054 A 
BRANCH  80  81
ATOM     81  S   UNL A   1      33.078  35.515  28.822  1.00  0.00     0.124 S 
ATOM     82  O   UNL A   1      33.803  36.509  28.035  1.00  0.00    -0.237 OA
ATOM     83  O   UNL A   1      32.452  34.442  28.055  1.00  0.00    -0.237 OA
ATOM     84  O   UNL A   1      32.268  36.055  29.911  1.00  0.00    -0.744 OA
ENDBRANCH  80  81
ENDBRANCH  61  75
BRANCH  62  85
ATOM     85  C   UNL A   1      43.902  28.575  35.761  1.00  0.00    -0.014 A 
ATOM     86  C   UNL A   1      43.599  27.517  36.636  1.00  0.00     0.010 A 
ATOM     87  C   UNL A   1      45.250  28.928  35.561  1.00  0.00     0.010 A 
ATOM     88  C   UNL A   1      44.622  26.832  37.302  1.00  0.00     0.020 A 
ATOM     89  C   UNL A   1      46.277  28.225  36.199  1.00  0.00     0.020 A 
ATOM     90  C   UNL A   1      45.954  27.185  37.071  1.00  0.00     0.054 A 
BRANCH  90  91
ATOM     91  S   UNL A   1      47.261  26.241  37.904  1.00  0.00     0.124 S 
ATOM     92  O   UNL A   1      48.152  27.299  38.371  1.00  0.00    -0.237 OA
ATOM     93  O   UNL A   1      46.519  25.532  38.943  1.00  0.00    -0.237 OA
ATOM     94  O   UNL A   1      47.801  25.393  36.844  1.00  0.00    -0.744 OA
ENDBRANCH  90  91
ENDBRANCH  62  85
BRANCH  74  95
ATOM     95  C   UNL A   1      39.859  34.050  37.362  1.00  0.00    -0.014 A 
ATOM     96  C   UNL A   1      40.573  35.260  37.410  1.00  0.00     0.010 A 
ATOM     97  C   UNL A   1      38.993  33.725  38.423  1.00  0.00     0.010 A 
ATOM     98  C   UNL A   1      40.439  36.118  38.506  1.00  0.00     0.020 A 
ATOM     99  C   UNL A   1      38.831  34.595  39.504  1.00  0.00     0.020 A 
ATOM    100  C   UNL A   1      39.564  35.782  39.542  1.00  0.00     0.054 A 
BRANCH 100 101
ATOM    101  S   UNL A   1      39.371  36.942  40.924  1.00  0.00     0.124 S 
ATOM    102  O   UNL A   1      40.748  37.372  41.156  1.00  0.00    -0.237 OA
ATOM    103  O   UNL A   1      38.481  37.956  40.365  1.00  0.00    -0.237 OA
ATOM    104  O   UNL A   1      38.788  36.125  41.986  1.00  0.00    -0.744 OA
ENDBRANCH 100 101
ENDBRANCH  74  95
ENDBRANCH  48  49
ENDBRANCH  40  43
ENDBRANCH  38  39
ENDBRANCH   1  38
TORSDOF 17
ENDMDL
MODEL 3
REMARK VINA RESULT:     -14.1      5.888      7.862
REMARK SMILES N#Cc1cc2c(nc1N1CC[NH+]([C@H](C(=O)NCCCNC(=O)c3ccc(-c4c5nc(c(-c6ccc(S(=O)(=O)[O-])cc6)c6ccc([nH]6)c(-c6ccc(S(=O)(=O)[O-])cc6)c6nc(c(-c7ccc(S(=O)(=O)[O-])cc7)c7ccc4[nH]7)C=C6)C=C5)cc3)c3c[nH]c4cc(Cl)ccc34)CC1)CCCC2
REMARK SMILES IDX 18 1 17 2 16 3 14 4 15 5 13 7 12 8 9 9 10 10 94 11 11 12
REMARK SMILES IDX 93 13 8 15 3 16 4 17 5 18 7 19 6 20 98 21 95 22 97 23 96 24
REMARK SMILES IDX 2 25 1 26 83 27 84 28 92 29 85 30 86 31 91 32 87 34 90 35
REMARK SMILES IDX 88 36 89 37 19 38 20 39 21 40 22 42 23 43 24 44 82 45 25 46
REMARK SMILES IDX 81 47 26 48 27 49 28 50 75 51 29 52 80 53 74 54 76 55 30 56
REMARK SMILES IDX 79 57 73 58 72 59 31 61 61 62 42 63 60 64 43 65 46 66 59 67
REMARK SMILES IDX 77 68 44 69 45 70 58 72 78 73 47 74 32 75 33 76 41 77 34 78
REMARK SMILES IDX 40 79 35 80 36 81 37 82 38 83 39 84 62 85 63 86 71 87 64 88
REMARK SMILES IDX 70 89 65 90 66 91 67 92 68 93 69 94 48 95 49 96 57 97 50 98
REMARK SMILES IDX 56 99 51 100 52 101 53 102 54 103 55 104
REMARK H PARENT 16 6 12 14 85 33 20 41 76 60 46 71
REMARK Flexibility Score: inf
ROOT
ATOM      1  C   UNL A   1      38.188  20.018  25.104  1.00  0.00     0.042 C 
ENDROOT
BRANCH   1   2
ATOM      2  C   UNL A   1      36.968  20.959  24.917  1.00  0.00     0.118 C 
BRANCH   2   3
ATOM      3  N   UNL A   1      36.189  21.315  26.105  1.00  0.00    -0.351 N 
ATOM      4  C   UNL A   1      34.845  21.521  26.349  1.00  0.00     0.283 C 
ATOM      5  O   UNL A   1      34.568  21.585  27.556  1.00  0.00    -0.268 OA
ATOM      6  H   UNL A   1      36.747  21.434  26.909  1.00  0.00     0.163 HD
BRANCH   4   7
ATOM      7  C   UNL A   1      33.749  21.682  25.204  1.00  0.00     0.307 C 
BRANCH   7   8
ATOM      8  N   UNL A   1      33.961  22.978  24.491  1.00  0.00    -0.318 N 
ATOM      9  N   UNL A   1      32.878  25.494  23.620  1.00  0.00    -0.344 N 
ATOM     10  C   UNL A   1      33.849  25.541  24.691  1.00  0.00     0.179 C 
ATOM     11  C   UNL A   1      33.155  24.522  22.574  1.00  0.00     0.179 C 
ATOM     12  C   UNL A   1      33.951  24.154  25.373  1.00  0.00     0.284 C 
ATOM     13  C   UNL A   1      33.301  23.109  23.181  1.00  0.00     0.284 C 
ATOM     14  H   UNL A   1      34.934  22.942  24.183  1.00  0.00     0.349 HD
BRANCH   9  15
ATOM     15  C   UNL A   1      31.682  26.154  23.667  1.00  0.00     0.147 A 
ATOM     16  C   UNL A   1      30.562  25.702  24.366  1.00  0.00     0.095 A 
ATOM     17  C   UNL A   1      29.317  26.297  24.139  1.00  0.00     0.029 A 
ATOM     18  C   UNL A   1      29.247  27.467  23.396  1.00  0.00    -0.025 A 
ATOM     19  N   UNL A   1      31.617  27.296  22.952  1.00  0.00    -0.234 NA
ATOM     20  C   UNL A   1      30.439  27.963  22.872  1.00  0.00     0.046 A 
ATOM     21  C   UNL A   1      27.933  28.169  23.203  1.00  0.00     0.037 C 
ATOM     22  C   UNL A   1      30.519  29.367  22.337  1.00  0.00     0.056 C 
ATOM     23  C   UNL A   1      28.110  29.666  22.972  1.00  0.00     0.005 C 
ATOM     24  C   UNL A   1      29.166  29.919  21.899  1.00  0.00     0.007 C 
BRANCH  16  25
ATOM     25  C   UNL A   1      30.670  24.843  25.489  1.00  0.00     0.103 C 
ATOM     26  N   UNL A   1      30.590  24.222  26.478  1.00  0.00    -0.192 NA
ENDBRANCH  16  25
ENDBRANCH   9  15
ENDBRANCH   7   8
BRANCH   7  27
ATOM     27  C   UNL A   1      33.574  20.406  24.278  1.00  0.00     0.044 A 
ATOM     28  C   UNL A   1      32.296  20.169  23.772  1.00  0.00     0.094 A 
ATOM     29  C   UNL A   1      33.834  18.982  24.486  1.00  0.00     0.009 A 
ATOM     30  N   UNL A   1      31.819  19.514  24.939  1.00  0.00    -0.361 N 
ATOM     31  C   UNL A   1      32.770  18.591  25.294  1.00  0.00     0.047 A 
ATOM     32  C   UNL A   1      34.416  17.902  23.781  1.00  0.00     0.012 A 
ATOM     33  H   UNL A   1      30.970  19.688  25.405  1.00  0.00     0.166 HD
ATOM     34  C   UNL A   1      32.615  17.366  25.925  1.00  0.00     0.047 A 
ATOM     35  C   UNL A   1      34.155  16.586  24.208  1.00  0.00     0.021 A 
ATOM     36  C   UNL A   1      33.327  16.340  25.308  1.00  0.00     0.043 A 
ATOM     37  Cl  UNL A   1      32.998  14.717  25.783  1.00  0.00    -0.084 Cl
ENDBRANCH   7  27
ENDBRANCH   4   7
ENDBRANCH   2   3
ENDBRANCH   1   2
BRANCH   1  38
ATOM     38  C   UNL A   1      39.309  20.482  26.040  1.00  0.00     0.118 C 
BRANCH  38  39
ATOM     39  N   UNL A   1      40.366  19.504  26.141  1.00  0.00    -0.352 N 
ATOM     40  C   UNL A   1      41.725  19.696  26.115  1.00  0.00     0.251 C 
ATOM     41  H   UNL A   1      40.072  18.570  26.242  1.00  0.00     0.163 HD
ATOM     42  O   UNL A   1      42.453  18.741  25.855  1.00  0.00    -0.269 OA
BRANCH  40  43
ATOM     43  C   UNL A   1      42.322  21.029  26.379  1.00  0.00     0.039 A 
ATOM     44  C   UNL A   1      42.561  21.398  27.706  1.00  0.00     0.014 A 
ATOM     45  C   UNL A   1      42.559  21.951  25.352  1.00  0.00     0.014 A 
ATOM     46  C   UNL A   1      43.054  22.673  28.001  1.00  0.00     0.010 A 
ATOM     47  C   UNL A   1      43.114  23.201  25.645  1.00  0.00     0.010 A 
ATOM     48  C   UNL A   1      43.350  23.586  26.974  1.00  0.00    -0.014 A 
BRANCH  48  49
ATOM     49  C   UNL A   1      43.877  24.942  27.296  1.00  0.00     0.031 A 
ATOM     50  C   UNL A   1      45.326  25.280  27.046  1.00  0.00     0.074 A 
ATOM     51  C   UNL A   1      43.053  25.878  27.808  1.00  0.00     0.049 A 
ATOM     52  N   UNL A   1      45.953  26.413  27.242  1.00  0.00    -0.248 NA
ATOM     53  C   UNL A   1      46.184  24.206  26.520  1.00  0.00     0.031 C 
ATOM     54  C   UNL A   1      41.633  25.679  28.106  1.00  0.00     0.029 A 
ATOM     55  N   UNL A   1      43.282  27.188  28.155  1.00  0.00    -0.354 N 
ATOM     56  C   UNL A   1      47.272  26.190  26.860  1.00  0.00     0.074 A 
ATOM     57  C   UNL A   1      47.370  24.798  26.481  1.00  0.00     0.031 C 
ATOM     58  C   UNL A   1      41.109  26.834  28.545  1.00  0.00     0.029 A 
ATOM     59  C   UNL A   1      42.161  27.845  28.608  1.00  0.00     0.049 A 
ATOM     60  H   UNL A   1      44.165  27.616  28.085  1.00  0.00     0.167 HD
ATOM     61  C   UNL A   1      48.303  27.068  26.803  1.00  0.00     0.031 A 
ATOM     62  C   UNL A   1      41.993  29.115  29.028  1.00  0.00     0.031 A 
ATOM     63  C   UNL A   1      48.207  28.452  27.186  1.00  0.00     0.049 A 
ATOM     64  C   UNL A   1      43.169  30.054  29.018  1.00  0.00     0.074 A 
ATOM     65  C   UNL A   1      49.191  29.425  27.139  1.00  0.00     0.029 A 
ATOM     66  N   UNL A   1      47.067  29.062  27.686  1.00  0.00    -0.354 N 
ATOM     67  N   UNL A   1      44.396  29.834  28.606  1.00  0.00    -0.248 NA
ATOM     68  C   UNL A   1      42.939  31.415  29.523  1.00  0.00     0.031 C 
ATOM     69  C   UNL A   1      48.665  30.604  27.675  1.00  0.00     0.029 A 
ATOM     70  C   UNL A   1      47.332  30.389  27.984  1.00  0.00     0.049 A 
ATOM     71  H   UNL A   1      46.197  28.618  27.812  1.00  0.00     0.167 HD
ATOM     72  C   UNL A   1      45.076  31.035  28.780  1.00  0.00     0.074 A 
ATOM     73  C   UNL A   1      44.120  31.983  29.314  1.00  0.00     0.031 C 
ATOM     74  C   UNL A   1      46.375  31.324  28.520  1.00  0.00     0.031 A 
BRANCH  61  75
ATOM     75  C   UNL A   1      49.633  26.559  26.307  1.00  0.00    -0.014 A 
ATOM     76  C   UNL A   1      50.061  26.815  24.991  1.00  0.00     0.010 A 
ATOM     77  C   UNL A   1      50.499  25.876  27.183  1.00  0.00     0.010 A 
ATOM     78  C   UNL A   1      51.309  26.370  24.550  1.00  0.00     0.020 A 
ATOM     79  C   UNL A   1      51.762  25.458  26.756  1.00  0.00     0.020 A 
ATOM     80  C   UNL A   1      52.154  25.696  25.437  1.00  0.00     0.054 A 
BRANCH  80  81
ATOM     81  S   UNL A   1      53.781  25.159  24.840  1.00  0.00     0.124 S 
ATOM     82  O   UNL A   1      53.807  25.717  23.491  1.00  0.00    -0.237 OA
ATOM     83  O   UNL A   1      54.690  25.784  25.796  1.00  0.00    -0.237 OA
ATOM     84  O   UNL A   1      53.713  23.701  24.908  1.00  0.00    -0.744 OA
ENDBRANCH  80  81
ENDBRANCH  61  75
BRANCH  62  85
ATOM     85  C   UNL A   1      40.648  29.579  29.475  1.00  0.00    -0.014 A 
ATOM     86  C   UNL A   1      39.596  29.712  28.551  1.00  0.00     0.010 A 
ATOM     87  C   UNL A   1      40.405  29.868  30.831  1.00  0.00     0.010 A 
ATOM     88  C   UNL A   1      38.330  30.134  28.973  1.00  0.00     0.020 A 
ATOM     89  C   UNL A   1      39.133  30.258  31.262  1.00  0.00     0.020 A 
ATOM     90  C   UNL A   1      38.106  30.395  30.328  1.00  0.00     0.054 A 
BRANCH  90  91
ATOM     91  S   UNL A   1      36.439  30.884  30.854  1.00  0.00     0.124 S 
ATOM     92  O   UNL A   1      36.020  29.734  31.649  1.00  0.00    -0.237 OA
ATOM     93  O   UNL A   1      36.697  32.112  31.602  1.00  0.00    -0.237 OA
ATOM     94  O   UNL A   1      35.721  31.067  29.595  1.00  0.00    -0.744 OA
ENDBRANCH  90  91
ENDBRANCH  62  85
BRANCH  74  95
ATOM     95  C   UNL A   1      46.852  32.729  28.791  1.00  0.00    -0.014 A 
ATOM     96  C   UNL A   1      47.447  33.071  30.018  1.00  0.00     0.010 A 
ATOM     97  C   UNL A   1      46.780  33.698  27.773  1.00  0.00     0.010 A 
ATOM     98  C   UNL A   1      47.941  34.361  30.230  1.00  0.00     0.020 A 
ATOM     99  C   UNL A   1      47.303  34.980  27.968  1.00  0.00     0.020 A 
ATOM    100  C   UNL A   1      47.872  35.305  29.201  1.00  0.00     0.054 A 
BRANCH 100 101
ATOM    101  S   UNL A   1      48.572  36.954  29.488  1.00  0.00     0.124 S 
ATOM    102  O   UNL A   1      49.837  36.639  30.146  1.00  0.00    -0.237 OA
ATOM    103  O   UNL A   1      48.684  37.490  28.134  1.00  0.00    -0.237 OA
ATOM    104  O   UNL A   1      47.578  37.612  30.333  1.00  0.00    -0.744 OA
ENDBRANCH 100 101
ENDBRANCH  74  95
ENDBRANCH  48  49
ENDBRANCH  40  43
ENDBRANCH  38  39
ENDBRANCH   1  38
TORSDOF 17
ENDMDL
