MODEL 1
REMARK VINA RESULT:     -11.7      0.000      0.000
REMARK SMILES CSCC[C@@H](C(=O)NCCCNC(=O)c1ccc(-c2c3nc(c(-c4ccc(S(=O)(=O)[O-])cc4)c4ccc([nH]4)c(-c4ccc(S(=O)(=O)[O-])cc4)c4nc(c(-c5ccc(S(=O)(=O)[O-])cc5)c5ccc2[nH]5)C=C4)C=C3)cc1)N1C(=O)/C(=C/c2ccc(-c3ccccc3Cl)o2)SC1=S
REMARK SMILES IDX 10 1 9 2 8 3 6 4 7 5 5 7 4 8 3 9 2 10 1 11 75 12 76 13 93 14
REMARK SMILES IDX 77 15 78 16 92 17 94 18 79 19 80 20 81 21 91 22 82 23 83 24
REMARK SMILES IDX 84 25 85 26 89 27 86 28 88 29 90 30 87 31 11 32 12 33 13 34
REMARK SMILES IDX 14 36 15 37 16 38 74 39 17 40 73 41 18 42 19 43 20 44 67 45
REMARK SMILES IDX 21 46 72 47 66 48 68 49 22 50 71 51 65 52 64 53 23 55 53 56
REMARK SMILES IDX 34 57 52 58 35 59 38 60 51 61 69 62 36 63 37 64 50 66 70 67
REMARK SMILES IDX 39 68 24 69 25 70 33 71 26 72 32 73 27 74 28 75 29 76 30 77
REMARK SMILES IDX 31 78 54 79 55 80 63 81 56 82 62 83 57 84 58 85 59 86 60 87
REMARK SMILES IDX 61 88 40 89 41 90 49 91 42 92 48 93 43 94 44 95 45 96 46 97
REMARK SMILES IDX 47 98
REMARK H PARENT 8 6 12 35 68 54 38 65
REMARK Flexibility Score: inf
ROOT
ATOM      1  C   UNL A   1      34.212  30.708  27.683  1.00  0.00     0.042 C 
ENDROOT
BRANCH   1   2
ATOM      2  C   UNL A   1      33.694  29.592  26.786  1.00  0.00     0.117 C 
BRANCH   2   3
ATOM      3  N   UNL A   1      32.598  28.888  27.406  1.00  0.00    -0.354 N 
ATOM      4  C   UNL A   1      31.695  28.018  26.878  1.00  0.00     0.243 C 
ATOM      5  O   UNL A   1      30.894  27.529  27.683  1.00  0.00    -0.273 OA
ATOM      6  H   UNL A   1      32.487  29.064  28.368  1.00  0.00     0.163 HD
BRANCH   4   7
ATOM      7  C   UNL A   1      31.709  27.608  25.375  1.00  0.00     0.182 C 
BRANCH   7   8
ATOM      8  C   UNL A   1      30.391  27.750  24.584  1.00  0.00     0.046 C 
BRANCH   8   9
ATOM      9  C   UNL A   1      30.388  27.995  23.072  1.00  0.00     0.072 C 
BRANCH   9  10
ATOM     10  S   UNL A   1      29.543  29.497  22.469  1.00  0.00    -0.165 SA
ATOM     11  C   UNL A   1      27.804  29.152  22.832  1.00  0.00     0.085 C 
ENDBRANCH   9  10
ENDBRANCH   8   9
ENDBRANCH   7   8
BRANCH   7  12
ATOM     12  N   UNL A   1      32.212  26.196  25.385  1.00  0.00    -0.280 N 
ATOM     13  C   UNL A   1      33.577  25.992  25.231  1.00  0.00     0.267 C 
ATOM     14  C   UNL A   1      31.478  25.069  25.727  1.00  0.00     0.149 C 
ATOM     15  O   UNL A   1      34.416  26.863  25.024  1.00  0.00    -0.268 OA
ATOM     16  C   UNL A   1      33.915  24.545  25.333  1.00  0.00     0.084 C 
ATOM     17  S   UNL A   1      32.476  23.634  25.557  1.00  0.00    -0.054 SA
ATOM     18  S   UNL A   1      29.892  24.909  26.226  1.00  0.00    -0.052 S 
ATOM     19  C   UNL A   1      35.168  24.070  25.266  1.00  0.00     0.068 C 
BRANCH  19  20
ATOM     20  C   UNL A   1      35.440  22.673  25.235  1.00  0.00     0.128 A 
ATOM     21  C   UNL A   1      36.645  22.030  25.502  1.00  0.00     0.051 A 
ATOM     22  O   UNL A   1      34.515  21.701  24.909  1.00  0.00    -0.457 OA
ATOM     23  C   UNL A   1      36.465  20.652  25.273  1.00  0.00     0.051 A 
ATOM     24  C   UNL A   1      35.155  20.497  24.884  1.00  0.00     0.136 A 
BRANCH  24  25
ATOM     25  C   UNL A   1      34.395  19.318  24.486  1.00  0.00     0.036 A 
ATOM     26  C   UNL A   1      35.019  18.061  24.602  1.00  0.00     0.013 A 
ATOM     27  C   UNL A   1      33.126  19.377  23.886  1.00  0.00     0.052 A 
ATOM     28  C   UNL A   1      34.409  16.901  24.120  1.00  0.00     0.001 A 
ATOM     29  C   UNL A   1      32.519  18.210  23.401  1.00  0.00     0.021 A 
ATOM     30  Cl  UNL A   1      32.278  20.864  23.636  1.00  0.00    -0.084 Cl
ATOM     31  C   UNL A   1      33.162  16.977  23.511  1.00  0.00     0.002 A 
ENDBRANCH  24  25
ENDBRANCH  19  20
ENDBRANCH   7  12
ENDBRANCH   4   7
ENDBRANCH   2   3
ENDBRANCH   1   2
BRANCH   1  32
ATOM     32  C   UNL A   1      35.490  30.319  28.409  1.00  0.00     0.118 C 
BRANCH  32  33
ATOM     33  N   UNL A   1      35.488  30.785  29.791  1.00  0.00    -0.352 N 
ATOM     34  C   UNL A   1      36.481  30.738  30.738  1.00  0.00     0.251 C 
ATOM     35  H   UNL A   1      34.645  31.195  30.091  1.00  0.00     0.163 HD
ATOM     36  O   UNL A   1      36.205  30.980  31.912  1.00  0.00    -0.269 OA
BRANCH  34  37
ATOM     37  C   UNL A   1      37.866  30.382  30.355  1.00  0.00     0.039 A 
ATOM     38  C   UNL A   1      38.671  29.694  31.267  1.00  0.00     0.014 A 
ATOM     39  C   UNL A   1      38.375  30.732  29.104  1.00  0.00     0.014 A 
ATOM     40  C   UNL A   1      39.961  29.306  30.896  1.00  0.00     0.010 A 
ATOM     41  C   UNL A   1      39.611  30.245  28.697  1.00  0.00     0.010 A 
ATOM     42  C   UNL A   1      40.428  29.545  29.595  1.00  0.00    -0.014 A 
BRANCH  42  43
ATOM     43  C   UNL A   1      41.778  29.107  29.155  1.00  0.00     0.031 A 
ATOM     44  C   UNL A   1      42.913  30.097  29.121  1.00  0.00     0.074 A 
ATOM     45  C   UNL A   1      41.966  27.844  28.722  1.00  0.00     0.049 A 
ATOM     46  N   UNL A   1      44.140  29.933  28.697  1.00  0.00    -0.248 NA
ATOM     47  C   UNL A   1      42.624  31.462  29.596  1.00  0.00     0.031 C 
ATOM     48  C   UNL A   1      40.936  26.804  28.664  1.00  0.00     0.029 A 
ATOM     49  N   UNL A   1      43.091  27.221  28.242  1.00  0.00    -0.354 N 
ATOM     50  C   UNL A   1      44.755  31.172  28.832  1.00  0.00     0.074 A 
ATOM     51  C   UNL A   1      43.754  32.093  29.317  1.00  0.00     0.031 C 
ATOM     52  C   UNL A   1      41.484  25.665  28.211  1.00  0.00     0.029 A 
ATOM     53  C   UNL A   1      42.890  25.904  27.899  1.00  0.00     0.049 A 
ATOM     54  H   UNL A   1      43.960  27.674  28.152  1.00  0.00     0.167 HD
ATOM     55  C   UNL A   1      46.046  31.510  28.598  1.00  0.00     0.031 A 
ATOM     56  C   UNL A   1      43.739  24.994  27.383  1.00  0.00     0.031 A 
ATOM     57  C   UNL A   1      47.043  30.584  28.133  1.00  0.00     0.049 A 
ATOM     58  C   UNL A   1      45.165  25.395  27.121  1.00  0.00     0.074 A 
ATOM     59  C   UNL A   1      48.392  30.808  27.921  1.00  0.00     0.029 A 
ATOM     60  N   UNL A   1      46.800  29.258  27.807  1.00  0.00    -0.354 N 
ATOM     61  N   UNL A   1      45.745  26.555  27.320  1.00  0.00    -0.248 NA
ATOM     62  C   UNL A   1      46.054  24.361  26.575  1.00  0.00     0.031 C 
ATOM     63  C   UNL A   1      48.952  29.634  27.408  1.00  0.00     0.029 A 
ATOM     64  C   UNL A   1      47.968  28.658  27.368  1.00  0.00     0.049 A 
ATOM     65  H   UNL A   1      45.927  28.810  27.876  1.00  0.00     0.167 HD
ATOM     66  C   UNL A   1      47.075  26.381  26.951  1.00  0.00     0.074 A 
ATOM     67  C   UNL A   1      47.215  25.000  26.534  1.00  0.00     0.031 C 
ATOM     68  C   UNL A   1      48.088  27.282  26.957  1.00  0.00     0.031 A 
BRANCH  55  69
ATOM     69  C   UNL A   1      46.449  32.943  28.840  1.00  0.00    -0.014 A 
ATOM     70  C   UNL A   1      46.916  33.366  30.098  1.00  0.00     0.010 A 
ATOM     71  C   UNL A   1      46.394  33.872  27.785  1.00  0.00     0.010 A 
ATOM     72  C   UNL A   1      47.275  34.700  30.309  1.00  0.00     0.020 A 
ATOM     73  C   UNL A   1      46.785  35.200  27.983  1.00  0.00     0.020 A 
ATOM     74  C   UNL A   1      47.207  35.609  29.249  1.00  0.00     0.054 A 
BRANCH  74  75
ATOM     75  S   UNL A   1      47.705  37.327  29.547  1.00  0.00     0.124 S 
ATOM     76  O   UNL A   1      46.839  38.055  28.622  1.00  0.00    -0.237 OA
ATOM     77  O   UNL A   1      47.400  37.506  30.964  1.00  0.00    -0.237 OA
ATOM     78  O   UNL A   1      49.126  37.341  29.211  1.00  0.00    -0.744 OA
ENDBRANCH  74  75
ENDBRANCH  55  69
BRANCH  56  79
ATOM     79  C   UNL A   1      43.264  23.612  27.094  1.00  0.00    -0.014 A 
ATOM     80  C   UNL A   1      43.015  23.203  25.771  1.00  0.00     0.010 A 
ATOM     81  C   UNL A   1      43.068  22.692  28.140  1.00  0.00     0.010 A 
ATOM     82  C   UNL A   1      42.560  21.909  25.502  1.00  0.00     0.020 A 
ATOM     83  C   UNL A   1      42.644  21.386  27.872  1.00  0.00     0.020 A 
ATOM     84  C   UNL A   1      42.380  21.008  26.555  1.00  0.00     0.054 A 
BRANCH  84  85
ATOM     85  S   UNL A   1      41.837  19.318  26.176  1.00  0.00     0.124 S 
ATOM     86  O   UNL A   1      42.198  18.602  27.395  1.00  0.00    -0.237 OA
ATOM     87  O   UNL A   1      40.405  19.493  25.945  1.00  0.00    -0.237 OA
ATOM     88  O   UNL A   1      42.613  18.967  24.989  1.00  0.00    -0.744 OA
ENDBRANCH  84  85
ENDBRANCH  56  79
BRANCH  68  89
ATOM     89  C   UNL A   1      49.450  26.797  26.532  1.00  0.00    -0.014 A 
ATOM     90  C   UNL A   1      50.278  26.080  27.413  1.00  0.00     0.010 A 
ATOM     91  C   UNL A   1      49.879  27.013  25.209  1.00  0.00     0.010 A 
ATOM     92  C   UNL A   1      51.526  25.617  26.988  1.00  0.00     0.020 A 
ATOM     93  C   UNL A   1      51.111  26.523  24.771  1.00  0.00     0.020 A 
ATOM     94  C   UNL A   1      51.933  25.840  25.668  1.00  0.00     0.054 A 
BRANCH  94  95
ATOM     95  S   UNL A   1      53.538  25.190  25.130  1.00  0.00     0.124 S 
ATOM     96  O   UNL A   1      54.454  25.813  26.080  1.00  0.00    -0.237 OA
ATOM     97  O   UNL A   1      53.364  23.747  25.279  1.00  0.00    -0.237 OA
ATOM     98  O   UNL A   1      53.657  25.658  23.751  1.00  0.00    -0.744 OA
ENDBRANCH  94  95
ENDBRANCH  68  89
ENDBRANCH  42  43
ENDBRANCH  34  37
ENDBRANCH  32  33
ENDBRANCH   1  32
TORSDOF 19
ENDMDL
MODEL 2
REMARK VINA RESULT:     -11.6      5.583      7.605
REMARK SMILES CSCC[C@@H](C(=O)NCCCNC(=O)c1ccc(-c2c3nc(c(-c4ccc(S(=O)(=O)[O-])cc4)c4ccc([nH]4)c(-c4ccc(S(=O)(=O)[O-])cc4)c4nc(c(-c5ccc(S(=O)(=O)[O-])cc5)c5ccc2[nH]5)C=C4)C=C3)cc1)N1C(=O)/C(=C/c2ccc(-c3ccccc3Cl)o2)SC1=S
REMARK SMILES IDX 10 1 9 2 8 3 6 4 7 5 5 7 4 8 3 9 2 10 1 11 75 12 76 13 93 14
REMARK SMILES IDX 77 15 78 16 92 17 94 18 79 19 80 20 81 21 91 22 82 23 83 24
REMARK SMILES IDX 84 25 85 26 89 27 86 28 88 29 90 30 87 31 11 32 12 33 13 34
REMARK SMILES IDX 14 36 15 37 16 38 74 39 17 40 73 41 18 42 19 43 20 44 67 45
REMARK SMILES IDX 21 46 72 47 66 48 68 49 22 50 71 51 65 52 64 53 23 55 53 56
REMARK SMILES IDX 34 57 52 58 35 59 38 60 51 61 69 62 36 63 37 64 50 66 70 67
REMARK SMILES IDX 39 68 24 69 25 70 33 71 26 72 32 73 27 74 28 75 29 76 30 77
REMARK SMILES IDX 31 78 54 79 55 80 63 81 56 82 62 83 57 84 58 85 59 86 60 87
REMARK SMILES IDX 61 88 40 89 41 90 49 91 42 92 48 93 43 94 44 95 45 96 46 97
REMARK SMILES IDX 47 98
REMARK H PARENT 8 6 12 35 68 54 38 65
REMARK Flexibility Score: inf
ROOT
ATOM      1  C   UNL A   1      31.747  32.107  26.882  1.00  0.00     0.042 C 
ENDROOT
BRANCH   1   2
ATOM      2  C   UNL A   1      31.966  30.827  26.086  1.00  0.00     0.117 C 
BRANCH   2   3
ATOM      3  N   UNL A   1      31.766  29.659  26.909  1.00  0.00    -0.354 N 
ATOM      4  C   UNL A   1      31.604  28.353  26.565  1.00  0.00     0.243 C 
ATOM      5  O   UNL A   1      31.506  27.562  27.510  1.00  0.00    -0.273 OA
ATOM      6  H   UNL A   1      31.746  29.835  27.877  1.00  0.00     0.163 HD
BRANCH   4   7
ATOM      7  C   UNL A   1      31.610  27.872  25.083  1.00  0.00     0.182 C 
BRANCH   7   8
ATOM      8  C   UNL A   1      30.290  27.987  24.290  1.00  0.00     0.046 C 
BRANCH   8   9
ATOM      9  C   UNL A   1      29.988  29.206  23.413  1.00  0.00     0.072 C 
BRANCH   9  10
ATOM     10  S   UNL A   1      28.286  29.378  22.775  1.00  0.00    -0.165 SA
ATOM     11  C   UNL A   1      27.808  31.026  23.348  1.00  0.00     0.085 C 
ENDBRANCH   9  10
ENDBRANCH   8   9
ENDBRANCH   7   8
BRANCH   7  12
ATOM     12  N   UNL A   1      32.100  26.458  25.158  1.00  0.00    -0.280 N 
ATOM     13  C   UNL A   1      33.463  26.235  25.005  1.00  0.00     0.267 C 
ATOM     14  C   UNL A   1      31.360  25.355  25.562  1.00  0.00     0.149 C 
ATOM     15  O   UNL A   1      34.307  27.088  24.748  1.00  0.00    -0.268 OA
ATOM     16  C   UNL A   1      33.790  24.792  25.175  1.00  0.00     0.084 C 
ATOM     17  S   UNL A   1      32.346  23.906  25.454  1.00  0.00    -0.054 SA
ATOM     18  S   UNL A   1      29.778  25.233  26.080  1.00  0.00    -0.052 S 
ATOM     19  C   UNL A   1      35.039  24.304  25.122  1.00  0.00     0.068 C 
BRANCH  19  20
ATOM     20  C   UNL A   1      35.299  22.904  25.157  1.00  0.00     0.128 A 
ATOM     21  C   UNL A   1      36.475  22.263  25.534  1.00  0.00     0.051 A 
ATOM     22  O   UNL A   1      34.391  21.929  24.797  1.00  0.00    -0.457 OA
ATOM     23  C   UNL A   1      36.299  20.879  25.338  1.00  0.00     0.051 A 
ATOM     24  C   UNL A   1      35.020  20.720  24.859  1.00  0.00     0.136 A 
BRANCH  24  25
ATOM     25  C   UNL A   1      34.280  19.534  24.445  1.00  0.00     0.036 A 
ATOM     26  C   UNL A   1      34.899  18.279  24.612  1.00  0.00     0.013 A 
ATOM     27  C   UNL A   1      33.041  19.581  23.786  1.00  0.00     0.052 A 
ATOM     28  C   UNL A   1      34.313  17.111  24.122  1.00  0.00     0.001 A 
ATOM     29  C   UNL A   1      32.457  18.405  23.293  1.00  0.00     0.021 A 
ATOM     30  Cl  UNL A   1      32.204  21.062  23.473  1.00  0.00    -0.084 Cl
ATOM     31  C   UNL A   1      33.095  17.174  23.454  1.00  0.00     0.002 A 
ENDBRANCH  24  25
ENDBRANCH  19  20
ENDBRANCH   7  12
ENDBRANCH   4   7
ENDBRANCH   2   3
ENDBRANCH   1   2
BRANCH   1  32
ATOM     32  C   UNL A   1      33.051  32.695  27.398  1.00  0.00     0.118 C 
BRANCH  32  33
ATOM     33  N   UNL A   1      32.908  34.106  27.737  1.00  0.00    -0.352 N 
ATOM     34  C   UNL A   1      33.493  34.833  28.745  1.00  0.00     0.251 C 
ATOM     35  H   UNL A   1      32.299  34.616  27.155  1.00  0.00     0.163 HD
ATOM     36  O   UNL A   1      33.068  35.959  28.998  1.00  0.00    -0.269 OA
BRANCH  34  37
ATOM     37  C   UNL A   1      34.610  34.263  29.530  1.00  0.00     0.039 A 
ATOM     38  C   UNL A   1      34.329  33.561  30.706  1.00  0.00     0.014 A 
ATOM     39  C   UNL A   1      35.933  34.426  29.116  1.00  0.00     0.014 A 
ATOM     40  C   UNL A   1      35.372  32.973  31.426  1.00  0.00     0.010 A 
ATOM     41  C   UNL A   1      36.953  33.744  29.767  1.00  0.00     0.010 A 
ATOM     42  C   UNL A   1      36.688  33.028  30.943  1.00  0.00    -0.014 A 
BRANCH  42  43
ATOM     43  C   UNL A   1      37.814  32.375  31.661  1.00  0.00     0.031 A 
ATOM     44  C   UNL A   1      38.266  32.917  32.992  1.00  0.00     0.074 A 
ATOM     45  C   UNL A   1      38.469  31.345  31.089  1.00  0.00     0.049 A 
ATOM     46  N   UNL A   1      39.274  32.540  33.738  1.00  0.00    -0.248 NA
ATOM     47  C   UNL A   1      37.508  34.053  33.545  1.00  0.00     0.031 C 
ATOM     48  C   UNL A   1      38.155  30.759  29.784  1.00  0.00     0.029 A 
ATOM     49  N   UNL A   1      39.543  30.612  31.530  1.00  0.00    -0.354 N 
ATOM     50  C   UNL A   1      39.282  33.404  34.827  1.00  0.00     0.074 A 
ATOM     51  C   UNL A   1      38.221  34.362  34.617  1.00  0.00     0.031 C 
ATOM     52  C   UNL A   1      38.992  29.736  29.547  1.00  0.00     0.029 A 
ATOM     53  C   UNL A   1      39.933  29.624  30.657  1.00  0.00     0.049 A 
ATOM     54  H   UNL A   1      39.990  30.778  32.390  1.00  0.00     0.167 HD
ATOM     55  C   UNL A   1      40.083  33.388  35.919  1.00  0.00     0.031 A 
ATOM     56  C   UNL A   1      40.941  28.733  30.736  1.00  0.00     0.031 A 
ATOM     57  C   UNL A   1      41.125  32.419  36.131  1.00  0.00     0.049 A 
ATOM     58  C   UNL A   1      41.825  28.740  31.954  1.00  0.00     0.074 A 
ATOM     59  C   UNL A   1      41.954  32.277  37.229  1.00  0.00     0.029 A 
ATOM     60  N   UNL A   1      41.481  31.429  35.227  1.00  0.00    -0.354 N 
ATOM     61  N   UNL A   1      41.773  29.523  33.006  1.00  0.00    -0.248 NA
ATOM     62  C   UNL A   1      42.897  27.737  31.999  1.00  0.00     0.031 C 
ATOM     63  C   UNL A   1      42.854  31.239  36.963  1.00  0.00     0.029 A 
ATOM     64  C   UNL A   1      42.538  30.689  35.730  1.00  0.00     0.049 A 
ATOM     65  H   UNL A   1      41.048  31.276  34.357  1.00  0.00     0.167 HD
ATOM     66  C   UNL A   1      42.787  29.087  33.852  1.00  0.00     0.074 A 
ATOM     67  C   UNL A   1      43.423  27.962  33.196  1.00  0.00     0.031 C 
ATOM     68  C   UNL A   1      43.159  29.573  35.062  1.00  0.00     0.031 A 
BRANCH  55  69
ATOM     69  C   UNL A   1      39.863  34.451  36.964  1.00  0.00    -0.014 A 
ATOM     70  C   UNL A   1      39.043  34.216  38.083  1.00  0.00     0.010 A 
ATOM     71  C   UNL A   1      40.513  35.693  36.845  1.00  0.00     0.010 A 
ATOM     72  C   UNL A   1      38.841  35.216  39.038  1.00  0.00     0.020 A 
ATOM     73  C   UNL A   1      40.340  36.685  37.816  1.00  0.00     0.020 A 
ATOM     74  C   UNL A   1      39.491  36.445  38.897  1.00  0.00     0.054 A 
BRANCH  74  75
ATOM     75  S   UNL A   1      39.229  37.715  40.165  1.00  0.00     0.124 S 
ATOM     76  O   UNL A   1      38.888  36.907  41.334  1.00  0.00    -0.237 OA
ATOM     77  O   UNL A   1      40.528  38.381  40.222  1.00  0.00    -0.237 OA
ATOM     78  O   UNL A   1      38.139  38.524  39.628  1.00  0.00    -0.744 OA
ENDBRANCH  74  75
ENDBRANCH  55  69
BRANCH  56  79
ATOM     79  C   UNL A   1      41.157  27.752  29.636  1.00  0.00    -0.014 A 
ATOM     80  C   UNL A   1      40.271  26.675  29.454  1.00  0.00     0.010 A 
ATOM     81  C   UNL A   1      42.245  27.895  28.756  1.00  0.00     0.010 A 
ATOM     82  C   UNL A   1      40.480  25.749  28.428  1.00  0.00     0.020 A 
ATOM     83  C   UNL A   1      42.440  26.989  27.708  1.00  0.00     0.020 A 
ATOM     84  C   UNL A   1      41.563  25.914  27.560  1.00  0.00     0.054 A 
BRANCH  84  85
ATOM     85  S   UNL A   1      41.785  24.727  26.205  1.00  0.00     0.124 S 
ATOM     86  O   UNL A   1      40.545  23.960  26.267  1.00  0.00    -0.237 OA
ATOM     87  O   UNL A   1      41.932  25.601  25.043  1.00  0.00    -0.237 OA
ATOM     88  O   UNL A   1      42.993  23.997  26.584  1.00  0.00    -0.744 OA
ENDBRANCH  84  85
ENDBRANCH  56  79
BRANCH  68  89
ATOM     89  C   UNL A   1      44.284  28.870  35.776  1.00  0.00    -0.014 A 
ATOM     90  C   UNL A   1      45.611  29.322  35.673  1.00  0.00     0.010 A 
ATOM     91  C   UNL A   1      43.994  27.774  36.611  1.00  0.00     0.010 A 
ATOM     92  C   UNL A   1      46.634  28.669  36.366  1.00  0.00     0.020 A 
ATOM     93  C   UNL A   1      45.009  27.141  37.331  1.00  0.00     0.020 A 
ATOM     94  C   UNL A   1      46.325  27.584  37.192  1.00  0.00     0.054 A 
BRANCH  94  95
ATOM     95  S   UNL A   1      47.665  26.783  38.115  1.00  0.00     0.124 S 
ATOM     96  O   UNL A   1      47.259  25.381  38.088  1.00  0.00    -0.237 OA
ATOM     97  O   UNL A   1      48.843  27.111  37.316  1.00  0.00    -0.237 OA
ATOM     98  O   UNL A   1      47.613  27.422  39.428  1.00  0.00    -0.744 OA
ENDBRANCH  94  95
ENDBRANCH  68  89
ENDBRANCH  42  43
ENDBRANCH  34  37
ENDBRANCH  32  33
ENDBRANCH   1  32
TORSDOF 19
ENDMDL
MODEL 3
REMARK VINA RESULT:     -11.6      5.429      9.860
REMARK SMILES CSCC[C@@H](C(=O)NCCCNC(=O)c1ccc(-c2c3nc(c(-c4ccc(S(=O)(=O)[O-])cc4)c4ccc([nH]4)c(-c4ccc(S(=O)(=O)[O-])cc4)c4nc(c(-c5ccc(S(=O)(=O)[O-])cc5)c5ccc2[nH]5)C=C4)C=C3)cc1)N1C(=O)/C(=C/c2ccc(-c3ccccc3Cl)o2)SC1=S
REMARK SMILES IDX 10 1 9 2 8 3 6 4 7 5 5 7 4 8 3 9 2 10 1 11 75 12 76 13 93 14
REMARK SMILES IDX 77 15 78 16 92 17 94 18 79 19 80 20 81 21 91 22 82 23 83 24
REMARK SMILES IDX 84 25 85 26 89 27 86 28 88 29 90 30 87 31 11 32 12 33 13 34
REMARK SMILES IDX 14 36 15 37 16 38 74 39 17 40 73 41 18 42 19 43 20 44 67 45
REMARK SMILES IDX 21 46 72 47 66 48 68 49 22 50 71 51 65 52 64 53 23 55 53 56
REMARK SMILES IDX 34 57 52 58 35 59 38 60 51 61 69 62 36 63 37 64 50 66 70 67
REMARK SMILES IDX 39 68 24 69 25 70 33 71 26 72 32 73 27 74 28 75 29 76 30 77
REMARK SMILES IDX 31 78 54 79 55 80 63 81 56 82 62 83 57 84 58 85 59 86 60 87
REMARK SMILES IDX 61 88 40 89 41 90 49 91 42 92 48 93 43 94 44 95 45 96 46 97
REMARK SMILES IDX 47 98
REMARK H PARENT 8 6 12 35 68 54 38 65
REMARK Flexibility Score: inf
ROOT
ATOM      1  C   UNL A   1      32.192  31.048  26.508  1.00  0.00     0.042 C 
ENDROOT
BRANCH   1   2
ATOM      2  C   UNL A   1      32.544  29.591  26.241  1.00  0.00     0.117 C 
BRANCH   2   3
ATOM      3  N   UNL A   1      33.582  29.478  25.245  1.00  0.00    -0.354 N 
ATOM      4  C   UNL A   1      33.623  28.762  24.089  1.00  0.00     0.243 C 
ATOM      5  O   UNL A   1      34.643  28.911  23.407  1.00  0.00    -0.273 OA
ATOM      6  H   UNL A   1      34.392  30.005  25.433  1.00  0.00     0.163 HD
BRANCH   4   7
ATOM      7  C   UNL A   1      32.437  27.869  23.616  1.00  0.00     0.182 C 
BRANCH   7   8
ATOM      8  C   UNL A   1      31.110  27.973  24.398  1.00  0.00     0.046 C 
BRANCH   8   9
ATOM      9  C   UNL A   1      29.758  27.743  23.714  1.00  0.00     0.072 C 
BRANCH   9  10
ATOM     10  S   UNL A   1      29.122  29.079  22.644  1.00  0.00    -0.165 SA
ATOM     11  C   UNL A   1      27.348  29.066  22.999  1.00  0.00     0.085 C 
ENDBRANCH   9  10
ENDBRANCH   8   9
ENDBRANCH   7   8
BRANCH   7  12
ATOM     12  N   UNL A   1      32.995  26.479  23.634  1.00  0.00    -0.280 N 
ATOM     13  C   UNL A   1      33.347  25.937  24.864  1.00  0.00     0.267 C 
ATOM     14  C   UNL A   1      33.017  25.592  22.567  1.00  0.00     0.149 C 
ATOM     15  O   UNL A   1      33.304  26.518  25.945  1.00  0.00    -0.268 OA
ATOM     16  C   UNL A   1      33.817  24.532  24.713  1.00  0.00     0.084 C 
ATOM     17  S   UNL A   1      33.800  24.097  23.052  1.00  0.00    -0.054 SA
ATOM     18  S   UNL A   1      32.456  25.753  21.002  1.00  0.00    -0.052 S 
ATOM     19  C   UNL A   1      34.177  23.757  25.747  1.00  0.00     0.068 C 
BRANCH  19  20
ATOM     20  C   UNL A   1      34.746  22.465  25.553  1.00  0.00     0.128 A 
ATOM     21  C   UNL A   1      36.081  22.091  25.676  1.00  0.00     0.051 A 
ATOM     22  O   UNL A   1      34.032  21.341  25.188  1.00  0.00    -0.457 OA
ATOM     23  C   UNL A   1      36.188  20.734  25.317  1.00  0.00     0.051 A 
ATOM     24  C   UNL A   1      34.916  20.320  24.997  1.00  0.00     0.136 A 
BRANCH  24  25
ATOM     25  C   UNL A   1      34.402  19.039  24.528  1.00  0.00     0.036 A 
ATOM     26  C   UNL A   1      35.173  17.887  24.781  1.00  0.00     0.013 A 
ATOM     27  C   UNL A   1      33.246  18.906  23.741  1.00  0.00     0.052 A 
ATOM     28  C   UNL A   1      34.816  16.645  24.251  1.00  0.00     0.001 A 
ATOM     29  C   UNL A   1      32.894  17.657  23.209  1.00  0.00     0.021 A 
ATOM     30  Cl  UNL A   1      32.245  20.251  23.316  1.00  0.00    -0.084 Cl
ATOM     31  C   UNL A   1      33.680  16.532  23.457  1.00  0.00     0.002 A 
ENDBRANCH  24  25
ENDBRANCH  19  20
ENDBRANCH   7  12
ENDBRANCH   4   7
ENDBRANCH   2   3
ENDBRANCH   1   2
BRANCH   1  32
ATOM     32  C   UNL A   1      33.246  31.751  27.350  1.00  0.00     0.118 C 
BRANCH  32  33
ATOM     33  N   UNL A   1      32.898  33.147  27.593  1.00  0.00    -0.352 N 
ATOM     34  C   UNL A   1      33.385  34.025  28.530  1.00  0.00     0.251 C 
ATOM     35  H   UNL A   1      32.209  33.516  26.994  1.00  0.00     0.163 HD
ATOM     36  O   UNL A   1      32.800  35.091  28.716  1.00  0.00    -0.269 OA
BRANCH  34  37
ATOM     37  C   UNL A   1      34.589  33.687  29.321  1.00  0.00     0.039 A 
ATOM     38  C   UNL A   1      34.479  32.780  30.379  1.00  0.00     0.014 A 
ATOM     39  C   UNL A   1      35.824  34.268  29.029  1.00  0.00     0.014 A 
ATOM     40  C   UNL A   1      35.619  32.413  31.097  1.00  0.00     0.010 A 
ATOM     41  C   UNL A   1      36.972  33.816  29.667  1.00  0.00     0.010 A 
ATOM     42  C   UNL A   1      36.881  32.899  30.723  1.00  0.00    -0.014 A 
BRANCH  42  43
ATOM     43  C   UNL A   1      38.120  32.494  31.439  1.00  0.00     0.031 A 
ATOM     44  C   UNL A   1      39.021  31.447  30.840  1.00  0.00     0.074 A 
ATOM     45  C   UNL A   1      38.396  33.015  32.651  1.00  0.00     0.049 A 
ATOM     46  N   UNL A   1      40.101  30.902  31.341  1.00  0.00    -0.248 NA
ATOM     47  C   UNL A   1      38.644  30.915  29.519  1.00  0.00     0.031 C 
ATOM     48  C   UNL A   1      37.577  34.005  33.357  1.00  0.00     0.029 A 
ATOM     49  N   UNL A   1      39.440  32.780  33.509  1.00  0.00    -0.354 N 
ATOM     50  C   UNL A   1      40.513  29.955  30.411  1.00  0.00     0.074 A 
ATOM     51  C   UNL A   1      39.537  29.952  29.346  1.00  0.00     0.031 C 
ATOM     52  C   UNL A   1      38.168  34.317  34.522  1.00  0.00     0.029 A 
ATOM     53  C   UNL A   1      39.379  33.516  34.670  1.00  0.00     0.049 A 
ATOM     54  H   UNL A   1      40.165  32.144  33.313  1.00  0.00     0.167 HD
ATOM     55  C   UNL A   1      41.619  29.173  30.427  1.00  0.00     0.031 A 
ATOM     56  C   UNL A   1      40.201  33.537  35.738  1.00  0.00     0.031 A 
ATOM     57  C   UNL A   1      42.597  29.195  31.480  1.00  0.00     0.049 A 
ATOM     58  C   UNL A   1      41.418  32.653  35.738  1.00  0.00     0.074 A 
ATOM     59  C   UNL A   1      43.784  28.488  31.565  1.00  0.00     0.029 A 
ATOM     60  N   UNL A   1      42.503  29.961  32.633  1.00  0.00    -0.354 N 
ATOM     61  N   UNL A   1      41.827  31.813  34.816  1.00  0.00    -0.248 NA
ATOM     62  C   UNL A   1      42.290  32.727  36.917  1.00  0.00     0.031 C 
ATOM     63  C   UNL A   1      44.377  28.781  32.798  1.00  0.00     0.029 A 
ATOM     64  C   UNL A   1      43.596  29.723  33.449  1.00  0.00     0.049 A 
ATOM     65  H   UNL A   1      41.768  30.581  32.840  1.00  0.00     0.167 HD
ATOM     66  C   UNL A   1      43.020  31.280  35.293  1.00  0.00     0.074 A 
ATOM     67  C   UNL A   1      43.274  31.906  36.574  1.00  0.00     0.031 C 
ATOM     68  C   UNL A   1      43.832  30.356  34.721  1.00  0.00     0.031 A 
BRANCH  55  69
ATOM     69  C   UNL A   1      41.826  28.229  29.270  1.00  0.00    -0.014 A 
ATOM     70  C   UNL A   1      42.541  28.625  28.124  1.00  0.00     0.010 A 
ATOM     71  C   UNL A   1      41.327  26.916  29.342  1.00  0.00     0.010 A 
ATOM     72  C   UNL A   1      42.714  27.741  27.055  1.00  0.00     0.020 A 
ATOM     73  C   UNL A   1      41.528  26.017  28.289  1.00  0.00     0.020 A 
ATOM     74  C   UNL A   1      42.205  26.442  27.145  1.00  0.00     0.054 A 
BRANCH  74  75
ATOM     75  S   UNL A   1      42.468  25.311  25.753  1.00  0.00     0.124 S 
ATOM     76  O   UNL A   1      42.340  26.208  24.607  1.00  0.00    -0.237 OA
ATOM     77  O   UNL A   1      43.815  24.803  26.005  1.00  0.00    -0.237 OA
ATOM     78  O   UNL A   1      41.398  24.328  25.897  1.00  0.00    -0.744 OA
ENDBRANCH  74  75
ENDBRANCH  55  69
BRANCH  56  79
ATOM     79  C   UNL A   1      39.906  34.438  36.887  1.00  0.00    -0.014 A 
ATOM     80  C   UNL A   1      40.346  35.774  36.880  1.00  0.00     0.010 A 
ATOM     81  C   UNL A   1      39.173  33.967  37.992  1.00  0.00     0.010 A 
ATOM     82  C   UNL A   1      40.077  36.615  37.964  1.00  0.00     0.020 A 
ATOM     83  C   UNL A   1      38.874  34.815  39.064  1.00  0.00     0.020 A 
ATOM     84  C   UNL A   1      39.340  36.130  39.048  1.00  0.00     0.054 A 
BRANCH  84  85
ATOM     85  S   UNL A   1      38.962  37.256  40.421  1.00  0.00     0.124 S 
ATOM     86  O   UNL A   1      40.294  37.618  40.893  1.00  0.00    -0.237 OA
ATOM     87  O   UNL A   1      38.214  38.320  39.757  1.00  0.00    -0.237 OA
ATOM     88  O   UNL A   1      38.177  36.428  41.335  1.00  0.00    -0.744 OA
ENDBRANCH  84  85
ENDBRANCH  56  79
BRANCH  68  89
ATOM     89  C   UNL A   1      45.094  29.990  35.460  1.00  0.00    -0.014 A 
ATOM     90  C   UNL A   1      46.284  30.716  35.279  1.00  0.00     0.010 A 
ATOM     91  C   UNL A   1      45.066  28.939  36.395  1.00  0.00     0.010 A 
ATOM     92  C   UNL A   1      47.434  30.374  35.994  1.00  0.00     0.020 A 
ATOM     93  C   UNL A   1      46.204  28.617  37.137  1.00  0.00     0.020 A 
ATOM     94  C   UNL A   1      47.385  29.327  36.921  1.00  0.00     0.054 A 
BRANCH  94  95
ATOM     95  S   UNL A   1      48.880  28.934  37.869  1.00  0.00     0.124 S 
ATOM     96  O   UNL A   1      48.342  28.145  38.973  1.00  0.00    -0.237 OA
ATOM     97  O   UNL A   1      49.687  28.194  36.901  1.00  0.00    -0.237 OA
ATOM     98  O   UNL A   1      49.411  30.244  38.241  1.00  0.00    -0.744 OA
ENDBRANCH  94  95
ENDBRANCH  68  89
ENDBRANCH  42  43
ENDBRANCH  34  37
ENDBRANCH  32  33
ENDBRANCH   1  32
TORSDOF 19
ENDMDL
