MODEL 1
REMARK VINA RESULT:     -11.0      0.000      0.000
REMARK SMILES CC(C)c1noc(C[N@H+]2CCCC[C@H]2C(=O)NCCCNC(=O)c2ccc(-c3c4nc(c(-c5ccc(S(=O)(=O)[O-])cc5)c5ccc([nH]5)c(-c5ccc(S(=O)(=O)[O-])cc5)c5nc(c(-c6ccc(S(=O)(=O)[O-])cc6)c6ccc3[nH]6)C=C5)C=C4)cc2)n1
REMARK SMILES IDX 19 1 18 2 17 3 15 4 16 5 14 7 9 8 10 9 11 11 13 12 12 13
REMARK SMILES IDX 8 14 7 15 4 16 5 17 84 18 6 19 2 20 1 21 3 22 20 23 21 24
REMARK SMILES IDX 22 25 23 27 24 28 25 29 83 30 26 31 82 32 27 33 28 34 29 35
REMARK SMILES IDX 76 36 30 37 81 38 75 39 77 40 31 41 80 42 74 43 73 44 32 46
REMARK SMILES IDX 62 47 43 48 61 49 44 50 47 51 60 52 78 53 45 54 46 55 59 57
REMARK SMILES IDX 79 58 48 59 33 60 34 61 42 62 35 63 41 64 36 65 37 66 38 67
REMARK SMILES IDX 39 68 40 69 63 70 64 71 72 72 65 73 71 74 66 75 67 76 68 77
REMARK SMILES IDX 69 78 70 79 49 80 50 81 58 82 51 83 57 84 52 85 53 86 54 87
REMARK SMILES IDX 55 88 56 89
REMARK H PARENT 17 6 9 10 21 26 77 45 47 56
REMARK Flexibility Score: inf
ROOT
ATOM      1  C   UNL A   1      31.937  27.867  27.454  1.00  0.00     0.042 C 
ENDROOT
BRANCH   1   2
ATOM      2  C   UNL A   1      31.651  26.670  26.547  1.00  0.00     0.118 C 
BRANCH   2   3
ATOM      3  N   UNL A   1      32.841  26.302  25.808  1.00  0.00    -0.351 N 
ATOM      4  C   UNL A   1      32.995  25.310  24.889  1.00  0.00     0.278 C 
ATOM      5  O   UNL A   1      34.107  24.785  24.826  1.00  0.00    -0.268 OA
ATOM      6  H   UNL A   1      33.643  26.841  25.995  1.00  0.00     0.163 HD
BRANCH   4   7
ATOM      7  C   UNL A   1      31.806  24.949  23.961  1.00  0.00     0.274 C 
ATOM      8  N   UNL A   1      32.114  25.077  22.512  1.00  0.00    -0.317 N 
ATOM      9  C   UNL A   1      33.120  24.126  22.032  1.00  0.00     0.263 C 
ATOM     10  H   UNL A   1      31.243  24.798  22.060  1.00  0.00     0.349 HD
ATOM     11  C   UNL A   1      32.721  22.680  22.352  1.00  0.00     0.062 C 
ATOM     12  C   UNL A   1      31.312  23.529  24.255  1.00  0.00     0.076 C 
ATOM     13  C   UNL A   1      32.319  22.474  23.809  1.00  0.00     0.012 C 
BRANCH   8  14
ATOM     14  C   UNL A   1      32.332  26.458  22.037  1.00  0.00     0.364 C 
BRANCH  14  15
ATOM     15  C   UNL A   1      31.412  27.523  22.530  1.00  0.00     0.281 A 
ATOM     16  C   UNL A   1      29.936  28.946  22.939  1.00  0.00     0.174 A 
ATOM     17  N   UNL A   1      30.905  29.254  23.813  1.00  0.00    -0.062 NA
ATOM     18  N   UNL A   1      30.190  27.840  22.162  1.00  0.00    -0.191 NA
ATOM     19  O   UNL A   1      31.893  28.309  23.540  1.00  0.00    -0.333 OA
BRANCH  16  20
ATOM     20  C   UNL A   1      28.633  29.672  22.871  1.00  0.00     0.055 C 
ATOM     21  C   UNL A   1      28.540  30.471  21.571  1.00  0.00     0.016 C 
ATOM     22  C   UNL A   1      27.417  28.752  23.019  1.00  0.00     0.016 C 
ENDBRANCH  16  20
ENDBRANCH  14  15
ENDBRANCH   8  14
ENDBRANCH   4   7
ENDBRANCH   2   3
ENDBRANCH   1   2
BRANCH   1  23
ATOM     23  C   UNL A   1      33.324  28.485  27.272  1.00  0.00     0.118 C 
BRANCH  23  24
ATOM     24  N   UNL A   1      33.331  29.930  27.447  1.00  0.00    -0.352 N 
ATOM     25  C   UNL A   1      34.317  30.748  27.939  1.00  0.00     0.251 C 
ATOM     26  H   UNL A   1      32.506  30.389  27.169  1.00  0.00     0.163 HD
ATOM     27  O   UNL A   1      34.068  31.934  28.152  1.00  0.00    -0.269 OA
BRANCH  25  28
ATOM     28  C   UNL A   1      35.661  30.209  28.244  1.00  0.00     0.039 A 
ATOM     29  C   UNL A   1      36.622  30.194  27.230  1.00  0.00     0.014 A 
ATOM     30  C   UNL A   1      35.977  29.709  29.511  1.00  0.00     0.014 A 
ATOM     31  C   UNL A   1      37.915  29.743  27.504  1.00  0.00     0.010 A 
ATOM     32  C   UNL A   1      37.287  29.324  29.800  1.00  0.00     0.010 A 
ATOM     33  C   UNL A   1      38.271  29.341  28.802  1.00  0.00    -0.014 A 
BRANCH  33  34
ATOM     34  C   UNL A   1      39.674  28.964  29.127  1.00  0.00     0.031 A 
ATOM     35  C   UNL A   1      40.602  29.953  29.784  1.00  0.00     0.074 A 
ATOM     36  C   UNL A   1      40.127  27.739  28.792  1.00  0.00     0.049 A 
ATOM     37  N   UNL A   1      41.862  29.809  30.109  1.00  0.00    -0.248 NA
ATOM     38  C   UNL A   1      40.050  31.281  30.101  1.00  0.00     0.031 C 
ATOM     39  C   UNL A   1      39.341  26.700  28.121  1.00  0.00     0.029 A 
ATOM     40  N   UNL A   1      41.359  27.158  28.966  1.00  0.00    -0.354 N 
ATOM     41  C   UNL A   1      42.254  31.023  30.663  1.00  0.00     0.074 A 
ATOM     42  C   UNL A   1      41.114  31.909  30.583  1.00  0.00     0.031 C 
ATOM     43  C   UNL A   1      40.099  25.602  27.969  1.00  0.00     0.029 A 
ATOM     44  C   UNL A   1      41.437  25.871  28.486  1.00  0.00     0.049 A 
ATOM     45  H   UNL A   1      42.116  27.619  29.395  1.00  0.00     0.167 HD
ATOM     46  C   UNL A   1      43.447  31.362  31.207  1.00  0.00     0.031 A 
ATOM     47  C   UNL A   1      42.470  25.005  28.453  1.00  0.00     0.031 A 
ATOM     48  C   UNL A   1      44.581  30.477  31.289  1.00  0.00     0.049 A 
ATOM     49  C   UNL A   1      43.795  25.422  29.033  1.00  0.00     0.074 A 
ATOM     50  C   UNL A   1      45.819  30.720  31.860  1.00  0.00     0.029 A 
ATOM     51  N   UNL A   1      44.621  29.186  30.785  1.00  0.00    -0.354 N 
ATOM     52  N   UNL A   1      44.123  26.553  29.610  1.00  0.00    -0.248 NA
ATOM     53  C   UNL A   1      44.886  24.439  28.969  1.00  0.00     0.031 C 
ATOM     54  C   UNL A   1      46.626  29.596  31.650  1.00  0.00     0.029 A 
ATOM     55  C   UNL A   1      45.869  28.629  31.010  1.00  0.00     0.049 A 
ATOM     56  H   UNL A   1      43.871  28.732  30.335  1.00  0.00     0.167 HD
ATOM     57  C   UNL A   1      45.449  26.404  30.005  1.00  0.00     0.074 A 
ATOM     58  C   UNL A   1      45.853  25.068  29.622  1.00  0.00     0.031 C 
ATOM     59  C   UNL A   1      46.259  27.295  30.629  1.00  0.00     0.031 A 
BRANCH  46  60
ATOM     60  C   UNL A   1      43.595  32.753  31.769  1.00  0.00    -0.014 A 
ATOM     61  C   UNL A   1      43.305  33.023  33.118  1.00  0.00     0.010 A 
ATOM     62  C   UNL A   1      44.104  33.786  30.959  1.00  0.00     0.010 A 
ATOM     63  C   UNL A   1      43.496  34.305  33.641  1.00  0.00     0.020 A 
ATOM     64  C   UNL A   1      44.324  35.062  31.486  1.00  0.00     0.020 A 
ATOM     65  C   UNL A   1      44.008  35.316  32.822  1.00  0.00     0.054 A 
BRANCH  65  66
ATOM     66  S   UNL A   1      44.293  36.955  33.545  1.00  0.00     0.124 S 
ATOM     67  O   UNL A   1      42.981  37.272  34.102  1.00  0.00    -0.237 OA
ATOM     68  O   UNL A   1      45.345  36.693  34.524  1.00  0.00    -0.237 OA
ATOM     69  O   UNL A   1      44.698  37.772  32.404  1.00  0.00    -0.744 OA
ENDBRANCH  65  66
ENDBRANCH  46  60
BRANCH  47  70
ATOM     70  C   UNL A   1      42.302  23.655  27.844  1.00  0.00    -0.014 A 
ATOM     71  C   UNL A   1      41.720  22.604  28.577  1.00  0.00     0.010 A 
ATOM     72  C   UNL A   1      42.749  23.405  26.534  1.00  0.00     0.010 A 
ATOM     73  C   UNL A   1      41.626  21.323  28.025  1.00  0.00     0.020 A 
ATOM     74  C   UNL A   1      42.626  22.134  25.967  1.00  0.00     0.020 A 
ATOM     75  C   UNL A   1      42.083  21.095  26.724  1.00  0.00     0.054 A 
BRANCH  75  76
ATOM     76  S   UNL A   1      41.938  19.428  26.023  1.00  0.00     0.124 S 
ATOM     77  O   UNL A   1      42.753  19.536  24.817  1.00  0.00    -0.237 OA
ATOM     78  O   UNL A   1      42.486  18.590  27.087  1.00  0.00    -0.237 OA
ATOM     79  O   UNL A   1      40.502  19.276  25.798  1.00  0.00    -0.744 OA
ENDBRANCH  75  76
ENDBRANCH  47  70
BRANCH  59  80
ATOM     80  C   UNL A   1      47.653  26.841  30.978  1.00  0.00    -0.014 A 
ATOM     81  C   UNL A   1      48.736  27.066  30.110  1.00  0.00     0.010 A 
ATOM     82  C   UNL A   1      47.888  26.215  32.217  1.00  0.00     0.010 A 
ATOM     83  C   UNL A   1      50.022  26.638  30.457  1.00  0.00     0.020 A 
ATOM     84  C   UNL A   1      49.176  25.816  32.582  1.00  0.00     0.020 A 
ATOM     85  C   UNL A   1      50.232  26.015  31.692  1.00  0.00     0.054 A 
BRANCH  85  86
ATOM     86  S   UNL A   1      51.915  25.502  32.133  1.00  0.00     0.124 S 
ATOM     87  O   UNL A   1      51.760  24.060  32.296  1.00  0.00    -0.237 OA
ATOM     88  O   UNL A   1      52.693  25.924  30.971  1.00  0.00    -0.237 OA
ATOM     89  O   UNL A   1      52.192  26.242  33.363  1.00  0.00    -0.744 OA
ENDBRANCH  85  86
ENDBRANCH  59  80
ENDBRANCH  33  34
ENDBRANCH  25  28
ENDBRANCH  23  24
ENDBRANCH   1  23
TORSDOF 16
ENDMDL
MODEL 2
REMARK VINA RESULT:     -10.8      2.890      9.496
REMARK SMILES CC(C)c1noc(C[N@H+]2CCCC[C@H]2C(=O)NCCCNC(=O)c2ccc(-c3c4nc(c(-c5ccc(S(=O)(=O)[O-])cc5)c5ccc([nH]5)c(-c5ccc(S(=O)(=O)[O-])cc5)c5nc(c(-c6ccc(S(=O)(=O)[O-])cc6)c6ccc3[nH]6)C=C5)C=C4)cc2)n1
REMARK SMILES IDX 19 1 18 2 17 3 15 4 16 5 14 7 9 8 10 9 11 11 13 12 12 13
REMARK SMILES IDX 8 14 7 15 4 16 5 17 84 18 6 19 2 20 1 21 3 22 20 23 21 24
REMARK SMILES IDX 22 25 23 27 24 28 25 29 83 30 26 31 82 32 27 33 28 34 29 35
REMARK SMILES IDX 76 36 30 37 81 38 75 39 77 40 31 41 80 42 74 43 73 44 32 46
REMARK SMILES IDX 62 47 43 48 61 49 44 50 47 51 60 52 78 53 45 54 46 55 59 57
REMARK SMILES IDX 79 58 48 59 33 60 34 61 42 62 35 63 41 64 36 65 37 66 38 67
REMARK SMILES IDX 39 68 40 69 63 70 64 71 72 72 65 73 71 74 66 75 67 76 68 77
REMARK SMILES IDX 69 78 70 79 49 80 50 81 58 82 51 83 57 84 52 85 53 86 54 87
REMARK SMILES IDX 55 88 56 89
REMARK H PARENT 17 6 9 10 21 26 77 45 47 56
REMARK Flexibility Score: inf
ROOT
ATOM      1  C   UNL A   1      36.503  23.301  23.674  1.00  0.00     0.042 C 
ENDROOT
BRANCH   1   2
ATOM      2  C   UNL A   1      35.048  23.719  23.459  1.00  0.00     0.118 C 
BRANCH   2   3
ATOM      3  N   UNL A   1      34.587  24.527  24.569  1.00  0.00    -0.351 N 
ATOM      4  C   UNL A   1      33.354  25.069  24.768  1.00  0.00     0.278 C 
ATOM      5  O   UNL A   1      33.314  26.134  25.384  1.00  0.00    -0.268 OA
ATOM      6  H   UNL A   1      35.253  24.706  25.272  1.00  0.00     0.163 HD
BRANCH   4   7
ATOM      7  C   UNL A   1      32.103  24.303  24.269  1.00  0.00     0.274 C 
ATOM      8  N   UNL A   1      31.130  23.973  25.345  1.00  0.00    -0.317 N 
ATOM      9  C   UNL A   1      30.496  25.146  25.951  1.00  0.00     0.263 C 
ATOM     10  H   UNL A   1      30.382  23.489  24.847  1.00  0.00     0.349 HD
ATOM     11  C   UNL A   1      29.820  26.026  24.893  1.00  0.00     0.062 C 
ATOM     12  C   UNL A   1      31.395  25.096  23.166  1.00  0.00     0.076 C 
ATOM     13  C   UNL A   1      30.727  26.355  23.713  1.00  0.00     0.012 C 
BRANCH   8  14
ATOM     14  C   UNL A   1      31.600  22.978  26.330  1.00  0.00     0.364 C 
BRANCH  14  15
ATOM     15  C   UNL A   1      32.353  21.793  25.828  1.00  0.00     0.281 A 
ATOM     16  C   UNL A   1      33.098  19.981  25.100  1.00  0.00     0.174 A 
ATOM     17  N   UNL A   1      34.204  20.625  25.502  1.00  0.00    -0.062 NA
ATOM     18  N   UNL A   1      31.932  20.697  25.234  1.00  0.00    -0.191 NA
ATOM     19  O   UNL A   1      33.709  21.832  25.992  1.00  0.00    -0.333 OA
BRANCH  16  20
ATOM     20  C   UNL A   1      33.122  18.632  24.460  1.00  0.00     0.055 C 
ATOM     21  C   UNL A   1      32.554  17.583  25.416  1.00  0.00     0.016 C 
ATOM     22  C   UNL A   1      32.387  18.584  23.118  1.00  0.00     0.016 C 
ENDBRANCH  16  20
ENDBRANCH  14  15
ENDBRANCH   8  14
ENDBRANCH   4   7
ENDBRANCH   2   3
ENDBRANCH   1   2
BRANCH   1  23
ATOM     23  C   UNL A   1      37.052  23.606  25.069  1.00  0.00     0.118 C 
BRANCH  23  24
ATOM     24  N   UNL A   1      38.059  22.650  25.506  1.00  0.00    -0.352 N 
ATOM     25  C   UNL A   1      39.208  22.856  26.228  1.00  0.00     0.251 C 
ATOM     26  H   UNL A   1      37.891  21.716  25.245  1.00  0.00     0.163 HD
ATOM     27  O   UNL A   1      40.011  21.934  26.362  1.00  0.00    -0.269 OA
BRANCH  25  28
ATOM     28  C   UNL A   1      39.500  24.182  26.817  1.00  0.00     0.039 A 
ATOM     29  C   UNL A   1      39.041  24.457  28.107  1.00  0.00     0.014 A 
ATOM     30  C   UNL A   1      40.207  25.157  26.106  1.00  0.00     0.014 A 
ATOM     31  C   UNL A   1      39.349  25.680  28.709  1.00  0.00     0.010 A 
ATOM     32  C   UNL A   1      40.573  26.348  26.735  1.00  0.00     0.010 A 
ATOM     33  C   UNL A   1      40.152  26.621  28.044  1.00  0.00    -0.014 A 
BRANCH  33  34
ATOM     34  C   UNL A   1      40.577  27.877  28.721  1.00  0.00     0.031 A 
ATOM     35  C   UNL A   1      41.953  27.999  29.320  1.00  0.00     0.074 A 
ATOM     36  C   UNL A   1      39.703  28.899  28.833  1.00  0.00     0.049 A 
ATOM     37  N   UNL A   1      42.480  29.003  29.974  1.00  0.00    -0.248 NA
ATOM     38  C   UNL A   1      42.848  26.838  29.184  1.00  0.00     0.031 C 
ATOM     39  C   UNL A   1      38.327  28.896  28.326  1.00  0.00     0.029 A 
ATOM     40  N   UNL A   1      39.839  30.138  29.409  1.00  0.00    -0.354 N 
ATOM     41  C   UNL A   1      43.762  28.596  30.329  1.00  0.00     0.074 A 
ATOM     42  C   UNL A   1      43.915  27.235  29.865  1.00  0.00     0.031 C 
ATOM     43  C   UNL A   1      37.759  30.085  28.587  1.00  0.00     0.029 A 
ATOM     44  C   UNL A   1      38.708  30.917  29.320  1.00  0.00     0.049 A 
ATOM     45  H   UNL A   1      40.667  30.440  29.846  1.00  0.00     0.167 HD
ATOM     46  C   UNL A   1      44.730  29.298  30.966  1.00  0.00     0.031 A 
ATOM     47  C   UNL A   1      38.455  32.156  29.784  1.00  0.00     0.031 A 
ATOM     48  C   UNL A   1      44.578  30.654  31.426  1.00  0.00     0.049 A 
ATOM     49  C   UNL A   1      39.538  32.899  30.520  1.00  0.00     0.074 A 
ATOM     50  C   UNL A   1      45.517  31.461  32.045  1.00  0.00     0.029 A 
ATOM     51  N   UNL A   1      43.416  31.404  31.322  1.00  0.00    -0.354 N 
ATOM     52  N   UNL A   1      40.764  32.518  30.788  1.00  0.00    -0.248 NA
ATOM     53  C   UNL A   1      39.207  34.247  31.005  1.00  0.00     0.031 C 
ATOM     54  C   UNL A   1      44.906  32.677  32.368  1.00  0.00     0.029 A 
ATOM     55  C   UNL A   1      43.607  32.653  31.888  1.00  0.00     0.049 A 
ATOM     56  H   UNL A   1      42.579  31.093  30.907  1.00  0.00     0.167 HD
ATOM     57  C   UNL A   1      41.358  33.591  31.444  1.00  0.00     0.074 A 
ATOM     58  C   UNL A   1      40.366  34.642  31.512  1.00  0.00     0.031 C 
ATOM     59  C   UNL A   1      42.613  33.695  31.945  1.00  0.00     0.031 A 
BRANCH  46  60
ATOM     60  C   UNL A   1      46.054  28.616  31.203  1.00  0.00    -0.014 A 
ATOM     61  C   UNL A   1      46.279  27.858  32.366  1.00  0.00     0.010 A 
ATOM     62  C   UNL A   1      47.056  28.668  30.216  1.00  0.00     0.010 A 
ATOM     63  C   UNL A   1      47.491  27.186  32.550  1.00  0.00     0.020 A 
ATOM     64  C   UNL A   1      48.258  27.974  30.384  1.00  0.00     0.020 A 
ATOM     65  C   UNL A   1      48.472  27.245  31.556  1.00  0.00     0.054 A 
BRANCH  65  66
ATOM     66  S   UNL A   1      50.012  26.321  31.802  1.00  0.00     0.124 S 
ATOM     67  O   UNL A   1      50.370  26.688  33.170  1.00  0.00    -0.237 OA
ATOM     68  O   UNL A   1      49.586  24.936  31.615  1.00  0.00    -0.237 OA
ATOM     69  O   UNL A   1      50.900  26.841  30.766  1.00  0.00    -0.744 OA
ENDBRANCH  65  66
ENDBRANCH  46  60
BRANCH  47  70
ATOM     70  C   UNL A   1      37.117  32.780  29.576  1.00  0.00    -0.014 A 
ATOM     71  C   UNL A   1      36.833  33.495  28.397  1.00  0.00     0.010 A 
ATOM     72  C   UNL A   1      36.126  32.686  30.570  1.00  0.00     0.010 A 
ATOM     73  C   UNL A   1      35.601  34.135  28.236  1.00  0.00     0.020 A 
ATOM     74  C   UNL A   1      34.881  33.295  30.398  1.00  0.00     0.020 A 
ATOM     75  C   UNL A   1      34.633  34.034  29.240  1.00  0.00     0.054 A 
BRANCH  75  76
ATOM     76  S   UNL A   1      33.035  34.860  29.003  1.00  0.00     0.124 S 
ATOM     77  O   UNL A   1      32.484  34.845  30.354  1.00  0.00    -0.237 OA
ATOM     78  O   UNL A   1      33.431  36.170  28.493  1.00  0.00    -0.237 OA
ATOM     79  O   UNL A   1      32.349  34.005  28.037  1.00  0.00    -0.744 OA
ENDBRANCH  75  76
ENDBRANCH  47  70
BRANCH  59  80
ATOM     80  C   UNL A   1      43.003  35.008  32.575  1.00  0.00    -0.014 A 
ATOM     81  C   UNL A   1      42.750  35.275  33.932  1.00  0.00     0.010 A 
ATOM     82  C   UNL A   1      43.674  35.975  31.802  1.00  0.00     0.010 A 
ATOM     83  C   UNL A   1      43.124  36.499  34.495  1.00  0.00     0.020 A 
ATOM     84  C   UNL A   1      44.078  37.186  32.368  1.00  0.00     0.020 A 
ATOM     85  C   UNL A   1      43.786  37.447  33.708  1.00  0.00     0.054 A 
BRANCH  85  86
ATOM     86  S   UNL A   1      44.292  39.013  34.471  1.00  0.00     0.124 S 
ATOM     87  O   UNL A   1      44.188  38.705  35.894  1.00  0.00    -0.237 OA
ATOM     88  O   UNL A   1      45.650  39.192  33.963  1.00  0.00    -0.237 OA
ATOM     89  O   UNL A   1      43.313  39.975  33.969  1.00  0.00    -0.744 OA
ENDBRANCH  85  86
ENDBRANCH  59  80
ENDBRANCH  33  34
ENDBRANCH  25  28
ENDBRANCH  23  24
ENDBRANCH   1  23
TORSDOF 16
ENDMDL
MODEL 3
REMARK VINA RESULT:     -10.7      1.882      3.897
REMARK SMILES CC(C)c1noc(C[N@H+]2CCCC[C@H]2C(=O)NCCCNC(=O)c2ccc(-c3c4nc(c(-c5ccc(S(=O)(=O)[O-])cc5)c5ccc([nH]5)c(-c5ccc(S(=O)(=O)[O-])cc5)c5nc(c(-c6ccc(S(=O)(=O)[O-])cc6)c6ccc3[nH]6)C=C5)C=C4)cc2)n1
REMARK SMILES IDX 19 1 18 2 17 3 15 4 16 5 14 7 9 8 10 9 11 11 13 12 12 13
REMARK SMILES IDX 8 14 7 15 4 16 5 17 84 18 6 19 2 20 1 21 3 22 20 23 21 24
REMARK SMILES IDX 22 25 23 27 24 28 25 29 83 30 26 31 82 32 27 33 28 34 29 35
REMARK SMILES IDX 76 36 30 37 81 38 75 39 77 40 31 41 80 42 74 43 73 44 32 46
REMARK SMILES IDX 62 47 43 48 61 49 44 50 47 51 60 52 78 53 45 54 46 55 59 57
REMARK SMILES IDX 79 58 48 59 33 60 34 61 42 62 35 63 41 64 36 65 37 66 38 67
REMARK SMILES IDX 39 68 40 69 63 70 64 71 72 72 65 73 71 74 66 75 67 76 68 77
REMARK SMILES IDX 69 78 70 79 49 80 50 81 58 82 51 83 57 84 52 85 53 86 54 87
REMARK SMILES IDX 55 88 56 89
REMARK H PARENT 17 6 9 10 21 26 77 45 47 56
REMARK Flexibility Score: inf
ROOT
ATOM      1  C   UNL A   1      33.984  27.959  25.925  1.00  0.00     0.042 C 
ENDROOT
BRANCH   1   2
ATOM      2  C   UNL A   1      33.045  27.317  24.904  1.00  0.00     0.118 C 
BRANCH   2   3
ATOM      3  N   UNL A   1      32.325  26.214  25.506  1.00  0.00    -0.351 N 
ATOM      4  C   UNL A   1      32.332  24.900  25.147  1.00  0.00     0.278 C 
ATOM      5  O   UNL A   1      31.293  24.270  25.346  1.00  0.00    -0.268 OA
ATOM      6  H   UNL A   1      31.756  26.445  26.276  1.00  0.00     0.163 HD
BRANCH   4   7
ATOM      7  C   UNL A   1      33.634  24.280  24.578  1.00  0.00     0.274 C 
ATOM      8  N   UNL A   1      33.519  22.833  24.254  1.00  0.00    -0.317 N 
ATOM      9  C   UNL A   1      32.589  22.541  23.161  1.00  0.00     0.263 C 
ATOM     10  H   UNL A   1      34.444  22.599  23.891  1.00  0.00     0.349 HD
ATOM     11  C   UNL A   1      32.948  23.329  21.896  1.00  0.00     0.062 C 
ATOM     12  C   UNL A   1      34.090  25.048  23.333  1.00  0.00     0.076 C 
ATOM     13  C   UNL A   1      33.155  24.818  22.150  1.00  0.00     0.012 C 
BRANCH   8  14
ATOM     14  C   UNL A   1      33.362  21.941  25.421  1.00  0.00     0.364 C 
BRANCH  14  15
ATOM     15  C   UNL A   1      33.338  20.470  25.181  1.00  0.00     0.281 A 
ATOM     16  C   UNL A   1      33.623  18.452  24.718  1.00  0.00     0.174 A 
ATOM     17  N   UNL A   1      32.312  18.518  24.991  1.00  0.00    -0.062 NA
ATOM     18  N   UNL A   1      34.307  19.633  24.880  1.00  0.00    -0.191 NA
ATOM     19  O   UNL A   1      32.118  19.864  25.296  1.00  0.00    -0.333 OA
BRANCH  16  20
ATOM     20  C   UNL A   1      34.323  17.181  24.365  1.00  0.00     0.055 C 
ATOM     21  C   UNL A   1      33.906  16.064  25.323  1.00  0.00     0.016 C 
ATOM     22  C   UNL A   1      34.099  16.748  22.913  1.00  0.00     0.016 C 
ENDBRANCH  16  20
ENDBRANCH  14  15
ENDBRANCH   8  14
ENDBRANCH   4   7
ENDBRANCH   2   3
ENDBRANCH   1   2
BRANCH   1  23
ATOM     23  C   UNL A   1      33.316  28.350  27.245  1.00  0.00     0.118 C 
BRANCH  23  24
ATOM     24  N   UNL A   1      33.284  29.789  27.462  1.00  0.00    -0.352 N 
ATOM     25  C   UNL A   1      34.247  30.620  27.977  1.00  0.00     0.251 C 
ATOM     26  H   UNL A   1      32.445  30.233  27.198  1.00  0.00     0.163 HD
ATOM     27  O   UNL A   1      33.965  31.791  28.225  1.00  0.00    -0.269 OA
BRANCH  25  28
ATOM     28  C   UNL A   1      35.606  30.109  28.264  1.00  0.00     0.039 A 
ATOM     29  C   UNL A   1      36.563  30.144  27.247  1.00  0.00     0.014 A 
ATOM     30  C   UNL A   1      35.940  29.588  29.518  1.00  0.00     0.014 A 
ATOM     31  C   UNL A   1      37.869  29.720  27.505  1.00  0.00     0.010 A 
ATOM     32  C   UNL A   1      37.261  29.231  29.793  1.00  0.00     0.010 A 
ATOM     33  C   UNL A   1      38.240  29.297  28.792  1.00  0.00    -0.014 A 
BRANCH  33  34
ATOM     34  C   UNL A   1      39.654  28.951  29.104  1.00  0.00     0.031 A 
ATOM     35  C   UNL A   1      40.570  29.961  29.743  1.00  0.00     0.074 A 
ATOM     36  C   UNL A   1      40.128  27.732  28.770  1.00  0.00     0.049 A 
ATOM     37  N   UNL A   1      41.836  29.844  30.055  1.00  0.00    -0.248 NA
ATOM     38  C   UNL A   1      39.996  31.280  30.059  1.00  0.00     0.031 C 
ATOM     39  C   UNL A   1      39.355  26.673  28.115  1.00  0.00     0.029 A 
ATOM     40  N   UNL A   1      41.373  27.177  28.934  1.00  0.00    -0.354 N 
ATOM     41  C   UNL A   1      42.210  31.069  30.597  1.00  0.00     0.074 A 
ATOM     42  C   UNL A   1      41.053  31.933  30.524  1.00  0.00     0.031 C 
ATOM     43  C   UNL A   1      40.133  25.590  27.961  1.00  0.00     0.029 A 
ATOM     44  C   UNL A   1      41.471  25.888  28.461  1.00  0.00     0.049 A 
ATOM     45  H   UNL A   1      42.125  27.656  29.351  1.00  0.00     0.167 HD
ATOM     46  C   UNL A   1      43.403  31.435  31.125  1.00  0.00     0.031 A 
ATOM     47  C   UNL A   1      42.519  25.043  28.421  1.00  0.00     0.031 A 
ATOM     48  C   UNL A   1      44.555  30.573  31.199  1.00  0.00     0.049 A 
ATOM     49  C   UNL A   1      43.843  25.489  28.983  1.00  0.00     0.074 A 
ATOM     50  C   UNL A   1      45.794  30.844  31.754  1.00  0.00     0.029 A 
ATOM     51  N   UNL A   1      44.614  29.280  30.703  1.00  0.00    -0.354 N 
ATOM     52  N   UNL A   1      44.155  26.631  29.549  1.00  0.00    -0.248 NA
ATOM     53  C   UNL A   1      44.952  24.528  28.913  1.00  0.00     0.031 C 
ATOM     54  C   UNL A   1      46.621  29.735  31.542  1.00  0.00     0.029 A 
ATOM     55  C   UNL A   1      45.875  28.749  30.917  1.00  0.00     0.049 A 
ATOM     56  H   UNL A   1      43.869  28.809  30.264  1.00  0.00     0.167 HD
ATOM     57  C   UNL A   1      45.488  26.511  29.930  1.00  0.00     0.074 A 
ATOM     58  C   UNL A   1      45.914  25.180  29.551  1.00  0.00     0.031 C 
ATOM     59  C   UNL A   1      46.287  27.421  30.539  1.00  0.00     0.031 A 
BRANCH  46  60
ATOM     60  C   UNL A   1      43.529  32.833  31.676  1.00  0.00    -0.014 A 
ATOM     61  C   UNL A   1      43.238  33.108  33.025  1.00  0.00     0.010 A 
ATOM     62  C   UNL A   1      44.020  33.867  30.858  1.00  0.00     0.010 A 
ATOM     63  C   UNL A   1      43.409  34.396  33.538  1.00  0.00     0.020 A 
ATOM     64  C   UNL A   1      44.221  35.151  31.376  1.00  0.00     0.020 A 
ATOM     65  C   UNL A   1      43.904  35.409  32.711  1.00  0.00     0.054 A 
BRANCH  65  66
ATOM     66  S   UNL A   1      44.164  37.057  33.421  1.00  0.00     0.124 S 
ATOM     67  O   UNL A   1      45.404  36.872  34.170  1.00  0.00    -0.237 OA
ATOM     68  O   UNL A   1      44.268  37.903  32.234  1.00  0.00    -0.237 OA
ATOM     69  O   UNL A   1      42.972  37.277  34.236  1.00  0.00    -0.744 OA
ENDBRANCH  65  66
ENDBRANCH  46  60
BRANCH  47  70
ATOM     70  C   UNL A   1      42.371  23.686  27.823  1.00  0.00    -0.014 A 
ATOM     71  C   UNL A   1      41.954  22.596  28.609  1.00  0.00     0.010 A 
ATOM     72  C   UNL A   1      42.674  23.471  26.466  1.00  0.00     0.010 A 
ATOM     73  C   UNL A   1      41.882  21.312  28.059  1.00  0.00     0.020 A 
ATOM     74  C   UNL A   1      42.569  22.195  25.904  1.00  0.00     0.020 A 
ATOM     75  C   UNL A   1      42.193  21.120  26.710  1.00  0.00     0.054 A 
BRANCH  75  76
ATOM     76  S   UNL A   1      42.078  19.448  26.013  1.00  0.00     0.124 S 
ATOM     77  O   UNL A   1      40.642  19.312  25.793  1.00  0.00    -0.237 OA
ATOM     78  O   UNL A   1      42.898  19.552  24.809  1.00  0.00    -0.237 OA
ATOM     79  O   UNL A   1      42.634  18.601  27.065  1.00  0.00    -0.744 OA
ENDBRANCH  75  76
ENDBRANCH  47  70
BRANCH  59  80
ATOM     80  C   UNL A   1      47.694  26.997  30.875  1.00  0.00    -0.014 A 
ATOM     81  C   UNL A   1      47.996  26.346  32.084  1.00  0.00     0.010 A 
ATOM     82  C   UNL A   1      48.725  27.218  29.942  1.00  0.00     0.010 A 
ATOM     83  C   UNL A   1      49.309  25.959  32.371  1.00  0.00     0.020 A 
ATOM     84  C   UNL A   1      50.032  26.804  30.211  1.00  0.00     0.020 A 
ATOM     85  C   UNL A   1      50.318  26.191  31.432  1.00  0.00     0.054 A 
BRANCH  85  86
ATOM     86  S   UNL A   1      52.006  25.648  31.814  1.00  0.00     0.124 S 
ATOM     87  O   UNL A   1      52.707  25.932  30.566  1.00  0.00    -0.237 OA
ATOM     88  O   UNL A   1      52.367  26.498  32.946  1.00  0.00    -0.237 OA
ATOM     89  O   UNL A   1      51.850  24.230  32.132  1.00  0.00    -0.744 OA
ENDBRANCH  85  86
ENDBRANCH  59  80
ENDBRANCH  33  34
ENDBRANCH  25  28
ENDBRANCH  23  24
ENDBRANCH   1  23
TORSDOF 16
ENDMDL
