MODEL 1
REMARK VINA RESULT:     -11.3      0.000      0.000
REMARK SMILES C[C@@H]1[C@H](C)CCC[C@H]1NC(=O)C[N@H+]1CCC[C@@H]1C(=O)NCCCNC(=O)c1ccc(-c2c3nc(c(-c4ccc(S(=O)(=O)[O-])cc4)c4ccc([nH]4)c(-c4ccc(S(=O)(=O)[O-])cc4)c4nc(c(-c5ccc(S(=O)(=O)[O-])cc5)c5ccc2[nH]5)C=C4)C=C3)cc1
REMARK SMILES IDX 22 1 21 2 20 3 18 4 19 5 17 7 13 8 14 9 15 11 16 12 12 13
REMARK SMILES IDX 10 14 9 15 11 17 8 18 1 19 2 20 3 21 4 22 5 23 7 24 6 25
REMARK SMILES IDX 23 26 24 27 25 28 26 30 27 31 28 32 86 33 29 34 85 35 30 36
REMARK SMILES IDX 31 37 32 38 79 39 33 40 84 41 78 42 80 43 34 44 83 45 77 46
REMARK SMILES IDX 76 47 35 49 65 50 46 51 64 52 47 53 50 54 63 55 81 56 48 57
REMARK SMILES IDX 49 58 62 60 82 61 51 62 36 63 37 64 45 65 38 66 44 67 39 68
REMARK SMILES IDX 40 69 41 70 42 71 43 72 66 73 67 74 75 75 68 76 74 77 69 78
REMARK SMILES IDX 70 79 71 80 72 81 73 82 52 83 53 84 61 85 54 86 60 87 55 88
REMARK SMILES IDX 56 89 57 90 58 91 59 92
REMARK H PARENT 20 6 13 10 9 16 24 29 80 48 50 59
REMARK Flexibility Score: inf
ROOT
ATOM      1  C   UNL A   1      38.182  20.568  25.144  1.00  0.00     0.042 C 
ENDROOT
BRANCH   1   2
ATOM      2  C   UNL A   1      37.289  21.784  25.061  1.00  0.00     0.118 C 
BRANCH   2   3
ATOM      3  N   UNL A   1      36.287  21.823  26.111  1.00  0.00    -0.351 N 
ATOM      4  C   UNL A   1      34.982  21.430  26.065  1.00  0.00     0.278 C 
ATOM      5  O   UNL A   1      34.320  21.475  27.107  1.00  0.00    -0.268 OA
ATOM      6  H   UNL A   1      36.592  22.182  26.975  1.00  0.00     0.163 HD
BRANCH   4   7
ATOM      7  C   UNL A   1      34.327  20.986  24.751  1.00  0.00     0.274 C 
ATOM      8  N   UNL A   1      33.050  21.663  24.498  1.00  0.00    -0.317 N 
ATOM      9  C   UNL A   1      32.287  20.814  23.610  1.00  0.00     0.263 C 
ATOM     10  H   UNL A   1      32.534  21.756  25.373  1.00  0.00     0.349 HD
ATOM     11  C   UNL A   1      32.521  19.444  24.229  1.00  0.00     0.068 C 
ATOM     12  C   UNL A   1      33.952  19.499  24.757  1.00  0.00     0.081 C 
BRANCH   8  13
ATOM     13  C   UNL A   1      33.090  23.096  24.229  1.00  0.00     0.364 C 
BRANCH  13  14
ATOM     14  C   UNL A   1      32.113  23.785  25.202  1.00  0.00     0.275 C 
ATOM     15  N   UNL A   1      31.782  25.103  25.021  1.00  0.00    -0.348 N 
ATOM     16  H   UNL A   1      30.843  25.354  25.180  1.00  0.00     0.163 HD
ATOM     17  O   UNL A   1      31.545  23.163  26.103  1.00  0.00    -0.268 OA
BRANCH  15  18
ATOM     18  C   UNL A   1      32.692  26.164  24.615  1.00  0.00     0.085 C 
ATOM     19  C   UNL A   1      33.059  28.001  22.945  1.00  0.00     0.010 C 
ATOM     20  C   UNL A   1      31.997  27.272  23.786  1.00  0.00     0.011 C 
ATOM     21  C   UNL A   1      31.135  28.220  24.655  1.00  0.00    -0.009 C 
ATOM     22  C   UNL A   1      30.544  29.382  23.851  1.00  0.00     0.008 C 
ATOM     23  C   UNL A   1      31.899  28.748  25.873  1.00  0.00     0.004 C 
ATOM     24  C   UNL A   1      33.388  26.713  25.871  1.00  0.00     0.025 C 
ATOM     25  C   UNL A   1      32.475  27.607  26.705  1.00  0.00     0.002 C 
ENDBRANCH  15  18
ENDBRANCH  13  14
ENDBRANCH   8  13
ENDBRANCH   4   7
ENDBRANCH   2   3
ENDBRANCH   1   2
BRANCH   1  26
ATOM     26  C   UNL A   1      39.299  20.736  26.152  1.00  0.00     0.118 C 
BRANCH  26  27
ATOM     27  N   UNL A   1      40.286  19.662  26.099  1.00  0.00    -0.352 N 
ATOM     28  C   UNL A   1      41.659  19.736  26.114  1.00  0.00     0.251 C 
ATOM     29  H   UNL A   1      39.914  18.751  26.045  1.00  0.00     0.163 HD
ATOM     30  O   UNL A   1      42.338  18.745  25.887  1.00  0.00    -0.269 OA
BRANCH  28  31
ATOM     31  C   UNL A   1      42.302  21.041  26.377  1.00  0.00     0.039 A 
ATOM     32  C   UNL A   1      42.549  21.907  25.312  1.00  0.00     0.014 A 
ATOM     33  C   UNL A   1      42.618  21.420  27.683  1.00  0.00     0.014 A 
ATOM     34  C   UNL A   1      43.053  23.182  25.571  1.00  0.00     0.010 A 
ATOM     35  C   UNL A   1      42.990  22.727  27.949  1.00  0.00     0.010 A 
ATOM     36  C   UNL A   1      43.241  23.614  26.894  1.00  0.00    -0.014 A 
BRANCH  36  37
ATOM     37  C   UNL A   1      43.739  24.976  27.199  1.00  0.00     0.031 A 
ATOM     38  C   UNL A   1      45.187  25.313  26.960  1.00  0.00     0.074 A 
ATOM     39  C   UNL A   1      42.909  25.882  27.749  1.00  0.00     0.049 A 
ATOM     40  N   UNL A   1      45.821  26.434  27.189  1.00  0.00    -0.248 NA
ATOM     41  C   UNL A   1      46.046  24.237  26.434  1.00  0.00     0.031 C 
ATOM     42  C   UNL A   1      41.506  25.644  28.106  1.00  0.00     0.029 A 
ATOM     43  N   UNL A   1      43.125  27.187  28.108  1.00  0.00    -0.354 N 
ATOM     44  C   UNL A   1      47.149  26.187  26.858  1.00  0.00     0.074 A 
ATOM     45  C   UNL A   1      47.245  24.795  26.488  1.00  0.00     0.031 C 
ATOM     46  C   UNL A   1      40.981  26.777  28.599  1.00  0.00     0.029 A 
ATOM     47  C   UNL A   1      42.011  27.809  28.620  1.00  0.00     0.049 A 
ATOM     48  H   UNL A   1      43.995  27.636  28.008  1.00  0.00     0.167 HD
ATOM     49  C   UNL A   1      48.192  27.051  26.830  1.00  0.00     0.031 A 
ATOM     50  C   UNL A   1      41.840  29.072  29.053  1.00  0.00     0.031 A 
ATOM     51  C   UNL A   1      48.085  28.441  27.181  1.00  0.00     0.049 A 
ATOM     52  C   UNL A   1      42.992  30.031  28.962  1.00  0.00     0.074 A 
ATOM     53  C   UNL A   1      49.058  29.421  27.133  1.00  0.00     0.029 A 
ATOM     54  N   UNL A   1      46.925  29.046  27.643  1.00  0.00    -0.354 N 
ATOM     55  N   UNL A   1      44.225  29.803  28.571  1.00  0.00    -0.248 NA
ATOM     56  C   UNL A   1      42.726  31.424  29.344  1.00  0.00     0.031 C 
ATOM     57  C   UNL A   1      48.496  30.614  27.604  1.00  0.00     0.029 A 
ATOM     58  C   UNL A   1      47.160  30.388  27.894  1.00  0.00     0.049 A 
ATOM     59  H   UNL A   1      46.062  28.590  27.773  1.00  0.00     0.167 HD
ATOM     60  C   UNL A   1      44.877  31.029  28.640  1.00  0.00     0.074 A 
ATOM     61  C   UNL A   1      43.895  31.996  29.090  1.00  0.00     0.031 C 
ATOM     62  C   UNL A   1      46.170  31.329  28.355  1.00  0.00     0.031 A 
BRANCH  49  63
ATOM     63  C   UNL A   1      49.527  26.498  26.402  1.00  0.00    -0.014 A 
ATOM     64  C   UNL A   1      50.327  25.758  27.294  1.00  0.00     0.010 A 
ATOM     65  C   UNL A   1      50.002  26.738  25.101  1.00  0.00     0.010 A 
ATOM     66  C   UNL A   1      51.602  25.329  26.917  1.00  0.00     0.020 A 
ATOM     67  C   UNL A   1      51.264  26.281  24.708  1.00  0.00     0.020 A 
ATOM     68  C   UNL A   1      52.067  25.602  25.628  1.00  0.00     0.054 A 
BRANCH  68  69
ATOM     69  S   UNL A   1      53.730  25.046  25.166  1.00  0.00     0.124 S 
ATOM     70  O   UNL A   1      53.611  23.597  25.305  1.00  0.00    -0.237 OA
ATOM     71  O   UNL A   1      53.864  25.535  23.796  1.00  0.00    -0.237 OA
ATOM     72  O   UNL A   1      54.597  25.698  26.144  1.00  0.00    -0.744 OA
ENDBRANCH  68  69
ENDBRANCH  49  63
BRANCH  50  73
ATOM     73  C   UNL A   1      40.509  29.497  29.566  1.00  0.00    -0.014 A 
ATOM     74  C   UNL A   1      40.274  29.603  30.948  1.00  0.00     0.010 A 
ATOM     75  C   UNL A   1      39.487  29.856  28.669  1.00  0.00     0.010 A 
ATOM     76  C   UNL A   1      39.038  30.053  31.424  1.00  0.00     0.020 A 
ATOM     77  C   UNL A   1      38.259  30.330  29.140  1.00  0.00     0.020 A 
ATOM     78  C   UNL A   1      38.040  30.419  30.517  1.00  0.00     0.054 A 
BRANCH  78  79
ATOM     79  S   UNL A   1      36.474  31.079  31.155  1.00  0.00     0.124 S 
ATOM     80  O   UNL A   1      35.681  31.210  29.938  1.00  0.00    -0.237 OA
ATOM     81  O   UNL A   1      36.046  30.034  32.082  1.00  0.00    -0.237 OA
ATOM     82  O   UNL A   1      36.867  32.337  31.789  1.00  0.00    -0.744 OA
ENDBRANCH  78  79
ENDBRANCH  50  73
BRANCH  62  83
ATOM     83  C   UNL A   1      46.585  32.767  28.500  1.00  0.00    -0.014 A 
ATOM     84  C   UNL A   1      47.121  33.253  29.706  1.00  0.00     0.010 A 
ATOM     85  C   UNL A   1      46.465  33.636  27.402  1.00  0.00     0.010 A 
ATOM     86  C   UNL A   1      47.482  34.597  29.825  1.00  0.00     0.020 A 
ATOM     87  C   UNL A   1      46.852  34.973  27.507  1.00  0.00     0.020 A 
ATOM     88  C   UNL A   1      47.339  35.450  28.725  1.00  0.00     0.054 A 
BRANCH  88  89
ATOM     89  S   UNL A   1      47.827  37.188  28.898  1.00  0.00     0.124 S 
ATOM     90  O   UNL A   1      46.955  37.844  27.927  1.00  0.00    -0.237 OA
ATOM     91  O   UNL A   1      47.528  37.469  30.300  1.00  0.00    -0.237 OA
ATOM     92  O   UNL A   1      49.247  37.184  28.559  1.00  0.00    -0.744 OA
ENDBRANCH  88  89
ENDBRANCH  62  83
ENDBRANCH  36  37
ENDBRANCH  28  31
ENDBRANCH  26  27
ENDBRANCH   1  26
TORSDOF 16
ENDMDL
MODEL 2
REMARK VINA RESULT:     -11.1      4.101      5.397
REMARK SMILES C[C@@H]1[C@H](C)CCC[C@H]1NC(=O)C[N@H+]1CCC[C@@H]1C(=O)NCCCNC(=O)c1ccc(-c2c3nc(c(-c4ccc(S(=O)(=O)[O-])cc4)c4ccc([nH]4)c(-c4ccc(S(=O)(=O)[O-])cc4)c4nc(c(-c5ccc(S(=O)(=O)[O-])cc5)c5ccc2[nH]5)C=C4)C=C3)cc1
REMARK SMILES IDX 22 1 21 2 20 3 18 4 19 5 17 7 13 8 14 9 15 11 16 12 12 13
REMARK SMILES IDX 10 14 9 15 11 17 8 18 1 19 2 20 3 21 4 22 5 23 7 24 6 25
REMARK SMILES IDX 23 26 24 27 25 28 26 30 27 31 28 32 86 33 29 34 85 35 30 36
REMARK SMILES IDX 31 37 32 38 79 39 33 40 84 41 78 42 80 43 34 44 83 45 77 46
REMARK SMILES IDX 76 47 35 49 65 50 46 51 64 52 47 53 50 54 63 55 81 56 48 57
REMARK SMILES IDX 49 58 62 60 82 61 51 62 36 63 37 64 45 65 38 66 44 67 39 68
REMARK SMILES IDX 40 69 41 70 42 71 43 72 66 73 67 74 75 75 68 76 74 77 69 78
REMARK SMILES IDX 70 79 71 80 72 81 73 82 52 83 53 84 61 85 54 86 60 87 55 88
REMARK SMILES IDX 56 89 57 90 58 91 59 92
REMARK H PARENT 20 6 13 10 9 16 24 29 80 48 50 59
REMARK Flexibility Score: inf
ROOT
ATOM      1  C   UNL A   1      36.028  23.420  24.083  1.00  0.00     0.042 C 
ENDROOT
BRANCH   1   2
ATOM      2  C   UNL A   1      34.544  23.361  24.355  1.00  0.00     0.118 C 
BRANCH   2   3
ATOM      3  N   UNL A   1      33.851  22.408  23.506  1.00  0.00    -0.351 N 
ATOM      4  C   UNL A   1      32.622  21.843  23.678  1.00  0.00     0.278 C 
ATOM      5  O   UNL A   1      32.185  21.111  22.784  1.00  0.00    -0.268 OA
ATOM      6  H   UNL A   1      34.335  22.134  22.694  1.00  0.00     0.163 HD
BRANCH   4   7
ATOM      7  C   UNL A   1      31.814  22.064  24.962  1.00  0.00     0.274 C 
ATOM      8  N   UNL A   1      31.607  23.486  25.262  1.00  0.00    -0.317 N 
ATOM      9  C   UNL A   1      31.367  23.589  26.685  1.00  0.00     0.263 C 
ATOM     10  H   UNL A   1      32.455  24.008  25.043  1.00  0.00     0.349 HD
ATOM     11  C   UNL A   1      32.433  22.654  27.238  1.00  0.00     0.068 C 
ATOM     12  C   UNL A   1      32.535  21.534  26.206  1.00  0.00     0.081 C 
BRANCH   8  13
ATOM     13  C   UNL A   1      30.757  24.248  24.356  1.00  0.00     0.364 C 
BRANCH  13  14
ATOM     14  C   UNL A   1      31.659  25.225  23.575  1.00  0.00     0.275 C 
ATOM     15  N   UNL A   1      32.236  26.289  24.221  1.00  0.00    -0.348 N 
ATOM     16  H   UNL A   1      33.163  26.511  23.974  1.00  0.00     0.163 HD
ATOM     17  O   UNL A   1      31.951  25.037  22.392  1.00  0.00    -0.268 OA
BRANCH  15  18
ATOM     18  C   UNL A   1      31.603  27.117  25.236  1.00  0.00     0.085 C 
ATOM     19  C   UNL A   1      31.733  27.855  27.631  1.00  0.00     0.010 C 
ATOM     20  C   UNL A   1      32.565  27.506  26.385  1.00  0.00     0.011 C 
ATOM     21  C   UNL A   1      33.569  28.612  25.979  1.00  0.00    -0.009 C 
ATOM     22  C   UNL A   1      34.441  29.077  27.149  1.00  0.00     0.008 C 
ATOM     23  C   UNL A   1      32.878  29.810  25.320  1.00  0.00     0.004 C 
ATOM     24  C   UNL A   1      30.981  28.341  24.545  1.00  0.00     0.025 C 
ATOM     25  C   UNL A   1      32.025  29.376  24.134  1.00  0.00     0.002 C 
ENDBRANCH  15  18
ENDBRANCH  13  14
ENDBRANCH   8  13
ENDBRANCH   4   7
ENDBRANCH   2   3
ENDBRANCH   1   2
BRANCH   1  26
ATOM     26  C   UNL A   1      36.837  23.701  25.332  1.00  0.00     0.118 C 
BRANCH  26  27
ATOM     27  N   UNL A   1      37.947  22.772  25.518  1.00  0.00    -0.352 N 
ATOM     28  C   UNL A   1      39.178  22.986  26.094  1.00  0.00     0.251 C 
ATOM     29  H   UNL A   1      37.793  21.858  25.182  1.00  0.00     0.163 HD
ATOM     30  O   UNL A   1      40.057  22.141  26.012  1.00  0.00    -0.269 OA
BRANCH  28  31
ATOM     31  C   UNL A   1      39.430  24.267  26.787  1.00  0.00     0.039 A 
ATOM     32  C   UNL A   1      38.977  24.435  28.096  1.00  0.00     0.014 A 
ATOM     33  C   UNL A   1      40.152  25.280  26.154  1.00  0.00     0.014 A 
ATOM     34  C   UNL A   1      39.309  25.599  28.789  1.00  0.00     0.010 A 
ATOM     35  C   UNL A   1      40.593  26.370  26.886  1.00  0.00     0.010 A 
ATOM     36  C   UNL A   1      40.151  26.557  28.202  1.00  0.00    -0.014 A 
BRANCH  36  37
ATOM     37  C   UNL A   1      40.552  27.785  28.930  1.00  0.00     0.031 A 
ATOM     38  C   UNL A   1      41.904  27.854  29.589  1.00  0.00     0.074 A 
ATOM     39  C   UNL A   1      39.680  28.803  29.051  1.00  0.00     0.049 A 
ATOM     40  N   UNL A   1      42.428  28.823  30.295  1.00  0.00    -0.248 NA
ATOM     41  C   UNL A   1      42.764  26.663  29.478  1.00  0.00     0.031 C 
ATOM     42  C   UNL A   1      38.310  28.816  28.528  1.00  0.00     0.029 A 
ATOM     43  N   UNL A   1      39.814  30.024  29.658  1.00  0.00    -0.354 N 
ATOM     44  C   UNL A   1      43.661  28.347  30.726  1.00  0.00     0.074 A 
ATOM     45  C   UNL A   1      43.774  26.981  30.271  1.00  0.00     0.031 C 
ATOM     46  C   UNL A   1      37.745  30.002  28.806  1.00  0.00     0.029 A 
ATOM     47  C   UNL A   1      38.698  30.819  29.550  1.00  0.00     0.049 A 
ATOM     48  H   UNL A   1      40.632  30.306  30.126  1.00  0.00     0.167 HD
ATOM     49  C   UNL A   1      44.631  28.999  31.410  1.00  0.00     0.031 A 
ATOM     50  C   UNL A   1      38.471  32.069  29.995  1.00  0.00     0.031 A 
ATOM     51  C   UNL A   1      44.520  30.365  31.843  1.00  0.00     0.049 A 
ATOM     52  C   UNL A   1      39.578  32.798  30.703  1.00  0.00     0.074 A 
ATOM     53  C   UNL A   1      45.460  31.146  32.489  1.00  0.00     0.029 A 
ATOM     54  N   UNL A   1      43.393  31.155  31.666  1.00  0.00    -0.354 N 
ATOM     55  N   UNL A   1      40.771  32.360  31.034  1.00  0.00    -0.248 NA
ATOM     56  C   UNL A   1      39.320  34.195  31.072  1.00  0.00     0.031 C 
ATOM     57  C   UNL A   1      44.886  32.399  32.738  1.00  0.00     0.029 A 
ATOM     58  C   UNL A   1      43.609  32.414  32.199  1.00  0.00     0.049 A 
ATOM     59  H   UNL A   1      42.562  30.864  31.225  1.00  0.00     0.167 HD
ATOM     60  C   UNL A   1      41.415  33.437  31.635  1.00  0.00     0.074 A 
ATOM     61  C   UNL A   1      40.485  34.548  31.600  1.00  0.00     0.031 C 
ATOM     62  C   UNL A   1      42.662  33.501  32.165  1.00  0.00     0.031 A 
BRANCH  49  63
ATOM     63  C   UNL A   1      45.887  28.226  31.721  1.00  0.00    -0.014 A 
ATOM     64  C   UNL A   1      46.974  28.216  30.825  1.00  0.00     0.010 A 
ATOM     65  C   UNL A   1      45.978  27.481  32.909  1.00  0.00     0.010 A 
ATOM     66  C   UNL A   1      48.097  27.424  31.079  1.00  0.00     0.020 A 
ATOM     67  C   UNL A   1      47.114  26.714  33.184  1.00  0.00     0.020 A 
ATOM     68  C   UNL A   1      48.155  26.670  32.254  1.00  0.00     0.054 A 
BRANCH  68  69
ATOM     69  S   UNL A   1      49.617  25.639  32.555  1.00  0.00     0.124 S 
ATOM     70  O   UNL A   1      50.583  26.623  33.039  1.00  0.00    -0.237 OA
ATOM     71  O   UNL A   1      49.139  24.687  33.555  1.00  0.00    -0.237 OA
ATOM     72  O   UNL A   1      49.913  25.066  31.245  1.00  0.00    -0.744 OA
ENDBRANCH  68  69
ENDBRANCH  49  63
BRANCH  50  73
ATOM     73  C   UNL A   1      37.154  32.712  29.737  1.00  0.00    -0.014 A 
ATOM     74  C   UNL A   1      36.158  32.726  30.729  1.00  0.00     0.010 A 
ATOM     75  C   UNL A   1      36.912  33.365  28.515  1.00  0.00     0.010 A 
ATOM     76  C   UNL A   1      34.940  33.377  30.500  1.00  0.00     0.020 A 
ATOM     77  C   UNL A   1      35.707  34.037  28.292  1.00  0.00     0.020 A 
ATOM     78  C   UNL A   1      34.725  34.033  29.286  1.00  0.00     0.054 A 
BRANCH  78  79
ATOM     79  S   UNL A   1      33.172  34.941  29.042  1.00  0.00     0.124 S 
ATOM     80  O   UNL A   1      33.647  36.237  28.572  1.00  0.00    -0.237 OA
ATOM     81  O   UNL A   1      32.479  34.121  28.051  1.00  0.00    -0.237 OA
ATOM     82  O   UNL A   1      32.564  34.940  30.372  1.00  0.00    -0.744 OA
ENDBRANCH  78  79
ENDBRANCH  50  73
BRANCH  62  83
ATOM     83  C   UNL A   1      43.098  34.827  32.726  1.00  0.00    -0.014 A 
ATOM     84  C   UNL A   1      43.675  35.813  31.906  1.00  0.00     0.010 A 
ATOM     85  C   UNL A   1      42.900  35.098  34.091  1.00  0.00     0.010 A 
ATOM     86  C   UNL A   1      44.090  37.029  32.452  1.00  0.00     0.020 A 
ATOM     87  C   UNL A   1      43.287  36.325  34.636  1.00  0.00     0.020 A 
ATOM     88  C   UNL A   1      43.899  37.274  33.816  1.00  0.00     0.054 A 
BRANCH  88  89
ATOM     89  S   UNL A   1      44.434  38.865  34.502  1.00  0.00     0.124 S 
ATOM     90  O   UNL A   1      45.822  38.936  34.054  1.00  0.00    -0.237 OA
ATOM     91  O   UNL A   1      43.521  39.813  33.867  1.00  0.00    -0.237 OA
ATOM     92  O   UNL A   1      44.250  38.701  35.941  1.00  0.00    -0.744 OA
ENDBRANCH  88  89
ENDBRANCH  62  83
ENDBRANCH  36  37
ENDBRANCH  28  31
ENDBRANCH  26  27
ENDBRANCH   1  26
TORSDOF 16
ENDMDL
MODEL 3
REMARK VINA RESULT:     -11.1      6.083     11.979
REMARK SMILES C[C@@H]1[C@H](C)CCC[C@H]1NC(=O)C[N@H+]1CCC[C@@H]1C(=O)NCCCNC(=O)c1ccc(-c2c3nc(c(-c4ccc(S(=O)(=O)[O-])cc4)c4ccc([nH]4)c(-c4ccc(S(=O)(=O)[O-])cc4)c4nc(c(-c5ccc(S(=O)(=O)[O-])cc5)c5ccc2[nH]5)C=C4)C=C3)cc1
REMARK SMILES IDX 22 1 21 2 20 3 18 4 19 5 17 7 13 8 14 9 15 11 16 12 12 13
REMARK SMILES IDX 10 14 9 15 11 17 8 18 1 19 2 20 3 21 4 22 5 23 7 24 6 25
REMARK SMILES IDX 23 26 24 27 25 28 26 30 27 31 28 32 86 33 29 34 85 35 30 36
REMARK SMILES IDX 31 37 32 38 79 39 33 40 84 41 78 42 80 43 34 44 83 45 77 46
REMARK SMILES IDX 76 47 35 49 65 50 46 51 64 52 47 53 50 54 63 55 81 56 48 57
REMARK SMILES IDX 49 58 62 60 82 61 51 62 36 63 37 64 45 65 38 66 44 67 39 68
REMARK SMILES IDX 40 69 41 70 42 71 43 72 66 73 67 74 75 75 68 76 74 77 69 78
REMARK SMILES IDX 70 79 71 80 72 81 73 82 52 83 53 84 61 85 54 86 60 87 55 88
REMARK SMILES IDX 56 89 57 90 58 91 59 92
REMARK H PARENT 20 6 13 10 9 16 24 29 80 48 50 59
REMARK Flexibility Score: inf
ROOT
ATOM      1  C   UNL A   1      32.267  31.335  27.121  1.00  0.00     0.042 C 
ENDROOT
BRANCH   1   2
ATOM      2  C   UNL A   1      32.665  29.903  26.851  1.00  0.00     0.118 C 
BRANCH   2   3
ATOM      3  N   UNL A   1      33.257  29.719  25.537  1.00  0.00    -0.351 N 
ATOM      4  C   UNL A   1      32.691  29.210  24.406  1.00  0.00     0.278 C 
ATOM      5  O   UNL A   1      33.355  29.217  23.365  1.00  0.00    -0.268 OA
ATOM      6  H   UNL A   1      34.196  30.001  25.452  1.00  0.00     0.163 HD
BRANCH   4   7
ATOM      7  C   UNL A   1      31.284  28.598  24.422  1.00  0.00     0.274 C 
ATOM      8  N   UNL A   1      31.234  27.279  23.782  1.00  0.00    -0.317 N 
ATOM      9  C   UNL A   1      29.869  27.065  23.355  1.00  0.00     0.263 C 
ATOM     10  H   UNL A   1      31.831  27.277  22.955  1.00  0.00     0.349 HD
ATOM     11  C   UNL A   1      29.528  28.419  22.751  1.00  0.00     0.068 C 
ATOM     12  C   UNL A   1      30.276  29.428  23.619  1.00  0.00     0.081 C 
BRANCH   8  13
ATOM     13  C   UNL A   1      31.938  26.184  24.441  1.00  0.00     0.364 C 
BRANCH  13  14
ATOM     14  C   UNL A   1      32.879  25.539  23.405  1.00  0.00     0.275 C 
ATOM     15  N   UNL A   1      33.480  24.337  23.680  1.00  0.00    -0.348 N 
ATOM     16  H   UNL A   1      33.546  23.691  22.940  1.00  0.00     0.163 HD
ATOM     17  O   UNL A   1      33.051  26.030  22.287  1.00  0.00    -0.268 OA
BRANCH  15  18
ATOM     18  C   UNL A   1      34.029  23.932  24.965  1.00  0.00     0.085 C 
ATOM     19  C   UNL A   1      33.706  22.392  26.921  1.00  0.00     0.010 C 
ATOM     20  C   UNL A   1      33.583  22.512  25.392  1.00  0.00     0.011 C 
ATOM     21  C   UNL A   1      34.325  21.393  24.620  1.00  0.00    -0.009 C 
ATOM     22  C   UNL A   1      33.968  19.992  25.125  1.00  0.00     0.008 C 
ATOM     23  C   UNL A   1      35.844  21.592  24.626  1.00  0.00     0.004 C 
ATOM     24  C   UNL A   1      35.558  24.080  24.909  1.00  0.00     0.025 C 
ATOM     25  C   UNL A   1      36.226  22.971  24.102  1.00  0.00     0.002 C 
ENDBRANCH  15  18
ENDBRANCH  13  14
ENDBRANCH   8  13
ENDBRANCH   4   7
ENDBRANCH   2   3
ENDBRANCH   1   2
BRANCH   1  26
ATOM     26  C   UNL A   1      33.455  32.218  27.439  1.00  0.00     0.118 C 
BRANCH  26  27
ATOM     27  N   UNL A   1      33.077  33.581  27.798  1.00  0.00    -0.352 N 
ATOM     28  C   UNL A   1      33.519  34.365  28.839  1.00  0.00     0.251 C 
ATOM     29  H   UNL A   1      32.408  34.001  27.210  1.00  0.00     0.163 HD
ATOM     30  O   UNL A   1      32.968  35.425  29.096  1.00  0.00    -0.269 OA
BRANCH  28  31
ATOM     31  C   UNL A   1      34.652  33.889  29.661  1.00  0.00     0.039 A 
ATOM     32  C   UNL A   1      34.404  33.027  30.729  1.00  0.00     0.014 A 
ATOM     33  C   UNL A   1      35.959  34.264  29.344  1.00  0.00     0.014 A 
ATOM     34  C   UNL A   1      35.480  32.490  31.437  1.00  0.00     0.010 A 
ATOM     35  C   UNL A   1      37.024  33.628  29.959  1.00  0.00     0.010 A 
ATOM     36  C   UNL A   1      36.798  32.757  31.033  1.00  0.00    -0.014 A 
BRANCH  36  37
ATOM     37  C   UNL A   1      37.959  32.170  31.742  1.00  0.00     0.031 A 
ATOM     38  C   UNL A   1      38.378  32.726  33.077  1.00  0.00     0.074 A 
ATOM     39  C   UNL A   1      38.669  31.186  31.159  1.00  0.00     0.049 A 
ATOM     40  N   UNL A   1      39.380  32.372  33.840  1.00  0.00    -0.248 NA
ATOM     41  C   UNL A   1      37.596  33.858  33.604  1.00  0.00     0.031 C 
ATOM     42  C   UNL A   1      38.410  30.623  29.830  1.00  0.00     0.029 A 
ATOM     43  N   UNL A   1      39.758  30.486  31.608  1.00  0.00    -0.354 N 
ATOM     44  C   UNL A   1      39.358  33.250  34.918  1.00  0.00     0.074 A 
ATOM     45  C   UNL A   1      38.297  34.199  34.674  1.00  0.00     0.031 C 
ATOM     46  C   UNL A   1      39.293  29.641  29.589  1.00  0.00     0.029 A 
ATOM     47  C   UNL A   1      40.196  29.525  30.728  1.00  0.00     0.049 A 
ATOM     48  H   UNL A   1      40.187  30.656  32.477  1.00  0.00     0.167 HD
ATOM     49  C   UNL A   1      40.129  33.247  36.031  1.00  0.00     0.031 A 
ATOM     50  C   UNL A   1      41.209  28.644  30.833  1.00  0.00     0.031 A 
ATOM     51  C   UNL A   1      41.170  32.287  36.277  1.00  0.00     0.049 A 
ATOM     52  C   UNL A   1      42.018  28.618  32.099  1.00  0.00     0.074 A 
ATOM     53  C   UNL A   1      41.974  32.151  37.393  1.00  0.00     0.029 A 
ATOM     54  N   UNL A   1      41.547  31.293  35.385  1.00  0.00    -0.354 N 
ATOM     55  N   UNL A   1      41.934  29.405  33.146  1.00  0.00    -0.248 NA
ATOM     56  C   UNL A   1      43.040  27.569  32.209  1.00  0.00     0.031 C 
ATOM     57  C   UNL A   1      42.866  31.096  37.160  1.00  0.00     0.029 A 
ATOM     58  C   UNL A   1      42.580  30.543  35.921  1.00  0.00     0.049 A 
ATOM     59  H   UNL A   1      41.141  31.142  34.501  1.00  0.00     0.167 HD
ATOM     60  C   UNL A   1      42.879  28.934  34.051  1.00  0.00     0.074 A 
ATOM     61  C   UNL A   1      43.506  27.781  33.433  1.00  0.00     0.031 C 
ATOM     62  C   UNL A   1      43.198  29.408  35.281  1.00  0.00     0.031 A 
BRANCH  49  63
ATOM     63  C   UNL A   1      39.858  34.320  37.054  1.00  0.00    -0.014 A 
ATOM     64  C   UNL A   1      40.464  35.588  36.955  1.00  0.00     0.010 A 
ATOM     65  C   UNL A   1      39.008  34.055  38.142  1.00  0.00     0.010 A 
ATOM     66  C   UNL A   1      40.279  36.544  37.957  1.00  0.00     0.020 A 
ATOM     67  C   UNL A   1      38.793  35.021  39.130  1.00  0.00     0.020 A 
ATOM     68  C   UNL A   1      39.452  36.251  39.044  1.00  0.00     0.054 A 
BRANCH  68  69
ATOM     69  S   UNL A   1      39.237  37.503  40.338  1.00  0.00     0.124 S 
ATOM     70  O   UNL A   1      40.555  38.134  40.365  1.00  0.00    -0.237 OA
ATOM     71  O   UNL A   1      38.157  38.332  39.809  1.00  0.00    -0.237 OA
ATOM     72  O   UNL A   1      38.895  36.721  41.523  1.00  0.00    -0.744 OA
ENDBRANCH  68  69
ENDBRANCH  49  63
BRANCH  50  73
ATOM     73  C   UNL A   1      41.473  27.694  29.719  1.00  0.00    -0.014 A 
ATOM     74  C   UNL A   1      40.560  26.667  29.422  1.00  0.00     0.010 A 
ATOM     75  C   UNL A   1      42.614  27.849  28.911  1.00  0.00     0.010 A 
ATOM     76  C   UNL A   1      40.786  25.808  28.341  1.00  0.00     0.020 A 
ATOM     77  C   UNL A   1      42.832  27.009  27.815  1.00  0.00     0.020 A 
ATOM     78  C   UNL A   1      41.918  25.988  27.541  1.00  0.00     0.054 A 
BRANCH  78  79
ATOM     79  S   UNL A   1      42.149  24.916  26.095  1.00  0.00     0.124 S 
ATOM     80  O   UNL A   1      41.323  23.763  26.435  1.00  0.00    -0.237 OA
ATOM     81  O   UNL A   1      41.656  25.749  25.001  1.00  0.00    -0.237 OA
ATOM     82  O   UNL A   1      43.591  24.672  26.078  1.00  0.00    -0.744 OA
ENDBRANCH  78  79
ENDBRANCH  50  73
BRANCH  62  83
ATOM     83  C   UNL A   1      44.257  28.664  36.047  1.00  0.00    -0.014 A 
ATOM     84  C   UNL A   1      43.927  27.583  36.885  1.00  0.00     0.010 A 
ATOM     85  C   UNL A   1      45.605  29.034  35.902  1.00  0.00     0.010 A 
ATOM     86  C   UNL A   1      44.923  26.919  37.602  1.00  0.00     0.020 A 
ATOM     87  C   UNL A   1      46.608  28.352  36.595  1.00  0.00     0.020 A 
ATOM     88  C   UNL A   1      46.258  27.312  37.457  1.00  0.00     0.054 A 
BRANCH  88  89
ATOM     89  S   UNL A   1      47.537  26.427  38.388  1.00  0.00     0.124 S 
ATOM     90  O   UNL A   1      48.151  27.504  39.159  1.00  0.00    -0.237 OA
ATOM     91  O   UNL A   1      46.762  25.462  39.164  1.00  0.00    -0.237 OA
ATOM     92  O   UNL A   1      48.382  25.844  37.348  1.00  0.00    -0.744 OA
ENDBRANCH  88  89
ENDBRANCH  62  83
ENDBRANCH  36  37
ENDBRANCH  28  31
ENDBRANCH  26  27
ENDBRANCH   1  26
TORSDOF 16
ENDMDL
