MODEL 1
REMARK VINA RESULT:     -13.7      0.000      0.000
REMARK SMILES Cc1ccc(NC(=O)[C@H]2CC(Cl)=CC[C@@H]2C(=O)NCCCNC(=O)c2ccc(-c3c4nc(c(-c5ccc(S(=O)(=O)[O-])cc5)c5ccc([nH]5)c(-c5ccc(S(=O)(=O)[O-])cc5)c5nc(c(-c6ccc(S(=O)(=O)[O-])cc6)c6ccc3[nH]6)C=C5)C=C4)cc2)cc1[N+](=O)[O-]
REMARK SMILES IDX 20 1 19 2 18 3 16 4 17 5 15 7 9 8 10 9 11 10 14 11 12 12
REMARK SMILES IDX 13 13 7 14 6 15 8 17 5 18 1 19 2 20 3 21 86 22 4 23 85 24
REMARK SMILES IDX 87 25 88 26 89 27 21 28 22 29 23 30 24 32 25 33 26 34 84 35
REMARK SMILES IDX 27 36 83 37 28 38 29 39 30 40 77 41 31 42 82 43 76 44 78 45
REMARK SMILES IDX 32 46 81 47 75 48 74 49 33 51 63 52 44 53 62 54 45 55 48 56
REMARK SMILES IDX 61 57 79 58 46 59 47 60 60 62 80 63 49 64 34 65 35 66 43 67
REMARK SMILES IDX 36 68 42 69 37 70 38 71 39 72 40 73 41 74 64 75 65 76 73 77
REMARK SMILES IDX 66 78 72 79 67 80 68 81 69 82 70 83 71 84 50 85 51 86 59 87
REMARK SMILES IDX 52 88 58 89 53 90 54 91 55 92 56 93 57 94
REMARK H PARENT 18 6 6 16 22 31 78 50 48 61
REMARK Flexibility Score: inf
ROOT
ATOM      1  C   UNL A   1      32.873  30.370  27.192  1.00  0.00     0.042 C 
ENDROOT
BRANCH   1   2
ATOM      2  C   UNL A   1      31.972  29.169  26.909  1.00  0.00     0.117 C 
BRANCH   2   3
ATOM      3  N   UNL A   1      32.691  27.908  26.844  1.00  0.00    -0.356 N 
ATOM      4  C   UNL A   1      33.009  27.103  25.795  1.00  0.00     0.224 C 
ATOM      5  O   UNL A   1      33.820  26.196  26.009  1.00  0.00    -0.275 OA
ATOM      6  H   UNL A   1      33.003  27.576  27.716  1.00  0.00     0.163 HD
BRANCH   4   7
ATOM      7  C   UNL A   1      32.359  27.253  24.413  1.00  0.00     0.095 C 
ATOM      8  C   UNL A   1      31.831  25.872  23.957  1.00  0.00     0.097 C 
ATOM      9  C   UNL A   1      31.429  25.842  22.478  1.00  0.00     0.062 C 
ATOM     10  C   UNL A   1      32.557  26.300  21.620  1.00  0.00     0.015 C 
ATOM     11  C   UNL A   1      33.447  27.783  23.431  1.00  0.00     0.043 C 
ATOM     12  Cl  UNL A   1      32.672  25.592  20.052  1.00  0.00    -0.089 Cl
ATOM     13  C   UNL A   1      33.472  27.175  22.053  1.00  0.00    -0.010 C 
BRANCH   8  14
ATOM     14  C   UNL A   1      30.610  25.433  24.747  1.00  0.00     0.228 C 
ATOM     15  N   UNL A   1      30.459  24.146  25.176  1.00  0.00    -0.326 N 
ATOM     16  H   UNL A   1      29.588  23.928  25.578  1.00  0.00     0.169 HD
ATOM     17  O   UNL A   1      29.751  26.255  25.083  1.00  0.00    -0.274 OA
BRANCH  15  18
ATOM     18  C   UNL A   1      31.382  23.096  25.119  1.00  0.00     0.048 A 
ATOM     19  C   UNL A   1      34.964  20.733  24.634  1.00  0.00     0.052 C 
ATOM     20  C   UNL A   1      33.671  21.453  24.883  1.00  0.00     0.027 A 
ATOM     21  C   UNL A   1      32.644  21.380  23.940  1.00  0.00     0.012 A 
ATOM     22  C   UNL A   1      33.432  22.265  25.994  1.00  0.00     0.274 A 
ATOM     23  C   UNL A   1      31.500  22.184  24.068  1.00  0.00     0.027 A 
ATOM     24  C   UNL A   1      32.294  23.055  26.152  1.00  0.00     0.112 A 
BRANCH  22  25
ATOM     25  N   UNL A   1      34.389  22.395  27.044  1.00  0.00     0.063 N 
ATOM     26  O   UNL A   1      35.226  23.298  26.904  1.00  0.00    -0.258 OA
ATOM     27  O   UNL A   1      34.185  21.692  28.039  1.00  0.00    -0.258 OA
ENDBRANCH  22  25
ENDBRANCH  15  18
ENDBRANCH   8  14
ENDBRANCH   4   7
ENDBRANCH   2   3
ENDBRANCH   1   2
BRANCH   1  28
ATOM     28  C   UNL A   1      34.380  30.066  27.144  1.00  0.00     0.118 C 
BRANCH  28  29
ATOM     29  N   UNL A   1      35.142  31.193  27.674  1.00  0.00    -0.352 N 
ATOM     30  C   UNL A   1      36.326  31.219  28.378  1.00  0.00     0.251 C 
ATOM     31  H   UNL A   1      34.745  32.077  27.501  1.00  0.00     0.163 HD
ATOM     32  O   UNL A   1      36.721  32.227  28.943  1.00  0.00    -0.269 OA
BRANCH  30  33
ATOM     33  C   UNL A   1      37.165  30.012  28.355  1.00  0.00     0.039 A 
ATOM     34  C   UNL A   1      37.200  29.227  29.513  1.00  0.00     0.014 A 
ATOM     35  C   UNL A   1      38.011  29.750  27.284  1.00  0.00     0.014 A 
ATOM     36  C   UNL A   1      38.201  28.270  29.666  1.00  0.00     0.010 A 
ATOM     37  C   UNL A   1      39.025  28.816  27.454  1.00  0.00     0.010 A 
ATOM     38  C   UNL A   1      39.169  28.120  28.670  1.00  0.00    -0.014 A 
BRANCH  38  39
ATOM     39  C   UNL A   1      40.466  27.479  28.939  1.00  0.00     0.031 A 
ATOM     40  C   UNL A   1      40.826  26.113  28.494  1.00  0.00     0.074 A 
ATOM     41  C   UNL A   1      41.473  28.242  29.424  1.00  0.00     0.049 A 
ATOM     42  N   UNL A   1      41.822  25.443  28.985  1.00  0.00    -0.248 NA
ATOM     43  C   UNL A   1      40.103  25.377  27.464  1.00  0.00     0.031 C 
ATOM     44  C   UNL A   1      42.911  27.996  29.283  1.00  0.00     0.029 A 
ATOM     45  N   UNL A   1      41.418  29.438  30.126  1.00  0.00    -0.354 N 
ATOM     46  C   UNL A   1      42.089  24.412  28.119  1.00  0.00     0.074 A 
ATOM     47  C   UNL A   1      40.929  24.346  27.254  1.00  0.00     0.031 C 
ATOM     48  C   UNL A   1      43.590  28.905  29.993  1.00  0.00     0.029 A 
ATOM     49  C   UNL A   1      42.634  29.642  30.793  1.00  0.00     0.049 A 
ATOM     50  H   UNL A   1      40.646  30.048  30.151  1.00  0.00     0.167 HD
ATOM     51  C   UNL A   1      43.315  23.813  28.105  1.00  0.00     0.031 A 
ATOM     52  C   UNL A   1      42.659  29.707  32.158  1.00  0.00     0.031 A 
ATOM     53  C   UNL A   1      44.274  24.414  29.043  1.00  0.00     0.049 A 
ATOM     54  C   UNL A   1      43.317  28.502  32.808  1.00  0.00     0.074 A 
ATOM     55  C   UNL A   1      45.445  25.144  28.905  1.00  0.00     0.029 A 
ATOM     56  N   UNL A   1      43.950  24.491  30.390  1.00  0.00    -0.354 N 
ATOM     57  N   UNL A   1      44.015  27.601  32.171  1.00  0.00    -0.248 NA
ATOM     58  C   UNL A   1      43.165  28.170  34.226  1.00  0.00     0.031 C 
ATOM     59  C   UNL A   1      45.837  25.623  30.188  1.00  0.00     0.029 A 
ATOM     60  C   UNL A   1      44.904  25.190  31.109  1.00  0.00     0.049 A 
ATOM     61  H   UNL A   1      43.140  24.097  30.787  1.00  0.00     0.167 HD
ATOM     62  C   UNL A   1      44.239  26.530  32.994  1.00  0.00     0.074 A 
ATOM     63  C   UNL A   1      43.749  26.960  34.290  1.00  0.00     0.031 C 
ATOM     64  C   UNL A   1      44.729  25.338  32.546  1.00  0.00     0.031 A 
BRANCH  51  65
ATOM     65  C   UNL A   1      43.712  22.801  27.048  1.00  0.00    -0.014 A 
ATOM     66  C   UNL A   1      42.904  21.674  26.794  1.00  0.00     0.010 A 
ATOM     67  C   UNL A   1      44.874  22.920  26.260  1.00  0.00     0.010 A 
ATOM     68  C   UNL A   1      43.287  20.669  25.893  1.00  0.00     0.020 A 
ATOM     69  C   UNL A   1      45.294  21.904  25.386  1.00  0.00     0.020 A 
ATOM     70  C   UNL A   1      44.499  20.775  25.216  1.00  0.00     0.054 A 
BRANCH  70  71
ATOM     71  S   UNL A   1      45.019  19.427  24.124  1.00  0.00     0.124 S 
ATOM     72  O   UNL A   1      46.477  19.499  24.203  1.00  0.00    -0.237 OA
ATOM     73  O   UNL A   1      44.412  18.259  24.754  1.00  0.00    -0.237 OA
ATOM     74  O   UNL A   1      44.456  19.796  22.826  1.00  0.00    -0.744 OA
ENDBRANCH  70  71
ENDBRANCH  51  65
BRANCH  52  75
ATOM     75  C   UNL A   1      41.513  30.499  32.698  1.00  0.00    -0.014 A 
ATOM     76  C   UNL A   1      40.277  29.825  32.806  1.00  0.00     0.010 A 
ATOM     77  C   UNL A   1      41.735  31.639  33.491  1.00  0.00     0.010 A 
ATOM     78  C   UNL A   1      39.362  30.169  33.804  1.00  0.00     0.020 A 
ATOM     79  C   UNL A   1      40.815  31.990  34.491  1.00  0.00     0.020 A 
ATOM     80  C   UNL A   1      39.669  31.211  34.681  1.00  0.00     0.054 A 
BRANCH  80  81
ATOM     81  S   UNL A   1      38.647  31.392  36.175  1.00  0.00     0.124 S 
ATOM     82  O   UNL A   1      37.515  32.172  35.688  1.00  0.00    -0.237 OA
ATOM     83  O   UNL A   1      38.346  30.000  36.516  1.00  0.00    -0.237 OA
ATOM     84  O   UNL A   1      39.531  32.081  37.110  1.00  0.00    -0.744 OA
ENDBRANCH  80  81
ENDBRANCH  52  75
BRANCH  64  85
ATOM     85  C   UNL A   1      45.029  24.172  33.449  1.00  0.00    -0.014 A 
ATOM     86  C   UNL A   1      46.260  24.039  34.113  1.00  0.00     0.010 A 
ATOM     87  C   UNL A   1      44.118  23.097  33.554  1.00  0.00     0.010 A 
ATOM     88  C   UNL A   1      46.540  22.916  34.903  1.00  0.00     0.020 A 
ATOM     89  C   UNL A   1      44.395  21.963  34.324  1.00  0.00     0.020 A 
ATOM     90  C   UNL A   1      45.599  21.889  35.013  1.00  0.00     0.054 A 
BRANCH  90  91
ATOM     91  S   UNL A   1      45.989  20.433  36.017  1.00  0.00     0.124 S 
ATOM     92  O   UNL A   1      45.674  20.883  37.372  1.00  0.00    -0.237 OA
ATOM     93  O   UNL A   1      45.080  19.433  35.463  1.00  0.00    -0.237 OA
ATOM     94  O   UNL A   1      47.407  20.199  35.758  1.00  0.00    -0.744 OA
ENDBRANCH  90  91
ENDBRANCH  64  85
ENDBRANCH  38  39
ENDBRANCH  30  33
ENDBRANCH  28  29
ENDBRANCH   1  28
TORSDOF 16
ENDMDL
MODEL 2
REMARK VINA RESULT:     -13.6      4.840     11.230
REMARK SMILES Cc1ccc(NC(=O)[C@H]2CC(Cl)=CC[C@@H]2C(=O)NCCCNC(=O)c2ccc(-c3c4nc(c(-c5ccc(S(=O)(=O)[O-])cc5)c5ccc([nH]5)c(-c5ccc(S(=O)(=O)[O-])cc5)c5nc(c(-c6ccc(S(=O)(=O)[O-])cc6)c6ccc3[nH]6)C=C5)C=C4)cc2)cc1[N+](=O)[O-]
REMARK SMILES IDX 20 1 19 2 18 3 16 4 17 5 15 7 9 8 10 9 11 10 14 11 12 12
REMARK SMILES IDX 13 13 7 14 6 15 8 17 5 18 1 19 2 20 3 21 86 22 4 23 85 24
REMARK SMILES IDX 87 25 88 26 89 27 21 28 22 29 23 30 24 32 25 33 26 34 84 35
REMARK SMILES IDX 27 36 83 37 28 38 29 39 30 40 77 41 31 42 82 43 76 44 78 45
REMARK SMILES IDX 32 46 81 47 75 48 74 49 33 51 63 52 44 53 62 54 45 55 48 56
REMARK SMILES IDX 61 57 79 58 46 59 47 60 60 62 80 63 49 64 34 65 35 66 43 67
REMARK SMILES IDX 36 68 42 69 37 70 38 71 39 72 40 73 41 74 64 75 65 76 73 77
REMARK SMILES IDX 66 78 72 79 67 80 68 81 69 82 70 83 71 84 50 85 51 86 59 87
REMARK SMILES IDX 52 88 58 89 53 90 54 91 55 92 56 93 57 94
REMARK H PARENT 18 6 6 16 22 31 78 50 48 61
REMARK Flexibility Score: inf
ROOT
ATOM      1  C   UNL A   1      37.864  21.912  25.351  1.00  0.00     0.042 C 
ENDROOT
BRANCH   1   2
ATOM      2  C   UNL A   1      36.738  22.112  24.338  1.00  0.00     0.117 C 
BRANCH   2   3
ATOM      3  N   UNL A   1      36.138  23.434  24.393  1.00  0.00    -0.356 N 
ATOM      4  C   UNL A   1      34.939  23.862  24.870  1.00  0.00     0.224 C 
ATOM      5  O   UNL A   1      34.783  25.082  24.984  1.00  0.00    -0.275 OA
ATOM      6  H   UNL A   1      36.699  24.149  24.015  1.00  0.00     0.163 HD
BRANCH   4   7
ATOM      7  C   UNL A   1      33.791  22.899  25.203  1.00  0.00     0.095 C 
ATOM      8  C   UNL A   1      32.484  23.447  24.581  1.00  0.00     0.097 C 
ATOM      9  C   UNL A   1      31.230  22.729  25.093  1.00  0.00     0.062 C 
ATOM     10  C   UNL A   1      31.178  22.763  26.581  1.00  0.00     0.015 C 
ATOM     11  C   UNL A   1      33.675  22.815  26.754  1.00  0.00     0.043 C 
ATOM     12  Cl  UNL A   1      29.611  22.817  27.298  1.00  0.00    -0.089 Cl
ATOM     13  C   UNL A   1      32.284  22.806  27.332  1.00  0.00    -0.010 C 
BRANCH   8  14
ATOM     14  C   UNL A   1      32.469  23.321  23.068  1.00  0.00     0.228 C 
ATOM     15  N   UNL A   1      32.033  24.339  22.269  1.00  0.00    -0.326 N 
ATOM     16  H   UNL A   1      31.951  24.126  21.312  1.00  0.00     0.169 HD
ATOM     17  O   UNL A   1      32.921  22.312  22.517  1.00  0.00    -0.274 OA
BRANCH  15  18
ATOM     18  C   UNL A   1      31.687  25.645  22.633  1.00  0.00     0.048 A 
ATOM     19  C   UNL A   1      31.111  29.344  24.785  1.00  0.00     0.052 C 
ATOM     20  C   UNL A   1      31.300  28.132  23.921  1.00  0.00     0.027 A 
ATOM     21  C   UNL A   1      30.216  27.293  23.656  1.00  0.00     0.012 A 
ATOM     22  C   UNL A   1      32.531  27.734  23.394  1.00  0.00     0.274 A 
ATOM     23  C   UNL A   1      30.407  26.066  23.001  1.00  0.00     0.027 A 
ATOM     24  C   UNL A   1      32.739  26.530  22.722  1.00  0.00     0.112 A 
BRANCH  22  25
ATOM     25  N   UNL A   1      33.707  28.523  23.566  1.00  0.00     0.063 N 
ATOM     26  O   UNL A   1      34.319  28.357  24.630  1.00  0.00    -0.258 OA
ATOM     27  O   UNL A   1      34.062  29.172  22.575  1.00  0.00    -0.258 OA
ENDBRANCH  22  25
ENDBRANCH  15  18
ENDBRANCH   8  14
ENDBRANCH   4   7
ENDBRANCH   2   3
ENDBRANCH   1   2
BRANCH   1  28
ATOM     28  C   UNL A   1      38.226  23.167  26.163  1.00  0.00     0.118 C 
BRANCH  28  29
ATOM     29  N   UNL A   1      39.493  22.971  26.862  1.00  0.00    -0.352 N 
ATOM     30  C   UNL A   1      40.368  23.888  27.401  1.00  0.00     0.251 C 
ATOM     31  H   UNL A   1      39.768  22.031  26.963  1.00  0.00     0.163 HD
ATOM     32  O   UNL A   1      41.493  23.577  27.758  1.00  0.00    -0.269 OA
BRANCH  30  33
ATOM     33  C   UNL A   1      39.874  25.255  27.630  1.00  0.00     0.039 A 
ATOM     34  C   UNL A   1      40.314  26.255  26.756  1.00  0.00     0.014 A 
ATOM     35  C   UNL A   1      39.130  25.565  28.762  1.00  0.00     0.014 A 
ATOM     36  C   UNL A   1      40.145  27.594  27.102  1.00  0.00     0.010 A 
ATOM     37  C   UNL A   1      38.991  26.901  29.117  1.00  0.00     0.010 A 
ATOM     38  C   UNL A   1      39.557  27.920  28.327  1.00  0.00    -0.014 A 
BRANCH  38  39
ATOM     39  C   UNL A   1      39.740  29.241  28.948  1.00  0.00     0.031 A 
ATOM     40  C   UNL A   1      38.699  30.294  28.990  1.00  0.00     0.074 A 
ATOM     41  C   UNL A   1      40.834  29.443  29.719  1.00  0.00     0.049 A 
ATOM     42  N   UNL A   1      38.953  31.538  29.250  1.00  0.00    -0.248 NA
ATOM     43  C   UNL A   1      37.284  30.045  28.740  1.00  0.00     0.031 C 
ATOM     44  C   UNL A   1      40.976  30.413  30.809  1.00  0.00     0.029 A 
ATOM     45  N   UNL A   1      42.056  28.785  29.712  1.00  0.00    -0.354 N 
ATOM     46  C   UNL A   1      37.761  32.141  29.566  1.00  0.00     0.074 A 
ATOM     47  C   UNL A   1      36.745  31.207  29.127  1.00  0.00     0.031 C 
ATOM     48  C   UNL A   1      42.237  30.397  31.259  1.00  0.00     0.029 A 
ATOM     49  C   UNL A   1      43.017  29.582  30.350  1.00  0.00     0.049 A 
ATOM     50  H   UNL A   1      42.222  27.897  29.322  1.00  0.00     0.167 HD
ATOM     51  C   UNL A   1      37.735  33.291  30.302  1.00  0.00     0.031 A 
ATOM     52  C   UNL A   1      44.102  30.031  29.650  1.00  0.00     0.031 A 
ATOM     53  C   UNL A   1      39.065  33.743  30.734  1.00  0.00     0.049 A 
ATOM     54  C   UNL A   1      44.070  31.525  29.381  1.00  0.00     0.074 A 
ATOM     55  C   UNL A   1      39.709  33.845  31.958  1.00  0.00     0.029 A 
ATOM     56  N   UNL A   1      40.048  33.973  29.781  1.00  0.00    -0.354 N 
ATOM     57  N   UNL A   1      43.248  32.366  29.946  1.00  0.00    -0.248 NA
ATOM     58  C   UNL A   1      44.913  32.180  28.378  1.00  0.00     0.031 C 
ATOM     59  C   UNL A   1      41.076  34.176  31.727  1.00  0.00     0.029 A 
ATOM     60  C   UNL A   1      41.267  34.273  30.363  1.00  0.00     0.049 A 
ATOM     61  H   UNL A   1      39.896  33.928  28.810  1.00  0.00     0.167 HD
ATOM     62  C   UNL A   1      43.307  33.571  29.298  1.00  0.00     0.074 A 
ATOM     63  C   UNL A   1      44.412  33.428  28.369  1.00  0.00     0.031 C 
ATOM     64  C   UNL A   1      42.400  34.570  29.500  1.00  0.00     0.031 A 
BRANCH  51  65
ATOM     65  C   UNL A   1      36.445  33.889  30.827  1.00  0.00    -0.014 A 
ATOM     66  C   UNL A   1      35.344  34.089  29.969  1.00  0.00     0.010 A 
ATOM     67  C   UNL A   1      36.256  34.263  32.173  1.00  0.00     0.010 A 
ATOM     68  C   UNL A   1      34.170  34.727  30.397  1.00  0.00     0.020 A 
ATOM     69  C   UNL A   1      35.106  34.941  32.607  1.00  0.00     0.020 A 
ATOM     70  C   UNL A   1      34.070  35.179  31.710  1.00  0.00     0.054 A 
BRANCH  70  71
ATOM     71  S   UNL A   1      32.583  36.078  32.221  1.00  0.00     0.124 S 
ATOM     72  O   UNL A   1      31.687  35.001  32.634  1.00  0.00    -0.237 OA
ATOM     73  O   UNL A   1      33.084  36.928  33.298  1.00  0.00    -0.237 OA
ATOM     74  O   UNL A   1      32.173  36.786  31.010  1.00  0.00    -0.744 OA
ENDBRANCH  70  71
ENDBRANCH  51  65
BRANCH  52  75
ATOM     75  C   UNL A   1      44.664  28.973  28.757  1.00  0.00    -0.014 A 
ATOM     76  C   UNL A   1      43.991  28.758  27.534  1.00  0.00     0.010 A 
ATOM     77  C   UNL A   1      46.008  28.573  28.871  1.00  0.00     0.010 A 
ATOM     78  C   UNL A   1      44.688  28.324  26.404  1.00  0.00     0.020 A 
ATOM     79  C   UNL A   1      46.708  28.132  27.737  1.00  0.00     0.020 A 
ATOM     80  C   UNL A   1      46.057  28.075  26.501  1.00  0.00     0.054 A 
BRANCH  80  81
ATOM     81  S   UNL A   1      46.995  27.874  24.955  1.00  0.00     0.124 S 
ATOM     82  O   UNL A   1      46.701  29.116  24.247  1.00  0.00    -0.237 OA
ATOM     83  O   UNL A   1      48.370  27.742  25.439  1.00  0.00    -0.237 OA
ATOM     84  O   UNL A   1      46.427  26.664  24.367  1.00  0.00    -0.744 OA
ENDBRANCH  80  81
ENDBRANCH  52  75
BRANCH  64  85
ATOM     85  C   UNL A   1      42.486  35.917  28.833  1.00  0.00    -0.014 A 
ATOM     86  C   UNL A   1      42.090  36.116  27.500  1.00  0.00     0.010 A 
ATOM     87  C   UNL A   1      43.099  37.003  29.497  1.00  0.00     0.010 A 
ATOM     88  C   UNL A   1      42.233  37.366  26.882  1.00  0.00     0.020 A 
ATOM     89  C   UNL A   1      43.265  38.248  28.882  1.00  0.00     0.020 A 
ATOM     90  C   UNL A   1      42.810  38.428  27.581  1.00  0.00     0.054 A 
BRANCH  90  91
ATOM     91  S   UNL A   1      43.012  40.028  26.756  1.00  0.00     0.124 S 
ATOM     92  O   UNL A   1      41.710  40.231  26.124  1.00  0.00    -0.237 OA
ATOM     93  O   UNL A   1      43.306  40.912  27.882  1.00  0.00    -0.237 OA
ATOM     94  O   UNL A   1      44.120  39.807  25.831  1.00  0.00    -0.744 OA
ENDBRANCH  90  91
ENDBRANCH  64  85
ENDBRANCH  38  39
ENDBRANCH  30  33
ENDBRANCH  28  29
ENDBRANCH   1  28
TORSDOF 16
ENDMDL
MODEL 3
REMARK VINA RESULT:     -13.1      4.954     11.125
REMARK SMILES Cc1ccc(NC(=O)[C@H]2CC(Cl)=CC[C@@H]2C(=O)NCCCNC(=O)c2ccc(-c3c4nc(c(-c5ccc(S(=O)(=O)[O-])cc5)c5ccc([nH]5)c(-c5ccc(S(=O)(=O)[O-])cc5)c5nc(c(-c6ccc(S(=O)(=O)[O-])cc6)c6ccc3[nH]6)C=C5)C=C4)cc2)cc1[N+](=O)[O-]
REMARK SMILES IDX 20 1 19 2 18 3 16 4 17 5 15 7 9 8 10 9 11 10 14 11 12 12
REMARK SMILES IDX 13 13 7 14 6 15 8 17 5 18 1 19 2 20 3 21 86 22 4 23 85 24
REMARK SMILES IDX 87 25 88 26 89 27 21 28 22 29 23 30 24 32 25 33 26 34 84 35
REMARK SMILES IDX 27 36 83 37 28 38 29 39 30 40 77 41 31 42 82 43 76 44 78 45
REMARK SMILES IDX 32 46 81 47 75 48 74 49 33 51 63 52 44 53 62 54 45 55 48 56
REMARK SMILES IDX 61 57 79 58 46 59 47 60 60 62 80 63 49 64 34 65 35 66 43 67
REMARK SMILES IDX 36 68 42 69 37 70 38 71 39 72 40 73 41 74 64 75 65 76 73 77
REMARK SMILES IDX 66 78 72 79 67 80 68 81 69 82 70 83 71 84 50 85 51 86 59 87
REMARK SMILES IDX 52 88 58 89 53 90 54 91 55 92 56 93 57 94
REMARK H PARENT 18 6 6 16 22 31 78 50 48 61
REMARK Flexibility Score: inf
ROOT
ATOM      1  C   UNL A   1      38.151  21.793  25.385  1.00  0.00     0.042 C 
ENDROOT
BRANCH   1   2
ATOM      2  C   UNL A   1      36.660  21.527  25.183  1.00  0.00     0.117 C 
BRANCH   2   3
ATOM      3  N   UNL A   1      35.870  21.706  26.389  1.00  0.00    -0.356 N 
ATOM      4  C   UNL A   1      34.608  22.172  26.582  1.00  0.00     0.224 C 
ATOM      5  O   UNL A   1      34.113  22.008  27.702  1.00  0.00    -0.275 OA
ATOM      6  H   UNL A   1      36.333  21.442  27.217  1.00  0.00     0.163 HD
BRANCH   4   7
ATOM      7  C   UNL A   1      33.832  22.927  25.494  1.00  0.00     0.095 C 
ATOM      8  C   UNL A   1      33.099  21.899  24.600  1.00  0.00     0.097 C 
ATOM      9  C   UNL A   1      32.535  22.516  23.315  1.00  0.00     0.062 C 
ATOM     10  C   UNL A   1      33.608  23.223  22.560  1.00  0.00     0.015 C 
ATOM     11  C   UNL A   1      34.859  23.752  24.663  1.00  0.00     0.043 C 
ATOM     12  Cl  UNL A   1      33.466  23.231  20.841  1.00  0.00    -0.089 Cl
ATOM     13  C   UNL A   1      34.661  23.778  23.169  1.00  0.00    -0.010 C 
BRANCH   8  14
ATOM     14  C   UNL A   1      31.930  21.244  25.315  1.00  0.00     0.228 C 
ATOM     15  N   UNL A   1      31.826  19.887  25.425  1.00  0.00    -0.326 N 
ATOM     16  H   UNL A   1      30.982  19.551  25.801  1.00  0.00     0.169 HD
ATOM     17  O   UNL A   1      31.074  21.933  25.879  1.00  0.00    -0.274 OA
BRANCH  15  18
ATOM     18  C   UNL A   1      32.765  18.911  25.072  1.00  0.00     0.048 A 
ATOM     19  C   UNL A   1      35.810  15.850  25.161  1.00  0.00     0.052 C 
ATOM     20  C   UNL A   1      34.716  16.866  25.005  1.00  0.00     0.027 A 
ATOM     21  C   UNL A   1      35.025  18.157  24.571  1.00  0.00     0.012 A 
ATOM     22  C   UNL A   1      33.378  16.628  25.330  1.00  0.00     0.274 A 
ATOM     23  C   UNL A   1      34.050  19.167  24.589  1.00  0.00     0.027 A 
ATOM     24  C   UNL A   1      32.390  17.611  25.334  1.00  0.00     0.112 A 
BRANCH  22  25
ATOM     25  N   UNL A   1      32.930  15.341  25.753  1.00  0.00     0.063 N 
ATOM     26  O   UNL A   1      31.853  15.317  26.363  1.00  0.00    -0.258 OA
ATOM     27  O   UNL A   1      33.591  14.384  25.335  1.00  0.00    -0.258 OA
ENDBRANCH  22  25
ENDBRANCH  15  18
ENDBRANCH   8  14
ENDBRANCH   4   7
ENDBRANCH   2   3
ENDBRANCH   1   2
BRANCH   1  28
ATOM     28  C   UNL A   1      38.471  23.028  26.244  1.00  0.00     0.118 C 
BRANCH  28  29
ATOM     29  N   UNL A   1      39.794  22.898  26.846  1.00  0.00    -0.352 N 
ATOM     30  C   UNL A   1      40.663  23.860  27.313  1.00  0.00     0.251 C 
ATOM     31  H   UNL A   1      40.119  21.972  26.933  1.00  0.00     0.163 HD
ATOM     32  O   UNL A   1      41.825  23.605  27.586  1.00  0.00    -0.269 OA
BRANCH  30  33
ATOM     33  C   UNL A   1      40.125  25.205  27.569  1.00  0.00     0.039 A 
ATOM     34  C   UNL A   1      40.476  26.222  26.676  1.00  0.00     0.014 A 
ATOM     35  C   UNL A   1      39.426  25.483  28.739  1.00  0.00     0.014 A 
ATOM     36  C   UNL A   1      40.269  27.553  27.032  1.00  0.00     0.010 A 
ATOM     37  C   UNL A   1      39.250  26.812  29.102  1.00  0.00     0.010 A 
ATOM     38  C   UNL A   1      39.731  27.854  28.286  1.00  0.00    -0.014 A 
BRANCH  38  39
ATOM     39  C   UNL A   1      39.890  29.182  28.900  1.00  0.00     0.031 A 
ATOM     40  C   UNL A   1      38.837  30.224  28.914  1.00  0.00     0.074 A 
ATOM     41  C   UNL A   1      40.968  29.401  29.689  1.00  0.00     0.049 A 
ATOM     42  N   UNL A   1      39.075  31.473  29.169  1.00  0.00    -0.248 NA
ATOM     43  C   UNL A   1      37.430  29.959  28.641  1.00  0.00     0.031 C 
ATOM     44  C   UNL A   1      41.081  30.381  30.773  1.00  0.00     0.029 A 
ATOM     45  N   UNL A   1      42.196  28.755  29.709  1.00  0.00    -0.354 N 
ATOM     46  C   UNL A   1      37.871  32.067  29.458  1.00  0.00     0.074 A 
ATOM     47  C   UNL A   1      36.872  31.119  29.009  1.00  0.00     0.031 C 
ATOM     48  C   UNL A   1      42.334  30.381  31.245  1.00  0.00     0.029 A 
ATOM     49  C   UNL A   1      43.138  29.567  30.357  1.00  0.00     0.049 A 
ATOM     50  H   UNL A   1      42.378  27.865  29.329  1.00  0.00     0.167 HD
ATOM     51  C   UNL A   1      37.820  33.222  30.184  1.00  0.00     0.031 A 
ATOM     52  C   UNL A   1      44.231  30.021  29.673  1.00  0.00     0.031 A 
ATOM     53  C   UNL A   1      39.138  33.691  30.636  1.00  0.00     0.049 A 
ATOM     54  C   UNL A   1      44.189  31.513  29.391  1.00  0.00     0.074 A 
ATOM     55  C   UNL A   1      39.759  33.809  31.870  1.00  0.00     0.029 A 
ATOM     56  N   UNL A   1      40.136  33.923  29.699  1.00  0.00    -0.354 N 
ATOM     57  N   UNL A   1      43.348  32.350  29.935  1.00  0.00    -0.248 NA
ATOM     58  C   UNL A   1      45.043  32.168  28.398  1.00  0.00     0.031 C 
ATOM     59  C   UNL A   1      41.127  34.152  31.661  1.00  0.00     0.029 A 
ATOM     60  C   UNL A   1      41.341  34.240  30.300  1.00  0.00     0.049 A 
ATOM     61  H   UNL A   1      40.002  33.869  28.726  1.00  0.00     0.167 HD
ATOM     62  C   UNL A   1      43.407  33.550  29.278  1.00  0.00     0.074 A 
ATOM     63  C   UNL A   1      44.530  33.411  28.369  1.00  0.00     0.031 C 
ATOM     64  C   UNL A   1      42.486  34.541  29.455  1.00  0.00     0.031 A 
BRANCH  51  65
ATOM     65  C   UNL A   1      36.515  33.811  30.681  1.00  0.00    -0.014 A 
ATOM     66  C   UNL A   1      35.487  34.145  29.776  1.00  0.00     0.010 A 
ATOM     67  C   UNL A   1      36.241  34.047  32.043  1.00  0.00     0.010 A 
ATOM     68  C   UNL A   1      34.306  34.780  30.189  1.00  0.00     0.020 A 
ATOM     69  C   UNL A   1      35.084  34.719  32.469  1.00  0.00     0.020 A 
ATOM     70  C   UNL A   1      34.125  35.092  31.533  1.00  0.00     0.054 A 
BRANCH  70  71
ATOM     71  S   UNL A   1      32.634  35.990  32.036  1.00  0.00     0.124 S 
ATOM     72  O   UNL A   1      32.184  36.586  30.780  1.00  0.00    -0.237 OA
ATOM     73  O   UNL A   1      31.788  34.925  32.565  1.00  0.00    -0.237 OA
ATOM     74  O   UNL A   1      33.124  36.947  33.027  1.00  0.00    -0.744 OA
ENDBRANCH  70  71
ENDBRANCH  51  65
BRANCH  52  75
ATOM     75  C   UNL A   1      44.819  28.962  28.799  1.00  0.00    -0.014 A 
ATOM     76  C   UNL A   1      44.090  28.628  27.636  1.00  0.00     0.010 A 
ATOM     77  C   UNL A   1      46.195  28.673  28.843  1.00  0.00     0.010 A 
ATOM     78  C   UNL A   1      44.748  28.187  26.486  1.00  0.00     0.020 A 
ATOM     79  C   UNL A   1      46.857  28.225  27.689  1.00  0.00     0.020 A 
ATOM     80  C   UNL A   1      46.136  28.050  26.503  1.00  0.00     0.054 A 
BRANCH  80  81
ATOM     81  S   UNL A   1      46.988  27.836  24.910  1.00  0.00     0.124 S 
ATOM     82  O   UNL A   1      46.684  29.087  24.222  1.00  0.00    -0.237 OA
ATOM     83  O   UNL A   1      48.384  27.674  25.323  1.00  0.00    -0.237 OA
ATOM     84  O   UNL A   1      46.366  26.641  24.348  1.00  0.00    -0.744 OA
ENDBRANCH  80  81
ENDBRANCH  52  75
BRANCH  64  85
ATOM     85  C   UNL A   1      42.571  35.884  28.778  1.00  0.00    -0.014 A 
ATOM     86  C   UNL A   1      43.148  37.000  29.405  1.00  0.00     0.010 A 
ATOM     87  C   UNL A   1      41.946  36.093  27.528  1.00  0.00     0.010 A 
ATOM     88  C   UNL A   1      43.164  38.254  28.779  1.00  0.00     0.020 A 
ATOM     89  C   UNL A   1      41.939  37.344  26.904  1.00  0.00     0.020 A 
ATOM     90  C   UNL A   1      42.569  38.415  27.526  1.00  0.00     0.054 A 
BRANCH  90  91
ATOM     91  S   UNL A   1      42.576  40.049  26.744  1.00  0.00     0.124 S 
ATOM     92  O   UNL A   1      43.736  39.977  25.858  1.00  0.00    -0.237 OA
ATOM     93  O   UNL A   1      41.277  40.068  26.075  1.00  0.00    -0.237 OA
ATOM     94  O   UNL A   1      42.713  40.973  27.867  1.00  0.00    -0.744 OA
ENDBRANCH  90  91
ENDBRANCH  64  85
ENDBRANCH  38  39
ENDBRANCH  30  33
ENDBRANCH  28  29
ENDBRANCH   1  28
TORSDOF 16
ENDMDL
