MODEL 1
REMARK VINA RESULT:     -10.2      0.000      0.000
REMARK SMILES CC(C)=CC(=O)Nc1ccc(C(=O)NCCCNC(=O)c2ccc(-c3c4nc(c(-c5ccc(S(=O)(=O)[O-])cc5)c5ccc([nH]5)c(-c5ccc(S(=O)(=O)[O-])cc5)c5nc(c(-c6ccc(S(=O)(=O)[O-])cc6)c6ccc3[nH]6)C=C5)C=C4)cc2)cc1
REMARK SMILES IDX 16 1 15 2 14 3 12 4 13 5 11 7 8 8 9 9 82 10 10 11 81 12 7 13
REMARK SMILES IDX 5 14 6 15 4 17 1 18 2 19 3 20 17 21 18 22 19 23 20 25 21 26
REMARK SMILES IDX 22 27 80 28 23 29 79 30 24 31 25 32 26 33 73 34 27 35 78 36
REMARK SMILES IDX 72 37 74 38 28 39 77 40 71 41 70 42 29 44 59 45 40 46 58 47
REMARK SMILES IDX 41 48 44 49 57 50 75 51 42 52 43 53 56 55 76 56 45 57 30 58
REMARK SMILES IDX 31 59 39 60 32 61 38 62 33 63 34 64 35 65 36 66 37 67 60 68
REMARK SMILES IDX 61 69 69 70 62 71 68 72 63 73 64 74 65 75 66 76 67 77 46 78
REMARK SMILES IDX 47 79 55 80 48 81 54 82 49 83 50 84 51 85 52 86 53 87
REMARK H PARENT 14 6 7 16 18 24 74 43 44 54
REMARK Flexibility Score: inf
ROOT
ATOM      1  C   UNL A   1      33.778  33.826  28.402  1.00  0.00     0.042 C 
ENDROOT
BRANCH   1   2
ATOM      2  C   UNL A   1      34.398  35.096  28.983  1.00  0.00     0.118 C 
BRANCH   2   3
ATOM      3  N   UNL A   1      33.399  35.900  29.670  1.00  0.00    -0.352 N 
ATOM      4  C   UNL A   1      33.026  35.973  30.989  1.00  0.00     0.251 C 
ATOM      5  O   UNL A   1      32.168  36.795  31.309  1.00  0.00    -0.269 OA
ATOM      6  H   UNL A   1      32.897  36.506  29.078  1.00  0.00     0.163 HD
BRANCH   4   7
ATOM      7  C   UNL A   1      33.697  35.176  32.048  1.00  0.00     0.039 A 
ATOM      8  C   UNL A   1      35.397  33.823  33.796  1.00  0.00     0.041 A 
ATOM      9  C   UNL A   1      35.249  35.206  33.912  1.00  0.00     0.027 A 
ATOM     10  C   UNL A   1      34.556  33.104  32.951  1.00  0.00     0.027 A 
ATOM     11  C   UNL A   1      34.427  35.883  33.013  1.00  0.00     0.016 A 
ATOM     12  C   UNL A   1      33.679  33.782  32.103  1.00  0.00     0.016 A 
BRANCH   8  13
ATOM     13  N   UNL A   1      36.453  33.226  34.491  1.00  0.00    -0.323 N 
ATOM     14  C   UNL A   1      37.770  33.123  34.145  1.00  0.00     0.248 C 
ATOM     15  O   UNL A   1      38.522  32.415  34.815  1.00  0.00    -0.270 OA
ATOM     16  H   UNL A   1      36.211  32.820  35.354  1.00  0.00     0.170 HD
BRANCH  14  17
ATOM     17  C   UNL A   1      38.353  33.893  33.008  1.00  0.00     0.070 C 
ATOM     18  C   UNL A   1      37.409  32.603  31.020  1.00  0.00     0.039 C 
ATOM     19  C   UNL A   1      38.192  33.707  31.679  1.00  0.00    -0.071 C 
ATOM     20  C   UNL A   1      38.791  34.682  30.698  1.00  0.00     0.039 C 
ENDBRANCH  14  17
ENDBRANCH   8  13
ENDBRANCH   4   7
ENDBRANCH   2   3
ENDBRANCH   1   2
BRANCH   1  21
ATOM     21  C   UNL A   1      34.730  32.634  28.401  1.00  0.00     0.118 C 
BRANCH  21  22
ATOM     22  N   UNL A   1      34.042  31.382  28.126  1.00  0.00    -0.352 N 
ATOM     23  C   UNL A   1      34.553  30.118  27.959  1.00  0.00     0.251 C 
ATOM     24  H   UNL A   1      33.063  31.452  28.048  1.00  0.00     0.163 HD
ATOM     25  O   UNL A   1      33.822  29.228  27.534  1.00  0.00    -0.269 OA
BRANCH  23  26
ATOM     26  C   UNL A   1      35.974  29.828  28.266  1.00  0.00     0.039 A 
ATOM     27  C   UNL A   1      36.304  29.370  29.546  1.00  0.00     0.014 A 
ATOM     28  C   UNL A   1      36.983  30.036  27.321  1.00  0.00     0.014 A 
ATOM     29  C   UNL A   1      37.633  29.071  29.858  1.00  0.00     0.010 A 
ATOM     30  C   UNL A   1      38.296  29.667  27.611  1.00  0.00     0.010 A 
ATOM     31  C   UNL A   1      38.637  29.188  28.885  1.00  0.00    -0.014 A 
BRANCH  31  32
ATOM     32  C   UNL A   1      40.047  28.818  29.180  1.00  0.00     0.031 A 
ATOM     33  C   UNL A   1      40.980  29.820  29.805  1.00  0.00     0.074 A 
ATOM     34  C   UNL A   1      40.504  27.599  28.831  1.00  0.00     0.049 A 
ATOM     35  N   UNL A   1      42.254  29.701  30.080  1.00  0.00    -0.248 NA
ATOM     36  C   UNL A   1      40.415  31.138  30.144  1.00  0.00     0.031 C 
ATOM     37  C   UNL A   1      39.713  26.550  28.183  1.00  0.00     0.029 A 
ATOM     38  N   UNL A   1      41.751  27.039  28.964  1.00  0.00    -0.354 N 
ATOM     39  C   UNL A   1      42.648  30.929  30.602  1.00  0.00     0.074 A 
ATOM     40  C   UNL A   1      41.487  31.792  30.566  1.00  0.00     0.031 C 
ATOM     41  C   UNL A   1      40.486  25.468  27.995  1.00  0.00     0.029 A 
ATOM     42  C   UNL A   1      41.836  25.758  28.470  1.00  0.00     0.049 A 
ATOM     43  H   UNL A   1      42.513  27.509  29.373  1.00  0.00     0.167 HD
ATOM     44  C   UNL A   1      43.859  31.299  31.084  1.00  0.00     0.031 A 
ATOM     45  C   UNL A   1      42.882  24.911  28.398  1.00  0.00     0.031 A 
ATOM     46  C   UNL A   1      45.007  30.433  31.133  1.00  0.00     0.049 A 
ATOM     47  C   UNL A   1      44.216  25.344  28.941  1.00  0.00     0.074 A 
ATOM     48  C   UNL A   1      46.261  30.698  31.657  1.00  0.00     0.029 A 
ATOM     49  N   UNL A   1      45.046  29.137  30.640  1.00  0.00    -0.354 N 
ATOM     50  N   UNL A   1      44.550  26.488  29.489  1.00  0.00    -0.248 NA
ATOM     51  C   UNL A   1      45.311  24.367  28.869  1.00  0.00     0.031 C 
ATOM     52  C   UNL A   1      47.072  29.580  31.435  1.00  0.00     0.029 A 
ATOM     53  C   UNL A   1      46.307  28.598  30.828  1.00  0.00     0.049 A 
ATOM     54  H   UNL A   1      44.288  28.670  30.219  1.00  0.00     0.167 HD
ATOM     55  C   UNL A   1      45.886  26.358  29.851  1.00  0.00     0.074 A 
ATOM     56  C   UNL A   1      46.294  25.021  29.472  1.00  0.00     0.031 C 
ATOM     57  C   UNL A   1      46.700  27.264  30.445  1.00  0.00     0.031 A 
BRANCH  44  58
ATOM     58  C   UNL A   1      44.006  32.710  31.590  1.00  0.00    -0.014 A 
ATOM     59  C   UNL A   1      43.817  33.020  32.950  1.00  0.00     0.010 A 
ATOM     60  C   UNL A   1      44.382  33.736  30.703  1.00  0.00     0.010 A 
ATOM     61  C   UNL A   1      43.958  34.334  33.404  1.00  0.00     0.020 A 
ATOM     62  C   UNL A   1      44.552  35.047  31.159  1.00  0.00     0.020 A 
ATOM     63  C   UNL A   1      44.321  35.340  32.503  1.00  0.00     0.054 A 
BRANCH  63  64
ATOM     64  S   UNL A   1      44.518  37.033  33.125  1.00  0.00     0.124 S 
ATOM     65  O   UNL A   1      43.584  37.050  34.249  1.00  0.00    -0.237 OA
ATOM     66  O   UNL A   1      45.932  37.082  33.484  1.00  0.00    -0.237 OA
ATOM     67  O   UNL A   1      44.137  37.866  31.988  1.00  0.00    -0.744 OA
ENDBRANCH  63  64
ENDBRANCH  44  58
BRANCH  45  68
ATOM     68  C   UNL A   1      42.701  23.560  27.800  1.00  0.00    -0.014 A 
ATOM     69  C   UNL A   1      43.137  23.295  26.490  1.00  0.00     0.010 A 
ATOM     70  C   UNL A   1      42.109  22.526  28.546  1.00  0.00     0.010 A 
ATOM     71  C   UNL A   1      42.971  22.024  25.932  1.00  0.00     0.020 A 
ATOM     72  C   UNL A   1      41.966  21.246  28.002  1.00  0.00     0.020 A 
ATOM     73  C   UNL A   1      42.391  21.007  26.693  1.00  0.00     0.054 A 
BRANCH  73  74
ATOM     74  S   UNL A   1      42.241  19.349  25.970  1.00  0.00     0.124 S 
ATOM     75  O   UNL A   1      42.814  18.508  27.017  1.00  0.00    -0.237 OA
ATOM     76  O   UNL A   1      40.800  19.221  25.771  1.00  0.00    -0.237 OA
ATOM     77  O   UNL A   1      43.026  19.442  24.740  1.00  0.00    -0.744 OA
ENDBRANCH  73  74
ENDBRANCH  45  68
BRANCH  57  78
ATOM     78  C   UNL A   1      48.108  26.832  30.760  1.00  0.00    -0.014 A 
ATOM     79  C   UNL A   1      49.183  27.179  29.923  1.00  0.00     0.010 A 
ATOM     80  C   UNL A   1      48.363  26.113  31.943  1.00  0.00     0.010 A 
ATOM     81  C   UNL A   1      50.484  26.786  30.247  1.00  0.00     0.020 A 
ATOM     82  C   UNL A   1      49.666  25.743  32.284  1.00  0.00     0.020 A 
ATOM     83  C   UNL A   1      50.718  26.070  31.426  1.00  0.00     0.054 A 
BRANCH  83  84
ATOM     84  S   UNL A   1      52.421  25.610  31.846  1.00  0.00     0.124 S 
ATOM     85  O   UNL A   1      52.269  24.211  32.240  1.00  0.00    -0.237 OA
ATOM     86  O   UNL A   1      53.134  25.836  30.591  1.00  0.00    -0.237 OA
ATOM     87  O   UNL A   1      52.771  26.527  32.928  1.00  0.00    -0.744 OA
ENDBRANCH  83  84
ENDBRANCH  57  78
ENDBRANCH  31  32
ENDBRANCH  23  26
ENDBRANCH  21  22
ENDBRANCH   1  21
TORSDOF 15
ENDMDL
MODEL 2
REMARK VINA RESULT:      -9.9      0.957      1.749
REMARK SMILES CC(C)=CC(=O)Nc1ccc(C(=O)NCCCNC(=O)c2ccc(-c3c4nc(c(-c5ccc(S(=O)(=O)[O-])cc5)c5ccc([nH]5)c(-c5ccc(S(=O)(=O)[O-])cc5)c5nc(c(-c6ccc(S(=O)(=O)[O-])cc6)c6ccc3[nH]6)C=C5)C=C4)cc2)cc1
REMARK SMILES IDX 16 1 15 2 14 3 12 4 13 5 11 7 8 8 9 9 82 10 10 11 81 12 7 13
REMARK SMILES IDX 5 14 6 15 4 17 1 18 2 19 3 20 17 21 18 22 19 23 20 25 21 26
REMARK SMILES IDX 22 27 80 28 23 29 79 30 24 31 25 32 26 33 73 34 27 35 78 36
REMARK SMILES IDX 72 37 74 38 28 39 77 40 71 41 70 42 29 44 59 45 40 46 58 47
REMARK SMILES IDX 41 48 44 49 57 50 75 51 42 52 43 53 56 55 76 56 45 57 30 58
REMARK SMILES IDX 31 59 39 60 32 61 38 62 33 63 34 64 35 65 36 66 37 67 60 68
REMARK SMILES IDX 61 69 69 70 62 71 68 72 63 73 64 74 65 75 66 76 67 77 46 78
REMARK SMILES IDX 47 79 55 80 48 81 54 82 49 83 50 84 51 85 52 86 53 87
REMARK H PARENT 14 6 7 16 18 24 74 43 44 54
REMARK Flexibility Score: inf
ROOT
ATOM      1  C   UNL A   1      33.854  34.253  28.142  1.00  0.00     0.042 C 
ENDROOT
BRANCH   1   2
ATOM      2  C   UNL A   1      34.315  35.388  29.054  1.00  0.00     0.118 C 
BRANCH   2   3
ATOM      3  N   UNL A   1      33.358  35.621  30.125  1.00  0.00    -0.352 N 
ATOM      4  C   UNL A   1      33.330  35.218  31.437  1.00  0.00     0.251 C 
ATOM      5  O   UNL A   1      32.407  35.611  32.149  1.00  0.00    -0.269 OA
ATOM      6  H   UNL A   1      32.587  36.172  29.859  1.00  0.00     0.163 HD
BRANCH   4   7
ATOM      7  C   UNL A   1      34.428  34.423  32.045  1.00  0.00     0.039 A 
ATOM      8  C   UNL A   1      36.774  33.115  32.793  1.00  0.00     0.041 A 
ATOM      9  C   UNL A   1      36.630  34.477  33.062  1.00  0.00     0.027 A 
ATOM     10  C   UNL A   1      35.684  32.378  32.340  1.00  0.00     0.027 A 
ATOM     11  C   UNL A   1      35.471  35.135  32.653  1.00  0.00     0.016 A 
ATOM     12  C   UNL A   1      34.498  33.031  32.001  1.00  0.00     0.016 A 
BRANCH   8  13
ATOM     13  N   UNL A   1      38.052  32.564  32.923  1.00  0.00    -0.323 N 
ATOM     14  C   UNL A   1      38.758  32.268  34.054  1.00  0.00     0.248 C 
ATOM     15  O   UNL A   1      39.941  31.937  33.965  1.00  0.00    -0.270 OA
ATOM     16  H   UNL A   1      38.510  32.360  32.076  1.00  0.00     0.170 HD
BRANCH  14  17
ATOM     17  C   UNL A   1      38.127  32.274  35.406  1.00  0.00     0.070 C 
ATOM     18  C   UNL A   1      39.031  34.464  36.349  1.00  0.00     0.039 C 
ATOM     19  C   UNL A   1      38.208  33.204  36.382  1.00  0.00    -0.071 C 
ATOM     20  C   UNL A   1      37.390  33.058  37.639  1.00  0.00     0.039 C 
ENDBRANCH  14  17
ENDBRANCH   8  13
ENDBRANCH   4   7
ENDBRANCH   2   3
ENDBRANCH   1   2
BRANCH   1  21
ATOM     21  C   UNL A   1      34.632  32.957  28.348  1.00  0.00     0.118 C 
BRANCH  21  22
ATOM     22  N   UNL A   1      33.857  31.785  27.973  1.00  0.00    -0.352 N 
ATOM     23  C   UNL A   1      34.265  30.490  27.771  1.00  0.00     0.251 C 
ATOM     24  H   UNL A   1      32.893  31.944  27.846  1.00  0.00     0.163 HD
ATOM     25  O   UNL A   1      33.487  29.688  27.263  1.00  0.00    -0.269 OA
BRANCH  23  26
ATOM     26  C   UNL A   1      35.636  30.061  28.139  1.00  0.00     0.039 A 
ATOM     27  C   UNL A   1      36.633  30.090  27.159  1.00  0.00     0.014 A 
ATOM     28  C   UNL A   1      35.937  29.599  29.424  1.00  0.00     0.014 A 
ATOM     29  C   UNL A   1      37.939  29.708  27.482  1.00  0.00     0.010 A 
ATOM     30  C   UNL A   1      37.254  29.291  29.763  1.00  0.00     0.010 A 
ATOM     31  C   UNL A   1      38.268  29.334  28.794  1.00  0.00    -0.014 A 
BRANCH  31  32
ATOM     32  C   UNL A   1      39.663  28.982  29.171  1.00  0.00     0.031 A 
ATOM     33  C   UNL A   1      40.542  29.993  29.857  1.00  0.00     0.074 A 
ATOM     34  C   UNL A   1      40.159  27.774  28.840  1.00  0.00     0.049 A 
ATOM     35  N   UNL A   1      41.799  29.891  30.206  1.00  0.00    -0.248 NA
ATOM     36  C   UNL A   1      39.937  31.299  30.172  1.00  0.00     0.031 C 
ATOM     37  C   UNL A   1      39.424  26.719  28.138  1.00  0.00     0.029 A 
ATOM     38  N   UNL A   1      41.404  27.231  29.042  1.00  0.00    -0.354 N 
ATOM     39  C   UNL A   1      42.142  31.120  30.760  1.00  0.00     0.074 A 
ATOM     40  C   UNL A   1      40.973  31.966  30.662  1.00  0.00     0.031 C 
ATOM     41  C   UNL A   1      40.223  25.650  27.988  1.00  0.00     0.029 A 
ATOM     42  C   UNL A   1      41.539  25.956  28.544  1.00  0.00     0.049 A 
ATOM     43  H   UNL A   1      42.133  27.710  29.499  1.00  0.00     0.167 HD
ATOM     44  C   UNL A   1      43.317  31.504  31.316  1.00  0.00     0.031 A 
ATOM     45  C   UNL A   1      42.600  25.126  28.528  1.00  0.00     0.031 A 
ATOM     46  C   UNL A   1      44.473  30.655  31.426  1.00  0.00     0.049 A 
ATOM     47  C   UNL A   1      43.893  25.574  29.153  1.00  0.00     0.074 A 
ATOM     48  C   UNL A   1      45.690  30.935  32.026  1.00  0.00     0.029 A 
ATOM     49  N   UNL A   1      44.561  29.365  30.927  1.00  0.00    -0.354 N 
ATOM     50  N   UNL A   1      44.175  26.718  29.728  1.00  0.00    -0.248 NA
ATOM     51  C   UNL A   1      45.005  24.614  29.138  1.00  0.00     0.031 C 
ATOM     52  C   UNL A   1      46.529  29.831  31.844  1.00  0.00     0.029 A 
ATOM     53  C   UNL A   1      45.817  28.843  31.185  1.00  0.00     0.049 A 
ATOM     54  H   UNL A   1      43.837  28.890  30.458  1.00  0.00     0.167 HD
ATOM     55  C   UNL A   1      45.490  26.605  30.168  1.00  0.00     0.074 A 
ATOM     56  C   UNL A   1      45.941  25.278  29.803  1.00  0.00     0.031 C 
ATOM     57  C   UNL A   1      46.253  27.519  30.816  1.00  0.00     0.031 A 
BRANCH  44  58
ATOM     58  C   UNL A   1      43.411  32.913  31.841  1.00  0.00    -0.014 A 
ATOM     59  C   UNL A   1      43.692  33.993  30.982  1.00  0.00     0.010 A 
ATOM     60  C   UNL A   1      43.173  33.169  33.204  1.00  0.00     0.010 A 
ATOM     61  C   UNL A   1      43.775  35.294  31.484  1.00  0.00     0.020 A 
ATOM     62  C   UNL A   1      43.227  34.474  33.704  1.00  0.00     0.020 A 
ATOM     63  C   UNL A   1      43.546  35.526  32.844  1.00  0.00     0.054 A 
BRANCH  63  64
ATOM     64  S   UNL A   1      43.640  37.228  33.464  1.00  0.00     0.124 S 
ATOM     65  O   UNL A   1      44.824  37.172  34.318  1.00  0.00    -0.237 OA
ATOM     66  O   UNL A   1      43.787  38.008  32.239  1.00  0.00    -0.237 OA
ATOM     67  O   UNL A   1      42.374  37.411  34.168  1.00  0.00    -0.744 OA
ENDBRANCH  63  64
ENDBRANCH  44  58
BRANCH  45  68
ATOM     68  C   UNL A   1      42.476  23.777  27.910  1.00  0.00    -0.014 A 
ATOM     69  C   UNL A   1      42.849  23.568  26.571  1.00  0.00     0.010 A 
ATOM     70  C   UNL A   1      42.001  22.690  28.665  1.00  0.00     0.010 A 
ATOM     71  C   UNL A   1      42.738  22.300  25.994  1.00  0.00     0.020 A 
ATOM     72  C   UNL A   1      41.913  21.415  28.100  1.00  0.00     0.020 A 
ATOM     73  C   UNL A   1      42.274  21.230  26.764  1.00  0.00     0.054 A 
BRANCH  73  74
ATOM     74  S   UNL A   1      42.194  19.581  26.012  1.00  0.00     0.124 S 
ATOM     75  O   UNL A   1      42.636  18.725  27.109  1.00  0.00    -0.237 OA
ATOM     76  O   UNL A   1      40.784  19.467  25.648  1.00  0.00    -0.237 OA
ATOM     77  O   UNL A   1      43.116  19.677  24.881  1.00  0.00    -0.744 OA
ENDBRANCH  73  74
ENDBRANCH  45  68
BRANCH  57  78
ATOM     78  C   UNL A   1      47.646  27.105  31.211  1.00  0.00    -0.014 A 
ATOM     79  C   UNL A   1      47.894  26.436  32.422  1.00  0.00     0.010 A 
ATOM     80  C   UNL A   1      48.715  27.343  30.327  1.00  0.00     0.010 A 
ATOM     81  C   UNL A   1      49.192  26.041  32.757  1.00  0.00     0.020 A 
ATOM     82  C   UNL A   1      50.009  26.924  30.645  1.00  0.00     0.020 A 
ATOM     83  C   UNL A   1      50.242  26.288  31.867  1.00  0.00     0.054 A 
BRANCH  83  84
ATOM     84  S   UNL A   1      51.910  25.728  32.305  1.00  0.00     0.124 S 
ATOM     85  O   UNL A   1      51.687  24.316  32.606  1.00  0.00    -0.237 OA
ATOM     86  O   UNL A   1      52.671  25.998  31.088  1.00  0.00    -0.237 OA
ATOM     87  O   UNL A   1      52.266  26.561  33.452  1.00  0.00    -0.744 OA
ENDBRANCH  83  84
ENDBRANCH  57  78
ENDBRANCH  31  32
ENDBRANCH  23  26
ENDBRANCH  21  22
ENDBRANCH   1  21
TORSDOF 15
ENDMDL
MODEL 3
REMARK VINA RESULT:      -9.8      3.401      6.458
REMARK SMILES CC(C)=CC(=O)Nc1ccc(C(=O)NCCCNC(=O)c2ccc(-c3c4nc(c(-c5ccc(S(=O)(=O)[O-])cc5)c5ccc([nH]5)c(-c5ccc(S(=O)(=O)[O-])cc5)c5nc(c(-c6ccc(S(=O)(=O)[O-])cc6)c6ccc3[nH]6)C=C5)C=C4)cc2)cc1
REMARK SMILES IDX 16 1 15 2 14 3 12 4 13 5 11 7 8 8 9 9 82 10 10 11 81 12 7 13
REMARK SMILES IDX 5 14 6 15 4 17 1 18 2 19 3 20 17 21 18 22 19 23 20 25 21 26
REMARK SMILES IDX 22 27 80 28 23 29 79 30 24 31 25 32 26 33 73 34 27 35 78 36
REMARK SMILES IDX 72 37 74 38 28 39 77 40 71 41 70 42 29 44 59 45 40 46 58 47
REMARK SMILES IDX 41 48 44 49 57 50 75 51 42 52 43 53 56 55 76 56 45 57 30 58
REMARK SMILES IDX 31 59 39 60 32 61 38 62 33 63 34 64 35 65 36 66 37 67 60 68
REMARK SMILES IDX 61 69 69 70 62 71 68 72 63 73 64 74 65 75 66 76 67 77 46 78
REMARK SMILES IDX 47 79 55 80 48 81 54 82 49 83 50 84 51 85 52 86 53 87
REMARK H PARENT 14 6 7 16 18 24 74 43 44 54
REMARK Flexibility Score: inf
ROOT
ATOM      1  C   UNL A   1      32.183  27.693  27.340  1.00  0.00     0.042 C 
ENDROOT
BRANCH   1   2
ATOM      2  C   UNL A   1      31.948  26.521  26.389  1.00  0.00     0.118 C 
BRANCH   2   3
ATOM      3  N   UNL A   1      31.493  26.986  25.087  1.00  0.00    -0.352 N 
ATOM      4  C   UNL A   1      31.411  26.365  23.866  1.00  0.00     0.251 C 
ATOM      5  O   UNL A   1      30.929  26.992  22.923  1.00  0.00    -0.269 OA
ATOM      6  H   UNL A   1      31.185  27.922  25.082  1.00  0.00     0.163 HD
BRANCH   4   7
ATOM      7  C   UNL A   1      31.780  24.939  23.675  1.00  0.00     0.039 A 
ATOM      8  C   UNL A   1      32.700  22.309  23.785  1.00  0.00     0.041 A 
ATOM      9  C   UNL A   1      31.571  22.674  24.520  1.00  0.00     0.027 A 
ATOM     10  C   UNL A   1      33.238  23.194  22.855  1.00  0.00     0.027 A 
ATOM     11  C   UNL A   1      31.137  23.999  24.492  1.00  0.00     0.016 A 
ATOM     12  C   UNL A   1      32.752  24.499  22.776  1.00  0.00     0.016 A 
BRANCH   8  13
ATOM     13  N   UNL A   1      33.289  21.076  24.079  1.00  0.00    -0.323 N 
ATOM     14  C   UNL A   1      34.464  20.808  24.720  1.00  0.00     0.248 C 
ATOM     15  O   UNL A   1      34.899  19.656  24.741  1.00  0.00    -0.270 OA
ATOM     16  H   UNL A   1      32.784  20.286  23.778  1.00  0.00     0.170 HD
BRANCH  14  17
ATOM     17  C   UNL A   1      35.223  21.861  25.456  1.00  0.00     0.070 C 
ATOM     18  C   UNL A   1      36.802  22.683  23.631  1.00  0.00     0.039 C 
ATOM     19  C   UNL A   1      36.197  22.683  25.009  1.00  0.00    -0.071 C 
ATOM     20  C   UNL A   1      36.753  23.759  25.905  1.00  0.00     0.039 C 
ENDBRANCH  14  17
ENDBRANCH   8  13
ENDBRANCH   4   7
ENDBRANCH   2   3
ENDBRANCH   1   2
BRANCH   1  21
ATOM     21  C   UNL A   1      33.508  28.409  27.102  1.00  0.00     0.118 C 
BRANCH  21  22
ATOM     22  N   UNL A   1      33.420  29.835  27.376  1.00  0.00    -0.352 N 
ATOM     23  C   UNL A   1      34.323  30.670  27.986  1.00  0.00     0.251 C 
ATOM     24  H   UNL A   1      32.587  30.267  27.076  1.00  0.00     0.163 HD
ATOM     25  O   UNL A   1      33.973  31.804  28.300  1.00  0.00    -0.269 OA
BRANCH  23  26
ATOM     26  C   UNL A   1      35.700  30.208  28.286  1.00  0.00     0.039 A 
ATOM     27  C   UNL A   1      36.662  30.266  27.273  1.00  0.00     0.014 A 
ATOM     28  C   UNL A   1      36.040  29.688  29.538  1.00  0.00     0.014 A 
ATOM     29  C   UNL A   1      37.972  29.854  27.532  1.00  0.00     0.010 A 
ATOM     30  C   UNL A   1      37.363  29.349  29.816  1.00  0.00     0.010 A 
ATOM     31  C   UNL A   1      38.343  29.420  28.814  1.00  0.00    -0.014 A 
BRANCH  31  32
ATOM     32  C   UNL A   1      39.745  29.035  29.124  1.00  0.00     0.031 A 
ATOM     33  C   UNL A   1      40.689  30.035  29.738  1.00  0.00     0.074 A 
ATOM     34  C   UNL A   1      40.187  27.805  28.798  1.00  0.00     0.049 A 
ATOM     35  N   UNL A   1      41.960  29.903  30.022  1.00  0.00    -0.248 NA
ATOM     36  C   UNL A   1      40.141  31.366  30.051  1.00  0.00     0.031 C 
ATOM     37  C   UNL A   1      39.385  26.756  28.163  1.00  0.00     0.029 A 
ATOM     38  N   UNL A   1      41.425  27.230  28.947  1.00  0.00    -0.354 N 
ATOM     39  C   UNL A   1      42.368  31.133  30.525  1.00  0.00     0.074 A 
ATOM     40  C   UNL A   1      41.220  32.012  30.468  1.00  0.00     0.031 C 
ATOM     41  C   UNL A   1      40.144  25.661  27.998  1.00  0.00     0.029 A 
ATOM     42  C   UNL A   1      41.495  25.939  28.475  1.00  0.00     0.049 A 
ATOM     43  H   UNL A   1      42.191  27.696  29.353  1.00  0.00     0.167 HD
ATOM     44  C   UNL A   1      43.581  31.495  31.008  1.00  0.00     0.031 A 
ATOM     45  C   UNL A   1      42.529  25.077  28.424  1.00  0.00     0.031 A 
ATOM     46  C   UNL A   1      44.717  30.614  31.078  1.00  0.00     0.049 A 
ATOM     47  C   UNL A   1      43.867  25.500  28.967  1.00  0.00     0.074 A 
ATOM     48  C   UNL A   1      45.972  30.870  31.605  1.00  0.00     0.029 A 
ATOM     49  N   UNL A   1      44.740  29.310  30.607  1.00  0.00    -0.354 N 
ATOM     50  N   UNL A   1      44.213  26.648  29.498  1.00  0.00    -0.248 NA
ATOM     51  C   UNL A   1      44.948  24.507  28.917  1.00  0.00     0.031 C 
ATOM     52  C   UNL A   1      46.768  29.737  31.407  1.00  0.00     0.029 A 
ATOM     53  C   UNL A   1      45.992  28.756  30.811  1.00  0.00     0.049 A 
ATOM     54  H   UNL A   1      43.978  28.846  30.190  1.00  0.00     0.167 HD
ATOM     55  C   UNL A   1      45.546  26.506  29.869  1.00  0.00     0.074 A 
ATOM     56  C   UNL A   1      45.937  25.157  29.515  1.00  0.00     0.031 C 
ATOM     57  C   UNL A   1      46.369  27.411  30.453  1.00  0.00     0.031 A 
BRANCH  44  58
ATOM     58  C   UNL A   1      43.745  32.912  31.491  1.00  0.00    -0.014 A 
ATOM     59  C   UNL A   1      43.496  33.258  32.833  1.00  0.00     0.010 A 
ATOM     60  C   UNL A   1      44.197  33.906  30.603  1.00  0.00     0.010 A 
ATOM     61  C   UNL A   1      43.654  34.577  33.266  1.00  0.00     0.020 A 
ATOM     62  C   UNL A   1      44.384  35.221  31.040  1.00  0.00     0.020 A 
ATOM     63  C   UNL A   1      44.094  35.552  32.364  1.00  0.00     0.054 A 
BRANCH  63  64
ATOM     64  S   UNL A   1      44.310  37.251  32.960  1.00  0.00     0.124 S 
ATOM     65  O   UNL A   1      43.916  38.032  31.789  1.00  0.00    -0.237 OA
ATOM     66  O   UNL A   1      43.393  37.314  34.094  1.00  0.00    -0.237 OA
ATOM     67  O   UNL A   1      45.728  37.320  33.304  1.00  0.00    -0.744 OA
ENDBRANCH  63  64
ENDBRANCH  44  58
BRANCH  45  68
ATOM     68  C   UNL A   1      42.333  23.719  27.847  1.00  0.00    -0.014 A 
ATOM     69  C   UNL A   1      42.590  23.477  26.486  1.00  0.00     0.010 A 
ATOM     70  C   UNL A   1      41.906  22.655  28.662  1.00  0.00     0.010 A 
ATOM     71  C   UNL A   1      42.410  22.199  25.948  1.00  0.00     0.020 A 
ATOM     72  C   UNL A   1      41.751  21.371  28.134  1.00  0.00     0.020 A 
ATOM     73  C   UNL A   1      41.996  21.153  26.776  1.00  0.00     0.054 A 
BRANCH  73  74
ATOM     74  S   UNL A   1      41.828  19.491  26.069  1.00  0.00     0.124 S 
ATOM     75  O   UNL A   1      40.397  19.423  25.789  1.00  0.00    -0.237 OA
ATOM     76  O   UNL A   1      42.700  19.555  24.901  1.00  0.00    -0.237 OA
ATOM     77  O   UNL A   1      42.299  18.616  27.142  1.00  0.00    -0.744 OA
ENDBRANCH  73  74
ENDBRANCH  45  68
BRANCH  57  78
ATOM     78  C   UNL A   1      47.769  26.964  30.783  1.00  0.00    -0.014 A 
ATOM     79  C   UNL A   1      48.850  27.265  29.937  1.00  0.00     0.010 A 
ATOM     80  C   UNL A   1      48.011  26.279  31.988  1.00  0.00     0.010 A 
ATOM     81  C   UNL A   1      50.144  26.861  30.275  1.00  0.00     0.020 A 
ATOM     82  C   UNL A   1      49.307  25.898  32.343  1.00  0.00     0.020 A 
ATOM     83  C   UNL A   1      50.364  26.179  31.476  1.00  0.00     0.054 A 
BRANCH  83  84
ATOM     84  S   UNL A   1      52.059  25.702  31.912  1.00  0.00     0.124 S 
ATOM     85  O   UNL A   1      52.783  25.990  30.678  1.00  0.00    -0.237 OA
ATOM     86  O   UNL A   1      52.361  26.582  33.039  1.00  0.00    -0.237 OA
ATOM     87  O   UNL A   1      51.944  24.285  32.250  1.00  0.00    -0.744 OA
ENDBRANCH  83  84
ENDBRANCH  57  78
ENDBRANCH  31  32
ENDBRANCH  23  26
ENDBRANCH  21  22
ENDBRANCH   1  21
TORSDOF 15
ENDMDL
