MODEL 1
REMARK VINA RESULT:     -11.3      0.000      0.000
REMARK SMILES Cc1cc2c(c(C)c1Br)C=C(C(=O)NCCCNC(=O)c1ccc(-c3c4nc(c(-c5ccc(S(=O)(=O)[O-])cc5)c5ccc([nH]5)c(-c5ccc(S(=O)(=O)[O-])cc5)c5nc(c(-c6ccc(S(=O)(=O)[O-])cc6)c6ccc3[nH]6)C=C5)C=C4)cc1)[C@@H](C(F)(F)F)O2
REMARK SMILES IDX 17 1 16 2 15 3 14 4 12 5 13 6 11 8 1 9 2 10 3 11 8 12 4 13
REMARK SMILES IDX 6 14 9 15 5 16 86 17 7 18 10 19 81 20 82 21 83 22 84 23
REMARK SMILES IDX 85 24 18 25 19 26 20 28 21 29 22 30 80 31 23 32 79 33 24 34
REMARK SMILES IDX 25 35 26 36 73 37 27 38 78 39 72 40 74 41 28 42 77 43 71 44
REMARK SMILES IDX 70 45 29 47 59 48 40 49 58 50 41 51 44 52 57 53 75 54 42 55
REMARK SMILES IDX 43 56 56 58 76 59 45 60 30 61 31 62 39 63 32 64 38 65 33 66
REMARK SMILES IDX 34 67 35 68 36 69 37 70 60 71 61 72 69 73 62 74 68 75 63 76
REMARK SMILES IDX 64 77 65 78 66 79 67 80 46 81 47 82 55 83 48 84 54 85 49 86
REMARK SMILES IDX 50 87 51 88 52 89 53 90
REMARK H PARENT 14 7 18 27 74 46 44 57
REMARK Flexibility Score: inf
ROOT
ATOM      1  C   UNL A   1      36.363  24.077  25.451  1.00  0.00     0.118 C 
ENDROOT
BRANCH   1   2
ATOM      2  C   UNL A   1      35.074  23.914  26.247  1.00  0.00     0.042 C 
BRANCH   2   3
ATOM      3  C   UNL A   1      33.999  23.188  25.454  1.00  0.00     0.118 C 
BRANCH   3   4
ATOM      4  N   UNL A   1      34.076  23.488  24.031  1.00  0.00    -0.352 N 
ATOM      5  C   UNL A   1      33.697  24.489  23.204  1.00  0.00     0.251 C 
ATOM      6  O   UNL A   1      33.989  24.329  22.015  1.00  0.00    -0.270 OA
ATOM      7  H   UNL A   1      34.526  22.765  23.536  1.00  0.00     0.163 HD
BRANCH   5   8
ATOM      8  C   UNL A   1      32.981  25.728  23.629  1.00  0.00     0.067 C 
ATOM      9  C   UNL A   1      30.959  31.462  25.923  1.00  0.00     0.046 C 
ATOM     10  C   UNL A   1      31.748  30.222  25.596  1.00  0.00    -0.033 A 
ATOM     11  C   UNL A   1      31.197  29.362  24.641  1.00  0.00     0.051 A 
ATOM     12  C   UNL A   1      32.956  29.851  26.226  1.00  0.00     0.024 A 
ATOM     13  C   UNL A   1      31.835  28.178  24.299  1.00  0.00     0.128 A 
ATOM     14  C   UNL A   1      33.633  28.657  25.864  1.00  0.00    -0.026 A 
ATOM     15  Br  UNL A   1      33.659  30.992  27.595  1.00  0.00    -0.050 Br
ATOM     16  C   UNL A   1      33.054  27.817  24.879  1.00  0.00     0.021 A 
ATOM     17  O   UNL A   1      31.206  27.437  23.341  1.00  0.00    -0.475 OA
ATOM     18  C   UNL A   1      34.950  28.247  26.484  1.00  0.00     0.046 C 
ATOM     19  C   UNL A   1      33.685  26.584  24.395  1.00  0.00     0.026 C 
ATOM     20  C   UNL A   1      31.558  26.034  23.276  1.00  0.00     0.314 C 
BRANCH  20  21
ATOM     21  C   UNL A   1      30.554  25.211  24.105  1.00  0.00     0.429 C 
ATOM     22  F   UNL A   1      30.257  24.047  23.476  1.00  0.00    -0.167 F 
ATOM     23  F   UNL A   1      31.036  24.873  25.326  1.00  0.00    -0.167 F 
ATOM     24  F   UNL A   1      29.390  25.866  24.317  1.00  0.00    -0.167 F 
ENDBRANCH  20  21
ENDBRANCH   5   8
ENDBRANCH   3   4
ENDBRANCH   2   3
ENDBRANCH   1   2
BRANCH   1  25
ATOM     25  N   UNL A   1      37.288  22.972  25.689  1.00  0.00    -0.352 N 
ATOM     26  C   UNL A   1      38.584  22.987  26.142  1.00  0.00     0.251 C 
ATOM     27  H   UNL A   1      36.928  22.077  25.494  1.00  0.00     0.163 HD
ATOM     28  O   UNL A   1      39.290  21.991  25.999  1.00  0.00    -0.269 OA
BRANCH  26  29
ATOM     29  C   UNL A   1      39.121  24.196  26.794  1.00  0.00     0.039 A 
ATOM     30  C   UNL A   1      39.890  25.095  26.053  1.00  0.00     0.014 A 
ATOM     31  C   UNL A   1      38.877  24.429  28.150  1.00  0.00     0.014 A 
ATOM     32  C   UNL A   1      40.356  26.263  26.661  1.00  0.00     0.010 A 
ATOM     33  C   UNL A   1      39.252  25.634  28.723  1.00  0.00     0.010 A 
ATOM     34  C   UNL A   1      40.009  26.557  27.989  1.00  0.00    -0.014 A 
BRANCH  34  35
ATOM     35  C   UNL A   1      40.459  27.805  28.652  1.00  0.00     0.031 A 
ATOM     36  C   UNL A   1      41.875  27.912  29.151  1.00  0.00     0.074 A 
ATOM     37  C   UNL A   1      39.587  28.815  28.839  1.00  0.00     0.049 A 
ATOM     38  N   UNL A   1      42.443  28.887  29.812  1.00  0.00    -0.248 NA
ATOM     39  C   UNL A   1      42.765  26.766  28.893  1.00  0.00     0.031 C 
ATOM     40  C   UNL A   1      38.184  28.817  28.414  1.00  0.00     0.029 A 
ATOM     41  N   UNL A   1      39.754  30.043  29.426  1.00  0.00    -0.354 N 
ATOM     42  C   UNL A   1      43.748  28.472  30.045  1.00  0.00     0.074 A 
ATOM     43  C   UNL A   1      43.871  27.131  29.523  1.00  0.00     0.031 C 
ATOM     44  C   UNL A   1      37.636  30.008  28.708  1.00  0.00     0.029 A 
ATOM     45  C   UNL A   1      38.630  30.835  29.383  1.00  0.00     0.049 A 
ATOM     46  H   UNL A   1      40.599  30.331  29.842  1.00  0.00     0.167 HD
ATOM     47  C   UNL A   1      44.768  29.161  30.608  1.00  0.00     0.031 A 
ATOM     48  C   UNL A   1      38.429  32.088  29.832  1.00  0.00     0.031 A 
ATOM     49  C   UNL A   1      44.647  30.502  31.109  1.00  0.00     0.049 A 
ATOM     50  C   UNL A   1      39.565  32.808  30.509  1.00  0.00     0.074 A 
ATOM     51  C   UNL A   1      45.622  31.294  31.688  1.00  0.00     0.029 A 
ATOM     52  N   UNL A   1      43.482  31.254  31.078  1.00  0.00    -0.354 N 
ATOM     53  N   UNL A   1      40.798  32.405  30.703  1.00  0.00    -0.248 NA
ATOM     54  C   UNL A   1      39.281  34.155  31.027  1.00  0.00     0.031 C 
ATOM     55  C   UNL A   1      45.037  32.513  32.044  1.00  0.00     0.029 A 
ATOM     56  C   UNL A   1      43.712  32.498  31.638  1.00  0.00     0.049 A 
ATOM     57  H   UNL A   1      42.622  30.947  30.713  1.00  0.00     0.167 HD
ATOM     58  C   UNL A   1      41.445  33.461  31.336  1.00  0.00     0.074 A 
ATOM     59  C   UNL A   1      40.472  34.524  31.479  1.00  0.00     0.031 C 
ATOM     60  C   UNL A   1      42.730  33.544  31.761  1.00  0.00     0.031 A 
BRANCH  47  61
ATOM     61  C   UNL A   1      46.113  28.489  30.676  1.00  0.00    -0.014 A 
ATOM     62  C   UNL A   1      46.454  27.689  31.781  1.00  0.00     0.010 A 
ATOM     63  C   UNL A   1      47.017  28.602  29.605  1.00  0.00     0.010 A 
ATOM     64  C   UNL A   1      47.683  27.029  31.824  1.00  0.00     0.020 A 
ATOM     65  C   UNL A   1      48.238  27.921  29.632  1.00  0.00     0.020 A 
ATOM     66  C   UNL A   1      48.566  27.144  30.746  1.00  0.00     0.054 A 
BRANCH  66  67
ATOM     67  S   UNL A   1      50.130  26.228  30.811  1.00  0.00     0.124 S 
ATOM     68  O   UNL A   1      50.128  25.725  32.182  1.00  0.00    -0.237 OA
ATOM     69  O   UNL A   1      49.948  25.219  29.771  1.00  0.00    -0.237 OA
ATOM     70  O   UNL A   1      51.139  27.243  30.522  1.00  0.00    -0.744 OA
ENDBRANCH  66  67
ENDBRANCH  47  61
BRANCH  48  71
ATOM     71  C   UNL A   1      37.116  32.762  29.632  1.00  0.00    -0.014 A 
ATOM     72  C   UNL A   1      36.856  33.457  28.437  1.00  0.00     0.010 A 
ATOM     73  C   UNL A   1      36.126  32.725  30.629  1.00  0.00     0.010 A 
ATOM     74  C   UNL A   1      35.644  34.128  28.256  1.00  0.00     0.020 A 
ATOM     75  C   UNL A   1      34.900  33.370  30.440  1.00  0.00     0.020 A 
ATOM     76  C   UNL A   1      34.674  34.082  29.260  1.00  0.00     0.054 A 
BRANCH  76  77
ATOM     77  S   UNL A   1      33.100  34.946  28.991  1.00  0.00     0.124 S 
ATOM     78  O   UNL A   1      33.548  36.256  28.532  1.00  0.00    -0.237 OA
ATOM     79  O   UNL A   1      32.451  34.109  27.985  1.00  0.00    -0.237 OA
ATOM     80  O   UNL A   1      32.470  34.925  30.310  1.00  0.00    -0.744 OA
ENDBRANCH  76  77
ENDBRANCH  48  71
BRANCH  60  81
ATOM     81  C   UNL A   1      43.172  34.834  32.394  1.00  0.00    -0.014 A 
ATOM     82  C   UNL A   1      43.694  35.880  31.613  1.00  0.00     0.010 A 
ATOM     83  C   UNL A   1      42.978  35.032  33.773  1.00  0.00     0.010 A 
ATOM     84  C   UNL A   1      44.033  37.098  32.208  1.00  0.00     0.020 A 
ATOM     85  C   UNL A   1      43.290  36.258  34.365  1.00  0.00     0.020 A 
ATOM     86  C   UNL A   1      43.823  37.281  33.579  1.00  0.00     0.054 A 
BRANCH  86  87
ATOM     87  S   UNL A   1      44.209  38.896  34.307  1.00  0.00     0.124 S 
ATOM     88  O   UNL A   1      44.286  38.577  35.729  1.00  0.00    -0.237 OA
ATOM     89  O   UNL A   1      45.479  39.236  33.669  1.00  0.00    -0.237 OA
ATOM     90  O   UNL A   1      43.077  39.733  33.916  1.00  0.00    -0.744 OA
ENDBRANCH  86  87
ENDBRANCH  60  81
ENDBRANCH  34  35
ENDBRANCH  26  29
ENDBRANCH   1  25
TORSDOF 14
ENDMDL
MODEL 2
REMARK VINA RESULT:     -11.3      2.951      9.259
REMARK SMILES Cc1cc2c(c(C)c1Br)C=C(C(=O)NCCCNC(=O)c1ccc(-c3c4nc(c(-c5ccc(S(=O)(=O)[O-])cc5)c5ccc([nH]5)c(-c5ccc(S(=O)(=O)[O-])cc5)c5nc(c(-c6ccc(S(=O)(=O)[O-])cc6)c6ccc3[nH]6)C=C5)C=C4)cc1)[C@@H](C(F)(F)F)O2
REMARK SMILES IDX 17 1 16 2 15 3 14 4 12 5 13 6 11 8 1 9 2 10 3 11 8 12 4 13
REMARK SMILES IDX 6 14 9 15 5 16 86 17 7 18 10 19 81 20 82 21 83 22 84 23
REMARK SMILES IDX 85 24 18 25 19 26 20 28 21 29 22 30 80 31 23 32 79 33 24 34
REMARK SMILES IDX 25 35 26 36 73 37 27 38 78 39 72 40 74 41 28 42 77 43 71 44
REMARK SMILES IDX 70 45 29 47 59 48 40 49 58 50 41 51 44 52 57 53 75 54 42 55
REMARK SMILES IDX 43 56 56 58 76 59 45 60 30 61 31 62 39 63 32 64 38 65 33 66
REMARK SMILES IDX 34 67 35 68 36 69 37 70 60 71 61 72 69 73 62 74 68 75 63 76
REMARK SMILES IDX 64 77 65 78 66 79 67 80 46 81 47 82 55 83 48 84 54 85 49 86
REMARK SMILES IDX 50 87 51 88 52 89 53 90
REMARK H PARENT 14 7 18 27 74 46 44 57
REMARK Flexibility Score: inf
ROOT
ATOM      1  C   UNL A   1      33.617  28.126  26.869  1.00  0.00     0.118 C 
ENDROOT
BRANCH   1   2
ATOM      2  C   UNL A   1      33.925  27.821  25.409  1.00  0.00     0.042 C 
BRANCH   2   3
ATOM      3  C   UNL A   1      32.714  27.271  24.672  1.00  0.00     0.118 C 
BRANCH   3   4
ATOM      4  N   UNL A   1      31.784  26.605  25.573  1.00  0.00    -0.352 N 
ATOM      5  C   UNL A   1      31.580  25.353  26.043  1.00  0.00     0.251 C 
ATOM      6  O   UNL A   1      30.641  25.235  26.837  1.00  0.00    -0.270 OA
ATOM      7  H   UNL A   1      31.124  27.237  25.939  1.00  0.00     0.163 HD
BRANCH   5   8
ATOM      8  C   UNL A   1      32.394  24.156  25.680  1.00  0.00     0.067 C 
ATOM      9  C   UNL A   1      36.805  19.467  24.793  1.00  0.00     0.046 C 
ATOM     10  C   UNL A   1      36.087  20.739  25.158  1.00  0.00    -0.033 A 
ATOM     11  C   UNL A   1      34.700  20.748  24.982  1.00  0.00     0.051 A 
ATOM     12  C   UNL A   1      36.723  21.919  25.600  1.00  0.00     0.024 A 
ATOM     13  C   UNL A   1      33.956  21.887  25.259  1.00  0.00     0.128 A 
ATOM     14  C   UNL A   1      35.970  23.082  25.915  1.00  0.00    -0.026 A 
ATOM     15  Br  UNL A   1      38.632  21.925  25.756  1.00  0.00    -0.050 Br
ATOM     16  C   UNL A   1      34.563  23.050  25.741  1.00  0.00     0.021 A 
ATOM     17  O   UNL A   1      32.612  21.762  25.066  1.00  0.00    -0.475 OA
ATOM     18  C   UNL A   1      36.610  24.350  26.433  1.00  0.00     0.046 C 
ATOM     19  C   UNL A   1      33.681  24.174  26.076  1.00  0.00     0.026 C 
ATOM     20  C   UNL A   1      31.867  22.993  24.898  1.00  0.00     0.314 C 
BRANCH  20  21
ATOM     21  C   UNL A   1      31.721  23.307  23.396  1.00  0.00     0.429 C 
ATOM     22  F   UNL A   1      31.904  22.187  22.655  1.00  0.00    -0.167 F 
ATOM     23  F   UNL A   1      30.491  23.779  23.078  1.00  0.00    -0.167 F 
ATOM     24  F   UNL A   1      32.612  24.229  22.966  1.00  0.00    -0.167 F 
ENDBRANCH  20  21
ENDBRANCH   5   8
ENDBRANCH   3   4
ENDBRANCH   2   3
ENDBRANCH   1   2
BRANCH   1  25
ATOM     25  N   UNL A   1      33.542  29.564  27.117  1.00  0.00    -0.352 N 
ATOM     26  C   UNL A   1      34.409  30.391  27.788  1.00  0.00     0.251 C 
ATOM     27  H   UNL A   1      32.747  30.010  26.746  1.00  0.00     0.163 HD
ATOM     28  O   UNL A   1      34.033  31.507  28.142  1.00  0.00    -0.269 OA
BRANCH  26  29
ATOM     29  C   UNL A   1      35.781  29.936  28.081  1.00  0.00     0.039 A 
ATOM     30  C   UNL A   1      36.774  30.073  27.110  1.00  0.00     0.014 A 
ATOM     31  C   UNL A   1      36.078  29.356  29.316  1.00  0.00     0.014 A 
ATOM     32  C   UNL A   1      38.083  29.687  27.408  1.00  0.00     0.010 A 
ATOM     33  C   UNL A   1      37.394  29.068  29.646  1.00  0.00     0.010 A 
ATOM     34  C   UNL A   1      38.408  29.215  28.690  1.00  0.00    -0.014 A 
BRANCH  34  35
ATOM     35  C   UNL A   1      39.793  28.830  29.048  1.00  0.00     0.031 A 
ATOM     36  C   UNL A   1      40.660  29.798  29.809  1.00  0.00     0.074 A 
ATOM     37  C   UNL A   1      40.279  27.636  28.656  1.00  0.00     0.049 A 
ATOM     38  N   UNL A   1      41.914  29.680  30.159  1.00  0.00    -0.248 NA
ATOM     39  C   UNL A   1      40.045  31.076  30.210  1.00  0.00     0.031 C 
ATOM     40  C   UNL A   1      39.538  26.624  27.898  1.00  0.00     0.029 A 
ATOM     41  N   UNL A   1      41.511  27.065  28.848  1.00  0.00    -0.354 N 
ATOM     42  C   UNL A   1      42.234  30.860  30.818  1.00  0.00     0.074 A 
ATOM     43  C   UNL A   1      41.069  31.713  30.757  1.00  0.00     0.031 C 
ATOM     44  C   UNL A   1      40.313  25.538  27.738  1.00  0.00     0.029 A 
ATOM     45  C   UNL A   1      41.618  25.793  28.336  1.00  0.00     0.049 A 
ATOM     46  H   UNL A   1      42.251  27.523  29.309  1.00  0.00     0.167 HD
ATOM     47  C   UNL A   1      43.381  31.191  31.455  1.00  0.00     0.031 A 
ATOM     48  C   UNL A   1      42.651  24.930  28.354  1.00  0.00     0.031 A 
ATOM     49  C   UNL A   1      44.531  30.332  31.530  1.00  0.00     0.049 A 
ATOM     50  C   UNL A   1      43.936  25.349  29.017  1.00  0.00     0.074 A 
ATOM     51  C   UNL A   1      45.739  30.568  32.161  1.00  0.00     0.029 A 
ATOM     52  N   UNL A   1      44.609  29.068  30.967  1.00  0.00    -0.354 N 
ATOM     53  N   UNL A   1      44.212  26.463  29.652  1.00  0.00    -0.248 NA
ATOM     54  C   UNL A   1      45.051  24.390  28.967  1.00  0.00     0.031 C 
ATOM     55  C   UNL A   1      46.564  29.460  31.945  1.00  0.00     0.029 A 
ATOM     56  C   UNL A   1      45.850  28.515  31.227  1.00  0.00     0.049 A 
ATOM     57  H   UNL A   1      43.889  28.630  30.459  1.00  0.00     0.167 HD
ATOM     58  C   UNL A   1      45.519  26.326  30.104  1.00  0.00     0.074 A 
ATOM     59  C   UNL A   1      45.975  25.018  29.683  1.00  0.00     0.031 C 
ATOM     60  C   UNL A   1      46.277  27.206  30.805  1.00  0.00     0.031 A 
BRANCH  47  61
ATOM     61  C   UNL A   1      43.435  32.523  32.153  1.00  0.00    -0.014 A 
ATOM     62  C   UNL A   1      43.039  32.639  33.498  1.00  0.00     0.010 A 
ATOM     63  C   UNL A   1      43.944  33.652  31.488  1.00  0.00     0.010 A 
ATOM     64  C   UNL A   1      43.132  33.864  34.159  1.00  0.00     0.020 A 
ATOM     65  C   UNL A   1      44.064  34.875  32.155  1.00  0.00     0.020 A 
ATOM     66  C   UNL A   1      43.649  34.974  33.486  1.00  0.00     0.054 A 
BRANCH  66  67
ATOM     67  S   UNL A   1      43.808  36.536  34.394  1.00  0.00     0.124 S 
ATOM     68  O   UNL A   1      43.168  37.481  33.482  1.00  0.00    -0.237 OA
ATOM     69  O   UNL A   1      43.077  36.261  35.628  1.00  0.00    -0.237 OA
ATOM     70  O   UNL A   1      45.250  36.702  34.550  1.00  0.00    -0.744 OA
ENDBRANCH  66  67
ENDBRANCH  47  61
BRANCH  48  71
ATOM     71  C   UNL A   1      42.512  23.572  27.759  1.00  0.00    -0.014 A 
ATOM     72  C   UNL A   1      41.931  22.531  28.506  1.00  0.00     0.010 A 
ATOM     73  C   UNL A   1      42.966  23.305  26.455  1.00  0.00     0.010 A 
ATOM     74  C   UNL A   1      41.834  21.243  27.973  1.00  0.00     0.020 A 
ATOM     75  C   UNL A   1      42.845  22.024  25.907  1.00  0.00     0.020 A 
ATOM     76  C   UNL A   1      42.294  20.997  26.677  1.00  0.00     0.054 A 
BRANCH  76  77
ATOM     77  S   UNL A   1      42.138  19.320  26.001  1.00  0.00     0.124 S 
ATOM     78  O   UNL A   1      42.677  18.505  27.085  1.00  0.00    -0.237 OA
ATOM     79  O   UNL A   1      40.700  19.205  25.775  1.00  0.00    -0.237 OA
ATOM     80  O   UNL A   1      42.951  19.365  24.786  1.00  0.00    -0.744 OA
ENDBRANCH  76  77
ENDBRANCH  48  71
BRANCH  60  81
ATOM     81  C   UNL A   1      47.666  26.776  31.190  1.00  0.00    -0.014 A 
ATOM     82  C   UNL A   1      48.768  27.076  30.371  1.00  0.00     0.010 A 
ATOM     83  C   UNL A   1      47.877  26.142  32.428  1.00  0.00     0.010 A 
ATOM     84  C   UNL A   1      50.059  26.732  30.778  1.00  0.00     0.020 A 
ATOM     85  C   UNL A   1      49.170  25.823  32.851  1.00  0.00     0.020 A 
ATOM     86  C   UNL A   1      50.252  26.113  32.018  1.00  0.00     0.054 A 
BRANCH  86  87
ATOM     87  S   UNL A   1      51.946  25.741  32.547  1.00  0.00     0.124 S 
ATOM     88  O   UNL A   1      51.890  26.039  33.975  1.00  0.00    -0.237 OA
ATOM     89  O   UNL A   1      52.083  24.328  32.204  1.00  0.00    -0.237 OA
ATOM     90  O   UNL A   1      52.766  26.652  31.751  1.00  0.00    -0.744 OA
ENDBRANCH  86  87
ENDBRANCH  60  81
ENDBRANCH  34  35
ENDBRANCH  26  29
ENDBRANCH   1  25
TORSDOF 14
ENDMDL
MODEL 3
REMARK VINA RESULT:     -10.9      3.534      9.320
REMARK SMILES Cc1cc2c(c(C)c1Br)C=C(C(=O)NCCCNC(=O)c1ccc(-c3c4nc(c(-c5ccc(S(=O)(=O)[O-])cc5)c5ccc([nH]5)c(-c5ccc(S(=O)(=O)[O-])cc5)c5nc(c(-c6ccc(S(=O)(=O)[O-])cc6)c6ccc3[nH]6)C=C5)C=C4)cc1)[C@@H](C(F)(F)F)O2
REMARK SMILES IDX 17 1 16 2 15 3 14 4 12 5 13 6 11 8 1 9 2 10 3 11 8 12 4 13
REMARK SMILES IDX 6 14 9 15 5 16 86 17 7 18 10 19 81 20 82 21 83 22 84 23
REMARK SMILES IDX 85 24 18 25 19 26 20 28 21 29 22 30 80 31 23 32 79 33 24 34
REMARK SMILES IDX 25 35 26 36 73 37 27 38 78 39 72 40 74 41 28 42 77 43 71 44
REMARK SMILES IDX 70 45 29 47 59 48 40 49 58 50 41 51 44 52 57 53 75 54 42 55
REMARK SMILES IDX 43 56 56 58 76 59 45 60 30 61 31 62 39 63 32 64 38 65 33 66
REMARK SMILES IDX 34 67 35 68 36 69 37 70 60 71 61 72 69 73 62 74 68 75 63 76
REMARK SMILES IDX 64 77 65 78 66 79 67 80 46 81 47 82 55 83 48 84 54 85 49 86
REMARK SMILES IDX 50 87 51 88 52 89 53 90
REMARK H PARENT 14 7 18 27 74 46 44 57
REMARK Flexibility Score: inf
ROOT
ATOM      1  C   UNL A   1      34.302  28.703  26.067  1.00  0.00     0.118 C 
ENDROOT
BRANCH   1   2
ATOM      2  C   UNL A   1      34.100  28.427  24.583  1.00  0.00     0.042 C 
BRANCH   2   3
ATOM      3  C   UNL A   1      32.667  28.030  24.264  1.00  0.00     0.118 C 
BRANCH   3   4
ATOM      4  N   UNL A   1      31.903  27.734  25.468  1.00  0.00    -0.352 N 
ATOM      5  C   UNL A   1      31.501  26.634  26.145  1.00  0.00     0.251 C 
ATOM      6  O   UNL A   1      30.853  26.856  27.173  1.00  0.00    -0.270 OA
ATOM      7  H   UNL A   1      31.594  28.559  25.908  1.00  0.00     0.163 HD
BRANCH   5   8
ATOM      8  C   UNL A   1      31.790  25.226  25.744  1.00  0.00     0.067 C 
ATOM      9  C   UNL A   1      34.139  19.292  24.522  1.00  0.00     0.046 C 
ATOM     10  C   UNL A   1      33.966  20.737  24.906  1.00  0.00    -0.033 A 
ATOM     11  C   UNL A   1      32.655  21.224  24.935  1.00  0.00     0.051 A 
ATOM     12  C   UNL A   1      35.027  21.628  25.173  1.00  0.00     0.024 A 
ATOM     13  C   UNL A   1      32.398  22.553  25.245  1.00  0.00     0.128 A 
ATOM     14  C   UNL A   1      34.776  22.983  25.520  1.00  0.00    -0.026 A 
ATOM     15  Br  UNL A   1      36.823  20.974  25.045  1.00  0.00    -0.050 Br
ATOM     16  C   UNL A   1      33.434  23.438  25.557  1.00  0.00     0.021 A 
ATOM     17  O   UNL A   1      31.079  22.899  25.260  1.00  0.00    -0.475 OA
ATOM     18  C   UNL A   1      35.883  23.956  25.855  1.00  0.00     0.046 C 
ATOM     19  C   UNL A   1      33.052  24.802  25.944  1.00  0.00     0.026 C 
ATOM     20  C   UNL A   1      30.781  24.310  25.124  1.00  0.00     0.314 C 
BRANCH  20  21
ATOM     21  C   UNL A   1      30.512  24.641  23.644  1.00  0.00     0.429 C 
ATOM     22  F   UNL A   1      30.098  23.536  22.976  1.00  0.00    -0.167 F 
ATOM     23  F   UNL A   1      29.539  25.571  23.484  1.00  0.00    -0.167 F 
ATOM     24  F   UNL A   1      31.607  25.114  23.006  1.00  0.00    -0.167 F 
ENDBRANCH  20  21
ENDBRANCH   5   8
ENDBRANCH   3   4
ENDBRANCH   2   3
ENDBRANCH   1   2
BRANCH   1  25
ATOM     25  N   UNL A   1      33.901  30.062  26.424  1.00  0.00    -0.352 N 
ATOM     26  C   UNL A   1      34.331  30.869  27.447  1.00  0.00     0.251 C 
ATOM     27  H   UNL A   1      33.217  30.461  25.840  1.00  0.00     0.163 HD
ATOM     28  O   UNL A   1      33.672  31.859  27.759  1.00  0.00    -0.269 OA
BRANCH  26  29
ATOM     29  C   UNL A   1      35.577  30.545  28.167  1.00  0.00     0.039 A 
ATOM     30  C   UNL A   1      35.537  29.669  29.254  1.00  0.00     0.014 A 
ATOM     31  C   UNL A   1      36.785  31.126  27.775  1.00  0.00     0.014 A 
ATOM     32  C   UNL A   1      36.725  29.325  29.902  1.00  0.00     0.010 A 
ATOM     33  C   UNL A   1      37.973  30.707  28.353  1.00  0.00     0.010 A 
ATOM     34  C   UNL A   1      37.955  29.815  29.433  1.00  0.00    -0.014 A 
BRANCH  34  35
ATOM     35  C   UNL A   1      39.236  29.441  30.078  1.00  0.00     0.031 A 
ATOM     36  C   UNL A   1      39.695  30.185  31.304  1.00  0.00     0.074 A 
ATOM     37  C   UNL A   1      39.999  28.470  29.539  1.00  0.00     0.049 A 
ATOM     38  N   UNL A   1      40.809  30.057  31.975  1.00  0.00    -0.248 NA
ATOM     39  C   UNL A   1      38.793  31.223  31.834  1.00  0.00     0.031 C 
ATOM     40  C   UNL A   1      39.666  27.693  28.341  1.00  0.00     0.029 A 
ATOM     41  N   UNL A   1      41.210  27.961  29.934  1.00  0.00    -0.354 N 
ATOM     42  C   UNL A   1      40.741  30.992  33.000  1.00  0.00     0.074 A 
ATOM     43  C   UNL A   1      39.513  31.732  32.823  1.00  0.00     0.031 C 
ATOM     44  C   UNL A   1      40.623  26.774  28.132  1.00  0.00     0.029 A 
ATOM     45  C   UNL A   1      41.658  26.925  29.148  1.00  0.00     0.049 A 
ATOM     46  H   UNL A   1      41.713  28.306  30.708  1.00  0.00     0.167 HD
ATOM     47  C   UNL A   1      41.603  31.191  34.023  1.00  0.00     0.031 A 
ATOM     48  C   UNL A   1      42.775  26.179  29.243  1.00  0.00     0.031 A 
ATOM     49  C   UNL A   1      42.815  30.441  34.207  1.00  0.00     0.049 A 
ATOM     50  C   UNL A   1      43.747  26.464  30.357  1.00  0.00     0.074 A 
ATOM     51  C   UNL A   1      43.752  30.557  35.218  1.00  0.00     0.029 A 
ATOM     52  N   UNL A   1      43.248  29.425  33.369  1.00  0.00    -0.354 N 
ATOM     53  N   UNL A   1      43.654  27.341  31.328  1.00  0.00    -0.248 NA
ATOM     54  C   UNL A   1      44.975  25.656  30.388  1.00  0.00     0.031 C 
ATOM     55  C   UNL A   1      44.775  29.637  34.968  1.00  0.00     0.029 A 
ATOM     56  C   UNL A   1      44.446  28.914  33.833  1.00  0.00     0.049 A 
ATOM     57  H   UNL A   1      42.774  29.117  32.564  1.00  0.00     0.167 HD
ATOM     58  C   UNL A   1      44.795  27.168  32.103  1.00  0.00     0.074 A 
ATOM     59  C   UNL A   1      45.555  26.095  31.497  1.00  0.00     0.031 C 
ATOM     60  C   UNL A   1      45.180  27.838  33.218  1.00  0.00     0.031 A 
BRANCH  47  61
ATOM     61  C   UNL A   1      41.247  32.238  35.045  1.00  0.00    -0.014 A 
ATOM     62  C   UNL A   1      41.655  33.573  34.869  1.00  0.00     0.010 A 
ATOM     63  C   UNL A   1      40.447  31.906  36.152  1.00  0.00     0.010 A 
ATOM     64  C   UNL A   1      41.287  34.553  35.791  1.00  0.00     0.020 A 
ATOM     65  C   UNL A   1      40.053  32.890  37.064  1.00  0.00     0.020 A 
ATOM     66  C   UNL A   1      40.483  34.207  36.881  1.00  0.00     0.054 A 
BRANCH  66  67
ATOM     67  S   UNL A   1      39.977  35.516  38.030  1.00  0.00     0.124 S 
ATOM     68  O   UNL A   1      41.121  35.580  38.936  1.00  0.00    -0.237 OA
ATOM     69  O   UNL A   1      39.811  36.666  37.145  1.00  0.00    -0.237 OA
ATOM     70  O   UNL A   1      38.744  35.003  38.620  1.00  0.00    -0.744 OA
ENDBRANCH  66  67
ENDBRANCH  47  61
BRANCH  48  71
ATOM     71  C   UNL A   1      43.026  25.069  28.282  1.00  0.00    -0.014 A 
ATOM     72  C   UNL A   1      43.711  25.321  27.080  1.00  0.00     0.010 A 
ATOM     73  C   UNL A   1      42.577  23.765  28.552  1.00  0.00     0.010 A 
ATOM     74  C   UNL A   1      43.916  24.295  26.152  1.00  0.00     0.020 A 
ATOM     75  C   UNL A   1      42.804  22.730  27.640  1.00  0.00     0.020 A 
ATOM     76  C   UNL A   1      43.459  23.007  26.437  1.00  0.00     0.054 A 
BRANCH  76  77
ATOM     77  S   UNL A   1      43.754  21.689  25.224  1.00  0.00     0.124 S 
ATOM     78  O   UNL A   1      42.673  20.756  25.521  1.00  0.00    -0.237 OA
ATOM     79  O   UNL A   1      43.645  22.402  23.954  1.00  0.00    -0.237 OA
ATOM     80  O   UNL A   1      45.098  21.217  25.553  1.00  0.00    -0.744 OA
ENDBRANCH  76  77
ENDBRANCH  48  71
BRANCH  60  81
ATOM     81  C   UNL A   1      46.464  27.414  33.876  1.00  0.00    -0.014 A 
ATOM     82  C   UNL A   1      46.479  26.389  34.838  1.00  0.00     0.010 A 
ATOM     83  C   UNL A   1      47.679  27.987  33.459  1.00  0.00     0.010 A 
ATOM     84  C   UNL A   1      47.689  25.959  35.386  1.00  0.00     0.020 A 
ATOM     85  C   UNL A   1      48.893  27.539  33.985  1.00  0.00     0.020 A 
ATOM     86  C   UNL A   1      48.889  26.533  34.952  1.00  0.00     0.054 A 
BRANCH  86  87
ATOM     87  S   UNL A   1      50.447  25.904  35.634  1.00  0.00     0.124 S 
ATOM     88  O   UNL A   1      50.041  24.613  36.180  1.00  0.00    -0.237 OA
ATOM     89  O   UNL A   1      51.308  25.846  34.455  1.00  0.00    -0.237 OA
ATOM     90  O   UNL A   1      50.824  26.910  36.625  1.00  0.00    -0.744 OA
ENDBRANCH  86  87
ENDBRANCH  60  81
ENDBRANCH  34  35
ENDBRANCH  26  29
ENDBRANCH   1  25
TORSDOF 14
ENDMDL
