MODEL 1
REMARK VINA RESULT:     -12.2      0.000      0.000
REMARK SMILES O=C(NCCCNC(=O)c1cccn1CC(=O)N1CCC[C@H]2CCCC[C@H]21)c1ccc(-c2c3nc(c(-c4ccc(S(=O)(=O)[O-])cc4)c4ccc([nH]4)c(-c4ccc(S(=O)(=O)[O-])cc4)c4nc(c(-c5ccc(S(=O)(=O)[O-])cc5)c5ccc2[nH]5)C=C4)C=C3)cc1
REMARK SMILES IDX 5 1 4 2 3 3 1 4 2 5 28 7 29 8 87 9 30 10 86 11 31 12 32 13
REMARK SMILES IDX 33 14 80 15 34 16 85 17 79 18 81 19 35 20 84 21 78 22 77 23
REMARK SMILES IDX 36 25 66 26 47 27 65 28 48 29 51 30 64 31 82 32 49 33 50 34
REMARK SMILES IDX 63 36 83 37 52 38 37 39 38 40 46 41 39 42 45 43 40 44 41 45
REMARK SMILES IDX 42 46 43 47 44 48 67 49 68 50 76 51 69 52 75 53 70 54 71 55
REMARK SMILES IDX 72 56 73 57 74 58 53 59 54 60 62 61 55 62 61 63 56 64 57 65
REMARK SMILES IDX 58 66 59 67 60 68 6 69 7 70 8 71 9 73 10 74 11 75 14 76
REMARK SMILES IDX 12 77 13 78 15 79 16 80 17 81 18 82 19 83 27 84 20 85 22 86
REMARK SMILES IDX 26 87 21 88 23 89 25 90 24 91
REMARK H PARENT 3 6 81 24 51 35 7 72
REMARK Flexibility Score: inf
ROOT
ATOM      1  C   UNL A   1      33.083  28.635  27.204  1.00  0.00     0.042 C 
ENDROOT
BRANCH   1   2
ATOM      2  C   UNL A   1      34.530  29.014  26.888  1.00  0.00     0.118 C 
BRANCH   2   3
ATOM      3  N   UNL A   1      34.990  30.304  27.372  1.00  0.00    -0.352 N 
ATOM      4  O   UNL A   1      36.307  31.969  28.055  1.00  0.00    -0.269 OA
ATOM      5  C   UNL A   1      36.206  30.770  27.802  1.00  0.00     0.251 C 
ATOM      6  H   UNL A   1      34.281  30.985  27.398  1.00  0.00     0.163 HD
BRANCH   5   7
ATOM      7  C   UNL A   1      37.364  29.879  28.041  1.00  0.00     0.039 A 
ATOM      8  C   UNL A   1      38.511  29.889  27.246  1.00  0.00     0.014 A 
ATOM      9  C   UNL A   1      37.302  29.022  29.155  1.00  0.00     0.014 A 
ATOM     10  C   UNL A   1      39.546  28.996  27.502  1.00  0.00     0.010 A 
ATOM     11  C   UNL A   1      38.353  28.148  29.439  1.00  0.00     0.010 A 
ATOM     12  C   UNL A   1      39.483  28.145  28.614  1.00  0.00    -0.014 A 
BRANCH  12  13
ATOM     13  C   UNL A   1      40.760  27.532  29.052  1.00  0.00     0.031 A 
ATOM     14  C   UNL A   1      41.014  26.212  28.287  1.00  0.00     0.074 A 
ATOM     15  C   UNL A   1      41.439  28.120  30.086  1.00  0.00     0.049 A 
ATOM     16  N   UNL A   1      41.628  25.135  28.669  1.00  0.00    -0.248 NA
ATOM     17  C   UNL A   1      40.408  26.022  26.935  1.00  0.00     0.031 C 
ATOM     18  C   UNL A   1      41.087  29.422  30.697  1.00  0.00     0.029 A 
ATOM     19  N   UNL A   1      42.542  27.761  30.840  1.00  0.00    -0.354 N 
ATOM     20  C   UNL A   1      41.647  24.240  27.573  1.00  0.00     0.074 A 
ATOM     21  C   UNL A   1      40.787  24.794  26.576  1.00  0.00     0.031 C 
ATOM     22  C   UNL A   1      41.887  29.696  31.756  1.00  0.00     0.029 A 
ATOM     23  C   UNL A   1      42.846  28.622  31.933  1.00  0.00     0.049 A 
ATOM     24  H   UNL A   1      43.081  26.964  30.635  1.00  0.00     0.167 HD
ATOM     25  C   UNL A   1      42.481  23.161  27.499  1.00  0.00     0.031 A 
ATOM     26  C   UNL A   1      43.772  28.461  32.933  1.00  0.00     0.031 A 
ATOM     27  C   UNL A   1      43.212  23.033  28.710  1.00  0.00     0.049 A 
ATOM     28  C   UNL A   1      44.548  27.267  32.566  1.00  0.00     0.074 A 
ATOM     29  C   UNL A   1      42.862  22.657  29.979  1.00  0.00     0.029 A 
ATOM     30  N   UNL A   1      44.428  23.671  28.740  1.00  0.00    -0.354 N 
ATOM     31  N   UNL A   1      45.435  27.215  31.620  1.00  0.00    -0.248 NA
ATOM     32  C   UNL A   1      44.291  26.008  33.282  1.00  0.00     0.031 C 
ATOM     33  C   UNL A   1      43.632  23.518  30.789  1.00  0.00     0.029 A 
ATOM     34  C   UNL A   1      44.548  24.214  29.992  1.00  0.00     0.049 A 
ATOM     35  H   UNL A   1      45.083  23.728  28.007  1.00  0.00     0.167 HD
ATOM     36  C   UNL A   1      45.531  25.868  31.391  1.00  0.00     0.074 A 
ATOM     37  C   UNL A   1      45.115  25.209  32.609  1.00  0.00     0.031 C 
ATOM     38  C   UNL A   1      45.365  25.395  30.130  1.00  0.00     0.031 A 
BRANCH  25  39
ATOM     39  C   UNL A   1      42.951  22.333  26.330  1.00  0.00    -0.014 A 
ATOM     40  C   UNL A   1      42.625  20.951  26.359  1.00  0.00     0.010 A 
ATOM     41  C   UNL A   1      43.965  22.737  25.451  1.00  0.00     0.010 A 
ATOM     42  C   UNL A   1      43.387  20.000  25.682  1.00  0.00     0.020 A 
ATOM     43  C   UNL A   1      44.707  21.788  24.728  1.00  0.00     0.020 A 
ATOM     44  C   UNL A   1      44.454  20.424  24.899  1.00  0.00     0.054 A 
BRANCH  44  45
ATOM     45  S   UNL A   1      45.542  19.164  24.182  1.00  0.00     0.124 S 
ATOM     46  O   UNL A   1      44.924  18.928  22.881  1.00  0.00    -0.237 OA
ATOM     47  O   UNL A   1      46.835  19.848  24.145  1.00  0.00    -0.237 OA
ATOM     48  O   UNL A   1      45.459  18.059  25.135  1.00  0.00    -0.744 OA
ENDBRANCH  44  45
ENDBRANCH  25  39
BRANCH  26  49
ATOM     49  C   UNL A   1      44.133  29.064  34.280  1.00  0.00    -0.014 A 
ATOM     50  C   UNL A   1      43.324  29.130  35.419  1.00  0.00     0.010 A 
ATOM     51  C   UNL A   1      45.474  29.524  34.464  1.00  0.00     0.010 A 
ATOM     52  C   UNL A   1      43.870  29.472  36.686  1.00  0.00     0.020 A 
ATOM     53  C   UNL A   1      46.039  29.807  35.709  1.00  0.00     0.020 A 
ATOM     54  C   UNL A   1      45.236  29.747  36.830  1.00  0.00     0.054 A 
BRANCH  54  55
ATOM     55  S   UNL A   1      46.014  29.876  38.468  1.00  0.00     0.124 S 
ATOM     56  O   UNL A   1      46.692  31.166  38.397  1.00  0.00    -0.237 OA
ATOM     57  O   UNL A   1      44.869  29.811  39.375  1.00  0.00    -0.237 OA
ATOM     58  O   UNL A   1      46.894  28.708  38.518  1.00  0.00    -0.744 OA
ENDBRANCH  54  55
ENDBRANCH  26  49
BRANCH  38  59
ATOM     59  C   UNL A   1      45.697  26.373  29.012  1.00  0.00    -0.014 A 
ATOM     60  C   UNL A   1      47.030  26.499  28.582  1.00  0.00     0.010 A 
ATOM     61  C   UNL A   1      44.745  27.230  28.423  1.00  0.00     0.010 A 
ATOM     62  C   UNL A   1      47.402  27.439  27.609  1.00  0.00     0.020 A 
ATOM     63  C   UNL A   1      45.107  28.179  27.447  1.00  0.00     0.020 A 
ATOM     64  C   UNL A   1      46.439  28.276  27.044  1.00  0.00     0.054 A 
BRANCH  64  65
ATOM     65  S   UNL A   1      46.963  29.491  25.797  1.00  0.00     0.124 S 
ATOM     66  O   UNL A   1      48.163  30.072  26.396  1.00  0.00    -0.237 OA
ATOM     67  O   UNL A   1      47.196  28.657  24.621  1.00  0.00    -0.237 OA
ATOM     68  O   UNL A   1      45.826  30.405  25.694  1.00  0.00    -0.744 OA
ENDBRANCH  64  65
ENDBRANCH  38  59
ENDBRANCH  12  13
ENDBRANCH   5   7
ENDBRANCH   2   3
ENDBRANCH   1   2
BRANCH   1  69
ATOM     69  C   UNL A   1      32.577  27.392  26.486  1.00  0.00     0.118 C 
BRANCH  69  70
ATOM     70  N   UNL A   1      31.315  27.623  25.810  1.00  0.00    -0.351 N 
ATOM     71  C   UNL A   1      31.047  27.870  24.491  1.00  0.00     0.267 C 
ATOM     72  H   UNL A   1      30.523  27.597  26.395  1.00  0.00     0.163 HD
ATOM     73  O   UNL A   1      29.888  28.160  24.196  1.00  0.00    -0.268 OA
BRANCH  71  74
ATOM     74  C   UNL A   1      32.118  27.808  23.517  1.00  0.00     0.107 A 
ATOM     75  C   UNL A   1      32.991  28.818  23.138  1.00  0.00     0.033 A 
ATOM     76  N   UNL A   1      32.546  26.656  22.867  1.00  0.00    -0.334 N 
ATOM     77  C   UNL A   1      33.931  28.282  22.231  1.00  0.00     0.020 A 
ATOM     78  C   UNL A   1      33.640  26.946  22.086  1.00  0.00     0.087 A 
BRANCH  76  79
ATOM     79  C   UNL A   1      32.062  25.311  23.146  1.00  0.00     0.222 C 
BRANCH  79  80
ATOM     80  C   UNL A   1      32.475  24.494  24.357  1.00  0.00     0.242 C 
ATOM     81  O   UNL A   1      31.566  24.343  25.191  1.00  0.00    -0.273 OA
BRANCH  80  82
ATOM     82  N   UNL A   1      33.722  23.905  24.572  1.00  0.00    -0.338 N 
ATOM     83  C   UNL A   1      34.839  24.703  25.093  1.00  0.00     0.120 C 
ATOM     84  C   UNL A   1      34.123  22.766  23.686  1.00  0.00     0.088 C 
ATOM     85  C   UNL A   1      35.995  23.890  25.660  1.00  0.00     0.022 C 
ATOM     86  C   UNL A   1      35.312  21.948  24.238  1.00  0.00     0.012 C 
ATOM     87  C   UNL A   1      33.047  21.718  23.334  1.00  0.00     0.025 C 
ATOM     88  C   UNL A   1      36.469  22.848  24.662  1.00  0.00     0.007 C 
ATOM     89  C   UNL A   1      34.939  20.925  25.334  1.00  0.00     0.006 C 
ATOM     90  C   UNL A   1      32.436  21.102  24.576  1.00  0.00     0.002 C 
ATOM     91  C   UNL A   1      33.458  20.648  25.609  1.00  0.00     0.000 C 
ENDBRANCH  80  82
ENDBRANCH  79  80
ENDBRANCH  76  79
ENDBRANCH  71  74
ENDBRANCH  69  70
ENDBRANCH   1  69
TORSDOF 16
ENDMDL
MODEL 2
REMARK VINA RESULT:     -12.2      3.120      9.028
REMARK SMILES O=C(NCCCNC(=O)c1cccn1CC(=O)N1CCC[C@H]2CCCC[C@H]21)c1ccc(-c2c3nc(c(-c4ccc(S(=O)(=O)[O-])cc4)c4ccc([nH]4)c(-c4ccc(S(=O)(=O)[O-])cc4)c4nc(c(-c5ccc(S(=O)(=O)[O-])cc5)c5ccc2[nH]5)C=C4)C=C3)cc1
REMARK SMILES IDX 5 1 4 2 3 3 1 4 2 5 28 7 29 8 87 9 30 10 86 11 31 12 32 13
REMARK SMILES IDX 33 14 80 15 34 16 85 17 79 18 81 19 35 20 84 21 78 22 77 23
REMARK SMILES IDX 36 25 66 26 47 27 65 28 48 29 51 30 64 31 82 32 49 33 50 34
REMARK SMILES IDX 63 36 83 37 52 38 37 39 38 40 46 41 39 42 45 43 40 44 41 45
REMARK SMILES IDX 42 46 43 47 44 48 67 49 68 50 76 51 69 52 75 53 70 54 71 55
REMARK SMILES IDX 72 56 73 57 74 58 53 59 54 60 62 61 55 62 61 63 56 64 57 65
REMARK SMILES IDX 58 66 59 67 60 68 6 69 7 70 8 71 9 73 10 74 11 75 14 76
REMARK SMILES IDX 12 77 13 78 15 79 16 80 17 81 18 82 19 83 27 84 20 85 22 86
REMARK SMILES IDX 26 87 21 88 23 89 25 90 24 91
REMARK H PARENT 3 6 81 24 51 35 7 72
REMARK Flexibility Score: inf
ROOT
ATOM      1  C   UNL A   1      34.044  28.642  25.911  1.00  0.00     0.042 C 
ENDROOT
BRANCH   1   2
ATOM      2  C   UNL A   1      33.401  28.782  27.292  1.00  0.00     0.118 C 
BRANCH   2   3
ATOM      3  N   UNL A   1      33.458  30.096  27.910  1.00  0.00    -0.352 N 
ATOM      4  O   UNL A   1      34.222  32.000  28.785  1.00  0.00    -0.269 OA
ATOM      5  C   UNL A   1      34.481  30.855  28.417  1.00  0.00     0.251 C 
ATOM      6  H   UNL A   1      32.578  30.532  27.979  1.00  0.00     0.163 HD
BRANCH   5   7
ATOM      7  C   UNL A   1      35.851  30.326  28.605  1.00  0.00     0.039 A 
ATOM      8  C   UNL A   1      36.806  30.305  27.586  1.00  0.00     0.014 A 
ATOM      9  C   UNL A   1      36.198  29.871  29.889  1.00  0.00     0.014 A 
ATOM     10  C   UNL A   1      38.062  29.755  27.820  1.00  0.00     0.010 A 
ATOM     11  C   UNL A   1      37.470  29.351  30.139  1.00  0.00     0.010 A 
ATOM     12  C   UNL A   1      38.406  29.304  29.101  1.00  0.00    -0.014 A 
BRANCH  12  13
ATOM     13  C   UNL A   1      39.853  29.119  29.372  1.00  0.00     0.031 A 
ATOM     14  C   UNL A   1      40.484  30.446  29.855  1.00  0.00     0.074 A 
ATOM     15  C   UNL A   1      40.419  27.909  29.069  1.00  0.00     0.049 A 
ATOM     16  N   UNL A   1      41.687  30.902  29.692  1.00  0.00    -0.248 NA
ATOM     17  C   UNL A   1      39.623  31.461  30.533  1.00  0.00     0.031 C 
ATOM     18  C   UNL A   1      39.667  26.706  28.647  1.00  0.00     0.029 A 
ATOM     19  N   UNL A   1      41.718  27.435  29.042  1.00  0.00    -0.354 N 
ATOM     20  C   UNL A   1      41.779  32.132  30.386  1.00  0.00     0.074 A 
ATOM     21  C   UNL A   1      40.451  32.476  30.786  1.00  0.00     0.031 C 
ATOM     22  C   UNL A   1      40.507  25.691  28.331  1.00  0.00     0.029 A 
ATOM     23  C   UNL A   1      41.880  26.116  28.530  1.00  0.00     0.049 A 
ATOM     24  H   UNL A   1      42.480  27.973  29.354  1.00  0.00     0.167 HD
ATOM     25  C   UNL A   1      42.965  32.725  30.710  1.00  0.00     0.031 A 
ATOM     26  C   UNL A   1      43.035  25.431  28.246  1.00  0.00     0.031 A 
ATOM     27  C   UNL A   1      44.042  31.985  30.152  1.00  0.00     0.049 A 
ATOM     28  C   UNL A   1      44.130  26.277  28.744  1.00  0.00     0.074 A 
ATOM     29  C   UNL A   1      44.494  31.811  28.872  1.00  0.00     0.029 A 
ATOM     30  N   UNL A   1      44.579  31.016  30.963  1.00  0.00    -0.354 N 
ATOM     31  N   UNL A   1      44.435  26.442  29.993  1.00  0.00    -0.248 NA
ATOM     32  C   UNL A   1      44.932  27.038  27.774  1.00  0.00     0.031 C 
ATOM     33  C   UNL A   1      44.884  30.456  28.854  1.00  0.00     0.029 A 
ATOM     34  C   UNL A   1      44.848  29.942  30.155  1.00  0.00     0.049 A 
ATOM     35  H   UNL A   1      44.738  31.078  31.933  1.00  0.00     0.167 HD
ATOM     36  C   UNL A   1      45.176  27.595  29.957  1.00  0.00     0.074 A 
ATOM     37  C   UNL A   1      45.720  27.696  28.621  1.00  0.00     0.031 C 
ATOM     38  C   UNL A   1      44.830  28.632  30.760  1.00  0.00     0.031 A 
BRANCH  25  39
ATOM     39  C   UNL A   1      43.319  33.771  31.737  1.00  0.00    -0.014 A 
ATOM     40  C   UNL A   1      43.097  33.426  33.096  1.00  0.00     0.010 A 
ATOM     41  C   UNL A   1      43.483  35.130  31.434  1.00  0.00     0.010 A 
ATOM     42  C   UNL A   1      42.873  34.395  34.074  1.00  0.00     0.020 A 
ATOM     43  C   UNL A   1      43.306  36.111  32.425  1.00  0.00     0.020 A 
ATOM     44  C   UNL A   1      42.940  35.737  33.721  1.00  0.00     0.054 A 
BRANCH  44  45
ATOM     45  S   UNL A   1      42.462  36.972  34.959  1.00  0.00     0.124 S 
ATOM     46  O   UNL A   1      41.052  36.659  35.176  1.00  0.00    -0.237 OA
ATOM     47  O   UNL A   1      43.350  36.657  36.078  1.00  0.00    -0.237 OA
ATOM     48  O   UNL A   1      42.735  38.244  34.297  1.00  0.00    -0.744 OA
ENDBRANCH  44  45
ENDBRANCH  25  39
BRANCH  26  49
ATOM     49  C   UNL A   1      43.483  24.176  27.515  1.00  0.00    -0.014 A 
ATOM     50  C   UNL A   1      42.770  23.467  26.541  1.00  0.00     0.010 A 
ATOM     51  C   UNL A   1      44.813  23.710  27.748  1.00  0.00     0.010 A 
ATOM     52  C   UNL A   1      43.406  22.476  25.746  1.00  0.00     0.020 A 
ATOM     53  C   UNL A   1      45.468  22.781  26.939  1.00  0.00     0.020 A 
ATOM     54  C   UNL A   1      44.767  22.185  25.911  1.00  0.00     0.054 A 
BRANCH  54  55
ATOM     55  S   UNL A   1      45.674  21.162  24.713  1.00  0.00     0.124 S 
ATOM     56  O   UNL A   1      46.451  22.152  23.975  1.00  0.00    -0.237 OA
ATOM     57  O   UNL A   1      46.442  20.264  25.572  1.00  0.00    -0.237 OA
ATOM     58  O   UNL A   1      44.609  20.509  23.951  1.00  0.00    -0.744 OA
ENDBRANCH  54  55
ENDBRANCH  26  49
BRANCH  38  59
ATOM     59  C   UNL A   1      44.084  28.259  32.033  1.00  0.00    -0.014 A 
ATOM     60  C   UNL A   1      42.699  28.491  32.111  1.00  0.00     0.010 A 
ATOM     61  C   UNL A   1      44.721  27.757  33.186  1.00  0.00     0.010 A 
ATOM     62  C   UNL A   1      41.978  28.236  33.288  1.00  0.00     0.020 A 
ATOM     63  C   UNL A   1      44.009  27.501  34.373  1.00  0.00     0.020 A 
ATOM     64  C   UNL A   1      42.635  27.742  34.415  1.00  0.00     0.054 A 
BRANCH  64  65
ATOM     65  S   UNL A   1      41.669  27.439  35.925  1.00  0.00     0.124 S 
ATOM     66  O   UNL A   1      42.703  27.290  36.947  1.00  0.00    -0.237 OA
ATOM     67  O   UNL A   1      40.859  28.649  36.031  1.00  0.00    -0.237 OA
ATOM     68  O   UNL A   1      40.922  26.217  35.627  1.00  0.00    -0.744 OA
ENDBRANCH  64  65
ENDBRANCH  38  59
ENDBRANCH  12  13
ENDBRANCH   5   7
ENDBRANCH   2   3
ENDBRANCH   1   2
BRANCH   1  69
ATOM     69  C   UNL A   1      33.367  29.442  24.807  1.00  0.00     0.118 C 
BRANCH  69  70
ATOM     70  N   UNL A   1      33.790  29.022  23.486  1.00  0.00    -0.351 N 
ATOM     71  C   UNL A   1      33.290  28.051  22.660  1.00  0.00     0.267 C 
ATOM     72  H   UNL A   1      34.563  29.514  23.124  1.00  0.00     0.163 HD
ATOM     73  O   UNL A   1      33.919  27.807  21.631  1.00  0.00    -0.268 OA
BRANCH  71  74
ATOM     74  C   UNL A   1      32.080  27.348  23.031  1.00  0.00     0.107 A 
ATOM     75  C   UNL A   1      30.781  27.594  22.608  1.00  0.00     0.033 A 
ATOM     76  N   UNL A   1      32.027  26.193  23.804  1.00  0.00    -0.334 N 
ATOM     77  C   UNL A   1      29.935  26.602  23.152  1.00  0.00     0.020 A 
ATOM     78  C   UNL A   1      30.729  25.746  23.879  1.00  0.00     0.087 A 
BRANCH  76  79
ATOM     79  C   UNL A   1      33.187  25.444  24.265  1.00  0.00     0.222 C 
BRANCH  79  80
ATOM     80  C   UNL A   1      33.726  24.203  23.576  1.00  0.00     0.242 C 
ATOM     81  O   UNL A   1      34.135  24.412  22.421  1.00  0.00    -0.273 OA
BRANCH  80  82
ATOM     82  N   UNL A   1      33.821  22.925  24.129  1.00  0.00    -0.338 N 
ATOM     83  C   UNL A   1      32.768  21.931  23.884  1.00  0.00     0.120 C 
ATOM     84  C   UNL A   1      34.534  22.777  25.437  1.00  0.00     0.088 C 
ATOM     85  C   UNL A   1      33.167  20.492  24.183  1.00  0.00     0.022 C 
ATOM     86  C   UNL A   1      34.921  21.317  25.764  1.00  0.00     0.012 C 
ATOM     87  C   UNL A   1      35.829  23.589  25.645  1.00  0.00     0.025 C 
ATOM     88  C   UNL A   1      33.742  20.365  25.582  1.00  0.00     0.007 C 
ATOM     89  C   UNL A   1      36.193  20.811  25.048  1.00  0.00     0.006 C 
ATOM     90  C   UNL A   1      36.851  23.302  24.564  1.00  0.00     0.002 C 
ATOM     91  C   UNL A   1      37.062  21.819  24.291  1.00  0.00     0.000 C 
ENDBRANCH  80  82
ENDBRANCH  79  80
ENDBRANCH  76  79
ENDBRANCH  71  74
ENDBRANCH  69  70
ENDBRANCH   1  69
TORSDOF 16
ENDMDL
MODEL 3
REMARK VINA RESULT:     -12.1      3.089      8.834
REMARK SMILES O=C(NCCCNC(=O)c1cccn1CC(=O)N1CCC[C@H]2CCCC[C@H]21)c1ccc(-c2c3nc(c(-c4ccc(S(=O)(=O)[O-])cc4)c4ccc([nH]4)c(-c4ccc(S(=O)(=O)[O-])cc4)c4nc(c(-c5ccc(S(=O)(=O)[O-])cc5)c5ccc2[nH]5)C=C4)C=C3)cc1
REMARK SMILES IDX 5 1 4 2 3 3 1 4 2 5 28 7 29 8 87 9 30 10 86 11 31 12 32 13
REMARK SMILES IDX 33 14 80 15 34 16 85 17 79 18 81 19 35 20 84 21 78 22 77 23
REMARK SMILES IDX 36 25 66 26 47 27 65 28 48 29 51 30 64 31 82 32 49 33 50 34
REMARK SMILES IDX 63 36 83 37 52 38 37 39 38 40 46 41 39 42 45 43 40 44 41 45
REMARK SMILES IDX 42 46 43 47 44 48 67 49 68 50 76 51 69 52 75 53 70 54 71 55
REMARK SMILES IDX 72 56 73 57 74 58 53 59 54 60 62 61 55 62 61 63 56 64 57 65
REMARK SMILES IDX 58 66 59 67 60 68 6 69 7 70 8 71 9 73 10 74 11 75 14 76
REMARK SMILES IDX 12 77 13 78 15 79 16 80 17 81 18 82 19 83 27 84 20 85 22 86
REMARK SMILES IDX 26 87 21 88 23 89 25 90 24 91
REMARK H PARENT 3 6 81 24 51 35 7 72
REMARK Flexibility Score: inf
ROOT
ATOM      1  C   UNL A   1      34.146  28.730  26.018  1.00  0.00     0.042 C 
ENDROOT
BRANCH   1   2
ATOM      2  C   UNL A   1      33.535  28.896  27.410  1.00  0.00     0.118 C 
BRANCH   2   3
ATOM      3  N   UNL A   1      33.770  30.163  28.082  1.00  0.00    -0.352 N 
ATOM      4  O   UNL A   1      34.783  31.946  28.957  1.00  0.00    -0.269 OA
ATOM      5  C   UNL A   1      34.903  30.808  28.506  1.00  0.00     0.251 C 
ATOM      6  H   UNL A   1      32.943  30.661  28.272  1.00  0.00     0.163 HD
BRANCH   5   7
ATOM      7  C   UNL A   1      36.236  30.164  28.510  1.00  0.00     0.039 A 
ATOM      8  C   UNL A   1      37.121  30.238  27.433  1.00  0.00     0.014 A 
ATOM      9  C   UNL A   1      36.625  29.489  29.680  1.00  0.00     0.014 A 
ATOM     10  C   UNL A   1      38.342  29.573  27.487  1.00  0.00     0.010 A 
ATOM     11  C   UNL A   1      37.864  28.851  29.755  1.00  0.00     0.010 A 
ATOM     12  C   UNL A   1      38.728  28.904  28.656  1.00  0.00    -0.014 A 
BRANCH  12  13
ATOM     13  C   UNL A   1      40.170  28.580  28.789  1.00  0.00     0.031 A 
ATOM     14  C   UNL A   1      40.955  29.816  29.287  1.00  0.00     0.074 A 
ATOM     15  C   UNL A   1      40.598  27.348  28.372  1.00  0.00     0.049 A 
ATOM     16  N   UNL A   1      42.177  30.177  29.044  1.00  0.00    -0.248 NA
ATOM     17  C   UNL A   1      40.248  30.857  30.092  1.00  0.00     0.031 C 
ATOM     18  C   UNL A   1      39.708  26.241  27.952  1.00  0.00     0.029 A 
ATOM     19  N   UNL A   1      41.842  26.767  28.205  1.00  0.00    -0.354 N 
ATOM     20  C   UNL A   1      42.436  31.349  29.794  1.00  0.00     0.074 A 
ATOM     21  C   UNL A   1      41.182  31.779  30.327  1.00  0.00     0.031 C 
ATOM     22  C   UNL A   1      40.424  25.180  27.509  1.00  0.00     0.029 A 
ATOM     23  C   UNL A   1      41.842  25.474  27.610  1.00  0.00     0.049 A 
ATOM     24  H   UNL A   1      42.673  27.218  28.479  1.00  0.00     0.167 HD
ATOM     25  C   UNL A   1      43.693  31.818  30.045  1.00  0.00     0.031 A 
ATOM     26  C   UNL A   1      42.903  24.712  27.188  1.00  0.00     0.031 A 
ATOM     27  C   UNL A   1      44.650  31.026  29.356  1.00  0.00     0.049 A 
ATOM     28  C   UNL A   1      44.107  25.429  27.634  1.00  0.00     0.074 A 
ATOM     29  C   UNL A   1      44.978  30.894  28.033  1.00  0.00     0.029 A 
ATOM     30  N   UNL A   1      45.162  29.965  30.062  1.00  0.00    -0.354 N 
ATOM     31  N   UNL A   1      44.528  25.490  28.860  1.00  0.00    -0.248 NA
ATOM     32  C   UNL A   1      44.892  26.179  26.642  1.00  0.00     0.031 C 
ATOM     33  C   UNL A   1      45.241  29.515  27.907  1.00  0.00     0.029 A 
ATOM     34  C   UNL A   1      45.266  28.925  29.176  1.00  0.00     0.049 A 
ATOM     35  H   UNL A   1      45.405  29.953  31.016  1.00  0.00     0.167 HD
ATOM     36  C   UNL A   1      45.364  26.575  28.822  1.00  0.00     0.074 A 
ATOM     37  C   UNL A   1      45.803  26.713  27.451  1.00  0.00     0.031 C 
ATOM     38  C   UNL A   1      45.180  27.587  29.707  1.00  0.00     0.031 A 
BRANCH  25  39
ATOM     39  C   UNL A   1      44.223  32.765  31.092  1.00  0.00    -0.014 A 
ATOM     40  C   UNL A   1      43.988  32.408  32.447  1.00  0.00     0.010 A 
ATOM     41  C   UNL A   1      44.578  34.094  30.828  1.00  0.00     0.010 A 
ATOM     42  C   UNL A   1      43.933  33.364  33.461  1.00  0.00     0.020 A 
ATOM     43  C   UNL A   1      44.573  35.055  31.854  1.00  0.00     0.020 A 
ATOM     44  C   UNL A   1      44.189  34.694  33.148  1.00  0.00     0.054 A 
BRANCH  44  45
ATOM     45  S   UNL A   1      43.929  35.941  34.438  1.00  0.00     0.124 S 
ATOM     46  O   UNL A   1      45.237  36.584  34.511  1.00  0.00    -0.237 OA
ATOM     47  O   UNL A   1      42.859  36.763  33.872  1.00  0.00    -0.237 OA
ATOM     48  O   UNL A   1      43.544  35.150  35.604  1.00  0.00    -0.744 OA
ENDBRANCH  44  45
ENDBRANCH  25  39
BRANCH  26  49
ATOM     49  C   UNL A   1      43.174  23.472  26.354  1.00  0.00    -0.014 A 
ATOM     50  C   UNL A   1      44.021  23.370  25.244  1.00  0.00     0.010 A 
ATOM     51  C   UNL A   1      42.601  22.238  26.791  1.00  0.00     0.010 A 
ATOM     52  C   UNL A   1      44.394  22.102  24.723  1.00  0.00     0.020 A 
ATOM     53  C   UNL A   1      43.000  20.984  26.328  1.00  0.00     0.020 A 
ATOM     54  C   UNL A   1      43.928  20.917  25.309  1.00  0.00     0.054 A 
BRANCH  54  55
ATOM     55  S   UNL A   1      44.629  19.298  24.869  1.00  0.00     0.124 S 
ATOM     56  O   UNL A   1      44.538  19.298  23.414  1.00  0.00    -0.237 OA
ATOM     57  O   UNL A   1      45.981  19.371  25.421  1.00  0.00    -0.237 OA
ATOM     58  O   UNL A   1      43.747  18.351  25.552  1.00  0.00    -0.744 OA
ENDBRANCH  54  55
ENDBRANCH  26  49
BRANCH  38  59
ATOM     59  C   UNL A   1      44.511  27.200  31.018  1.00  0.00    -0.014 A 
ATOM     60  C   UNL A   1      43.290  27.804  31.372  1.00  0.00     0.010 A 
ATOM     61  C   UNL A   1      45.088  26.315  31.952  1.00  0.00     0.010 A 
ATOM     62  C   UNL A   1      42.671  27.539  32.603  1.00  0.00     0.020 A 
ATOM     63  C   UNL A   1      44.477  26.044  33.191  1.00  0.00     0.020 A 
ATOM     64  C   UNL A   1      43.266  26.660  33.509  1.00  0.00     0.054 A 
BRANCH  64  65
ATOM     65  S   UNL A   1      42.440  26.356  35.100  1.00  0.00     0.124 S 
ATOM     66  O   UNL A   1      41.071  26.799  34.843  1.00  0.00    -0.237 OA
ATOM     67  O   UNL A   1      42.605  24.915  35.272  1.00  0.00    -0.237 OA
ATOM     68  O   UNL A   1      43.183  27.184  36.049  1.00  0.00    -0.744 OA
ENDBRANCH  64  65
ENDBRANCH  38  59
ENDBRANCH  12  13
ENDBRANCH   5   7
ENDBRANCH   2   3
ENDBRANCH   1   2
BRANCH   1  69
ATOM     69  C   UNL A   1      33.452  29.523  24.919  1.00  0.00     0.118 C 
BRANCH  69  70
ATOM     70  N   UNL A   1      33.882  29.117  23.595  1.00  0.00    -0.351 N 
ATOM     71  C   UNL A   1      33.354  28.193  22.734  1.00  0.00     0.267 C 
ATOM     72  H   UNL A   1      34.684  29.582  23.260  1.00  0.00     0.163 HD
ATOM     73  O   UNL A   1      33.991  27.946  21.711  1.00  0.00    -0.268 OA
BRANCH  71  74
ATOM     74  C   UNL A   1      32.105  27.537  23.064  1.00  0.00     0.107 A 
ATOM     75  C   UNL A   1      30.832  27.832  22.595  1.00  0.00     0.033 A 
ATOM     76  N   UNL A   1      31.982  26.387  23.836  1.00  0.00    -0.334 N 
ATOM     77  C   UNL A   1      29.931  26.874  23.111  1.00  0.00     0.020 A 
ATOM     78  C   UNL A   1      30.665  25.990  23.867  1.00  0.00     0.087 A 
BRANCH  76  79
ATOM     79  C   UNL A   1      33.095  25.595  24.338  1.00  0.00     0.222 C 
BRANCH  79  80
ATOM     80  C   UNL A   1      33.654  24.371  23.634  1.00  0.00     0.242 C 
ATOM     81  O   UNL A   1      34.065  24.602  22.484  1.00  0.00    -0.273 OA
BRANCH  80  82
ATOM     82  N   UNL A   1      33.763  23.087  24.168  1.00  0.00    -0.338 N 
ATOM     83  C   UNL A   1      32.701  22.097  23.943  1.00  0.00     0.120 C 
ATOM     84  C   UNL A   1      34.514  22.923  25.453  1.00  0.00     0.088 C 
ATOM     85  C   UNL A   1      33.106  20.654  24.213  1.00  0.00     0.022 C 
ATOM     86  C   UNL A   1      34.907  21.459  25.752  1.00  0.00     0.012 C 
ATOM     87  C   UNL A   1      35.815  23.730  25.633  1.00  0.00     0.025 C 
ATOM     88  C   UNL A   1      33.722  20.510  25.593  1.00  0.00     0.007 C 
ATOM     89  C   UNL A   1      36.157  20.959  24.993  1.00  0.00     0.006 C 
ATOM     90  C   UNL A   1      36.805  23.454  24.519  1.00  0.00     0.002 C 
ATOM     91  C   UNL A   1      37.006  21.975  24.222  1.00  0.00     0.000 C 
ENDBRANCH  80  82
ENDBRANCH  79  80
ENDBRANCH  76  79
ENDBRANCH  71  74
ENDBRANCH  69  70
ENDBRANCH   1  69
TORSDOF 16
ENDMDL
