MODEL 1
REMARK VINA RESULT:     -10.7      0.000      0.000
REMARK SMILES C[C@@H]1[C@H](C(=O)NCCCNC(=O)c2ccc(-c3c4nc(c(-c5ccc(S(=O)(=O)[O-])cc5)c5ccc([nH]5)c(-c5ccc(S(=O)(=O)[O-])cc5)c5nc(c(-c6ccc(S(=O)(=O)[O-])cc6)c6ccc3[nH]6)C=C5)C=C4)cc2)CC[N@@H+]1CCOc1c(Cl)cccc1Cl
REMARK SMILES IDX 7 1 6 2 4 3 5 4 3 6 1 7 2 8 75 9 73 10 74 11 76 13 77 14
REMARK SMILES IDX 78 15 79 16 80 17 85 18 81 19 82 20 84 21 86 22 83 23 8 24
REMARK SMILES IDX 9 25 10 26 11 27 12 29 13 30 14 31 72 32 15 33 71 34 16 35
REMARK SMILES IDX 17 36 18 37 65 38 19 39 70 40 64 41 66 42 20 43 69 44 63 45
REMARK SMILES IDX 62 46 21 48 51 49 32 50 50 51 33 52 36 53 49 54 67 55 34 56
REMARK SMILES IDX 35 57 48 59 68 60 37 61 22 62 23 63 31 64 24 65 30 66 25 67
REMARK SMILES IDX 26 68 27 69 28 70 29 71 52 72 53 73 61 74 54 75 60 76 55 77
REMARK SMILES IDX 56 78 57 79 58 80 59 81 38 82 39 83 47 84 40 85 46 86 41 87
REMARK SMILES IDX 42 88 43 89 44 90 45 91
REMARK H PARENT 6 5 75 12 10 28 66 47 36 58
REMARK Flexibility Score: inf
ROOT
ATOM      1  C   UNL A   1      33.209  27.814  24.387  1.00  0.00     0.117 C 
ENDROOT
BRANCH   1   2
ATOM      2  N   UNL A   1      32.134  28.371  23.597  1.00  0.00    -0.356 N 
ATOM      3  C   UNL A   1      31.173  27.803  22.833  1.00  0.00     0.229 C 
ATOM      4  O   UNL A   1      30.426  28.600  22.249  1.00  0.00    -0.275 OA
ATOM      5  H   UNL A   1      32.094  29.354  23.620  1.00  0.00     0.163 HD
BRANCH   3   6
ATOM      6  C   UNL A   1      30.900  26.308  22.709  1.00  0.00     0.142 C 
ATOM      7  C   UNL A   1      33.128  25.781  21.390  1.00  0.00     0.076 C 
ATOM      8  C   UNL A   1      31.792  25.320  21.928  1.00  0.00     0.193 C 
ATOM      9  N   UNL A   1      31.746  24.049  22.681  1.00  0.00    -0.329 N 
ATOM     10  C   UNL A   1      30.574  25.590  24.008  1.00  0.00     0.081 C 
ATOM     11  C   UNL A   1      30.607  24.134  23.578  1.00  0.00     0.263 C 
ATOM     12  H   UNL A   1      31.645  23.327  21.968  1.00  0.00     0.348 HD
BRANCH   9  13
ATOM     13  C   UNL A   1      32.950  23.372  23.190  1.00  0.00     0.304 C 
BRANCH  13  14
ATOM     14  C   UNL A   1      32.869  22.080  24.047  1.00  0.00     0.291 C 
BRANCH  14  15
ATOM     15  O   UNL A   1      33.557  22.147  25.314  1.00  0.00    -0.485 OA
BRANCH  15  16
ATOM     16  C   UNL A   1      34.927  22.108  25.244  1.00  0.00     0.156 A 
ATOM     17  C   UNL A   1      35.761  23.228  25.373  1.00  0.00     0.084 A 
ATOM     18  C   UNL A   1      35.528  20.861  25.013  1.00  0.00     0.084 A 
ATOM     19  Cl  UNL A   1      35.159  24.848  25.317  1.00  0.00    -0.080 Cl
ATOM     20  C   UNL A   1      37.148  23.064  25.506  1.00  0.00     0.024 A 
ATOM     21  C   UNL A   1      36.909  20.696  25.154  1.00  0.00     0.024 A 
ATOM     22  Cl  UNL A   1      34.584  19.467  24.605  1.00  0.00    -0.080 Cl
ATOM     23  C   UNL A   1      37.716  21.793  25.442  1.00  0.00     0.003 A 
ENDBRANCH  15  16
ENDBRANCH  14  15
ENDBRANCH  13  14
ENDBRANCH   9  13
ENDBRANCH   3   6
ENDBRANCH   1   2
BRANCH   1  24
ATOM     24  C   UNL A   1      32.825  27.619  25.847  1.00  0.00     0.042 C 
BRANCH  24  25
ATOM     25  C   UNL A   1      33.853  28.146  26.832  1.00  0.00     0.118 C 
BRANCH  25  26
ATOM     26  N   UNL A   1      33.596  29.520  27.222  1.00  0.00    -0.352 N 
ATOM     27  C   UNL A   1      34.395  30.397  27.916  1.00  0.00     0.251 C 
ATOM     28  H   UNL A   1      32.720  29.877  26.950  1.00  0.00     0.163 HD
ATOM     29  O   UNL A   1      33.914  31.463  28.310  1.00  0.00    -0.269 OA
BRANCH  27  30
ATOM     30  C   UNL A   1      35.809  30.069  28.219  1.00  0.00     0.039 A 
ATOM     31  C   UNL A   1      36.135  29.587  29.491  1.00  0.00     0.014 A 
ATOM     32  C   UNL A   1      36.821  30.251  27.275  1.00  0.00     0.014 A 
ATOM     33  C   UNL A   1      37.457  29.238  29.788  1.00  0.00     0.010 A 
ATOM     34  C   UNL A   1      38.111  29.796  27.532  1.00  0.00     0.010 A 
ATOM     35  C   UNL A   1      38.454  29.308  28.801  1.00  0.00    -0.014 A 
BRANCH  35  36
ATOM     36  C   UNL A   1      39.864  28.926  29.084  1.00  0.00     0.031 A 
ATOM     37  C   UNL A   1      40.800  29.926  29.719  1.00  0.00     0.074 A 
ATOM     38  C   UNL A   1      40.323  27.710  28.727  1.00  0.00     0.049 A 
ATOM     39  N   UNL A   1      42.077  29.812  29.980  1.00  0.00    -0.248 NA
ATOM     40  C   UNL A   1      40.233  31.237  30.077  1.00  0.00     0.031 C 
ATOM     41  C   UNL A   1      39.535  26.664  28.068  1.00  0.00     0.029 A 
ATOM     42  N   UNL A   1      41.567  27.146  28.866  1.00  0.00    -0.354 N 
ATOM     43  C   UNL A   1      42.468  31.040  30.504  1.00  0.00     0.074 A 
ATOM     44  C   UNL A   1      41.309  31.903  30.469  1.00  0.00     0.031 C 
ATOM     45  C   UNL A   1      40.305  25.577  27.894  1.00  0.00     0.029 A 
ATOM     46  C   UNL A   1      41.649  25.859  28.388  1.00  0.00     0.049 A 
ATOM     47  H   UNL A   1      42.331  27.620  29.269  1.00  0.00     0.167 HD
ATOM     48  C   UNL A   1      43.674  31.412  30.996  1.00  0.00     0.031 A 
ATOM     49  C   UNL A   1      42.688  25.002  28.350  1.00  0.00     0.031 A 
ATOM     50  C   UNL A   1      44.819  30.544  31.060  1.00  0.00     0.049 A 
ATOM     51  C   UNL A   1      44.016  25.432  28.910  1.00  0.00     0.074 A 
ATOM     52  C   UNL A   1      46.068  30.807  31.595  1.00  0.00     0.029 A 
ATOM     53  N   UNL A   1      44.851  29.244  30.582  1.00  0.00    -0.354 N 
ATOM     54  N   UNL A   1      44.348  26.581  29.452  1.00  0.00    -0.248 NA
ATOM     55  C   UNL A   1      45.107  24.449  28.865  1.00  0.00     0.031 C 
ATOM     56  C   UNL A   1      46.871  29.678  31.399  1.00  0.00     0.029 A 
ATOM     57  C   UNL A   1      46.104  28.694  30.793  1.00  0.00     0.049 A 
ATOM     58  H   UNL A   1      44.095  28.779  30.155  1.00  0.00     0.167 HD
ATOM     59  C   UNL A   1      45.678  26.447  29.836  1.00  0.00     0.074 A 
ATOM     60  C   UNL A   1      46.084  25.103  29.478  1.00  0.00     0.031 C 
ATOM     61  C   UNL A   1      46.490  27.354  30.433  1.00  0.00     0.031 A 
BRANCH  48  62
ATOM     62  C   UNL A   1      43.811  32.823  31.508  1.00  0.00    -0.014 A 
ATOM     63  C   UNL A   1      43.625  33.122  32.870  1.00  0.00     0.010 A 
ATOM     64  C   UNL A   1      44.160  33.859  30.624  1.00  0.00     0.010 A 
ATOM     65  C   UNL A   1      43.735  34.438  33.330  1.00  0.00     0.020 A 
ATOM     66  C   UNL A   1      44.303  35.172  31.085  1.00  0.00     0.020 A 
ATOM     67  C   UNL A   1      44.071  35.455  32.432  1.00  0.00     0.054 A 
BRANCH  67  68
ATOM     68  S   UNL A   1      44.226  37.150  33.059  1.00  0.00     0.124 S 
ATOM     69  O   UNL A   1      42.973  37.314  33.794  1.00  0.00    -0.237 OA
ATOM     70  O   UNL A   1      45.431  37.079  33.881  1.00  0.00    -0.237 OA
ATOM     71  O   UNL A   1      44.347  37.958  31.848  1.00  0.00    -0.744 OA
ENDBRANCH  67  68
ENDBRANCH  48  62
BRANCH  49  72
ATOM     72  C   UNL A   1      42.506  23.636  27.783  1.00  0.00    -0.014 A 
ATOM     73  C   UNL A   1      42.831  23.374  26.440  1.00  0.00     0.010 A 
ATOM     74  C   UNL A   1      42.019  22.588  28.585  1.00  0.00     0.010 A 
ATOM     75  C   UNL A   1      42.657  22.094  25.905  1.00  0.00     0.020 A 
ATOM     76  C   UNL A   1      41.870  21.301  28.062  1.00  0.00     0.020 A 
ATOM     77  C   UNL A   1      42.179  21.065  26.721  1.00  0.00     0.054 A 
BRANCH  77  78
ATOM     78  S   UNL A   1      42.012  19.398  26.020  1.00  0.00     0.124 S 
ATOM     79  O   UNL A   1      42.517  18.562  27.104  1.00  0.00    -0.237 OA
ATOM     80  O   UNL A   1      40.577  19.306  25.763  1.00  0.00    -0.237 OA
ATOM     81  O   UNL A   1      42.849  19.447  24.823  1.00  0.00    -0.744 OA
ENDBRANCH  77  78
ENDBRANCH  49  72
BRANCH  61  82
ATOM     82  C   UNL A   1      47.889  26.916  30.773  1.00  0.00    -0.014 A 
ATOM     83  C   UNL A   1      48.945  27.078  29.859  1.00  0.00     0.010 A 
ATOM     84  C   UNL A   1      48.158  26.390  32.049  1.00  0.00     0.010 A 
ATOM     85  C   UNL A   1      50.242  26.694  30.207  1.00  0.00     0.020 A 
ATOM     86  C   UNL A   1      49.459  26.029  32.410  1.00  0.00     0.020 A 
ATOM     87  C   UNL A   1      50.491  26.171  31.481  1.00  0.00     0.054 A 
BRANCH  87  88
ATOM     88  S   UNL A   1      52.192  25.723  31.924  1.00  0.00     0.124 S 
ATOM     89  O   UNL A   1      52.453  26.609  33.055  1.00  0.00    -0.237 OA
ATOM     90  O   UNL A   1      52.076  24.304  32.250  1.00  0.00    -0.237 OA
ATOM     91  O   UNL A   1      52.954  26.016  30.713  1.00  0.00    -0.744 OA
ENDBRANCH  87  88
ENDBRANCH  61  82
ENDBRANCH  35  36
ENDBRANCH  27  30
ENDBRANCH  25  26
ENDBRANCH  24  25
ENDBRANCH   1  24
TORSDOF 17
ENDMDL
MODEL 2
REMARK VINA RESULT:     -10.5      2.933      3.834
REMARK SMILES C[C@@H]1[C@H](C(=O)NCCCNC(=O)c2ccc(-c3c4nc(c(-c5ccc(S(=O)(=O)[O-])cc5)c5ccc([nH]5)c(-c5ccc(S(=O)(=O)[O-])cc5)c5nc(c(-c6ccc(S(=O)(=O)[O-])cc6)c6ccc3[nH]6)C=C5)C=C4)cc2)CC[N@@H+]1CCOc1c(Cl)cccc1Cl
REMARK SMILES IDX 7 1 6 2 4 3 5 4 3 6 1 7 2 8 75 9 73 10 74 11 76 13 77 14
REMARK SMILES IDX 78 15 79 16 80 17 85 18 81 19 82 20 84 21 86 22 83 23 8 24
REMARK SMILES IDX 9 25 10 26 11 27 12 29 13 30 14 31 72 32 15 33 71 34 16 35
REMARK SMILES IDX 17 36 18 37 65 38 19 39 70 40 64 41 66 42 20 43 69 44 63 45
REMARK SMILES IDX 62 46 21 48 51 49 32 50 50 51 33 52 36 53 49 54 67 55 34 56
REMARK SMILES IDX 35 57 48 59 68 60 37 61 22 62 23 63 31 64 24 65 30 66 25 67
REMARK SMILES IDX 26 68 27 69 28 70 29 71 52 72 53 73 61 74 54 75 60 76 55 77
REMARK SMILES IDX 56 78 57 79 58 80 59 81 38 82 39 83 47 84 40 85 46 86 41 87
REMARK SMILES IDX 42 88 43 89 44 90 45 91
REMARK H PARENT 6 5 75 12 10 28 66 47 36 58
REMARK Flexibility Score: inf
ROOT
ATOM      1  C   UNL A   1      33.327  30.337  27.204  1.00  0.00     0.117 C 
ENDROOT
BRANCH   1   2
ATOM      2  N   UNL A   1      32.460  29.224  27.516  1.00  0.00    -0.356 N 
ATOM      3  C   UNL A   1      31.841  28.302  26.743  1.00  0.00     0.229 C 
ATOM      4  O   UNL A   1      31.122  27.500  27.353  1.00  0.00    -0.275 OA
ATOM      5  H   UNL A   1      32.285  29.115  28.479  1.00  0.00     0.163 HD
BRANCH   3   6
ATOM      6  C   UNL A   1      32.024  28.134  25.239  1.00  0.00     0.142 C 
ATOM      7  C   UNL A   1      33.885  26.268  25.446  1.00  0.00     0.076 C 
ATOM      8  C   UNL A   1      33.080  27.218  24.585  1.00  0.00     0.193 C 
ATOM      9  N   UNL A   1      32.452  26.682  23.359  1.00  0.00    -0.329 N 
ATOM     10  C   UNL A   1      30.752  27.882  24.446  1.00  0.00     0.081 C 
ATOM     11  C   UNL A   1      31.301  27.522  23.077  1.00  0.00     0.263 C 
ATOM     12  H   UNL A   1      33.178  26.741  22.647  1.00  0.00     0.348 HD
BRANCH   9  13
ATOM     13  C   UNL A   1      32.310  25.242  23.091  1.00  0.00     0.304 C 
BRANCH  13  14
ATOM     14  C   UNL A   1      31.463  24.314  24.002  1.00  0.00     0.291 C 
BRANCH  14  15
ATOM     15  O   UNL A   1      32.004  22.990  24.193  1.00  0.00    -0.485 OA
BRANCH  15  16
ATOM     16  C   UNL A   1      32.679  22.791  25.371  1.00  0.00     0.156 A 
ATOM     17  C   UNL A   1      32.075  22.763  26.637  1.00  0.00     0.084 A 
ATOM     18  C   UNL A   1      34.070  22.621  25.299  1.00  0.00     0.084 A 
ATOM     19  Cl  UNL A   1      30.452  23.293  26.904  1.00  0.00    -0.080 Cl
ATOM     20  C   UNL A   1      32.805  22.341  27.757  1.00  0.00     0.024 A 
ATOM     21  C   UNL A   1      34.796  22.191  26.415  1.00  0.00     0.024 A 
ATOM     22  Cl  UNL A   1      34.936  22.875  23.820  1.00  0.00    -0.080 Cl
ATOM     23  C   UNL A   1      34.154  22.011  27.637  1.00  0.00     0.003 A 
ENDBRANCH  15  16
ENDBRANCH  14  15
ENDBRANCH  13  14
ENDBRANCH   9  13
ENDBRANCH   3   6
ENDBRANCH   1   2
BRANCH   1  24
ATOM     24  C   UNL A   1      34.787  30.053  27.528  1.00  0.00     0.042 C 
BRANCH  24  25
ATOM     25  C   UNL A   1      35.494  31.191  28.241  1.00  0.00     0.118 C 
BRANCH  25  26
ATOM     26  N   UNL A   1      35.421  31.073  29.686  1.00  0.00    -0.352 N 
ATOM     27  C   UNL A   1      36.342  30.567  30.571  1.00  0.00     0.251 C 
ATOM     28  H   UNL A   1      34.588  31.405  30.092  1.00  0.00     0.163 HD
ATOM     29  O   UNL A   1      36.008  30.384  31.745  1.00  0.00    -0.269 OA
BRANCH  27  30
ATOM     30  C   UNL A   1      37.713  30.212  30.131  1.00  0.00     0.039 A 
ATOM     31  C   UNL A   1      38.653  29.822  31.090  1.00  0.00     0.014 A 
ATOM     32  C   UNL A   1      38.091  30.281  28.789  1.00  0.00     0.014 A 
ATOM     33  C   UNL A   1      39.942  29.449  30.693  1.00  0.00     0.010 A 
ATOM     34  C   UNL A   1      39.333  29.802  28.384  1.00  0.00     0.010 A 
ATOM     35  C   UNL A   1      40.286  29.403  29.332  1.00  0.00    -0.014 A 
BRANCH  35  36
ATOM     36  C   UNL A   1      41.643  28.993  28.881  1.00  0.00     0.031 A 
ATOM     37  C   UNL A   1      42.760  30.009  28.842  1.00  0.00     0.074 A 
ATOM     38  C   UNL A   1      41.866  27.734  28.458  1.00  0.00     0.049 A 
ATOM     39  N   UNL A   1      43.989  29.869  28.415  1.00  0.00    -0.248 NA
ATOM     40  C   UNL A   1      42.444  31.368  29.313  1.00  0.00     0.031 C 
ATOM     41  C   UNL A   1      40.865  26.665  28.404  1.00  0.00     0.029 A 
ATOM     42  N   UNL A   1      43.010  27.136  27.987  1.00  0.00    -0.354 N 
ATOM     43  C   UNL A   1      44.580  31.123  28.541  1.00  0.00     0.074 A 
ATOM     44  C   UNL A   1      43.559  32.023  29.027  1.00  0.00     0.031 C 
ATOM     45  C   UNL A   1      41.447  25.537  27.963  1.00  0.00     0.029 A 
ATOM     46  C   UNL A   1      42.849  25.809  27.662  1.00  0.00     0.049 A 
ATOM     47  H   UNL A   1      43.865  27.614  27.890  1.00  0.00     0.167 HD
ATOM     48  C   UNL A   1      45.860  31.490  28.301  1.00  0.00     0.031 A 
ATOM     49  C   UNL A   1      43.729  24.912  27.175  1.00  0.00     0.031 A 
ATOM     50  C   UNL A   1      46.884  30.587  27.847  1.00  0.00     0.049 A 
ATOM     51  C   UNL A   1      45.149  25.339  26.924  1.00  0.00     0.074 A 
ATOM     52  C   UNL A   1      48.226  30.847  27.631  1.00  0.00     0.029 A 
ATOM     53  N   UNL A   1      46.681  29.249  27.549  1.00  0.00    -0.354 N 
ATOM     54  N   UNL A   1      45.699  26.518  27.103  1.00  0.00    -0.248 NA
ATOM     55  C   UNL A   1      46.071  24.314  26.417  1.00  0.00     0.031 C 
ATOM     56  C   UNL A   1      48.826  29.674  27.159  1.00  0.00     0.029 A 
ATOM     57  C   UNL A   1      47.868  28.672  27.134  1.00  0.00     0.049 A 
ATOM     58  H   UNL A   1      45.819  28.778  27.621  1.00  0.00     0.167 HD
ATOM     59  C   UNL A   1      47.038  26.366  26.756  1.00  0.00     0.074 A 
ATOM     60  C   UNL A   1      47.217  24.981  26.370  1.00  0.00     0.031 C 
ATOM     61  C   UNL A   1      48.029  27.291  26.757  1.00  0.00     0.031 A 
BRANCH  48  62
ATOM     62  C   UNL A   1      46.225  32.934  28.530  1.00  0.00    -0.014 A 
ATOM     63  C   UNL A   1      46.115  33.883  27.498  1.00  0.00     0.010 A 
ATOM     64  C   UNL A   1      46.656  33.355  29.801  1.00  0.00     0.010 A 
ATOM     65  C   UNL A   1      46.475  35.216  27.717  1.00  0.00     0.020 A 
ATOM     66  C   UNL A   1      46.988  34.693  30.033  1.00  0.00     0.020 A 
ATOM     67  C   UNL A   1      46.913  35.612  28.984  1.00  0.00     0.054 A 
BRANCH  67  68
ATOM     68  S   UNL A   1      47.356  37.351  29.246  1.00  0.00     0.124 S 
ATOM     69  O   UNL A   1      48.815  37.282  29.309  1.00  0.00    -0.237 OA
ATOM     70  O   UNL A   1      46.810  38.004  28.059  1.00  0.00    -0.237 OA
ATOM     71  O   UNL A   1      46.694  37.693  30.502  1.00  0.00    -0.744 OA
ENDBRANCH  67  68
ENDBRANCH  48  62
BRANCH  49  72
ATOM     72  C   UNL A   1      43.297  23.510  26.918  1.00  0.00    -0.014 A 
ATOM     73  C   UNL A   1      43.057  23.069  25.604  1.00  0.00     0.010 A 
ATOM     74  C   UNL A   1      43.136  22.605  27.983  1.00  0.00     0.010 A 
ATOM     75  C   UNL A   1      42.647  21.754  25.362  1.00  0.00     0.020 A 
ATOM     76  C   UNL A   1      42.754  21.283  27.742  1.00  0.00     0.020 A 
ATOM     77  C   UNL A   1      42.500  20.869  26.433  1.00  0.00     0.054 A 
BRANCH  77  78
ATOM     78  S   UNL A   1      42.020  19.152  26.090  1.00  0.00     0.124 S 
ATOM     79  O   UNL A   1      42.813  18.847  24.903  1.00  0.00    -0.237 OA
ATOM     80  O   UNL A   1      42.420  18.462  27.313  1.00  0.00    -0.237 OA
ATOM     81  O   UNL A   1      40.577  19.237  25.876  1.00  0.00    -0.744 OA
ENDBRANCH  77  78
ENDBRANCH  49  72
BRANCH  61  82
ATOM     82  C   UNL A   1      49.407  26.831  26.365  1.00  0.00    -0.014 A 
ATOM     83  C   UNL A   1      50.223  26.123  27.266  1.00  0.00     0.010 A 
ATOM     84  C   UNL A   1      49.867  27.058  25.055  1.00  0.00     0.010 A 
ATOM     85  C   UNL A   1      51.487  25.678  26.871  1.00  0.00     0.020 A 
ATOM     86  C   UNL A   1      51.119  26.591  24.648  1.00  0.00     0.020 A 
ATOM     87  C   UNL A   1      51.927  25.915  25.564  1.00  0.00     0.054 A 
BRANCH  87  88
ATOM     88  S   UNL A   1      53.552  25.285  25.062  1.00  0.00     0.124 S 
ATOM     89  O   UNL A   1      53.436  23.864  25.376  1.00  0.00    -0.237 OA
ATOM     90  O   UNL A   1      53.599  25.613  23.639  1.00  0.00    -0.237 OA
ATOM     91  O   UNL A   1      54.487  26.034  25.898  1.00  0.00    -0.744 OA
ENDBRANCH  87  88
ENDBRANCH  61  82
ENDBRANCH  35  36
ENDBRANCH  27  30
ENDBRANCH  25  26
ENDBRANCH  24  25
ENDBRANCH   1  24
TORSDOF 17
ENDMDL
MODEL 3
REMARK VINA RESULT:     -10.4      2.829      3.487
REMARK SMILES C[C@@H]1[C@H](C(=O)NCCCNC(=O)c2ccc(-c3c4nc(c(-c5ccc(S(=O)(=O)[O-])cc5)c5ccc([nH]5)c(-c5ccc(S(=O)(=O)[O-])cc5)c5nc(c(-c6ccc(S(=O)(=O)[O-])cc6)c6ccc3[nH]6)C=C5)C=C4)cc2)CC[N@@H+]1CCOc1c(Cl)cccc1Cl
REMARK SMILES IDX 7 1 6 2 4 3 5 4 3 6 1 7 2 8 75 9 73 10 74 11 76 13 77 14
REMARK SMILES IDX 78 15 79 16 80 17 85 18 81 19 82 20 84 21 86 22 83 23 8 24
REMARK SMILES IDX 9 25 10 26 11 27 12 29 13 30 14 31 72 32 15 33 71 34 16 35
REMARK SMILES IDX 17 36 18 37 65 38 19 39 70 40 64 41 66 42 20 43 69 44 63 45
REMARK SMILES IDX 62 46 21 48 51 49 32 50 50 51 33 52 36 53 49 54 67 55 34 56
REMARK SMILES IDX 35 57 48 59 68 60 37 61 22 62 23 63 31 64 24 65 30 66 25 67
REMARK SMILES IDX 26 68 27 69 28 70 29 71 52 72 53 73 61 74 54 75 60 76 55 77
REMARK SMILES IDX 56 78 57 79 58 80 59 81 38 82 39 83 47 84 40 85 46 86 41 87
REMARK SMILES IDX 42 88 43 89 44 90 45 91
REMARK H PARENT 6 5 75 12 10 28 66 47 36 58
REMARK Flexibility Score: inf
ROOT
ATOM      1  C   UNL A   1      31.656  27.718  26.216  1.00  0.00     0.117 C 
ENDROOT
BRANCH   1   2
ATOM      2  N   UNL A   1      30.857  26.585  26.622  1.00  0.00    -0.356 N 
ATOM      3  C   UNL A   1      30.774  25.315  26.164  1.00  0.00     0.229 C 
ATOM      4  O   UNL A   1      29.931  24.605  26.730  1.00  0.00    -0.275 OA
ATOM      5  H   UNL A   1      30.255  26.775  27.377  1.00  0.00     0.163 HD
BRANCH   3   6
ATOM      6  C   UNL A   1      31.668  24.691  25.099  1.00  0.00     0.142 C 
ATOM      7  C   UNL A   1      33.460  23.778  26.814  1.00  0.00     0.076 C 
ATOM      8  C   UNL A   1      33.029  24.020  25.384  1.00  0.00     0.193 C 
ATOM      9  N   UNL A   1      33.140  22.901  24.425  1.00  0.00    -0.329 N 
ATOM     10  C   UNL A   1      30.974  23.754  24.124  1.00  0.00     0.081 C 
ATOM     11  C   UNL A   1      32.151  23.138  23.388  1.00  0.00     0.263 C 
ATOM     12  H   UNL A   1      34.100  22.945  24.084  1.00  0.00     0.348 HD
BRANCH   9  13
ATOM     13  C   UNL A   1      33.354  21.506  24.840  1.00  0.00     0.304 C 
BRANCH  13  14
ATOM     14  C   UNL A   1      34.747  20.980  25.279  1.00  0.00     0.291 C 
BRANCH  14  15
ATOM     15  O   UNL A   1      35.830  21.304  24.381  1.00  0.00    -0.485 OA
BRANCH  15  16
ATOM     16  C   UNL A   1      36.899  21.948  24.952  1.00  0.00     0.156 A 
ATOM     17  C   UNL A   1      36.971  23.332  25.165  1.00  0.00     0.084 A 
ATOM     18  C   UNL A   1      37.998  21.163  25.334  1.00  0.00     0.084 A 
ATOM     19  Cl  UNL A   1      35.859  24.442  24.444  1.00  0.00    -0.080 Cl
ATOM     20  C   UNL A   1      38.001  23.873  25.947  1.00  0.00     0.024 A 
ATOM     21  C   UNL A   1      39.021  21.700  26.121  1.00  0.00     0.024 A 
ATOM     22  Cl  UNL A   1      38.106  19.489  24.900  1.00  0.00    -0.080 Cl
ATOM     23  C   UNL A   1      39.001  23.050  26.463  1.00  0.00     0.003 A 
ENDBRANCH  15  16
ENDBRANCH  14  15
ENDBRANCH  13  14
ENDBRANCH   9  13
ENDBRANCH   3   6
ENDBRANCH   1   2
BRANCH   1  24
ATOM     24  C   UNL A   1      33.055  27.695  26.817  1.00  0.00     0.042 C 
BRANCH  24  25
ATOM     25  C   UNL A   1      34.014  28.690  26.189  1.00  0.00     0.118 C 
BRANCH  25  26
ATOM     26  N   UNL A   1      33.673  30.066  26.504  1.00  0.00    -0.352 N 
ATOM     27  C   UNL A   1      34.237  30.920  27.420  1.00  0.00     0.251 C 
ATOM     28  H   UNL A   1      32.927  30.442  25.984  1.00  0.00     0.163 HD
ATOM     29  O   UNL A   1      33.676  31.992  27.666  1.00  0.00    -0.269 OA
BRANCH  27  30
ATOM     30  C   UNL A   1      35.487  30.561  28.134  1.00  0.00     0.039 A 
ATOM     31  C   UNL A   1      35.423  29.656  29.199  1.00  0.00     0.014 A 
ATOM     32  C   UNL A   1      36.716  31.121  27.783  1.00  0.00     0.014 A 
ATOM     33  C   UNL A   1      36.595  29.277  29.864  1.00  0.00     0.010 A 
ATOM     34  C   UNL A   1      37.891  30.658  28.367  1.00  0.00     0.010 A 
ATOM     35  C   UNL A   1      37.845  29.748  29.433  1.00  0.00    -0.014 A 
BRANCH  35  36
ATOM     36  C   UNL A   1      39.108  29.347  30.110  1.00  0.00     0.031 A 
ATOM     37  C   UNL A   1      39.548  30.063  31.364  1.00  0.00     0.074 A 
ATOM     38  C   UNL A   1      39.888  28.384  29.579  1.00  0.00     0.049 A 
ATOM     39  N   UNL A   1      40.646  29.911  32.061  1.00  0.00    -0.248 NA
ATOM     40  C   UNL A   1      38.652  31.108  31.886  1.00  0.00     0.031 C 
ATOM     41  C   UNL A   1      39.601  27.642  28.348  1.00  0.00     0.029 A 
ATOM     42  N   UNL A   1      41.085  27.864  30.005  1.00  0.00    -0.354 N 
ATOM     43  C   UNL A   1      40.583  30.857  33.080  1.00  0.00     0.074 A 
ATOM     44  C   UNL A   1      39.369  31.615  32.877  1.00  0.00     0.031 C 
ATOM     45  C   UNL A   1      40.575  26.740  28.140  1.00  0.00     0.029 A 
ATOM     46  C   UNL A   1      41.575  26.867  29.195  1.00  0.00     0.049 A 
ATOM     47  H   UNL A   1      41.550  28.178  30.814  1.00  0.00     0.167 HD
ATOM     48  C   UNL A   1      41.440  31.060  34.108  1.00  0.00     0.031 A 
ATOM     49  C   UNL A   1      42.704  26.136  29.288  1.00  0.00     0.031 A 
ATOM     50  C   UNL A   1      42.631  30.285  34.327  1.00  0.00     0.049 A 
ATOM     51  C   UNL A   1      43.638  26.373  30.443  1.00  0.00     0.074 A 
ATOM     52  C   UNL A   1      43.534  30.373  35.372  1.00  0.00     0.029 A 
ATOM     53  N   UNL A   1      43.079  29.273  33.493  1.00  0.00    -0.354 N 
ATOM     54  N   UNL A   1      43.530  27.236  31.427  1.00  0.00    -0.248 NA
ATOM     55  C   UNL A   1      44.840  25.530  30.510  1.00  0.00     0.031 C 
ATOM     56  C   UNL A   1      44.554  29.442  35.145  1.00  0.00     0.029 A 
ATOM     57  C   UNL A   1      44.256  28.739  33.989  1.00  0.00     0.049 A 
ATOM     58  H   UNL A   1      42.628  28.978  32.669  1.00  0.00     0.167 HD
ATOM     59  C   UNL A   1      44.636  27.020  32.242  1.00  0.00     0.074 A 
ATOM     60  C   UNL A   1      45.392  25.937  31.645  1.00  0.00     0.031 C 
ATOM     61  C   UNL A   1      44.993  27.660  33.383  1.00  0.00     0.031 A 
BRANCH  48  62
ATOM     62  C   UNL A   1      41.114  32.168  35.077  1.00  0.00    -0.014 A 
ATOM     63  C   UNL A   1      40.356  31.919  36.235  1.00  0.00     0.010 A 
ATOM     64  C   UNL A   1      41.596  33.468  34.843  1.00  0.00     0.010 A 
ATOM     65  C   UNL A   1      40.044  32.958  37.116  1.00  0.00     0.020 A 
ATOM     66  C   UNL A   1      41.312  34.505  35.738  1.00  0.00     0.020 A 
ATOM     67  C   UNL A   1      40.521  34.246  36.860  1.00  0.00     0.054 A 
BRANCH  67  68
ATOM     68  S   UNL A   1      40.117  35.572  38.029  1.00  0.00     0.124 S 
ATOM     69  O   UNL A   1      41.341  35.656  38.823  1.00  0.00    -0.237 OA
ATOM     70  O   UNL A   1      39.861  36.710  37.148  1.00  0.00    -0.237 OA
ATOM     71  O   UNL A   1      38.947  35.063  38.740  1.00  0.00    -0.744 OA
ENDBRANCH  67  68
ENDBRANCH  48  62
BRANCH  49  72
ATOM     72  C   UNL A   1      43.000  25.090  28.271  1.00  0.00    -0.014 A 
ATOM     73  C   UNL A   1      43.921  25.341  27.238  1.00  0.00     0.010 A 
ATOM     74  C   UNL A   1      42.372  23.832  28.335  1.00  0.00     0.010 A 
ATOM     75  C   UNL A   1      44.197  24.361  26.279  1.00  0.00     0.020 A 
ATOM     76  C   UNL A   1      42.667  22.841  27.395  1.00  0.00     0.020 A 
ATOM     77  C   UNL A   1      43.569  23.117  26.365  1.00  0.00     0.054 A 
BRANCH  77  78
ATOM     78  S   UNL A   1      43.983  21.841  25.141  1.00  0.00     0.124 S 
ATOM     79  O   UNL A   1      43.044  20.778  25.482  1.00  0.00    -0.237 OA
ATOM     80  O   UNL A   1      43.732  22.525  23.875  1.00  0.00    -0.237 OA
ATOM     81  O   UNL A   1      45.388  21.549  25.415  1.00  0.00    -0.744 OA
ENDBRANCH  77  78
ENDBRANCH  49  72
BRANCH  61  82
ATOM     82  C   UNL A   1      46.237  27.184  34.085  1.00  0.00    -0.014 A 
ATOM     83  C   UNL A   1      46.187  26.149  35.035  1.00  0.00     0.010 A 
ATOM     84  C   UNL A   1      47.481  27.743  33.742  1.00  0.00     0.010 A 
ATOM     85  C   UNL A   1      47.358  25.702  35.651  1.00  0.00     0.020 A 
ATOM     86  C   UNL A   1      48.658  27.280  34.336  1.00  0.00     0.020 A 
ATOM     87  C   UNL A   1      48.586  26.271  35.298  1.00  0.00     0.054 A 
BRANCH  87  88
ATOM     88  S   UNL A   1      50.098  25.640  36.078  1.00  0.00     0.124 S 
ATOM     89  O   UNL A   1      50.784  26.873  36.450  1.00  0.00    -0.237 OA
ATOM     90  O   UNL A   1      49.579  24.848  37.191  1.00  0.00    -0.237 OA
ATOM     91  O   UNL A   1      50.738  24.865  35.017  1.00  0.00    -0.744 OA
ENDBRANCH  87  88
ENDBRANCH  61  82
ENDBRANCH  35  36
ENDBRANCH  27  30
ENDBRANCH  25  26
ENDBRANCH  24  25
ENDBRANCH   1  24
TORSDOF 17
ENDMDL
