MODEL 1
REMARK VINA RESULT:     -13.0      0.000      0.000
REMARK SMILES O=C(NCCCNC(=O)[C@H]1C[C@](O)(c2ccccc2Cl)[C@@H](c2ccccc2Cl)O1)c1ccc(-c2c3nc(c(-c4ccc(S(=O)(=O)[O-])cc4)c4ccc([nH]4)c(-c4ccc(S(=O)(=O)[O-])cc4)c4nc(c(-c5ccc(S(=O)(=O)[O-])cc5)c5ccc2[nH]5)C=C4)C=C3)cc1
REMARK SMILES IDX 4 1 3 2 1 3 2 4 30 6 31 7 89 8 32 9 88 10 33 11 34 12 35 13
REMARK SMILES IDX 82 14 36 15 87 16 81 17 83 18 37 19 86 20 80 21 79 22 38 24
REMARK SMILES IDX 68 25 49 26 67 27 50 28 53 29 66 30 84 31 51 32 52 33 65 35
REMARK SMILES IDX 85 36 54 37 39 38 40 39 48 40 41 41 47 42 42 43 43 44 44 45
REMARK SMILES IDX 45 46 46 47 69 48 70 49 78 50 71 51 77 52 72 53 73 54 74 55
REMARK SMILES IDX 75 56 76 57 55 58 56 59 64 60 57 61 63 62 58 63 59 64 60 65
REMARK SMILES IDX 61 66 62 67 5 68 6 69 7 70 8 71 9 73 10 74 11 75 29 76 12 77
REMARK SMILES IDX 21 78 14 79 15 80 19 81 16 82 18 83 20 84 17 85 13 86 22 88
REMARK SMILES IDX 23 89 27 90 24 91 26 92 28 93 25 94
REMARK H PARENT 3 5 83 23 53 34 7 72 13 87
REMARK Flexibility Score: inf
ROOT
ATOM      1  C   UNL A   1      41.232  23.186  27.191  1.00  0.00     0.118 C 
ENDROOT
BRANCH   1   2
ATOM      2  N   UNL A   1      41.449  24.169  26.132  1.00  0.00    -0.352 N 
ATOM      3  O   UNL A   1      41.532  26.130  25.023  1.00  0.00    -0.269 OA
ATOM      4  C   UNL A   1      41.358  25.544  26.092  1.00  0.00     0.251 C 
ATOM      5  H   UNL A   1      41.716  23.768  25.274  1.00  0.00     0.163 HD
BRANCH   4   6
ATOM      6  C   UNL A   1      41.003  26.328  27.295  1.00  0.00     0.039 A 
ATOM      7  C   UNL A   1      41.719  27.466  27.629  1.00  0.00     0.014 A 
ATOM      8  C   UNL A   1      39.928  25.938  28.108  1.00  0.00     0.014 A 
ATOM      9  C   UNL A   1      41.562  28.039  28.876  1.00  0.00     0.010 A 
ATOM     10  C   UNL A   1      39.642  26.643  29.287  1.00  0.00     0.010 A 
ATOM     11  C   UNL A   1      40.490  27.675  29.706  1.00  0.00    -0.014 A 
BRANCH  11  12
ATOM     12  C   UNL A   1      40.295  28.480  30.942  1.00  0.00     0.031 A 
ATOM     13  C   UNL A   1      41.264  28.415  32.089  1.00  0.00     0.074 A 
ATOM     14  C   UNL A   1      39.307  29.403  30.928  1.00  0.00     0.049 A 
ATOM     15  N   UNL A   1      41.331  29.190  33.142  1.00  0.00    -0.248 NA
ATOM     16  C   UNL A   1      42.277  27.347  32.068  1.00  0.00     0.031 C 
ATOM     17  C   UNL A   1      38.299  29.534  29.867  1.00  0.00     0.029 A 
ATOM     18  N   UNL A   1      39.041  30.460  31.759  1.00  0.00    -0.354 N 
ATOM     19  C   UNL A   1      42.372  28.693  33.917  1.00  0.00     0.074 A 
ATOM     20  C   UNL A   1      42.899  27.537  33.225  1.00  0.00     0.031 C 
ATOM     21  C   UNL A   1      37.634  30.683  30.028  1.00  0.00     0.029 A 
ATOM     22  C   UNL A   1      38.078  31.312  31.264  1.00  0.00     0.049 A 
ATOM     23  H   UNL A   1      39.494  30.597  32.623  1.00  0.00     0.167 HD
ATOM     24  C   UNL A   1      42.843  29.161  35.100  1.00  0.00     0.031 A 
ATOM     25  C   UNL A   1      37.596  32.470  31.750  1.00  0.00     0.031 A 
ATOM     26  C   UNL A   1      42.303  30.314  35.775  1.00  0.00     0.049 A 
ATOM     27  C   UNL A   1      38.148  32.974  33.048  1.00  0.00     0.074 A 
ATOM     28  C   UNL A   1      42.677  30.856  36.992  1.00  0.00     0.029 A 
ATOM     29  N   UNL A   1      41.280  31.112  35.281  1.00  0.00    -0.354 N 
ATOM     30  N   UNL A   1      39.116  32.470  33.776  1.00  0.00    -0.248 NA
ATOM     31  C   UNL A   1      37.535  34.187  33.602  1.00  0.00     0.031 C 
ATOM     32  C   UNL A   1      41.855  31.959  37.252  1.00  0.00     0.029 A 
ATOM     33  C   UNL A   1      41.004  32.137  36.171  1.00  0.00     0.049 A 
ATOM     34  H   UNL A   1      40.817  30.970  34.424  1.00  0.00     0.167 HD
ATOM     35  C   UNL A   1      39.217  33.294  34.887  1.00  0.00     0.074 A 
ATOM     36  C   UNL A   1      38.248  34.358  34.707  1.00  0.00     0.031 C 
ATOM     37  C   UNL A   1      40.022  33.171  35.971  1.00  0.00     0.031 A 
BRANCH  24  38
ATOM     38  C   UNL A   1      43.974  28.409  35.753  1.00  0.00    -0.014 A 
ATOM     39  C   UNL A   1      45.315  28.765  35.521  1.00  0.00     0.010 A 
ATOM     40  C   UNL A   1      43.693  27.357  36.645  1.00  0.00     0.010 A 
ATOM     41  C   UNL A   1      46.353  28.064  36.145  1.00  0.00     0.020 A 
ATOM     42  C   UNL A   1      44.726  26.670  37.289  1.00  0.00     0.020 A 
ATOM     43  C   UNL A   1      46.052  27.018  37.022  1.00  0.00     0.054 A 
BRANCH  43  44
ATOM     44  S   UNL A   1      47.418  26.141  37.834  1.00  0.00     0.124 S 
ATOM     45  O   UNL A   1      48.585  26.771  37.223  1.00  0.00    -0.237 OA
ATOM     46  O   UNL A   1      47.205  26.451  39.246  1.00  0.00    -0.237 OA
ATOM     47  O   UNL A   1      47.202  24.744  37.467  1.00  0.00    -0.744 OA
ENDBRANCH  43  44
ENDBRANCH  24  38
BRANCH  25  48
ATOM     48  C   UNL A   1      36.500  33.180  31.032  1.00  0.00    -0.014 A 
ATOM     49  C   UNL A   1      35.220  33.317  31.596  1.00  0.00     0.010 A 
ATOM     50  C   UNL A   1      36.751  33.753  29.770  1.00  0.00     0.010 A 
ATOM     51  C   UNL A   1      34.212  34.001  30.907  1.00  0.00     0.020 A 
ATOM     52  C   UNL A   1      35.760  34.470  29.097  1.00  0.00     0.020 A 
ATOM     53  C   UNL A   1      34.490  34.575  29.662  1.00  0.00     0.054 A 
BRANCH  53  54
ATOM     54  S   UNL A   1      33.190  35.504  28.802  1.00  0.00     0.124 S 
ATOM     55  O   UNL A   1      33.967  36.487  28.055  1.00  0.00    -0.237 OA
ATOM     56  O   UNL A   1      32.535  34.472  28.003  1.00  0.00    -0.237 OA
ATOM     57  O   UNL A   1      32.379  36.042  29.893  1.00  0.00    -0.744 OA
ENDBRANCH  53  54
ENDBRANCH  25  48
BRANCH  37  58
ATOM     58  C   UNL A   1      39.877  34.224  37.033  1.00  0.00    -0.014 A 
ATOM     59  C   UNL A   1      39.032  34.020  38.139  1.00  0.00     0.010 A 
ATOM     60  C   UNL A   1      40.601  35.424  36.926  1.00  0.00     0.010 A 
ATOM     61  C   UNL A   1      38.878  35.022  39.097  1.00  0.00     0.020 A 
ATOM     62  C   UNL A   1      40.468  36.417  37.898  1.00  0.00     0.020 A 
ATOM     63  C   UNL A   1      39.592  36.217  38.967  1.00  0.00     0.054 A 
BRANCH  63  64
ATOM     64  S   UNL A   1      39.386  37.500  40.231  1.00  0.00     0.124 S 
ATOM     65  O   UNL A   1      40.738  38.041  40.336  1.00  0.00    -0.237 OA
ATOM     66  O   UNL A   1      38.397  38.391  39.630  1.00  0.00    -0.237 OA
ATOM     67  O   UNL A   1      38.919  36.758  41.401  1.00  0.00    -0.744 OA
ENDBRANCH  63  64
ENDBRANCH  37  58
ENDBRANCH  11  12
ENDBRANCH   4   6
ENDBRANCH   1   2
BRANCH   1  68
ATOM     68  C   UNL A   1      40.936  21.785  26.691  1.00  0.00     0.042 C 
BRANCH  68  69
ATOM     69  C   UNL A   1      39.535  21.621  26.139  1.00  0.00     0.117 C 
BRANCH  69  70
ATOM     70  N   UNL A   1      38.651  22.754  26.299  1.00  0.00    -0.354 N 
ATOM     71  C   UNL A   1      37.438  22.996  25.734  1.00  0.00     0.249 C 
ATOM     72  H   UNL A   1      38.975  23.454  26.909  1.00  0.00     0.163 HD
ATOM     73  O   UNL A   1      36.857  24.018  26.124  1.00  0.00    -0.272 OA
BRANCH  71  74
ATOM     74  C   UNL A   1      36.746  22.082  24.676  1.00  0.00     0.211 C 
ATOM     75  C   UNL A   1      36.268  20.714  25.081  1.00  0.00     0.085 C 
ATOM     76  O   UNL A   1      35.716  22.645  23.888  1.00  0.00    -0.357 OA
ATOM     77  C   UNL A   1      34.717  20.720  25.000  1.00  0.00     0.124 C 
ATOM     78  C   UNL A   1      34.423  22.108  24.285  1.00  0.00     0.187 C 
BRANCH  77  79
ATOM     79  C   UNL A   1      34.273  19.343  24.448  1.00  0.00     0.005 A 
ATOM     80  C   UNL A   1      35.005  18.219  24.947  1.00  0.00     0.008 A 
ATOM     81  C   UNL A   1      33.203  19.039  23.590  1.00  0.00     0.047 A 
ATOM     82  C   UNL A   1      34.720  16.900  24.596  1.00  0.00     0.001 A 
ATOM     83  C   UNL A   1      32.909  17.701  23.254  1.00  0.00     0.021 A 
ATOM     84  Cl  UNL A   1      32.132  20.186  22.879  1.00  0.00    -0.084 Cl
ATOM     85  C   UNL A   1      33.662  16.639  23.746  1.00  0.00     0.002 A 
ENDBRANCH  77  79
BRANCH  77  86
ATOM     86  O   UNL A   1      34.240  20.733  26.356  1.00  0.00    -0.382 OA
ATOM     87  H   UNL A   1      34.474  21.579  26.773  1.00  0.00     0.212 HD
ENDBRANCH  77  86
BRANCH  78  88
ATOM     88  C   UNL A   1      33.680  23.244  25.011  1.00  0.00     0.003 A 
ATOM     89  C   UNL A   1      34.262  24.540  25.054  1.00  0.00     0.008 A 
ATOM     90  C   UNL A   1      32.422  23.108  25.626  1.00  0.00     0.046 A 
ATOM     91  C   UNL A   1      33.683  25.603  25.753  1.00  0.00     0.000 A 
ATOM     92  C   UNL A   1      31.848  24.175  26.337  1.00  0.00     0.021 A 
ATOM     93  Cl  UNL A   1      31.472  21.668  25.534  1.00  0.00    -0.084 Cl
ATOM     94  C   UNL A   1      32.481  25.413  26.412  1.00  0.00     0.002 A 
ENDBRANCH  78  88
ENDBRANCH  71  74
ENDBRANCH  69  70
ENDBRANCH  68  69
ENDBRANCH   1  68
TORSDOF 16
ENDMDL
MODEL 2
REMARK VINA RESULT:     -13.0      0.887      3.026
REMARK SMILES O=C(NCCCNC(=O)[C@H]1C[C@](O)(c2ccccc2Cl)[C@@H](c2ccccc2Cl)O1)c1ccc(-c2c3nc(c(-c4ccc(S(=O)(=O)[O-])cc4)c4ccc([nH]4)c(-c4ccc(S(=O)(=O)[O-])cc4)c4nc(c(-c5ccc(S(=O)(=O)[O-])cc5)c5ccc2[nH]5)C=C4)C=C3)cc1
REMARK SMILES IDX 4 1 3 2 1 3 2 4 30 6 31 7 89 8 32 9 88 10 33 11 34 12 35 13
REMARK SMILES IDX 82 14 36 15 87 16 81 17 83 18 37 19 86 20 80 21 79 22 38 24
REMARK SMILES IDX 68 25 49 26 67 27 50 28 53 29 66 30 84 31 51 32 52 33 65 35
REMARK SMILES IDX 85 36 54 37 39 38 40 39 48 40 41 41 47 42 42 43 43 44 44 45
REMARK SMILES IDX 45 46 46 47 69 48 70 49 78 50 71 51 77 52 72 53 73 54 74 55
REMARK SMILES IDX 75 56 76 57 55 58 56 59 64 60 57 61 63 62 58 63 59 64 60 65
REMARK SMILES IDX 61 66 62 67 5 68 6 69 7 70 8 71 9 73 10 74 11 75 29 76 12 77
REMARK SMILES IDX 21 78 14 79 15 80 19 81 16 82 18 83 20 84 17 85 13 86 22 88
REMARK SMILES IDX 23 89 27 90 24 91 26 92 28 93 25 94
REMARK H PARENT 3 5 83 23 53 34 7 72 13 87
REMARK Flexibility Score: inf
ROOT
ATOM      1  C   UNL A   1      41.382  23.415  27.080  1.00  0.00     0.118 C 
ENDROOT
BRANCH   1   2
ATOM      2  N   UNL A   1      41.562  24.424  26.039  1.00  0.00    -0.352 N 
ATOM      3  O   UNL A   1      41.581  26.407  24.967  1.00  0.00    -0.269 OA
ATOM      4  C   UNL A   1      41.433  25.796  26.026  1.00  0.00     0.251 C 
ATOM      5  H   UNL A   1      41.831  24.047  25.170  1.00  0.00     0.163 HD
BRANCH   4   6
ATOM      6  C   UNL A   1      41.069  26.547  27.248  1.00  0.00     0.039 A 
ATOM      7  C   UNL A   1      41.713  27.732  27.563  1.00  0.00     0.014 A 
ATOM      8  C   UNL A   1      40.057  26.077  28.098  1.00  0.00     0.014 A 
ATOM      9  C   UNL A   1      41.563  28.286  28.819  1.00  0.00     0.010 A 
ATOM     10  C   UNL A   1      39.766  26.754  29.292  1.00  0.00     0.010 A 
ATOM     11  C   UNL A   1      40.553  27.842  29.687  1.00  0.00    -0.014 A 
BRANCH  11  12
ATOM     12  C   UNL A   1      40.348  28.625  30.935  1.00  0.00     0.031 A 
ATOM     13  C   UNL A   1      41.321  28.559  32.078  1.00  0.00     0.074 A 
ATOM     14  C   UNL A   1      39.345  29.531  30.938  1.00  0.00     0.049 A 
ATOM     15  N   UNL A   1      41.379  29.319  33.143  1.00  0.00    -0.248 NA
ATOM     16  C   UNL A   1      42.352  27.509  32.038  1.00  0.00     0.031 C 
ATOM     17  C   UNL A   1      38.331  29.660  29.882  1.00  0.00     0.029 A 
ATOM     18  N   UNL A   1      39.064  30.571  31.785  1.00  0.00    -0.354 N 
ATOM     19  C   UNL A   1      42.431  28.829  33.907  1.00  0.00     0.074 A 
ATOM     20  C   UNL A   1      42.975  27.693  33.196  1.00  0.00     0.031 C 
ATOM     21  C   UNL A   1      37.647  30.796  30.063  1.00  0.00     0.029 A 
ATOM     22  C   UNL A   1      38.084  31.413  31.306  1.00  0.00     0.049 A 
ATOM     23  H   UNL A   1      39.516  30.703  32.650  1.00  0.00     0.167 HD
ATOM     24  C   UNL A   1      42.897  29.287  35.095  1.00  0.00     0.031 A 
ATOM     25  C   UNL A   1      37.584  32.556  31.811  1.00  0.00     0.031 A 
ATOM     26  C   UNL A   1      42.339  30.420  35.789  1.00  0.00     0.049 A 
ATOM     27  C   UNL A   1      38.131  33.050  33.115  1.00  0.00     0.074 A 
ATOM     28  C   UNL A   1      42.708  30.950  37.014  1.00  0.00     0.029 A 
ATOM     29  N   UNL A   1      41.302  31.208  35.311  1.00  0.00    -0.354 N 
ATOM     30  N   UNL A   1      39.111  32.551  33.832  1.00  0.00    -0.248 NA
ATOM     31  C   UNL A   1      37.500  34.243  33.688  1.00  0.00     0.031 C 
ATOM     32  C   UNL A   1      41.869  32.035  37.292  1.00  0.00     0.029 A 
ATOM     33  C   UNL A   1      41.011  32.214  36.217  1.00  0.00     0.049 A 
ATOM     34  H   UNL A   1      40.838  31.071  34.452  1.00  0.00     0.167 HD
ATOM     35  C   UNL A   1      39.200  33.360  34.955  1.00  0.00     0.074 A 
ATOM     36  C   UNL A   1      38.213  34.410  34.794  1.00  0.00     0.031 C 
ATOM     37  C   UNL A   1      40.011  33.234  36.035  1.00  0.00     0.031 A 
BRANCH  24  38
ATOM     38  C   UNL A   1      44.043  28.545  35.734  1.00  0.00    -0.014 A 
ATOM     39  C   UNL A   1      43.816  27.456  36.595  1.00  0.00     0.010 A 
ATOM     40  C   UNL A   1      45.368  28.915  35.438  1.00  0.00     0.010 A 
ATOM     41  C   UNL A   1      44.891  26.771  37.170  1.00  0.00     0.020 A 
ATOM     42  C   UNL A   1      46.447  28.217  35.992  1.00  0.00     0.020 A 
ATOM     43  C   UNL A   1      46.200  27.158  36.869  1.00  0.00     0.054 A 
BRANCH  43  44
ATOM     44  S   UNL A   1      47.576  26.237  37.612  1.00  0.00     0.124 S 
ATOM     45  O   UNL A   1      47.288  24.870  37.183  1.00  0.00    -0.237 OA
ATOM     46  O   UNL A   1      48.747  26.853  36.994  1.00  0.00    -0.237 OA
ATOM     47  O   UNL A   1      47.427  26.484  39.044  1.00  0.00    -0.744 OA
ENDBRANCH  43  44
ENDBRANCH  24  38
BRANCH  25  48
ATOM     48  C   UNL A   1      36.474  33.257  31.106  1.00  0.00    -0.014 A 
ATOM     49  C   UNL A   1      35.205  33.403  31.695  1.00  0.00     0.010 A 
ATOM     50  C   UNL A   1      36.699  33.815  29.833  1.00  0.00     0.010 A 
ATOM     51  C   UNL A   1      34.184  34.079  31.018  1.00  0.00     0.020 A 
ATOM     52  C   UNL A   1      35.695  34.524  29.171  1.00  0.00     0.020 A 
ATOM     53  C   UNL A   1      34.437  34.637  29.762  1.00  0.00     0.054 A 
BRANCH  53  54
ATOM     54  S   UNL A   1      33.120  35.556  28.917  1.00  0.00     0.124 S 
ATOM     55  O   UNL A   1      33.881  36.537  28.151  1.00  0.00    -0.237 OA
ATOM     56  O   UNL A   1      32.455  34.517  28.135  1.00  0.00    -0.237 OA
ATOM     57  O   UNL A   1      32.325  36.098  30.017  1.00  0.00    -0.744 OA
ENDBRANCH  53  54
ENDBRANCH  25  48
BRANCH  37  58
ATOM     58  C   UNL A   1      39.852  34.269  37.113  1.00  0.00    -0.014 A 
ATOM     59  C   UNL A   1      39.040  34.021  38.235  1.00  0.00     0.010 A 
ATOM     60  C   UNL A   1      40.528  35.496  37.005  1.00  0.00     0.010 A 
ATOM     61  C   UNL A   1      38.871  35.005  39.209  1.00  0.00     0.020 A 
ATOM     62  C   UNL A   1      40.381  36.472  37.992  1.00  0.00     0.020 A 
ATOM     63  C   UNL A   1      39.537  36.227  39.078  1.00  0.00     0.054 A 
BRANCH  63  64
ATOM     64  S   UNL A   1      39.313  37.486  40.362  1.00  0.00     0.124 S 
ATOM     65  O   UNL A   1      38.265  38.325  39.785  1.00  0.00    -0.237 OA
ATOM     66  O   UNL A   1      38.916  36.695  41.525  1.00  0.00    -0.237 OA
ATOM     67  O   UNL A   1      40.629  38.114  40.463  1.00  0.00    -0.744 OA
ENDBRANCH  63  64
ENDBRANCH  37  58
ENDBRANCH  11  12
ENDBRANCH   4   6
ENDBRANCH   1   2
BRANCH   1  68
ATOM     68  C   UNL A   1      40.458  22.275  26.693  1.00  0.00     0.042 C 
BRANCH  68  69
ATOM     69  C   UNL A   1      39.002  22.680  26.598  1.00  0.00     0.117 C 
BRANCH  69  70
ATOM     70  N   UNL A   1      38.381  22.526  25.302  1.00  0.00    -0.354 N 
ATOM     71  C   UNL A   1      37.190  23.001  24.847  1.00  0.00     0.249 C 
ATOM     72  H   UNL A   1      38.898  22.000  24.651  1.00  0.00     0.163 HD
ATOM     73  O   UNL A   1      36.948  22.788  23.651  1.00  0.00    -0.272 OA
BRANCH  71  74
ATOM     74  C   UNL A   1      36.156  23.790  25.707  1.00  0.00     0.211 C 
ATOM     75  C   UNL A   1      35.294  24.835  25.052  1.00  0.00     0.085 C 
ATOM     76  O   UNL A   1      35.304  23.051  26.560  1.00  0.00    -0.357 OA
ATOM     77  C   UNL A   1      33.827  24.325  25.098  1.00  0.00     0.124 C 
ATOM     78  C   UNL A   1      33.944  23.053  26.044  1.00  0.00     0.187 C 
BRANCH  77  79
ATOM     79  C   UNL A   1      32.918  25.544  25.383  1.00  0.00     0.005 A 
ATOM     80  C   UNL A   1      33.535  26.611  26.109  1.00  0.00     0.008 A 
ATOM     81  C   UNL A   1      31.600  25.781  24.958  1.00  0.00     0.047 A 
ATOM     82  C   UNL A   1      32.884  27.805  26.420  1.00  0.00     0.001 A 
ATOM     83  C   UNL A   1      30.955  26.998  25.260  1.00  0.00     0.021 A 
ATOM     84  Cl  UNL A   1      30.634  24.693  24.034  1.00  0.00    -0.084 Cl
ATOM     85  C   UNL A   1      31.587  28.001  25.989  1.00  0.00     0.002 A 
ENDBRANCH  77  79
BRANCH  77  86
ATOM     86  O   UNL A   1      33.493  23.932  23.755  1.00  0.00    -0.382 OA
ATOM     87  H   UNL A   1      33.771  23.014  23.607  1.00  0.00     0.212 HD
ENDBRANCH  77  86
BRANCH  78  88
ATOM     88  C   UNL A   1      33.671  21.633  25.517  1.00  0.00     0.003 A 
ATOM     89  C   UNL A   1      34.767  20.763  25.263  1.00  0.00     0.008 A 
ATOM     90  C   UNL A   1      32.390  21.099  25.291  1.00  0.00     0.046 A 
ATOM     91  C   UNL A   1      34.604  19.486  24.718  1.00  0.00     0.000 A 
ATOM     92  C   UNL A   1      32.230  19.819  24.733  1.00  0.00     0.021 A 
ATOM     93  Cl  UNL A   1      30.931  21.927  25.702  1.00  0.00    -0.084 Cl
ATOM     94  C   UNL A   1      33.332  19.021  24.435  1.00  0.00     0.002 A 
ENDBRANCH  78  88
ENDBRANCH  71  74
ENDBRANCH  69  70
ENDBRANCH  68  69
ENDBRANCH   1  68
TORSDOF 16
ENDMDL
MODEL 3
REMARK VINA RESULT:     -12.6      6.602     11.963
REMARK SMILES O=C(NCCCNC(=O)[C@H]1C[C@](O)(c2ccccc2Cl)[C@@H](c2ccccc2Cl)O1)c1ccc(-c2c3nc(c(-c4ccc(S(=O)(=O)[O-])cc4)c4ccc([nH]4)c(-c4ccc(S(=O)(=O)[O-])cc4)c4nc(c(-c5ccc(S(=O)(=O)[O-])cc5)c5ccc2[nH]5)C=C4)C=C3)cc1
REMARK SMILES IDX 4 1 3 2 1 3 2 4 30 6 31 7 89 8 32 9 88 10 33 11 34 12 35 13
REMARK SMILES IDX 82 14 36 15 87 16 81 17 83 18 37 19 86 20 80 21 79 22 38 24
REMARK SMILES IDX 68 25 49 26 67 27 50 28 53 29 66 30 84 31 51 32 52 33 65 35
REMARK SMILES IDX 85 36 54 37 39 38 40 39 48 40 41 41 47 42 42 43 43 44 44 45
REMARK SMILES IDX 45 46 46 47 69 48 70 49 78 50 71 51 77 52 72 53 73 54 74 55
REMARK SMILES IDX 75 56 76 57 55 58 56 59 64 60 57 61 63 62 58 63 59 64 60 65
REMARK SMILES IDX 61 66 62 67 5 68 6 69 7 70 8 71 9 73 10 74 11 75 29 76 12 77
REMARK SMILES IDX 21 78 14 79 15 80 19 81 16 82 18 83 20 84 17 85 13 86 22 88
REMARK SMILES IDX 23 89 27 90 24 91 26 92 28 93 25 94
REMARK H PARENT 3 5 83 23 53 34 7 72 13 87
REMARK Flexibility Score: inf
ROOT
ATOM      1  C   UNL A   1      35.550  30.610  28.228  1.00  0.00     0.118 C 
ENDROOT
BRANCH   1   2
ATOM      2  N   UNL A   1      35.572  30.263  29.647  1.00  0.00    -0.352 N 
ATOM      3  O   UNL A   1      36.288  29.530  31.656  1.00  0.00    -0.269 OA
ATOM      4  C   UNL A   1      36.567  29.819  30.491  1.00  0.00     0.251 C 
ATOM      5  H   UNL A   1      34.700  30.369  30.091  1.00  0.00     0.163 HD
BRANCH   4   6
ATOM      6  C   UNL A   1      37.955  29.632  30.015  1.00  0.00     0.039 A 
ATOM      7  C   UNL A   1      38.313  30.003  28.729  1.00  0.00     0.014 A 
ATOM      8  C   UNL A   1      38.932  29.089  30.863  1.00  0.00     0.014 A 
ATOM      9  C   UNL A   1      39.522  29.590  28.203  1.00  0.00     0.010 A 
ATOM     10  C   UNL A   1      40.229  28.847  30.383  1.00  0.00     0.010 A 
ATOM     11  C   UNL A   1      40.521  29.052  29.029  1.00  0.00    -0.014 A 
BRANCH  11  12
ATOM     12  C   UNL A   1      41.852  28.816  28.406  1.00  0.00     0.031 A 
ATOM     13  C   UNL A   1      42.940  29.852  28.450  1.00  0.00     0.074 A 
ATOM     14  C   UNL A   1      42.106  27.571  27.948  1.00  0.00     0.049 A 
ATOM     15  N   UNL A   1      44.201  29.722  28.123  1.00  0.00    -0.248 NA
ATOM     16  C   UNL A   1      42.578  31.205  28.903  1.00  0.00     0.031 C 
ATOM     17  C   UNL A   1      41.108  26.496  27.845  1.00  0.00     0.029 A 
ATOM     18  N   UNL A   1      43.278  26.959  27.584  1.00  0.00    -0.354 N 
ATOM     19  C   UNL A   1      44.776  30.973  28.306  1.00  0.00     0.074 A 
ATOM     20  C   UNL A   1      43.724  31.858  28.757  1.00  0.00     0.031 C 
ATOM     21  C   UNL A   1      41.730  25.338  27.597  1.00  0.00     0.029 A 
ATOM     22  C   UNL A   1      43.149  25.600  27.403  1.00  0.00     0.049 A 
ATOM     23  H   UNL A   1      44.127  27.444  27.464  1.00  0.00     0.167 HD
ATOM     24  C   UNL A   1      46.065  31.347  28.115  1.00  0.00     0.031 A 
ATOM     25  C   UNL A   1      44.067  24.661  27.107  1.00  0.00     0.031 A 
ATOM     26  C   UNL A   1      47.098  30.450  27.663  1.00  0.00     0.049 A 
ATOM     27  C   UNL A   1      45.487  25.099  26.921  1.00  0.00     0.074 A 
ATOM     28  C   UNL A   1      48.429  30.727  27.401  1.00  0.00     0.029 A 
ATOM     29  N   UNL A   1      46.919  29.095  27.420  1.00  0.00    -0.354 N 
ATOM     30  N   UNL A   1      46.001  26.297  27.075  1.00  0.00    -0.248 NA
ATOM     31  C   UNL A   1      46.447  24.072  26.503  1.00  0.00     0.031 C 
ATOM     32  C   UNL A   1      49.044  29.548  26.964  1.00  0.00     0.029 A 
ATOM     33  C   UNL A   1      48.110  28.524  27.005  1.00  0.00     0.049 A 
ATOM     34  H   UNL A   1      46.068  28.610  27.527  1.00  0.00     0.167 HD
ATOM     35  C   UNL A   1      47.345  26.171  26.753  1.00  0.00     0.074 A 
ATOM     36  C   UNL A   1      47.572  24.772  26.449  1.00  0.00     0.031 C 
ATOM     37  C   UNL A   1      48.301  27.131  26.693  1.00  0.00     0.031 A 
BRANCH  24  38
ATOM     38  C   UNL A   1      46.422  32.790  28.360  1.00  0.00    -0.014 A 
ATOM     39  C   UNL A   1      46.271  33.760  27.353  1.00  0.00     0.010 A 
ATOM     40  C   UNL A   1      46.878  33.193  29.630  1.00  0.00     0.010 A 
ATOM     41  C   UNL A   1      46.596  35.098  27.601  1.00  0.00     0.020 A 
ATOM     42  C   UNL A   1      47.182  34.533  29.890  1.00  0.00     0.020 A 
ATOM     43  C   UNL A   1      47.054  35.475  28.867  1.00  0.00     0.054 A 
BRANCH  43  44
ATOM     44  S   UNL A   1      47.446  37.221  29.167  1.00  0.00     0.124 S 
ATOM     45  O   UNL A   1      48.063  37.613  27.902  1.00  0.00    -0.237 OA
ATOM     46  O   UNL A   1      46.134  37.806  29.431  1.00  0.00    -0.237 OA
ATOM     47  O   UNL A   1      48.350  37.183  30.314  1.00  0.00    -0.744 OA
ENDBRANCH  43  44
ENDBRANCH  24  38
BRANCH  25  48
ATOM     48  C   UNL A   1      43.648  23.245  26.913  1.00  0.00    -0.014 A 
ATOM     49  C   UNL A   1      43.094  22.492  27.964  1.00  0.00     0.010 A 
ATOM     50  C   UNL A   1      43.780  22.646  25.645  1.00  0.00     0.010 A 
ATOM     51  C   UNL A   1      42.695  21.167  27.751  1.00  0.00     0.020 A 
ATOM     52  C   UNL A   1      43.347  21.338  25.420  1.00  0.00     0.020 A 
ATOM     53  C   UNL A   1      42.823  20.600  26.480  1.00  0.00     0.054 A 
BRANCH  53  54
ATOM     54  S   UNL A   1      42.254  18.899  26.204  1.00  0.00     0.124 S 
ATOM     55  O   UNL A   1      42.398  18.315  27.533  1.00  0.00    -0.237 OA
ATOM     56  O   UNL A   1      40.882  19.092  25.741  1.00  0.00    -0.237 OA
ATOM     57  O   UNL A   1      43.178  18.393  25.191  1.00  0.00    -0.744 OA
ENDBRANCH  53  54
ENDBRANCH  25  48
BRANCH  37  58
ATOM     58  C   UNL A   1      49.674  26.679  26.285  1.00  0.00    -0.014 A 
ATOM     59  C   UNL A   1      50.122  26.841  24.961  1.00  0.00     0.010 A 
ATOM     60  C   UNL A   1      50.527  26.096  27.238  1.00  0.00     0.010 A 
ATOM     61  C   UNL A   1      51.385  26.382  24.587  1.00  0.00     0.020 A 
ATOM     62  C   UNL A   1      51.802  25.660  26.871  1.00  0.00     0.020 A 
ATOM     63  C   UNL A   1      52.214  25.788  25.543  1.00  0.00     0.054 A 
BRANCH  63  64
ATOM     64  S   UNL A   1      53.856  25.211  25.037  1.00  0.00     0.124 S 
ATOM     65  O   UNL A   1      54.057  25.931  23.783  1.00  0.00    -0.237 OA
ATOM     66  O   UNL A   1      54.705  25.635  26.149  1.00  0.00    -0.237 OA
ATOM     67  O   UNL A   1      53.688  23.765  24.906  1.00  0.00    -0.744 OA
ENDBRANCH  63  64
ENDBRANCH  37  58
ENDBRANCH  11  12
ENDBRANCH   4   6
ENDBRANCH   1   2
BRANCH   1  68
ATOM     68  C   UNL A   1      34.959  29.538  27.333  1.00  0.00     0.042 C 
BRANCH  68  69
ATOM     69  C   UNL A   1      33.643  29.937  26.697  1.00  0.00     0.117 C 
BRANCH  69  70
ATOM     70  N   UNL A   1      32.453  29.365  27.284  1.00  0.00    -0.354 N 
ATOM     71  C   UNL A   1      31.976  28.093  27.219  1.00  0.00     0.249 C 
ATOM     72  H   UNL A   1      31.905  29.990  27.811  1.00  0.00     0.163 HD
ATOM     73  O   UNL A   1      30.968  27.861  27.900  1.00  0.00    -0.272 OA
BRANCH  71  74
ATOM     74  C   UNL A   1      32.616  26.941  26.384  1.00  0.00     0.211 C 
ATOM     75  C   UNL A   1      32.037  25.555  26.471  1.00  0.00     0.085 C 
ATOM     76  O   UNL A   1      32.870  27.180  25.013  1.00  0.00    -0.357 OA
ATOM     77  C   UNL A   1      31.425  25.219  25.083  1.00  0.00     0.124 C 
ATOM     78  C   UNL A   1      31.941  26.426  24.187  1.00  0.00     0.187 C 
BRANCH  77  79
ATOM     79  C   UNL A   1      31.719  23.727  24.792  1.00  0.00     0.005 A 
ATOM     80  C   UNL A   1      32.650  23.482  23.734  1.00  0.00     0.008 A 
ATOM     81  C   UNL A   1      31.261  22.588  25.474  1.00  0.00     0.047 A 
ATOM     82  C   UNL A   1      33.068  22.206  23.360  1.00  0.00     0.001 A 
ATOM     83  C   UNL A   1      31.703  21.302  25.102  1.00  0.00     0.021 A 
ATOM     84  Cl  UNL A   1      30.173  22.590  26.811  1.00  0.00    -0.084 Cl
ATOM     85  C   UNL A   1      32.594  21.108  24.051  1.00  0.00     0.002 A 
ENDBRANCH  77  79
BRANCH  77  86
ATOM     86  O   UNL A   1      29.997  25.279  25.245  1.00  0.00    -0.382 OA
ATOM     87  H   UNL A   1      29.615  25.835  24.547  1.00  0.00     0.212 HD
ENDBRANCH  77  86
BRANCH  78  88
ATOM     88  C   UNL A   1      30.965  27.447  23.577  1.00  0.00     0.003 A 
ATOM     89  C   UNL A   1      29.569  27.292  23.796  1.00  0.00     0.008 A 
ATOM     90  C   UNL A   1      31.354  28.571  22.825  1.00  0.00     0.046 A 
ATOM     91  C   UNL A   1      28.617  28.137  23.218  1.00  0.00     0.000 A 
ATOM     92  C   UNL A   1      30.395  29.411  22.235  1.00  0.00     0.021 A 
ATOM     93  Cl  UNL A   1      33.002  29.033  22.594  1.00  0.00    -0.084 Cl
ATOM     94  C   UNL A   1      29.032  29.188  22.419  1.00  0.00     0.002 A 
ENDBRANCH  78  88
ENDBRANCH  71  74
ENDBRANCH  69  70
ENDBRANCH  68  69
ENDBRANCH   1  68
TORSDOF 16
ENDMDL
