MODEL 1
REMARK VINA RESULT:     -10.0      0.000      0.000
REMARK SMILES O=C(CCCC(=O)Nc1ccccc1F)NCCCNC(=O)c1ccc(-c2c3nc(c(-c4ccc(S(=O)(=O)[O-])cc4)c4ccc([nH]4)c(-c4ccc(S(=O)(=O)[O-])cc4)c4nc(c(-c5ccc(S(=O)(=O)[O-])cc5)c5ccc2[nH]5)C=C4)C=C3)cc1
REMARK SMILES IDX 17 1 16 2 1 3 2 4 3 6 4 7 5 8 6 9 7 10 8 11 9 13 10 14 14 15
REMARK SMILES IDX 11 16 13 17 15 18 12 19 18 20 19 21 20 22 21 23 22 25 23 26
REMARK SMILES IDX 24 27 82 28 25 29 81 30 26 31 27 32 28 33 75 34 29 35 80 36
REMARK SMILES IDX 74 37 76 38 30 39 79 40 73 41 72 42 31 44 61 45 42 46 60 47
REMARK SMILES IDX 43 48 46 49 59 50 77 51 44 52 45 53 58 55 78 56 47 57 32 58
REMARK SMILES IDX 33 59 41 60 34 61 40 62 35 63 36 64 37 65 38 66 39 67 62 68
REMARK SMILES IDX 63 69 71 70 64 71 70 72 65 73 66 74 67 75 68 76 69 77 48 78
REMARK SMILES IDX 49 79 57 80 50 81 56 82 51 83 52 84 53 85 54 86 55 87
REMARK H PARENT 16 5 8 12 20 24 76 43 46 54
REMARK Flexibility Score: inf
ROOT
ATOM      1  C   UNL A   1      33.724  23.179  25.616  1.00  0.00     0.117 C 
ENDROOT
BRANCH   1   2
ATOM      2  N   UNL A   1      32.927  24.368  25.395  1.00  0.00    -0.356 N 
ATOM      3  O   UNL A   1      31.552  24.023  27.194  1.00  0.00    -0.275 OA
ATOM      4  C   UNL A   1      31.891  24.710  26.235  1.00  0.00     0.220 C 
ATOM      5  H   UNL A   1      33.132  24.947  24.625  1.00  0.00     0.163 HD
BRANCH   4   6
ATOM      6  C   UNL A   1      31.158  25.985  25.862  1.00  0.00     0.100 C 
BRANCH   6   7
ATOM      7  C   UNL A   1      30.549  26.048  24.457  1.00  0.00     0.020 C 
BRANCH   7   8
ATOM      8  C   UNL A   1      29.767  27.294  24.051  1.00  0.00     0.101 C 
BRANCH   8   9
ATOM      9  C   UNL A   1      30.460  28.378  23.224  1.00  0.00     0.224 C 
ATOM     10  O   UNL A   1      30.290  28.457  22.008  1.00  0.00    -0.275 OA
ATOM     11  N   UNL A   1      31.043  29.418  23.906  1.00  0.00    -0.324 N 
ATOM     12  H   UNL A   1      30.741  30.324  23.668  1.00  0.00     0.170 HD
BRANCH  11  13
ATOM     13  C   UNL A   1      32.024  29.327  24.906  1.00  0.00     0.077 A 
ATOM     14  C   UNL A   1      31.777  29.924  26.144  1.00  0.00     0.029 A 
ATOM     15  C   UNL A   1      33.261  28.719  24.685  1.00  0.00     0.146 A 
ATOM     16  C   UNL A   1      32.705  29.788  27.182  1.00  0.00     0.002 A 
ATOM     17  C   UNL A   1      34.202  28.608  25.706  1.00  0.00     0.041 A 
ATOM     18  F   UNL A   1      33.568  28.226  23.476  1.00  0.00    -0.205 F 
ATOM     19  C   UNL A   1      33.910  29.117  26.968  1.00  0.00     0.003 A 
ENDBRANCH  11  13
ENDBRANCH   8   9
ENDBRANCH   7   8
ENDBRANCH   6   7
ENDBRANCH   4   6
ENDBRANCH   1   2
BRANCH   1  20
ATOM     20  C   UNL A   1      35.001  23.437  26.414  1.00  0.00     0.042 C 
BRANCH  20  21
ATOM     21  C   UNL A   1      36.230  23.794  25.580  1.00  0.00     0.118 C 
BRANCH  21  22
ATOM     22  N   UNL A   1      37.287  22.803  25.664  1.00  0.00    -0.352 N 
ATOM     23  C   UNL A   1      38.577  22.902  26.128  1.00  0.00     0.251 C 
ATOM     24  H   UNL A   1      37.039  21.910  25.333  1.00  0.00     0.163 HD
ATOM     25  O   UNL A   1      39.346  21.960  25.953  1.00  0.00    -0.269 OA
BRANCH  23  26
ATOM     26  C   UNL A   1      39.068  24.125  26.810  1.00  0.00     0.039 A 
ATOM     27  C   UNL A   1      39.882  25.005  26.089  1.00  0.00     0.014 A 
ATOM     28  C   UNL A   1      38.797  24.384  28.156  1.00  0.00     0.014 A 
ATOM     29  C   UNL A   1      40.374  26.166  26.696  1.00  0.00     0.010 A 
ATOM     30  C   UNL A   1      39.241  25.574  28.744  1.00  0.00     0.010 A 
ATOM     31  C   UNL A   1      40.034  26.478  28.022  1.00  0.00    -0.014 A 
BRANCH  31  32
ATOM     32  C   UNL A   1      40.497  27.746  28.652  1.00  0.00     0.031 A 
ATOM     33  C   UNL A   1      41.893  27.864  29.209  1.00  0.00     0.074 A 
ATOM     34  C   UNL A   1      39.646  28.786  28.769  1.00  0.00     0.049 A 
ATOM     35  N   UNL A   1      42.449  28.873  29.832  1.00  0.00    -0.248 NA
ATOM     36  C   UNL A   1      42.770  26.693  29.062  1.00  0.00     0.031 C 
ATOM     37  C   UNL A   1      38.259  28.801  28.298  1.00  0.00     0.029 A 
ATOM     38  N   UNL A   1      39.820  30.031  29.322  1.00  0.00    -0.354 N 
ATOM     39  C   UNL A   1      43.733  28.455  30.164  1.00  0.00     0.074 A 
ATOM     40  C   UNL A   1      43.857  27.086  29.710  1.00  0.00     0.031 C 
ATOM     41  C   UNL A   1      37.717  30.001  28.563  1.00  0.00     0.029 A 
ATOM     42  C   UNL A   1      38.701  30.828  29.255  1.00  0.00     0.049 A 
ATOM     43  H   UNL A   1      40.667  30.325  29.728  1.00  0.00     0.167 HD
ATOM     44  C   UNL A   1      44.724  29.148  30.776  1.00  0.00     0.031 A 
ATOM     45  C   UNL A   1      38.483  32.080  29.705  1.00  0.00     0.031 A 
ATOM     46  C   UNL A   1      44.610  30.514  31.218  1.00  0.00     0.049 A 
ATOM     47  C   UNL A   1      39.593  32.824  30.394  1.00  0.00     0.074 A 
ATOM     48  C   UNL A   1      45.579  31.313  31.799  1.00  0.00     0.029 A 
ATOM     49  N   UNL A   1      43.459  31.282  31.130  1.00  0.00    -0.354 N 
ATOM     50  N   UNL A   1      40.817  32.428  30.648  1.00  0.00    -0.248 NA
ATOM     51  C   UNL A   1      39.295  34.189  30.849  1.00  0.00     0.031 C 
ATOM     52  C   UNL A   1      45.001  32.550  32.107  1.00  0.00     0.029 A 
ATOM     53  C   UNL A   1      43.688  32.538  31.668  1.00  0.00     0.049 A 
ATOM     54  H   UNL A   1      42.607  30.981  30.742  1.00  0.00     0.167 HD
ATOM     55  C   UNL A   1      41.441  33.503  31.271  1.00  0.00     0.074 A 
ATOM     56  C   UNL A   1      40.465  34.570  31.344  1.00  0.00     0.031 C 
ATOM     57  C   UNL A   1      42.709  33.595  31.739  1.00  0.00     0.031 A 
BRANCH  44  58
ATOM     58  C   UNL A   1      46.029  28.433  31.015  1.00  0.00    -0.014 A 
ATOM     59  C   UNL A   1      46.243  27.686  32.187  1.00  0.00     0.010 A 
ATOM     60  C   UNL A   1      47.038  28.475  30.036  1.00  0.00     0.010 A 
ATOM     61  C   UNL A   1      47.460  27.030  32.396  1.00  0.00     0.020 A 
ATOM     62  C   UNL A   1      48.246  27.798  30.229  1.00  0.00     0.020 A 
ATOM     63  C   UNL A   1      48.457  27.096  31.417  1.00  0.00     0.054 A 
BRANCH  63  64
ATOM     64  S   UNL A   1      50.020  26.225  31.708  1.00  0.00     0.124 S 
ATOM     65  O   UNL A   1      49.653  25.299  32.777  1.00  0.00    -0.237 OA
ATOM     66  O   UNL A   1      50.293  25.610  30.412  1.00  0.00    -0.237 OA
ATOM     67  O   UNL A   1      50.943  27.289  32.095  1.00  0.00    -0.744 OA
ENDBRANCH  63  64
ENDBRANCH  44  58
BRANCH  45  68
ATOM     68  C   UNL A   1      37.152  32.715  29.507  1.00  0.00    -0.014 A 
ATOM     69  C   UNL A   1      36.149  32.591  30.484  1.00  0.00     0.010 A 
ATOM     70  C   UNL A   1      36.886  33.459  28.343  1.00  0.00     0.010 A 
ATOM     71  C   UNL A   1      34.899  33.187  30.295  1.00  0.00     0.020 A 
ATOM     72  C   UNL A   1      35.647  34.079  28.162  1.00  0.00     0.020 A 
ATOM     73  C   UNL A   1      34.657  33.929  29.135  1.00  0.00     0.054 A 
BRANCH  73  74
ATOM     74  S   UNL A   1      33.047  34.743  28.934  1.00  0.00     0.124 S 
ATOM     75  O   UNL A   1      32.357  33.830  28.029  1.00  0.00    -0.237 OA
ATOM     76  O   UNL A   1      32.539  34.781  30.303  1.00  0.00    -0.237 OA
ATOM     77  O   UNL A   1      33.393  36.046  28.370  1.00  0.00    -0.744 OA
ENDBRANCH  73  74
ENDBRANCH  45  68
BRANCH  57  78
ATOM     78  C   UNL A   1      43.131  34.905  32.349  1.00  0.00    -0.014 A 
ATOM     79  C   UNL A   1      43.789  35.885  31.584  1.00  0.00     0.010 A 
ATOM     80  C   UNL A   1      42.815  35.181  33.692  1.00  0.00     0.010 A 
ATOM     81  C   UNL A   1      44.147  37.107  32.161  1.00  0.00     0.020 A 
ATOM     82  C   UNL A   1      43.149  36.412  34.264  1.00  0.00     0.020 A 
ATOM     83  C   UNL A   1      43.825  37.364  33.497  1.00  0.00     0.054 A 
BRANCH  83  84
ATOM     84  S   UNL A   1      44.257  38.976  34.208  1.00  0.00     0.124 S 
ATOM     85  O   UNL A   1      43.030  39.739  33.996  1.00  0.00    -0.237 OA
ATOM     86  O   UNL A   1      44.557  38.643  35.599  1.00  0.00    -0.237 OA
ATOM     87  O   UNL A   1      45.404  39.408  33.415  1.00  0.00    -0.744 OA
ENDBRANCH  83  84
ENDBRANCH  57  78
ENDBRANCH  31  32
ENDBRANCH  23  26
ENDBRANCH  21  22
ENDBRANCH  20  21
ENDBRANCH   1  20
TORSDOF 17
ENDMDL
MODEL 2
REMARK VINA RESULT:      -9.7      4.232     10.034
REMARK SMILES O=C(CCCC(=O)Nc1ccccc1F)NCCCNC(=O)c1ccc(-c2c3nc(c(-c4ccc(S(=O)(=O)[O-])cc4)c4ccc([nH]4)c(-c4ccc(S(=O)(=O)[O-])cc4)c4nc(c(-c5ccc(S(=O)(=O)[O-])cc5)c5ccc2[nH]5)C=C4)C=C3)cc1
REMARK SMILES IDX 17 1 16 2 1 3 2 4 3 6 4 7 5 8 6 9 7 10 8 11 9 13 10 14 14 15
REMARK SMILES IDX 11 16 13 17 15 18 12 19 18 20 19 21 20 22 21 23 22 25 23 26
REMARK SMILES IDX 24 27 82 28 25 29 81 30 26 31 27 32 28 33 75 34 29 35 80 36
REMARK SMILES IDX 74 37 76 38 30 39 79 40 73 41 72 42 31 44 61 45 42 46 60 47
REMARK SMILES IDX 43 48 46 49 59 50 77 51 44 52 45 53 58 55 78 56 47 57 32 58
REMARK SMILES IDX 33 59 41 60 34 61 40 62 35 63 36 64 37 65 38 66 39 67 62 68
REMARK SMILES IDX 63 69 71 70 64 71 70 72 65 73 66 74 67 75 68 76 69 77 48 78
REMARK SMILES IDX 49 79 57 80 50 81 56 82 51 83 52 84 53 85 54 86 55 87
REMARK H PARENT 16 5 8 12 20 24 76 43 46 54
REMARK Flexibility Score: inf
ROOT
ATOM      1  C   UNL A   1      34.745  30.111  27.328  1.00  0.00     0.117 C 
ENDROOT
BRANCH   1   2
ATOM      2  N   UNL A   1      33.615  29.212  27.454  1.00  0.00    -0.356 N 
ATOM      3  O   UNL A   1      32.978  29.383  25.260  1.00  0.00    -0.275 OA
ATOM      4  C   UNL A   1      32.816  28.901  26.377  1.00  0.00     0.220 C 
ATOM      5  H   UNL A   1      33.415  28.814  28.332  1.00  0.00     0.163 HD
BRANCH   4   6
ATOM      6  C   UNL A   1      31.676  27.946  26.681  1.00  0.00     0.100 C 
BRANCH   6   7
ATOM      7  C   UNL A   1      31.959  26.451  26.496  1.00  0.00     0.020 C 
BRANCH   7   8
ATOM      8  C   UNL A   1      30.795  25.518  26.173  1.00  0.00     0.101 C 
BRANCH   8   9
ATOM      9  C   UNL A   1      30.719  24.863  24.793  1.00  0.00     0.224 C 
ATOM     10  O   UNL A   1      31.240  23.770  24.577  1.00  0.00    -0.275 OA
ATOM     11  N   UNL A   1      29.823  25.388  23.892  1.00  0.00    -0.324 N 
ATOM     12  H   UNL A   1      29.157  24.765  23.522  1.00  0.00     0.170 HD
BRANCH  11  13
ATOM     13  C   UNL A   1      29.757  26.716  23.444  1.00  0.00     0.077 A 
ATOM     14  C   UNL A   1      30.926  27.328  22.988  1.00  0.00     0.029 A 
ATOM     15  C   UNL A   1      28.581  27.465  23.502  1.00  0.00     0.146 A 
ATOM     16  C   UNL A   1      30.876  28.627  22.468  1.00  0.00     0.002 A 
ATOM     17  C   UNL A   1      28.533  28.770  23.015  1.00  0.00     0.041 A 
ATOM     18  F   UNL A   1      27.466  26.938  24.030  1.00  0.00    -0.205 F 
ATOM     19  C   UNL A   1      29.678  29.341  22.468  1.00  0.00     0.003 A 
ENDBRANCH  11  13
ENDBRANCH   8   9
ENDBRANCH   7   8
ENDBRANCH   6   7
ENDBRANCH   4   6
ENDBRANCH   1   2
BRANCH   1  20
ATOM     20  C   UNL A   1      34.511  31.482  27.958  1.00  0.00     0.042 C 
BRANCH  20  21
ATOM     21  C   UNL A   1      35.626  31.977  28.877  1.00  0.00     0.118 C 
BRANCH  21  22
ATOM     22  N   UNL A   1      35.538  31.445  30.224  1.00  0.00    -0.352 N 
ATOM     23  C   UNL A   1      36.404  30.649  30.935  1.00  0.00     0.251 C 
ATOM     24  H   UNL A   1      34.719  31.695  30.711  1.00  0.00     0.163 HD
ATOM     25  O   UNL A   1      36.041  30.191  32.016  1.00  0.00    -0.269 OA
BRANCH  23  26
ATOM     26  C   UNL A   1      37.753  30.311  30.419  1.00  0.00     0.039 A 
ATOM     27  C   UNL A   1      38.743  29.949  31.338  1.00  0.00     0.014 A 
ATOM     28  C   UNL A   1      38.076  30.410  29.062  1.00  0.00     0.014 A 
ATOM     29  C   UNL A   1      40.032  29.631  30.895  1.00  0.00     0.010 A 
ATOM     30  C   UNL A   1      39.347  30.035  28.616  1.00  0.00     0.010 A 
ATOM     31  C   UNL A   1      40.341  29.642  29.526  1.00  0.00    -0.014 A 
BRANCH  31  32
ATOM     32  C   UNL A   1      41.690  29.238  29.041  1.00  0.00     0.031 A 
ATOM     33  C   UNL A   1      42.812  30.242  28.963  1.00  0.00     0.074 A 
ATOM     34  C   UNL A   1      41.901  27.973  28.625  1.00  0.00     0.049 A 
ATOM     35  N   UNL A   1      44.034  30.078  28.523  1.00  0.00    -0.248 NA
ATOM     36  C   UNL A   1      42.516  31.609  29.420  1.00  0.00     0.031 C 
ATOM     37  C   UNL A   1      40.899  26.905  28.622  1.00  0.00     0.029 A 
ATOM     38  N   UNL A   1      43.028  27.370  28.122  1.00  0.00    -0.354 N 
ATOM     39  C   UNL A   1      44.650  31.320  28.637  1.00  0.00     0.074 A 
ATOM     40  C   UNL A   1      43.651  32.236  29.146  1.00  0.00     0.031 C 
ATOM     41  C   UNL A   1      41.461  25.775  28.161  1.00  0.00     0.029 A 
ATOM     42  C   UNL A   1      42.850  26.045  27.800  1.00  0.00     0.049 A 
ATOM     43  H   UNL A   1      43.883  27.842  28.003  1.00  0.00     0.167 HD
ATOM     44  C   UNL A   1      45.930  31.667  28.357  1.00  0.00     0.031 A 
ATOM     45  C   UNL A   1      43.701  25.145  27.267  1.00  0.00     0.031 A 
ATOM     46  C   UNL A   1      46.930  30.757  27.863  1.00  0.00     0.049 A 
ATOM     47  C   UNL A   1      45.112  25.556  26.952  1.00  0.00     0.074 A 
ATOM     48  C   UNL A   1      48.267  31.007  27.602  1.00  0.00     0.029 A 
ATOM     49  N   UNL A   1      46.706  29.425  27.551  1.00  0.00    -0.354 N 
ATOM     50  N   UNL A   1      45.687  26.723  27.119  1.00  0.00    -0.248 NA
ATOM     51  C   UNL A   1      45.993  24.525  26.385  1.00  0.00     0.031 C 
ATOM     52  C   UNL A   1      48.840  29.839  27.088  1.00  0.00     0.029 A 
ATOM     53  C   UNL A   1      47.874  28.847  27.079  1.00  0.00     0.049 A 
ATOM     54  H   UNL A   1      45.846  28.958  27.651  1.00  0.00     0.167 HD
ATOM     55  C   UNL A   1      47.003  26.559  26.700  1.00  0.00     0.074 A 
ATOM     56  C   UNL A   1      47.143  25.179  26.284  1.00  0.00     0.031 C 
ATOM     57  C   UNL A   1      48.004  27.472  26.664  1.00  0.00     0.031 A 
BRANCH  44  58
ATOM     58  C   UNL A   1      46.325  33.105  28.574  1.00  0.00    -0.014 A 
ATOM     59  C   UNL A   1      46.837  33.538  29.810  1.00  0.00     0.010 A 
ATOM     60  C   UNL A   1      46.222  34.026  27.515  1.00  0.00     0.010 A 
ATOM     61  C   UNL A   1      47.197  34.876  29.997  1.00  0.00     0.020 A 
ATOM     62  C   UNL A   1      46.606  35.359  27.690  1.00  0.00     0.020 A 
ATOM     63  C   UNL A   1      47.072  35.779  28.937  1.00  0.00     0.054 A 
BRANCH  63  64
ATOM     64  S   UNL A   1      47.558  37.506  29.203  1.00  0.00     0.124 S 
ATOM     65  O   UNL A   1      48.461  37.740  28.079  1.00  0.00    -0.237 OA
ATOM     66  O   UNL A   1      46.282  38.214  29.139  1.00  0.00    -0.237 OA
ATOM     67  O   UNL A   1      48.193  37.489  30.519  1.00  0.00    -0.744 OA
ENDBRANCH  63  64
ENDBRANCH  44  58
BRANCH  45  68
ATOM     68  C   UNL A   1      43.239  23.755  27.005  1.00  0.00    -0.014 A 
ATOM     69  C   UNL A   1      42.921  23.342  25.700  1.00  0.00     0.010 A 
ATOM     70  C   UNL A   1      43.127  22.832  28.062  1.00  0.00     0.010 A 
ATOM     71  C   UNL A   1      42.485  22.036  25.457  1.00  0.00     0.020 A 
ATOM     72  C   UNL A   1      42.717  21.519  27.819  1.00  0.00     0.020 A 
ATOM     73  C   UNL A   1      42.388  21.132  26.519  1.00  0.00     0.054 A 
BRANCH  73  74
ATOM     74  S   UNL A   1      41.876  19.426  26.174  1.00  0.00     0.124 S 
ATOM     75  O   UNL A   1      42.256  18.741  27.406  1.00  0.00    -0.237 OA
ATOM     76  O   UNL A   1      40.440  19.567  25.946  1.00  0.00    -0.237 OA
ATOM     77  O   UNL A   1      42.655  19.070  24.990  1.00  0.00    -0.744 OA
ENDBRANCH  73  74
ENDBRANCH  45  68
BRANCH  57  78
ATOM     78  C   UNL A   1      49.353  27.006  26.186  1.00  0.00    -0.014 A 
ATOM     79  C   UNL A   1      50.221  26.297  27.034  1.00  0.00     0.010 A 
ATOM     80  C   UNL A   1      49.733  27.233  24.849  1.00  0.00     0.010 A 
ATOM     81  C   UNL A   1      51.458  25.847  26.563  1.00  0.00     0.020 A 
ATOM     82  C   UNL A   1      50.958  26.762  24.368  1.00  0.00     0.020 A 
ATOM     83  C   UNL A   1      51.819  26.082  25.232  1.00  0.00     0.054 A 
BRANCH  83  84
ATOM     84  S   UNL A   1      53.408  25.446  24.631  1.00  0.00     0.124 S 
ATOM     85  O   UNL A   1      53.352  24.048  25.049  1.00  0.00    -0.237 OA
ATOM     86  O   UNL A   1      53.321  25.674  23.190  1.00  0.00    -0.237 OA
ATOM     87  O   UNL A   1      54.396  26.266  25.327  1.00  0.00    -0.744 OA
ENDBRANCH  83  84
ENDBRANCH  57  78
ENDBRANCH  31  32
ENDBRANCH  23  26
ENDBRANCH  21  22
ENDBRANCH  20  21
ENDBRANCH   1  20
TORSDOF 17
ENDMDL
MODEL 3
REMARK VINA RESULT:      -9.7      3.608      6.361
REMARK SMILES O=C(CCCC(=O)Nc1ccccc1F)NCCCNC(=O)c1ccc(-c2c3nc(c(-c4ccc(S(=O)(=O)[O-])cc4)c4ccc([nH]4)c(-c4ccc(S(=O)(=O)[O-])cc4)c4nc(c(-c5ccc(S(=O)(=O)[O-])cc5)c5ccc2[nH]5)C=C4)C=C3)cc1
REMARK SMILES IDX 17 1 16 2 1 3 2 4 3 6 4 7 5 8 6 9 7 10 8 11 9 13 10 14 14 15
REMARK SMILES IDX 11 16 13 17 15 18 12 19 18 20 19 21 20 22 21 23 22 25 23 26
REMARK SMILES IDX 24 27 82 28 25 29 81 30 26 31 27 32 28 33 75 34 29 35 80 36
REMARK SMILES IDX 74 37 76 38 30 39 79 40 73 41 72 42 31 44 61 45 42 46 60 47
REMARK SMILES IDX 43 48 46 49 59 50 77 51 44 52 45 53 58 55 78 56 47 57 32 58
REMARK SMILES IDX 33 59 41 60 34 61 40 62 35 63 36 64 37 65 38 66 39 67 62 68
REMARK SMILES IDX 63 69 71 70 64 71 70 72 65 73 66 74 67 75 68 76 69 77 48 78
REMARK SMILES IDX 49 79 57 80 50 81 56 82 51 83 52 84 53 85 54 86 55 87
REMARK H PARENT 16 5 8 12 20 24 76 43 46 54
REMARK Flexibility Score: inf
ROOT
ATOM      1  C   UNL A   1      42.964  22.934  26.500  1.00  0.00     0.117 C 
ENDROOT
BRANCH   1   2
ATOM      2  N   UNL A   1      43.292  24.149  25.782  1.00  0.00    -0.356 N 
ATOM      3  O   UNL A   1      44.967  24.780  27.212  1.00  0.00    -0.275 OA
ATOM      4  C   UNL A   1      44.305  24.983  26.199  1.00  0.00     0.220 C 
ATOM      5  H   UNL A   1      42.778  24.384  24.975  1.00  0.00     0.163 HD
BRANCH   4   6
ATOM      6  C   UNL A   1      44.519  26.213  25.335  1.00  0.00     0.100 C 
BRANCH   6   7
ATOM      7  C   UNL A   1      44.341  27.575  26.014  1.00  0.00     0.020 C 
BRANCH   7   8
ATOM      8  C   UNL A   1      45.563  28.257  26.623  1.00  0.00     0.101 C 
BRANCH   8   9
ATOM      9  C   UNL A   1      46.404  29.199  25.761  1.00  0.00     0.224 C 
ATOM     10  O   UNL A   1      47.226  28.762  24.956  1.00  0.00    -0.275 OA
ATOM     11  N   UNL A   1      46.021  30.517  25.704  1.00  0.00    -0.324 N 
ATOM     12  H   UNL A   1      45.842  30.884  24.808  1.00  0.00     0.170 HD
BRANCH  11  13
ATOM     13  C   UNL A   1      45.856  31.395  26.786  1.00  0.00     0.077 A 
ATOM     14  C   UNL A   1      46.812  31.393  27.802  1.00  0.00     0.029 A 
ATOM     15  C   UNL A   1      44.735  32.219  26.914  1.00  0.00     0.146 A 
ATOM     16  C   UNL A   1      46.711  32.308  28.857  1.00  0.00     0.002 A 
ATOM     17  C   UNL A   1      44.615  33.110  27.979  1.00  0.00     0.041 A 
ATOM     18  F   UNL A   1      43.750  32.170  26.006  1.00  0.00    -0.205 F 
ATOM     19  C   UNL A   1      45.622  33.176  28.937  1.00  0.00     0.003 A 
ENDBRANCH  11  13
ENDBRANCH   8   9
ENDBRANCH   7   8
ENDBRANCH   6   7
ENDBRANCH   4   6
ENDBRANCH   1   2
BRANCH   1  20
ATOM     20  C   UNL A   1      41.939  22.057  25.783  1.00  0.00     0.042 C 
BRANCH  20  21
ATOM     21  C   UNL A   1      40.699  21.701  26.601  1.00  0.00     0.118 C 
BRANCH  21  22
ATOM     22  N   UNL A   1      39.458  22.090  25.958  1.00  0.00    -0.352 N 
ATOM     23  C   UNL A   1      38.717  23.244  26.058  1.00  0.00     0.251 C 
ATOM     24  H   UNL A   1      39.082  21.415  25.348  1.00  0.00     0.163 HD
ATOM     25  O   UNL A   1      37.607  23.286  25.532  1.00  0.00    -0.269 OA
BRANCH  23  26
ATOM     26  C   UNL A   1      39.215  24.427  26.803  1.00  0.00     0.039 A 
ATOM     27  C   UNL A   1      40.035  25.338  26.128  1.00  0.00     0.014 A 
ATOM     28  C   UNL A   1      38.946  24.617  28.161  1.00  0.00     0.014 A 
ATOM     29  C   UNL A   1      40.534  26.463  26.795  1.00  0.00     0.010 A 
ATOM     30  C   UNL A   1      39.396  25.772  28.809  1.00  0.00     0.010 A 
ATOM     31  C   UNL A   1      40.195  26.708  28.135  1.00  0.00    -0.014 A 
BRANCH  31  32
ATOM     32  C   UNL A   1      40.665  27.938  28.831  1.00  0.00     0.031 A 
ATOM     33  C   UNL A   1      42.057  28.014  29.405  1.00  0.00     0.074 A 
ATOM     34  C   UNL A   1      39.824  28.980  28.990  1.00  0.00     0.049 A 
ATOM     35  N   UNL A   1      42.618  28.985  30.081  1.00  0.00    -0.248 NA
ATOM     36  C   UNL A   1      42.923  26.841  29.209  1.00  0.00     0.031 C 
ATOM     37  C   UNL A   1      38.442  29.034  28.509  1.00  0.00     0.029 A 
ATOM     38  N   UNL A   1      40.007  30.196  29.605  1.00  0.00    -0.354 N 
ATOM     39  C   UNL A   1      43.894  28.537  30.403  1.00  0.00     0.074 A 
ATOM     40  C   UNL A   1      44.009  27.190  29.885  1.00  0.00     0.031 C 
ATOM     41  C   UNL A   1      37.911  30.225  28.827  1.00  0.00     0.029 A 
ATOM     42  C   UNL A   1      38.897  31.007  29.567  1.00  0.00     0.049 A 
ATOM     43  H   UNL A   1      40.853  30.460  30.032  1.00  0.00     0.167 HD
ATOM     44  C   UNL A   1      44.887  29.189  31.058  1.00  0.00     0.031 A 
ATOM     45  C   UNL A   1      38.687  32.238  30.075  1.00  0.00     0.031 A 
ATOM     46  C   UNL A   1      44.783  30.533  31.564  1.00  0.00     0.049 A 
ATOM     47  C   UNL A   1      39.799  32.936  30.810  1.00  0.00     0.074 A 
ATOM     48  C   UNL A   1      45.755  31.292  32.192  1.00  0.00     0.029 A 
ATOM     49  N   UNL A   1      43.642  31.317  31.503  1.00  0.00    -0.354 N 
ATOM     50  N   UNL A   1      41.016  32.513  31.055  1.00  0.00    -0.248 NA
ATOM     51  C   UNL A   1      39.511  34.280  31.328  1.00  0.00     0.031 C 
ATOM     52  C   UNL A   1      45.187  32.518  32.555  1.00  0.00     0.029 A 
ATOM     53  C   UNL A   1      43.878  32.543  32.104  1.00  0.00     0.049 A 
ATOM     54  H   UNL A   1      42.789  31.044  31.094  1.00  0.00     0.167 HD
ATOM     55  C   UNL A   1      41.646  33.550  31.735  1.00  0.00     0.074 A 
ATOM     56  C   UNL A   1      40.681  34.624  31.851  1.00  0.00     0.031 C 
ATOM     57  C   UNL A   1      42.911  33.606  32.218  1.00  0.00     0.031 A 
BRANCH  44  58
ATOM     58  C   UNL A   1      46.182  28.448  31.273  1.00  0.00    -0.014 A 
ATOM     59  C   UNL A   1      47.233  28.540  30.344  1.00  0.00     0.010 A 
ATOM     60  C   UNL A   1      46.364  27.684  32.440  1.00  0.00     0.010 A 
ATOM     61  C   UNL A   1      48.428  27.845  30.556  1.00  0.00     0.020 A 
ATOM     62  C   UNL A   1      47.567  27.009  32.668  1.00  0.00     0.020 A 
ATOM     63  C   UNL A   1      48.584  27.078  31.715  1.00  0.00     0.054 A 
BRANCH  63  64
ATOM     64  S   UNL A   1      50.148  26.197  31.970  1.00  0.00     0.124 S 
ATOM     65  O   UNL A   1      51.115  27.130  31.396  1.00  0.00    -0.237 OA
ATOM     66  O   UNL A   1      50.204  26.053  33.423  1.00  0.00    -0.237 OA
ATOM     67  O   UNL A   1      49.970  24.951  31.230  1.00  0.00    -0.744 OA
ENDBRANCH  63  64
ENDBRANCH  44  58
BRANCH  45  68
ATOM     68  C   UNL A   1      37.365  32.897  29.897  1.00  0.00    -0.014 A 
ATOM     69  C   UNL A   1      36.429  32.914  30.945  1.00  0.00     0.010 A 
ATOM     70  C   UNL A   1      37.042  33.522  28.679  1.00  0.00     0.010 A 
ATOM     71  C   UNL A   1      35.186  33.531  30.774  1.00  0.00     0.020 A 
ATOM     72  C   UNL A   1      35.811  34.163  28.513  1.00  0.00     0.020 A 
ATOM     73  C   UNL A   1      34.887  34.154  29.559  1.00  0.00     0.054 A 
BRANCH  73  74
ATOM     74  S   UNL A   1      33.292  35.000  29.377  1.00  0.00     0.124 S 
ATOM     75  O   UNL A   1      32.638  34.195  28.350  1.00  0.00    -0.237 OA
ATOM     76  O   UNL A   1      32.724  34.897  30.719  1.00  0.00    -0.237 OA
ATOM     77  O   UNL A   1      33.669  36.352  28.971  1.00  0.00    -0.744 OA
ENDBRANCH  73  74
ENDBRANCH  45  68
BRANCH  57  78
ATOM     78  C   UNL A   1      43.341  34.880  32.894  1.00  0.00    -0.014 A 
ATOM     79  C   UNL A   1      43.691  36.018  32.147  1.00  0.00     0.010 A 
ATOM     80  C   UNL A   1      43.340  34.955  34.300  1.00  0.00     0.010 A 
ATOM     81  C   UNL A   1      44.060  37.201  32.793  1.00  0.00     0.020 A 
ATOM     82  C   UNL A   1      43.684  36.145  34.949  1.00  0.00     0.020 A 
ATOM     83  C   UNL A   1      44.054  37.258  34.191  1.00  0.00     0.054 A 
BRANCH  83  84
ATOM     84  S   UNL A   1      44.489  38.819  35.006  1.00  0.00     0.124 S 
ATOM     85  O   UNL A   1      45.942  38.841  34.862  1.00  0.00    -0.237 OA
ATOM     86  O   UNL A   1      43.764  39.809  34.213  1.00  0.00    -0.237 OA
ATOM     87  O   UNL A   1      44.001  38.645  36.372  1.00  0.00    -0.744 OA
ENDBRANCH  83  84
ENDBRANCH  57  78
ENDBRANCH  31  32
ENDBRANCH  23  26
ENDBRANCH  21  22
ENDBRANCH  20  21
ENDBRANCH   1  20
TORSDOF 17
ENDMDL
