MODEL 1
REMARK VINA RESULT:     -11.7      0.000      0.000
REMARK SMILES Cc1ccc(NC(=O)C[C@H]([NH2+]Cc2cccnc2)C(=O)NCCCNC(=O)c2ccc(-c3c4nc(c(-c5ccc(S(=O)(=O)[O-])cc5)c5ccc([nH]5)c(-c5ccc(S(=O)(=O)[O-])cc5)c5nc(c(-c6ccc(S(=O)(=O)[O-])cc6)c6ccc3[nH]6)C=C5)C=C4)cc2)cc1Cl
REMARK SMILES IDX 23 1 22 2 21 3 19 4 20 5 10 7 9 8 7 9 6 10 8 12 5 13 1 14
REMARK SMILES IDX 2 15 3 16 89 17 4 18 88 19 90 20 11 21 12 24 13 25 14 26
REMARK SMILES IDX 18 27 15 28 17 29 16 30 24 31 25 32 26 33 27 35 28 36 29 37
REMARK SMILES IDX 87 38 30 39 86 40 31 41 32 42 33 43 80 44 34 45 85 46 79 47
REMARK SMILES IDX 81 48 35 49 84 50 78 51 77 52 36 54 66 55 47 56 65 57 48 58
REMARK SMILES IDX 51 59 64 60 82 61 49 62 50 63 63 65 83 66 52 67 37 68 38 69
REMARK SMILES IDX 46 70 39 71 45 72 40 73 41 74 42 75 43 76 44 77 67 78 68 79
REMARK SMILES IDX 76 80 69 81 75 82 70 83 71 84 72 85 73 86 74 87 53 88 54 89
REMARK SMILES IDX 62 90 55 91 61 92 56 93 57 94 58 95 59 96 60 97
REMARK H PARENT 21 6 6 11 11 22 11 23 25 34 81 53 51 64
REMARK Flexibility Score: inf
ROOT
ATOM      1  C   UNL A   1      38.924  22.286  26.297  1.00  0.00     0.042 C 
ENDROOT
BRANCH   1   2
ATOM      2  C   UNL A   1      37.646  23.036  25.916  1.00  0.00     0.118 C 
BRANCH   2   3
ATOM      3  N   UNL A   1      37.433  23.082  24.463  1.00  0.00    -0.351 N 
ATOM      4  C   UNL A   1      36.377  23.111  23.605  1.00  0.00     0.278 C 
ATOM      5  O   UNL A   1      36.688  23.121  22.401  1.00  0.00    -0.268 OA
ATOM      6  H   UNL A   1      38.288  23.094  23.976  1.00  0.00     0.163 HD
BRANCH   4   7
ATOM      7  C   UNL A   1      34.850  23.073  23.960  1.00  0.00     0.282 C 
BRANCH   7   8
ATOM      8  C   UNL A   1      33.921  22.511  22.911  1.00  0.00     0.175 C 
BRANCH   8   9
ATOM      9  C   UNL A   1      32.402  22.516  22.831  1.00  0.00     0.230 C 
ATOM     10  N   UNL A   1      31.472  23.489  22.855  1.00  0.00    -0.326 N 
ATOM     11  H   UNL A   1      30.575  23.087  22.790  1.00  0.00     0.169 HD
ATOM     12  O   UNL A   1      31.897  21.379  22.704  1.00  0.00    -0.274 OA
BRANCH  10  13
ATOM     13  C   UNL A   1      31.356  24.887  22.941  1.00  0.00     0.042 A 
ATOM     14  C   UNL A   1      30.753  29.165  23.422  1.00  0.00     0.046 C 
ATOM     15  C   UNL A   1      30.952  27.693  23.224  1.00  0.00    -0.032 A 
ATOM     16  C   UNL A   1      29.956  26.780  23.591  1.00  0.00     0.007 A 
ATOM     17  C   UNL A   1      32.133  27.185  22.697  1.00  0.00     0.046 A 
ATOM     18  C   UNL A   1      30.159  25.398  23.453  1.00  0.00     0.026 A 
ATOM     19  C   UNL A   1      32.300  25.807  22.537  1.00  0.00     0.047 A 
ATOM     20  Cl  UNL A   1      33.435  28.210  22.196  1.00  0.00    -0.084 Cl
ENDBRANCH  10  13
ENDBRANCH   8   9
ENDBRANCH   7   8
BRANCH   7  21
ATOM     21  N   UNL A   1      34.477  24.307  24.673  1.00  0.00    -0.332 N 
ATOM     22  H   UNL A   1      34.047  24.928  23.987  1.00  0.00     0.347 HD
ATOM     23  H   UNL A   1      35.353  24.620  25.090  1.00  0.00     0.347 HD
BRANCH  21  24
ATOM     24  C   UNL A   1      33.565  24.226  25.804  1.00  0.00     0.299 C 
BRANCH  24  25
ATOM     25  C   UNL A   1      33.057  25.600  26.175  1.00  0.00     0.024 A 
ATOM     26  C   UNL A   1      33.827  26.757  25.998  1.00  0.00     0.013 A 
ATOM     27  C   UNL A   1      31.761  25.780  26.651  1.00  0.00     0.120 A 
ATOM     28  C   UNL A   1      33.272  28.009  26.256  1.00  0.00     0.021 A 
ATOM     29  N   UNL A   1      31.199  26.982  26.930  1.00  0.00    -0.264 NA
ATOM     30  C   UNL A   1      31.964  28.070  26.705  1.00  0.00     0.111 A 
ENDBRANCH  24  25
ENDBRANCH  21  24
ENDBRANCH   7  21
ENDBRANCH   4   7
ENDBRANCH   2   3
ENDBRANCH   1   2
BRANCH   1  31
ATOM     31  C   UNL A   1      40.013  23.073  27.012  1.00  0.00     0.118 C 
BRANCH  31  32
ATOM     32  N   UNL A   1      40.803  23.899  26.119  1.00  0.00    -0.352 N 
ATOM     33  C   UNL A   1      41.161  25.228  26.156  1.00  0.00     0.251 C 
ATOM     34  H   UNL A   1      41.151  23.416  25.335  1.00  0.00     0.163 HD
ATOM     35  O   UNL A   1      41.733  25.679  25.163  1.00  0.00    -0.269 OA
BRANCH  33  36
ATOM     36  C   UNL A   1      40.888  26.140  27.307  1.00  0.00     0.039 A 
ATOM     37  C   UNL A   1      41.700  27.277  27.445  1.00  0.00     0.014 A 
ATOM     38  C   UNL A   1      39.941  25.887  28.301  1.00  0.00     0.014 A 
ATOM     39  C   UNL A   1      41.551  28.143  28.538  1.00  0.00     0.010 A 
ATOM     40  C   UNL A   1      39.720  26.806  29.336  1.00  0.00     0.010 A 
ATOM     41  C   UNL A   1      40.542  27.930  29.489  1.00  0.00    -0.014 A 
BRANCH  41  42
ATOM     42  C   UNL A   1      40.381  28.843  30.660  1.00  0.00     0.031 A 
ATOM     43  C   UNL A   1      41.266  28.701  31.878  1.00  0.00     0.074 A 
ATOM     44  C   UNL A   1      39.426  29.796  30.648  1.00  0.00     0.049 A 
ATOM     45  N   UNL A   1      41.275  29.409  32.982  1.00  0.00    -0.248 NA
ATOM     46  C   UNL A   1      42.250  27.607  31.868  1.00  0.00     0.031 C 
ATOM     47  C   UNL A   1      38.466  30.020  29.564  1.00  0.00     0.029 A 
ATOM     48  N   UNL A   1      39.109  30.763  31.573  1.00  0.00    -0.354 N 
ATOM     49  C   UNL A   1      42.245  28.833  33.799  1.00  0.00     0.074 A 
ATOM     50  C   UNL A   1      42.764  27.686  33.087  1.00  0.00     0.031 C 
ATOM     51  C   UNL A   1      37.700  31.081  29.866  1.00  0.00     0.029 A 
ATOM     52  C   UNL A   1      38.087  31.595  31.176  1.00  0.00     0.049 A 
ATOM     53  H   UNL A   1      39.570  30.852  32.437  1.00  0.00     0.167 HD
ATOM     54  C   UNL A   1      42.687  29.231  35.018  1.00  0.00     0.031 A 
ATOM     55  C   UNL A   1      37.529  32.658  31.787  1.00  0.00     0.031 A 
ATOM     56  C   UNL A   1      42.195  30.387  35.721  1.00  0.00     0.049 A 
ATOM     57  C   UNL A   1      38.057  33.104  33.124  1.00  0.00     0.074 A 
ATOM     58  C   UNL A   1      42.617  30.903  36.934  1.00  0.00     0.029 A 
ATOM     59  N   UNL A   1      41.176  31.212  35.271  1.00  0.00    -0.354 N 
ATOM     60  N   UNL A   1      39.016  32.577  33.849  1.00  0.00    -0.248 NA
ATOM     61  C   UNL A   1      37.443  34.302  33.713  1.00  0.00     0.031 C 
ATOM     62  C   UNL A   1      41.826  32.016  37.237  1.00  0.00     0.029 A 
ATOM     63  C   UNL A   1      40.947  32.225  36.187  1.00  0.00     0.049 A 
ATOM     64  H   UNL A   1      40.685  31.095  34.425  1.00  0.00     0.167 HD
ATOM     65  C   UNL A   1      39.136  33.395  34.966  1.00  0.00     0.074 A 
ATOM     66  C   UNL A   1      38.168  34.462  34.811  1.00  0.00     0.031 C 
ATOM     67  C   UNL A   1      39.975  33.277  36.026  1.00  0.00     0.031 A 
BRANCH  54  68
ATOM     68  C   UNL A   1      43.765  28.404  35.672  1.00  0.00    -0.014 A 
ATOM     69  C   UNL A   1      45.128  28.679  35.451  1.00  0.00     0.010 A 
ATOM     70  C   UNL A   1      43.416  27.361  36.550  1.00  0.00     0.010 A 
ATOM     71  C   UNL A   1      46.117  27.897  36.052  1.00  0.00     0.020 A 
ATOM     72  C   UNL A   1      44.404  26.596  37.179  1.00  0.00     0.020 A 
ATOM     73  C   UNL A   1      45.750  26.856  36.909  1.00  0.00     0.054 A 
BRANCH  73  74
ATOM     74  S   UNL A   1      47.053  25.864  37.691  1.00  0.00     0.124 S 
ATOM     75  O   UNL A   1      47.851  25.455  36.534  1.00  0.00    -0.237 OA
ATOM     76  O   UNL A   1      47.697  26.829  38.583  1.00  0.00    -0.237 OA
ATOM     77  O   UNL A   1      46.325  24.794  38.356  1.00  0.00    -0.744 OA
ENDBRANCH  73  74
ENDBRANCH  54  68
BRANCH  55  78
ATOM     78  C   UNL A   1      36.425  33.403  31.121  1.00  0.00    -0.014 A 
ATOM     79  C   UNL A   1      35.207  33.623  31.790  1.00  0.00     0.010 A 
ATOM     80  C   UNL A   1      36.589  33.906  29.818  1.00  0.00     0.010 A 
ATOM     81  C   UNL A   1      34.168  34.316  31.161  1.00  0.00     0.020 A 
ATOM     82  C   UNL A   1      35.563  34.624  29.197  1.00  0.00     0.020 A 
ATOM     83  C   UNL A   1      34.354  34.815  29.870  1.00  0.00     0.054 A 
BRANCH  83  84
ATOM     84  S   UNL A   1      33.014  35.761  29.093  1.00  0.00     0.124 S 
ATOM     85  O   UNL A   1      32.378  34.753  28.250  1.00  0.00    -0.237 OA
ATOM     86  O   UNL A   1      32.234  36.207  30.245  1.00  0.00    -0.237 OA
ATOM     87  O   UNL A   1      33.718  36.824  28.379  1.00  0.00    -0.744 OA
ENDBRANCH  83  84
ENDBRANCH  55  78
BRANCH  67  88
ATOM     88  C   UNL A   1      39.906  34.349  37.081  1.00  0.00    -0.014 A 
ATOM     89  C   UNL A   1      39.045  34.233  38.187  1.00  0.00     0.010 A 
ATOM     90  C   UNL A   1      40.726  35.486  36.968  1.00  0.00     0.010 A 
ATOM     91  C   UNL A   1      38.966  35.260  39.132  1.00  0.00     0.020 A 
ATOM     92  C   UNL A   1      40.672  36.502  37.926  1.00  0.00     0.020 A 
ATOM     93  C   UNL A   1      39.774  36.392  38.990  1.00  0.00     0.054 A 
BRANCH  93  94
ATOM     94  S   UNL A   1      39.656  37.714  40.228  1.00  0.00     0.124 S 
ATOM     95  O   UNL A   1      38.271  38.150  40.073  1.00  0.00    -0.237 OA
ATOM     96  O   UNL A   1      39.959  37.016  41.474  1.00  0.00    -0.237 OA
ATOM     97  O   UNL A   1      40.666  38.679  39.799  1.00  0.00    -0.744 OA
ENDBRANCH  93  94
ENDBRANCH  67  88
ENDBRANCH  41  42
ENDBRANCH  33  36
ENDBRANCH  31  32
ENDBRANCH   1  31
TORSDOF 19
ENDMDL
MODEL 2
REMARK VINA RESULT:     -11.5      3.669      4.977
REMARK SMILES Cc1ccc(NC(=O)C[C@H]([NH2+]Cc2cccnc2)C(=O)NCCCNC(=O)c2ccc(-c3c4nc(c(-c5ccc(S(=O)(=O)[O-])cc5)c5ccc([nH]5)c(-c5ccc(S(=O)(=O)[O-])cc5)c5nc(c(-c6ccc(S(=O)(=O)[O-])cc6)c6ccc3[nH]6)C=C5)C=C4)cc2)cc1Cl
REMARK SMILES IDX 23 1 22 2 21 3 19 4 20 5 10 7 9 8 7 9 6 10 8 12 5 13 1 14
REMARK SMILES IDX 2 15 3 16 89 17 4 18 88 19 90 20 11 21 12 24 13 25 14 26
REMARK SMILES IDX 18 27 15 28 17 29 16 30 24 31 25 32 26 33 27 35 28 36 29 37
REMARK SMILES IDX 87 38 30 39 86 40 31 41 32 42 33 43 80 44 34 45 85 46 79 47
REMARK SMILES IDX 81 48 35 49 84 50 78 51 77 52 36 54 66 55 47 56 65 57 48 58
REMARK SMILES IDX 51 59 64 60 82 61 49 62 50 63 63 65 83 66 52 67 37 68 38 69
REMARK SMILES IDX 46 70 39 71 45 72 40 73 41 74 42 75 43 76 44 77 67 78 68 79
REMARK SMILES IDX 76 80 69 81 75 82 70 83 71 84 72 85 73 86 74 87 53 88 54 89
REMARK SMILES IDX 62 90 55 91 61 92 56 93 57 94 58 95 59 96 60 97
REMARK H PARENT 21 6 6 11 11 22 11 23 25 34 81 53 51 64
REMARK Flexibility Score: inf
ROOT
ATOM      1  C   UNL A   1      35.849  23.553  25.631  1.00  0.00     0.042 C 
ENDROOT
BRANCH   1   2
ATOM      2  C   UNL A   1      35.634  22.249  26.401  1.00  0.00     0.118 C 
BRANCH   2   3
ATOM      3  N   UNL A   1      34.508  22.332  27.343  1.00  0.00    -0.351 N 
ATOM      4  C   UNL A   1      33.163  22.135  27.317  1.00  0.00     0.278 C 
ATOM      5  O   UNL A   1      32.585  22.359  28.395  1.00  0.00    -0.268 OA
ATOM      6  H   UNL A   1      34.811  22.607  28.239  1.00  0.00     0.163 HD
BRANCH   4   7
ATOM      7  C   UNL A   1      32.276  21.725  26.090  1.00  0.00     0.282 C 
BRANCH   7   8
ATOM      8  C   UNL A   1      30.969  22.462  25.919  1.00  0.00     0.175 C 
BRANCH   8   9
ATOM      9  C   UNL A   1      30.402  23.655  26.671  1.00  0.00     0.230 C 
ATOM     10  N   UNL A   1      30.634  24.980  26.627  1.00  0.00    -0.326 N 
ATOM     11  H   UNL A   1      30.067  25.435  27.291  1.00  0.00     0.169 HD
ATOM     12  O   UNL A   1      29.520  23.355  27.506  1.00  0.00    -0.274 OA
BRANCH  10  13
ATOM     13  C   UNL A   1      31.416  25.929  25.947  1.00  0.00     0.042 A 
ATOM     14  C   UNL A   1      34.061  28.627  23.796  1.00  0.00     0.046 C 
ATOM     15  C   UNL A   1      33.154  27.716  24.565  1.00  0.00    -0.032 A 
ATOM     16  C   UNL A   1      33.633  26.517  25.106  1.00  0.00     0.007 A 
ATOM     17  C   UNL A   1      31.808  28.015  24.745  1.00  0.00     0.046 A 
ATOM     18  C   UNL A   1      32.775  25.637  25.784  1.00  0.00     0.026 A 
ATOM     19  C   UNL A   1      30.980  27.140  25.453  1.00  0.00     0.047 A 
ATOM     20  Cl  UNL A   1      31.098  29.469  24.135  1.00  0.00    -0.084 Cl
ENDBRANCH  10  13
ENDBRANCH   8   9
ENDBRANCH   7   8
BRANCH   7  21
ATOM     21  N   UNL A   1      32.312  20.262  25.920  1.00  0.00    -0.332 N 
ATOM     22  H   UNL A   1      31.355  19.927  26.025  1.00  0.00     0.347 HD
ATOM     23  H   UNL A   1      32.986  19.954  26.620  1.00  0.00     0.347 HD
BRANCH  21  24
ATOM     24  C   UNL A   1      32.824  19.703  24.677  1.00  0.00     0.299 C 
BRANCH  24  25
ATOM     25  C   UNL A   1      33.326  18.295  24.897  1.00  0.00     0.024 A 
ATOM     26  C   UNL A   1      32.520  17.288  25.441  1.00  0.00     0.013 A 
ATOM     27  C   UNL A   1      34.609  17.923  24.501  1.00  0.00     0.120 A 
ATOM     28  C   UNL A   1      32.999  15.981  25.524  1.00  0.00     0.021 A 
ATOM     29  N   UNL A   1      35.110  16.667  24.586  1.00  0.00    -0.264 NA
ATOM     30  C   UNL A   1      34.284  15.721  25.078  1.00  0.00     0.111 A 
ENDBRANCH  24  25
ENDBRANCH  21  24
ENDBRANCH   7  21
ENDBRANCH   4   7
ENDBRANCH   2   3
ENDBRANCH   1   2
BRANCH   1  31
ATOM     31  C   UNL A   1      37.102  23.663  24.774  1.00  0.00     0.118 C 
BRANCH  31  32
ATOM     32  N   UNL A   1      38.167  22.775  25.199  1.00  0.00    -0.352 N 
ATOM     33  C   UNL A   1      39.271  22.965  25.999  1.00  0.00     0.251 C 
ATOM     34  H   UNL A   1      38.086  21.859  24.847  1.00  0.00     0.163 HD
ATOM     35  O   UNL A   1      40.080  22.037  26.062  1.00  0.00    -0.269 OA
BRANCH  33  36
ATOM     36  C   UNL A   1      39.545  24.214  26.772  1.00  0.00     0.039 A 
ATOM     37  C   UNL A   1      40.310  25.212  26.147  1.00  0.00     0.014 A 
ATOM     38  C   UNL A   1      39.168  24.412  28.101  1.00  0.00     0.014 A 
ATOM     39  C   UNL A   1      40.667  26.383  26.832  1.00  0.00     0.010 A 
ATOM     40  C   UNL A   1      39.433  25.625  28.751  1.00  0.00     0.010 A 
ATOM     41  C   UNL A   1      40.215  26.615  28.140  1.00  0.00    -0.014 A 
BRANCH  41  42
ATOM     42  C   UNL A   1      40.597  27.854  28.880  1.00  0.00     0.031 A 
ATOM     43  C   UNL A   1      41.965  27.988  29.509  1.00  0.00     0.074 A 
ATOM     44  C   UNL A   1      39.711  28.864  29.008  1.00  0.00     0.049 A 
ATOM     45  N   UNL A   1      42.473  28.993  30.181  1.00  0.00    -0.248 NA
ATOM     46  C   UNL A   1      42.872  26.834  29.395  1.00  0.00     0.031 C 
ATOM     47  C   UNL A   1      38.338  28.858  28.498  1.00  0.00     0.029 A 
ATOM     48  N   UNL A   1      39.836  30.099  29.602  1.00  0.00    -0.354 N 
ATOM     49  C   UNL A   1      43.742  28.584  30.583  1.00  0.00     0.074 A 
ATOM     50  C   UNL A   1      43.906  27.221  30.127  1.00  0.00     0.031 C 
ATOM     51  C   UNL A   1      37.765  30.044  28.760  1.00  0.00     0.029 A 
ATOM     52  C   UNL A   1      38.712  30.884  29.486  1.00  0.00     0.049 A 
ATOM     53  H   UNL A   1      40.652  30.392  30.066  1.00  0.00     0.167 HD
ATOM     54  C   UNL A   1      44.699  29.280  31.246  1.00  0.00     0.031 A 
ATOM     55  C   UNL A   1      38.470  32.142  29.904  1.00  0.00     0.031 A 
ATOM     56  C   UNL A   1      44.554  30.646  31.678  1.00  0.00     0.049 A 
ATOM     57  C   UNL A   1      39.556  32.910  30.608  1.00  0.00     0.074 A 
ATOM     58  C   UNL A   1      45.485  31.455  32.307  1.00  0.00     0.029 A 
ATOM     59  N   UNL A   1      43.407  31.409  31.520  1.00  0.00    -0.354 N 
ATOM     60  N   UNL A   1      40.769  32.520  30.924  1.00  0.00    -0.248 NA
ATOM     61  C   UNL A   1      39.248  34.294  30.990  1.00  0.00     0.031 C 
ATOM     62  C   UNL A   1      44.888  32.693  32.566  1.00  0.00     0.029 A 
ATOM     63  C   UNL A   1      43.603  32.674  32.049  1.00  0.00     0.049 A 
ATOM     64  H   UNL A   1      42.576  31.098  31.094  1.00  0.00     0.167 HD
ATOM     65  C   UNL A   1      41.376  33.621  31.518  1.00  0.00     0.074 A 
ATOM     66  C   UNL A   1      40.404  34.696  31.498  1.00  0.00     0.031 C 
ATOM     67  C   UNL A   1      42.626  33.734  32.032  1.00  0.00     0.031 A 
BRANCH  54  68
ATOM     68  C   UNL A   1      45.996  28.572  31.545  1.00  0.00    -0.014 A 
ATOM     69  C   UNL A   1      47.072  28.610  30.638  1.00  0.00     0.010 A 
ATOM     70  C   UNL A   1      46.158  27.888  32.764  1.00  0.00     0.010 A 
ATOM     71  C   UNL A   1      48.264  27.938  30.921  1.00  0.00     0.020 A 
ATOM     72  C   UNL A   1      47.361  27.239  33.065  1.00  0.00     0.020 A 
ATOM     73  C   UNL A   1      48.399  27.251  32.131  1.00  0.00     0.054 A 
BRANCH  73  74
ATOM     74  S   UNL A   1      49.962  26.399  32.483  1.00  0.00     0.124 S 
ATOM     75  O   UNL A   1      50.606  27.328  33.412  1.00  0.00    -0.237 OA
ATOM     76  O   UNL A   1      49.513  25.137  33.072  1.00  0.00    -0.237 OA
ATOM     77  O   UNL A   1      50.597  26.282  31.178  1.00  0.00    -0.744 OA
ENDBRANCH  73  74
ENDBRANCH  54  68
BRANCH  55  78
ATOM     78  C   UNL A   1      37.148  32.773  29.634  1.00  0.00    -0.014 A 
ATOM     79  C   UNL A   1      36.088  32.628  30.547  1.00  0.00     0.010 A 
ATOM     80  C   UNL A   1      36.946  33.532  28.468  1.00  0.00     0.010 A 
ATOM     81  C   UNL A   1      34.845  33.215  30.290  1.00  0.00     0.020 A 
ATOM     82  C   UNL A   1      35.713  34.144  28.221  1.00  0.00     0.020 A 
ATOM     83  C   UNL A   1      34.667  33.971  29.130  1.00  0.00     0.054 A 
BRANCH  83  84
ATOM     84  S   UNL A   1      33.064  34.772  28.841  1.00  0.00     0.124 S 
ATOM     85  O   UNL A   1      32.467  34.747  30.173  1.00  0.00    -0.237 OA
ATOM     86  O   UNL A   1      33.453  36.090  28.346  1.00  0.00    -0.237 OA
ATOM     87  O   UNL A   1      32.425  33.908  27.851  1.00  0.00    -0.744 OA
ENDBRANCH  83  84
ENDBRANCH  55  78
BRANCH  67  88
ATOM     88  C   UNL A   1      43.025  35.077  32.582  1.00  0.00    -0.014 A 
ATOM     89  C   UNL A   1      42.702  35.455  33.897  1.00  0.00     0.010 A 
ATOM     90  C   UNL A   1      43.747  35.971  31.770  1.00  0.00     0.010 A 
ATOM     91  C   UNL A   1      43.046  36.724  34.372  1.00  0.00     0.020 A 
ATOM     92  C   UNL A   1      44.118  37.229  32.251  1.00  0.00     0.020 A 
ATOM     93  C   UNL A   1      43.744  37.607  33.542  1.00  0.00     0.054 A 
BRANCH  93  94
ATOM     94  S   UNL A   1      44.179  39.249  34.179  1.00  0.00     0.124 S 
ATOM     95  O   UNL A   1      44.411  38.973  35.594  1.00  0.00    -0.237 OA
ATOM     96  O   UNL A   1      45.368  39.590  33.403  1.00  0.00    -0.237 OA
ATOM     97  O   UNL A   1      42.998  40.058  33.885  1.00  0.00    -0.744 OA
ENDBRANCH  93  94
ENDBRANCH  67  88
ENDBRANCH  41  42
ENDBRANCH  33  36
ENDBRANCH  31  32
ENDBRANCH   1  31
TORSDOF 19
ENDMDL
MODEL 3
REMARK VINA RESULT:     -11.5      5.057      6.510
REMARK SMILES Cc1ccc(NC(=O)C[C@H]([NH2+]Cc2cccnc2)C(=O)NCCCNC(=O)c2ccc(-c3c4nc(c(-c5ccc(S(=O)(=O)[O-])cc5)c5ccc([nH]5)c(-c5ccc(S(=O)(=O)[O-])cc5)c5nc(c(-c6ccc(S(=O)(=O)[O-])cc6)c6ccc3[nH]6)C=C5)C=C4)cc2)cc1Cl
REMARK SMILES IDX 23 1 22 2 21 3 19 4 20 5 10 7 9 8 7 9 6 10 8 12 5 13 1 14
REMARK SMILES IDX 2 15 3 16 89 17 4 18 88 19 90 20 11 21 12 24 13 25 14 26
REMARK SMILES IDX 18 27 15 28 17 29 16 30 24 31 25 32 26 33 27 35 28 36 29 37
REMARK SMILES IDX 87 38 30 39 86 40 31 41 32 42 33 43 80 44 34 45 85 46 79 47
REMARK SMILES IDX 81 48 35 49 84 50 78 51 77 52 36 54 66 55 47 56 65 57 48 58
REMARK SMILES IDX 51 59 64 60 82 61 49 62 50 63 63 65 83 66 52 67 37 68 38 69
REMARK SMILES IDX 46 70 39 71 45 72 40 73 41 74 42 75 43 76 44 77 67 78 68 79
REMARK SMILES IDX 76 80 69 81 75 82 70 83 71 84 72 85 73 86 74 87 53 88 54 89
REMARK SMILES IDX 62 90 55 91 61 92 56 93 57 94 58 95 59 96 60 97
REMARK H PARENT 21 6 6 11 11 22 11 23 25 34 81 53 51 64
REMARK Flexibility Score: inf
ROOT
ATOM      1  C   UNL A   1      35.776  22.328  25.113  1.00  0.00     0.042 C 
ENDROOT
BRANCH   1   2
ATOM      2  C   UNL A   1      35.362  21.160  26.009  1.00  0.00     0.118 C 
BRANCH   2   3
ATOM      3  N   UNL A   1      34.080  20.566  25.604  1.00  0.00    -0.351 N 
ATOM      4  C   UNL A   1      32.824  20.998  25.309  1.00  0.00     0.278 C 
ATOM      5  O   UNL A   1      32.018  20.094  25.028  1.00  0.00    -0.268 OA
ATOM      6  H   UNL A   1      34.149  19.587  25.523  1.00  0.00     0.163 HD
BRANCH   4   7
ATOM      7  C   UNL A   1      32.281  22.469  25.345  1.00  0.00     0.282 C 
BRANCH   7   8
ATOM      8  C   UNL A   1      31.636  22.925  26.631  1.00  0.00     0.175 C 
BRANCH   8   9
ATOM      9  C   UNL A   1      30.304  23.619  26.876  1.00  0.00     0.230 C 
ATOM     10  N   UNL A   1      29.767  24.779  26.457  1.00  0.00    -0.326 N 
ATOM     11  H   UNL A   1      28.871  24.887  26.849  1.00  0.00     0.169 HD
ATOM     12  O   UNL A   1      29.527  22.976  27.616  1.00  0.00    -0.274 OA
BRANCH  10  13
ATOM     13  C   UNL A   1      30.062  25.888  25.645  1.00  0.00     0.042 A 
ATOM     14  C   UNL A   1      30.725  29.226  22.940  1.00  0.00     0.046 C 
ATOM     15  C   UNL A   1      30.527  28.063  23.864  1.00  0.00    -0.032 A 
ATOM     16  C   UNL A   1      29.785  26.947  23.461  1.00  0.00     0.007 A 
ATOM     17  C   UNL A   1      31.047  28.064  25.153  1.00  0.00     0.046 A 
ATOM     18  C   UNL A   1      29.555  25.877  24.341  1.00  0.00     0.026 A 
ATOM     19  C   UNL A   1      30.834  26.974  26.000  1.00  0.00     0.047 A 
ATOM     20  Cl  UNL A   1      31.990  29.379  25.765  1.00  0.00    -0.084 Cl
ENDBRANCH  10  13
ENDBRANCH   8   9
ENDBRANCH   7   8
BRANCH   7  21
ATOM     21  N   UNL A   1      31.641  22.791  24.058  1.00  0.00    -0.332 N 
ATOM     22  H   UNL A   1      31.125  23.660  24.192  1.00  0.00     0.347 HD
ATOM     23  H   UNL A   1      31.091  21.959  23.846  1.00  0.00     0.347 HD
BRANCH  21  24
ATOM     24  C   UNL A   1      32.471  22.968  22.875  1.00  0.00     0.299 C 
BRANCH  24  25
ATOM     25  C   UNL A   1      32.863  24.419  22.717  1.00  0.00     0.024 A 
ATOM     26  C   UNL A   1      33.295  25.201  23.795  1.00  0.00     0.013 A 
ATOM     27  C   UNL A   1      32.875  25.024  21.462  1.00  0.00     0.120 A 
ATOM     28  C   UNL A   1      33.745  26.502  23.575  1.00  0.00     0.021 A 
ATOM     29  N   UNL A   1      33.289  26.291  21.219  1.00  0.00    -0.264 NA
ATOM     30  C   UNL A   1      33.734  26.993  22.281  1.00  0.00     0.111 A 
ENDBRANCH  24  25
ENDBRANCH  21  24
ENDBRANCH   7  21
ENDBRANCH   4   7
ENDBRANCH   2   3
ENDBRANCH   1   2
BRANCH   1  31
ATOM     31  C   UNL A   1      37.171  22.903  25.308  1.00  0.00     0.118 C 
BRANCH  31  32
ATOM     32  N   UNL A   1      38.149  21.909  25.709  1.00  0.00    -0.352 N 
ATOM     33  C   UNL A   1      39.380  22.009  26.316  1.00  0.00     0.251 C 
ATOM     34  H   UNL A   1      37.881  20.983  25.506  1.00  0.00     0.163 HD
ATOM     35  O   UNL A   1      40.045  20.975  26.402  1.00  0.00    -0.269 OA
BRANCH  33  36
ATOM     36  C   UNL A   1      39.950  23.280  26.857  1.00  0.00     0.039 A 
ATOM     37  C   UNL A   1      39.730  24.456  26.124  1.00  0.00     0.014 A 
ATOM     38  C   UNL A   1      40.761  23.355  27.990  1.00  0.00     0.014 A 
ATOM     39  C   UNL A   1      40.291  25.676  26.529  1.00  0.00     0.010 A 
ATOM     40  C   UNL A   1      41.235  24.590  28.455  1.00  0.00     0.010 A 
ATOM     41  C   UNL A   1      41.036  25.763  27.715  1.00  0.00    -0.014 A 
BRANCH  41  42
ATOM     42  C   UNL A   1      41.644  27.056  28.151  1.00  0.00     0.031 A 
ATOM     43  C   UNL A   1      43.136  27.281  28.048  1.00  0.00     0.074 A 
ATOM     44  C   UNL A   1      40.864  28.032  28.661  1.00  0.00     0.049 A 
ATOM     45  N   UNL A   1      43.837  28.342  28.370  1.00  0.00    -0.248 NA
ATOM     46  C   UNL A   1      43.950  26.164  27.545  1.00  0.00     0.031 C 
ATOM     47  C   UNL A   1      39.416  27.939  28.867  1.00  0.00     0.029 A 
ATOM     48  N   UNL A   1      41.177  29.300  29.090  1.00  0.00    -0.354 N 
ATOM     49  C   UNL A   1      45.167  28.010  28.128  1.00  0.00     0.074 A 
ATOM     50  C   UNL A   1      45.181  26.633  27.685  1.00  0.00     0.031 C 
ATOM     51  C   UNL A   1      38.963  29.111  29.341  1.00  0.00     0.029 A 
ATOM     52  C   UNL A   1      40.086  30.029  29.505  1.00  0.00     0.049 A 
ATOM     53  H   UNL A   1      42.095  29.653  29.101  1.00  0.00     0.167 HD
ATOM     54  C   UNL A   1      46.278  28.781  28.237  1.00  0.00     0.031 A 
ATOM     55  C   UNL A   1      39.992  31.296  29.955  1.00  0.00     0.031 A 
ATOM     56  C   UNL A   1      46.270  30.160  28.650  1.00  0.00     0.049 A 
ATOM     57  C   UNL A   1      41.231  32.146  30.035  1.00  0.00     0.074 A 
ATOM     58  C   UNL A   1      47.334  31.041  28.738  1.00  0.00     0.029 A 
ATOM     59  N   UNL A   1      45.140  30.863  29.038  1.00  0.00    -0.354 N 
ATOM     60  N   UNL A   1      42.470  31.826  29.744  1.00  0.00    -0.248 NA
ATOM     61  C   UNL A   1      41.055  33.534  30.482  1.00  0.00     0.031 C 
ATOM     62  C   UNL A   1      46.855  32.264  29.218  1.00  0.00     0.029 A 
ATOM     63  C   UNL A   1      45.482  32.162  29.377  1.00  0.00     0.049 A 
ATOM     64  H   UNL A   1      44.227  30.494  29.068  1.00  0.00     0.167 HD
ATOM     65  C   UNL A   1      43.216  32.982  29.948  1.00  0.00     0.074 A 
ATOM     66  C   UNL A   1      42.285  34.012  30.367  1.00  0.00     0.031 C 
ATOM     67  C   UNL A   1      44.550  33.176  29.800  1.00  0.00     0.031 A 
BRANCH  54  68
ATOM     68  C   UNL A   1      47.604  28.146  27.899  1.00  0.00    -0.014 A 
ATOM     69  C   UNL A   1      48.367  27.489  28.882  1.00  0.00     0.010 A 
ATOM     70  C   UNL A   1      48.078  28.173  26.575  1.00  0.00     0.010 A 
ATOM     71  C   UNL A   1      49.600  26.916  28.558  1.00  0.00     0.020 A 
ATOM     72  C   UNL A   1      49.298  27.574  26.240  1.00  0.00     0.020 A 
ATOM     73  C   UNL A   1      50.061  26.967  27.240  1.00  0.00     0.054 A 
BRANCH  73  74
ATOM     74  S   UNL A   1      51.658  26.203  26.841  1.00  0.00     0.124 S 
ATOM     75  O   UNL A   1      51.301  24.786  26.769  1.00  0.00    -0.237 OA
ATOM     76  O   UNL A   1      52.000  26.826  25.562  1.00  0.00    -0.237 OA
ATOM     77  O   UNL A   1      52.511  26.575  27.960  1.00  0.00    -0.744 OA
ENDBRANCH  73  74
ENDBRANCH  54  68
BRANCH  55  78
ATOM     78  C   UNL A   1      38.664  31.854  30.332  1.00  0.00    -0.014 A 
ATOM     79  C   UNL A   1      38.204  31.768  31.659  1.00  0.00     0.010 A 
ATOM     80  C   UNL A   1      37.856  32.484  29.368  1.00  0.00     0.010 A 
ATOM     81  C   UNL A   1      36.954  32.286  32.011  1.00  0.00     0.020 A 
ATOM     82  C   UNL A   1      36.618  33.028  29.722  1.00  0.00     0.020 A 
ATOM     83  C   UNL A   1      36.170  32.915  31.041  1.00  0.00     0.054 A 
BRANCH  83  84
ATOM     84  S   UNL A   1      34.576  33.631  31.529  1.00  0.00     0.124 S 
ATOM     85  O   UNL A   1      34.021  32.585  32.384  1.00  0.00    -0.237 OA
ATOM     86  O   UNL A   1      34.976  34.859  32.211  1.00  0.00    -0.237 OA
ATOM     87  O   UNL A   1      33.888  33.831  30.255  1.00  0.00    -0.744 OA
ENDBRANCH  83  84
ENDBRANCH  55  78
BRANCH  67  88
ATOM     88  C   UNL A   1      45.076  34.563  30.058  1.00  0.00    -0.014 A 
ATOM     89  C   UNL A   1      45.271  35.479  29.009  1.00  0.00     0.010 A 
ATOM     90  C   UNL A   1      45.370  34.958  31.376  1.00  0.00     0.010 A 
ATOM     91  C   UNL A   1      45.802  36.746  29.267  1.00  0.00     0.020 A 
ATOM     92  C   UNL A   1      45.873  36.234  31.641  1.00  0.00     0.020 A 
ATOM     93  C   UNL A   1      46.107  37.112  30.581  1.00  0.00     0.054 A 
BRANCH  93  94
ATOM     94  S   UNL A   1      46.795  38.762  30.894  1.00  0.00     0.124 S 
ATOM     95  O   UNL A   1      48.095  38.442  31.476  1.00  0.00    -0.237 OA
ATOM     96  O   UNL A   1      46.833  39.353  29.559  1.00  0.00    -0.237 OA
ATOM     97  O   UNL A   1      45.832  39.369  31.810  1.00  0.00    -0.744 OA
ENDBRANCH  93  94
ENDBRANCH  67  88
ENDBRANCH  41  42
ENDBRANCH  33  36
ENDBRANCH  31  32
ENDBRANCH   1  31
TORSDOF 19
ENDMDL
