MODEL 1
REMARK VINA RESULT:     -12.7      0.000      0.000
REMARK SMILES Cc1cccc(S(=O)(=O)Nc2cc(C(=O)NCCCNC(=O)c3ccc(-c4c5nc(c(-c6ccc(S(=O)(=O)[O-])cc6)c6ccc([nH]6)c(-c6ccc(S(=O)(=O)[O-])cc6)c6nc(c(-c7ccc(S(=O)(=O)[O-])cc7)c7ccc4[nH]7)C=C6)C=C5)cc3)ccc2N2CCC[C@H](C[NH+]3CCCC3)C2)c1
REMARK SMILES IDX 18 1 17 2 16 3 14 4 15 5 13 7 11 8 12 9 85 10 84 11 83 12
REMARK SMILES IDX 10 13 7 15 8 16 9 17 6 18 1 19 2 20 3 21 98 22 4 23 5 24
REMARK SMILES IDX 86 25 87 26 97 27 88 28 90 29 89 30 91 31 92 32 93 33 96 34
REMARK SMILES IDX 94 36 95 37 19 38 20 39 21 40 22 42 23 43 24 44 82 45 25 46
REMARK SMILES IDX 81 47 26 48 27 49 28 50 75 51 29 52 80 53 74 54 76 55 30 56
REMARK SMILES IDX 79 57 73 58 72 59 31 61 61 62 42 63 60 64 43 65 46 66 59 67
REMARK SMILES IDX 77 68 44 69 45 70 58 72 78 73 47 74 32 75 33 76 41 77 34 78
REMARK SMILES IDX 40 79 35 80 36 81 37 82 38 83 39 84 62 85 63 86 71 87 64 88
REMARK SMILES IDX 70 89 65 90 66 91 67 92 68 93 69 94 48 95 49 96 57 97 50 98
REMARK SMILES IDX 56 99 51 100 52 101 53 102 54 103 55 104
REMARK H PARENT 16 6 10 14 92 35 20 41 76 60 46 71
REMARK Flexibility Score: inf
ROOT
ATOM      1  C   UNL A   1      36.262  30.332  28.704  1.00  0.00     0.042 C 
ENDROOT
BRANCH   1   2
ATOM      2  C   UNL A   1      34.860  29.775  28.133  1.00  0.00     0.118 C 
BRANCH   2   3
ATOM      3  N   UNL A   1      33.823  30.633  27.489  1.00  0.00    -0.352 N 
ATOM      4  C   UNL A   1      32.529  30.511  27.045  1.00  0.00     0.251 C 
ATOM      5  O   UNL A   1      31.767  31.461  26.889  1.00  0.00    -0.269 OA
ATOM      6  H   UNL A   1      34.162  31.545  27.341  1.00  0.00     0.163 HD
BRANCH   4   7
ATOM      7  C   UNL A   1      32.024  29.172  26.741  1.00  0.00     0.042 A 
ATOM      8  C   UNL A   1      31.952  27.467  25.094  1.00  0.00     0.073 A 
ATOM      9  C   UNL A   1      32.021  28.796  25.409  1.00  0.00     0.042 A 
ATOM     10  C   UNL A   1      31.500  26.543  26.049  1.00  0.00     0.061 A 
ATOM     11  C   UNL A   1      31.310  26.977  27.374  1.00  0.00     0.029 A 
ATOM     12  C   UNL A   1      31.624  28.283  27.740  1.00  0.00     0.016 A 
BRANCH   8  13
ATOM     13  N   UNL A   1      32.367  27.092  23.783  1.00  0.00    -0.277 N 
ATOM     14  H   UNL A   1      33.040  26.380  23.683  1.00  0.00     0.180 HD
BRANCH  13  15
ATOM     15  S   UNL A   1      31.734  27.834  22.382  1.00  0.00     0.261 S 
ATOM     16  O   UNL A   1      31.531  26.735  21.454  1.00  0.00    -0.201 OA
ATOM     17  O   UNL A   1      32.678  28.873  22.020  1.00  0.00    -0.201 OA
BRANCH  15  18
ATOM     18  C   UNL A   1      30.149  28.663  22.536  1.00  0.00     0.088 A 
ATOM     19  C   UNL A   1      26.530  28.099  23.588  1.00  0.00     0.044 C 
ATOM     20  C   UNL A   1      27.790  28.784  23.130  1.00  0.00    -0.050 A 
ATOM     21  C   UNL A   1      27.668  29.992  22.426  1.00  0.00     0.003 A 
ATOM     22  C   UNL A   1      29.056  28.166  23.256  1.00  0.00     0.025 A 
ATOM     23  C   UNL A   1      28.772  30.541  21.784  1.00  0.00     0.002 A 
ATOM     24  C   UNL A   1      29.997  29.869  21.817  1.00  0.00     0.022 A 
ENDBRANCH  15  18
ENDBRANCH  13  15
ENDBRANCH   8  13
BRANCH  10  25
ATOM     25  N   UNL A   1      31.158  25.252  25.716  1.00  0.00    -0.369 N 
ATOM     26  C   UNL A   1      29.990  24.674  26.363  1.00  0.00     0.116 C 
ATOM     27  C   UNL A   1      31.749  24.575  24.577  1.00  0.00     0.126 C 
ATOM     28  C   UNL A   1      30.333  23.252  26.788  1.00  0.00     0.022 C 
ATOM     29  C   UNL A   1      32.149  23.154  24.987  1.00  0.00     0.064 C 
ATOM     30  C   UNL A   1      30.918  22.467  25.613  1.00  0.00     0.013 C 
BRANCH  29  31
ATOM     31  C   UNL A   1      33.418  23.240  25.878  1.00  0.00     0.267 C 
BRANCH  31  32
ATOM     32  N   UNL A   1      34.616  22.476  25.523  1.00  0.00    -0.335 N 
ATOM     33  C   UNL A   1      35.865  23.000  26.071  1.00  0.00     0.262 C 
ATOM     34  C   UNL A   1      34.817  22.239  24.097  1.00  0.00     0.262 C 
ATOM     35  H   UNL A   1      34.400  21.584  25.968  1.00  0.00     0.348 HD
ATOM     36  C   UNL A   1      36.503  23.769  24.932  1.00  0.00     0.067 C 
ATOM     37  C   UNL A   1      36.072  23.006  23.692  1.00  0.00     0.067 C 
ENDBRANCH  31  32
ENDBRANCH  29  31
ENDBRANCH  10  25
ENDBRANCH   4   7
ENDBRANCH   2   3
ENDBRANCH   1   2
BRANCH   1  38
ATOM     38  C   UNL A   1      37.525  30.124  27.729  1.00  0.00     0.118 C 
BRANCH  38  39
ATOM     39  N   UNL A   1      38.628  29.004  27.785  1.00  0.00    -0.352 N 
ATOM     40  C   UNL A   1      39.086  27.938  28.669  1.00  0.00     0.251 C 
ATOM     41  H   UNL A   1      39.180  29.029  26.971  1.00  0.00     0.163 HD
ATOM     42  O   UNL A   1      39.156  26.830  28.105  1.00  0.00    -0.269 OA
BRANCH  40  43
ATOM     43  C   UNL A   1      39.518  27.881  30.185  1.00  0.00     0.039 A 
ATOM     44  C   UNL A   1      38.575  27.974  31.250  1.00  0.00     0.014 A 
ATOM     45  C   UNL A   1      40.812  27.769  30.647  1.00  0.00     0.014 A 
ATOM     46  C   UNL A   1      38.924  28.653  32.471  1.00  0.00     0.010 A 
ATOM     47  C   UNL A   1      41.169  28.381  31.881  1.00  0.00     0.010 A 
ATOM     48  C   UNL A   1      40.236  29.071  32.677  1.00  0.00    -0.014 A 
BRANCH  48  49
ATOM     49  C   UNL A   1      40.656  30.246  33.554  1.00  0.00     0.031 A 
ATOM     50  C   UNL A   1      41.510  30.029  34.716  1.00  0.00     0.074 A 
ATOM     51  C   UNL A   1      40.495  31.587  33.328  1.00  0.00     0.049 A 
ATOM     52  N   UNL A   1      41.325  30.562  35.880  1.00  0.00    -0.248 NA
ATOM     53  C   UNL A   1      42.712  29.226  34.607  1.00  0.00     0.031 C 
ATOM     54  C   UNL A   1      40.997  32.811  33.992  1.00  0.00     0.029 A 
ATOM     55  N   UNL A   1      39.819  32.187  32.289  1.00  0.00    -0.354 N 
ATOM     56  C   UNL A   1      42.538  30.467  36.526  1.00  0.00     0.074 A 
ATOM     57  C   UNL A   1      43.280  29.470  35.787  1.00  0.00     0.031 C 
ATOM     58  C   UNL A   1      40.274  33.883  33.583  1.00  0.00     0.029 A 
ATOM     59  C   UNL A   1      39.265  33.403  32.663  1.00  0.00     0.049 A 
ATOM     60  H   UNL A   1      39.740  31.798  31.388  1.00  0.00     0.167 HD
ATOM     61  C   UNL A   1      42.916  31.394  37.457  1.00  0.00     0.031 A 
ATOM     62  C   UNL A   1      37.899  33.487  32.705  1.00  0.00     0.031 A 
ATOM     63  C   UNL A   1      41.962  32.513  37.546  1.00  0.00     0.049 A 
ATOM     64  C   UNL A   1      37.459  33.500  34.137  1.00  0.00     0.074 A 
ATOM     65  C   UNL A   1      42.036  33.843  37.152  1.00  0.00     0.029 A 
ATOM     66  N   UNL A   1      40.610  32.265  37.787  1.00  0.00    -0.354 N 
ATOM     67  N   UNL A   1      38.296  33.319  35.114  1.00  0.00    -0.248 NA
ATOM     68  C   UNL A   1      36.102  33.727  34.612  1.00  0.00     0.031 C 
ATOM     69  C   UNL A   1      40.706  34.342  37.026  1.00  0.00     0.029 A 
ATOM     70  C   UNL A   1      39.827  33.336  37.389  1.00  0.00     0.049 A 
ATOM     71  H   UNL A   1      40.259  31.437  38.187  1.00  0.00     0.167 HD
ATOM     72  C   UNL A   1      37.669  33.409  36.307  1.00  0.00     0.074 A 
ATOM     73  C   UNL A   1      36.285  33.673  35.947  1.00  0.00     0.031 C 
ATOM     74  C   UNL A   1      38.365  33.262  37.468  1.00  0.00     0.031 A 
BRANCH  61  75
ATOM     75  C   UNL A   1      44.321  31.428  38.039  1.00  0.00    -0.014 A 
ATOM     76  C   UNL A   1      45.382  32.050  37.352  1.00  0.00     0.010 A 
ATOM     77  C   UNL A   1      44.653  30.872  39.292  1.00  0.00     0.010 A 
ATOM     78  C   UNL A   1      46.699  32.043  37.849  1.00  0.00     0.020 A 
ATOM     79  C   UNL A   1      45.967  30.795  39.772  1.00  0.00     0.020 A 
ATOM     80  C   UNL A   1      46.986  31.394  39.050  1.00  0.00     0.054 A 
BRANCH  80  81
ATOM     81  S   UNL A   1      48.678  31.406  39.698  1.00  0.00     0.124 S 
ATOM     82  O   UNL A   1      48.763  30.127  40.399  1.00  0.00    -0.237 OA
ATOM     83  O   UNL A   1      49.477  31.513  38.480  1.00  0.00    -0.237 OA
ATOM     84  O   UNL A   1      48.713  32.585  40.563  1.00  0.00    -0.744 OA
ENDBRANCH  80  81
ENDBRANCH  61  75
BRANCH  62  85
ATOM     85  C   UNL A   1      37.195  32.816  31.521  1.00  0.00    -0.014 A 
ATOM     86  C   UNL A   1      36.014  32.152  31.910  1.00  0.00     0.010 A 
ATOM     87  C   UNL A   1      37.055  33.569  30.362  1.00  0.00     0.010 A 
ATOM     88  C   UNL A   1      34.802  32.849  31.802  1.00  0.00     0.020 A 
ATOM     89  C   UNL A   1      35.784  34.120  30.117  1.00  0.00     0.020 A 
ATOM     90  C   UNL A   1      34.763  34.013  31.048  1.00  0.00     0.054 A 
BRANCH  90  91
ATOM     91  S   UNL A   1      33.490  35.440  31.656  1.00  0.00     0.124 S 
ATOM     92  O   UNL A   1      34.404  36.192  32.489  1.00  0.00    -0.237 OA
ATOM     93  O   UNL A   1      33.129  36.285  30.530  1.00  0.00    -0.237 OA
ATOM     94  O   UNL A   1      32.391  34.839  32.353  1.00  0.00    -0.744 OA
ENDBRANCH  90  91
ENDBRANCH  62  85
BRANCH  74  95
ATOM     95  C   UNL A   1      37.721  33.139  38.810  1.00  0.00    -0.014 A 
ATOM     96  C   UNL A   1      38.084  33.921  39.916  1.00  0.00     0.010 A 
ATOM     97  C   UNL A   1      36.617  32.272  38.950  1.00  0.00     0.010 A 
ATOM     98  C   UNL A   1      37.438  33.766  41.142  1.00  0.00     0.020 A 
ATOM     99  C   UNL A   1      35.927  32.153  40.152  1.00  0.00     0.020 A 
ATOM    100  C   UNL A   1      36.371  32.874  41.254  1.00  0.00     0.054 A 
BRANCH 100 101
ATOM    101  S   UNL A   1      35.546  32.686  42.848  1.00  0.00     0.124 S 
ATOM    102  O   UNL A   1      36.639  32.212  43.694  1.00  0.00    -0.237 OA
ATOM    103  O   UNL A   1      35.076  34.039  43.133  1.00  0.00    -0.237 OA
ATOM    104  O   UNL A   1      34.493  31.710  42.579  1.00  0.00    -0.744 OA
ENDBRANCH 100 101
ENDBRANCH  74  95
ENDBRANCH  48  49
ENDBRANCH  40  43
ENDBRANCH  38  39
ENDBRANCH   1  38
TORSDOF 19
ENDMDL
MODEL 2
REMARK VINA RESULT:     -12.0      6.498     10.044
REMARK SMILES Cc1cccc(S(=O)(=O)Nc2cc(C(=O)NCCCNC(=O)c3ccc(-c4c5nc(c(-c6ccc(S(=O)(=O)[O-])cc6)c6ccc([nH]6)c(-c6ccc(S(=O)(=O)[O-])cc6)c6nc(c(-c7ccc(S(=O)(=O)[O-])cc7)c7ccc4[nH]7)C=C6)C=C5)cc3)ccc2N2CCC[C@H](C[NH+]3CCCC3)C2)c1
REMARK SMILES IDX 18 1 17 2 16 3 14 4 15 5 13 7 11 8 12 9 85 10 84 11 83 12
REMARK SMILES IDX 10 13 7 15 8 16 9 17 6 18 1 19 2 20 3 21 98 22 4 23 5 24
REMARK SMILES IDX 86 25 87 26 97 27 88 28 90 29 89 30 91 31 92 32 93 33 96 34
REMARK SMILES IDX 94 36 95 37 19 38 20 39 21 40 22 42 23 43 24 44 82 45 25 46
REMARK SMILES IDX 81 47 26 48 27 49 28 50 75 51 29 52 80 53 74 54 76 55 30 56
REMARK SMILES IDX 79 57 73 58 72 59 31 61 61 62 42 63 60 64 43 65 46 66 59 67
REMARK SMILES IDX 77 68 44 69 45 70 58 72 78 73 47 74 32 75 33 76 41 77 34 78
REMARK SMILES IDX 40 79 35 80 36 81 37 82 38 83 39 84 62 85 63 86 71 87 64 88
REMARK SMILES IDX 70 89 65 90 66 91 67 92 68 93 69 94 48 95 49 96 57 97 50 98
REMARK SMILES IDX 56 99 51 100 52 101 53 102 54 103 55 104
REMARK H PARENT 16 6 10 14 92 35 20 41 76 60 46 71
REMARK Flexibility Score: inf
ROOT
ATOM      1  C   UNL A   1      40.547  22.476  27.416  1.00  0.00     0.042 C 
ENDROOT
BRANCH   1   2
ATOM      2  C   UNL A   1      39.252  22.654  26.471  1.00  0.00     0.118 C 
BRANCH   2   3
ATOM      3  N   UNL A   1      38.359  21.531  26.061  1.00  0.00    -0.352 N 
ATOM      4  C   UNL A   1      37.253  21.343  25.267  1.00  0.00     0.251 C 
ATOM      5  O   UNL A   1      36.925  20.257  24.798  1.00  0.00    -0.269 OA
ATOM      6  H   UNL A   1      38.643  20.684  26.475  1.00  0.00     0.163 HD
BRANCH   4   7
ATOM      7  C   UNL A   1      36.418  22.503  24.958  1.00  0.00     0.042 A 
ATOM      8  C   UNL A   1      34.560  23.258  23.691  1.00  0.00     0.073 A 
ATOM      9  C   UNL A   1      35.632  22.418  23.822  1.00  0.00     0.042 A 
ATOM     10  C   UNL A   1      34.484  24.423  24.470  1.00  0.00     0.061 A 
ATOM     11  C   UNL A   1      35.416  24.606  25.508  1.00  0.00     0.029 A 
ATOM     12  C   UNL A   1      36.355  23.619  25.794  1.00  0.00     0.016 A 
BRANCH   8  13
ATOM     13  N   UNL A   1      33.554  22.880  22.756  1.00  0.00    -0.277 N 
ATOM     14  H   UNL A   1      33.572  23.273  21.853  1.00  0.00     0.180 HD
BRANCH  13  15
ATOM     15  S   UNL A   1      32.320  21.767  23.147  1.00  0.00     0.261 S 
ATOM     16  O   UNL A   1      31.781  21.362  21.861  1.00  0.00    -0.201 OA
ATOM     17  O   UNL A   1      31.443  22.454  24.075  1.00  0.00    -0.201 OA
BRANCH  15  18
ATOM     18  C   UNL A   1      32.812  20.257  23.985  1.00  0.00     0.088 A 
ATOM     19  C   UNL A   1      33.565  16.570  23.382  1.00  0.00     0.044 C 
ATOM     20  C   UNL A   1      33.420  17.900  24.073  1.00  0.00    -0.050 A 
ATOM     21  C   UNL A   1      33.273  17.907  25.468  1.00  0.00     0.003 A 
ATOM     22  C   UNL A   1      33.272  19.101  23.341  1.00  0.00     0.025 A 
ATOM     23  C   UNL A   1      32.905  19.076  26.126  1.00  0.00     0.002 A 
ATOM     24  C   UNL A   1      32.652  20.235  25.388  1.00  0.00     0.022 A 
ENDBRANCH  15  18
ENDBRANCH  13  15
ENDBRANCH   8  13
BRANCH  10  25
ATOM     25  N   UNL A   1      33.583  25.428  24.199  1.00  0.00    -0.369 N 
ATOM     26  C   UNL A   1      33.660  26.072  22.897  1.00  0.00     0.116 C 
ATOM     27  C   UNL A   1      32.428  25.665  25.043  1.00  0.00     0.126 C 
ATOM     28  C   UNL A   1      33.527  27.576  23.098  1.00  0.00     0.022 C 
ATOM     29  C   UNL A   1      32.293  27.170  25.303  1.00  0.00     0.064 C 
ATOM     30  C   UNL A   1      32.293  27.897  23.943  1.00  0.00     0.013 C 
BRANCH  29  31
ATOM     31  C   UNL A   1      33.397  27.593  26.311  1.00  0.00     0.267 C 
BRANCH  31  32
ATOM     32  N   UNL A   1      33.088  28.548  27.378  1.00  0.00    -0.335 N 
ATOM     33  C   UNL A   1      31.802  29.227  27.243  1.00  0.00     0.262 C 
ATOM     34  C   UNL A   1      34.106  29.562  27.633  1.00  0.00     0.262 C 
ATOM     35  H   UNL A   1      33.055  27.919  28.180  1.00  0.00     0.348 HD
ATOM     36  C   UNL A   1      32.133  30.587  26.665  1.00  0.00     0.067 C 
ATOM     37  C   UNL A   1      33.499  30.907  27.248  1.00  0.00     0.067 C 
ENDBRANCH  31  32
ENDBRANCH  29  31
ENDBRANCH  10  25
ENDBRANCH   4   7
ENDBRANCH   2   3
ENDBRANCH   1   2
BRANCH   1  38
ATOM     38  C   UNL A   1      41.508  21.244  27.029  1.00  0.00     0.118 C 
BRANCH  38  39
ATOM     39  N   UNL A   1      42.271  20.989  25.678  1.00  0.00    -0.352 N 
ATOM     40  C   UNL A   1      43.541  21.316  25.039  1.00  0.00     0.251 C 
ATOM     41  H   UNL A   1      41.722  20.437  25.076  1.00  0.00     0.163 HD
ATOM     42  O   UNL A   1      44.151  20.314  24.621  1.00  0.00    -0.269 OA
BRANCH  40  43
ATOM     43  C   UNL A   1      44.312  22.663  24.758  1.00  0.00     0.039 A 
ATOM     44  C   UNL A   1      45.720  22.704  24.542  1.00  0.00     0.014 A 
ATOM     45  C   UNL A   1      43.744  23.918  24.718  1.00  0.00     0.014 A 
ATOM     46  C   UNL A   1      46.495  23.819  25.024  1.00  0.00     0.010 A 
ATOM     47  C   UNL A   1      44.508  25.045  25.131  1.00  0.00     0.010 A 
ATOM     48  C   UNL A   1      45.847  24.933  25.549  1.00  0.00    -0.014 A 
BRANCH  48  49
ATOM     49  C   UNL A   1      46.438  25.884  26.585  1.00  0.00     0.031 A 
ATOM     50  C   UNL A   1      47.704  25.570  27.236  1.00  0.00     0.074 A 
ATOM     51  C   UNL A   1      46.040  27.154  26.911  1.00  0.00     0.049 A 
ATOM     52  N   UNL A   1      47.937  25.698  28.502  1.00  0.00    -0.248 NA
ATOM     53  C   UNL A   1      48.850  25.149  26.453  1.00  0.00     0.031 C 
ATOM     54  C   UNL A   1      46.614  28.230  27.749  1.00  0.00     0.029 A 
ATOM     55  N   UNL A   1      44.938  27.834  26.441  1.00  0.00    -0.354 N 
ATOM     56  C   UNL A   1      49.309  25.728  28.623  1.00  0.00     0.074 A 
ATOM     57  C   UNL A   1      49.808  25.188  27.378  1.00  0.00     0.031 C 
ATOM     58  C   UNL A   1      45.664  29.163  28.011  1.00  0.00     0.029 A 
ATOM     59  C   UNL A   1      44.437  28.724  27.380  1.00  0.00     0.049 A 
ATOM     60  H   UNL A   1      44.553  27.703  25.544  1.00  0.00     0.167 HD
ATOM     61  C   UNL A   1      49.913  26.424  29.633  1.00  0.00     0.031 A 
ATOM     62  C   UNL A   1      43.204  28.456  27.908  1.00  0.00     0.031 A 
ATOM     63  C   UNL A   1      48.946  27.205  30.425  1.00  0.00     0.049 A 
ATOM     64  C   UNL A   1      43.374  27.964  29.312  1.00  0.00     0.074 A 
ATOM     65  C   UNL A   1      48.696  28.568  30.521  1.00  0.00     0.029 A 
ATOM     66  N   UNL A   1      47.844  26.576  31.005  1.00  0.00    -0.354 N 
ATOM     67  N   UNL A   1      44.547  27.730  29.820  1.00  0.00    -0.248 NA
ATOM     68  C   UNL A   1      42.303  27.711  30.265  1.00  0.00     0.031 C 
ATOM     69  C   UNL A   1      47.378  28.741  31.034  1.00  0.00     0.029 A 
ATOM     70  C   UNL A   1      46.845  27.490  31.296  1.00  0.00     0.049 A 
ATOM     71  H   UNL A   1      47.785  25.611  31.183  1.00  0.00     0.167 HD
ATOM     72  C   UNL A   1      44.442  27.330  31.106  1.00  0.00     0.074 A 
ATOM     73  C   UNL A   1      43.009  27.336  31.351  1.00  0.00     0.031 C 
ATOM     74  C   UNL A   1      45.557  27.042  31.834  1.00  0.00     0.031 A 
BRANCH  61  75
ATOM     75  C   UNL A   1      51.419  26.638  29.679  1.00  0.00    -0.014 A 
ATOM     76  C   UNL A   1      52.223  25.967  30.620  1.00  0.00     0.010 A 
ATOM     77  C   UNL A   1      52.106  27.488  28.788  1.00  0.00     0.010 A 
ATOM     78  C   UNL A   1      53.609  26.194  30.713  1.00  0.00     0.020 A 
ATOM     79  C   UNL A   1      53.472  27.779  28.908  1.00  0.00     0.020 A 
ATOM     80  C   UNL A   1      54.222  27.118  29.867  1.00  0.00     0.054 A 
BRANCH  80  81
ATOM     81  S   UNL A   1      56.009  27.392  29.975  1.00  0.00     0.124 S 
ATOM     82  O   UNL A   1      56.438  27.271  28.584  1.00  0.00    -0.237 OA
ATOM     83  O   UNL A   1      56.084  28.736  30.543  1.00  0.00    -0.237 OA
ATOM     84  O   UNL A   1      56.474  26.323  30.858  1.00  0.00    -0.744 OA
ENDBRANCH  80  81
ENDBRANCH  61  75
BRANCH  62  85
ATOM     85  C   UNL A   1      42.171  27.988  26.877  1.00  0.00    -0.014 A 
ATOM     86  C   UNL A   1      41.525  26.800  27.271  1.00  0.00     0.010 A 
ATOM     87  C   UNL A   1      41.307  28.951  26.369  1.00  0.00     0.010 A 
ATOM     88  C   UNL A   1      40.302  26.909  27.948  1.00  0.00     0.020 A 
ATOM     89  C   UNL A   1      39.998  28.958  26.886  1.00  0.00     0.020 A 
ATOM     90  C   UNL A   1      39.632  28.125  27.931  1.00  0.00     0.054 A 
BRANCH  90  91
ATOM     91  S   UNL A   1      38.554  28.584  29.559  1.00  0.00     0.124 S 
ATOM     92  O   UNL A   1      39.337  29.713  30.014  1.00  0.00    -0.237 OA
ATOM     93  O   UNL A   1      37.252  29.089  29.157  1.00  0.00    -0.237 OA
ATOM     94  O   UNL A   1      38.531  27.463  30.453  1.00  0.00    -0.744 OA
ENDBRANCH  90  91
ENDBRANCH  62  85
BRANCH  74  95
ATOM     95  C   UNL A   1      45.522  26.398  33.181  1.00  0.00    -0.014 A 
ATOM     96  C   UNL A   1      45.750  25.030  33.390  1.00  0.00     0.010 A 
ATOM     97  C   UNL A   1      45.361  27.221  34.317  1.00  0.00     0.010 A 
ATOM     98  C   UNL A   1      45.715  24.489  34.675  1.00  0.00     0.020 A 
ATOM     99  C   UNL A   1      45.382  26.700  35.606  1.00  0.00     0.020 A 
ATOM    100  C   UNL A   1      45.519  25.327  35.773  1.00  0.00     0.054 A 
BRANCH 100 101
ATOM    101  S   UNL A   1      45.474  24.611  37.429  1.00  0.00     0.124 S 
ATOM    102  O   UNL A   1      46.616  25.264  38.066  1.00  0.00    -0.237 OA
ATOM    103  O   UNL A   1      44.162  25.019  37.925  1.00  0.00    -0.237 OA
ATOM    104  O   UNL A   1      45.625  23.178  37.190  1.00  0.00    -0.744 OA
ENDBRANCH 100 101
ENDBRANCH  74  95
ENDBRANCH  48  49
ENDBRANCH  40  43
ENDBRANCH  38  39
ENDBRANCH   1  38
TORSDOF 19
ENDMDL
MODEL 3
REMARK VINA RESULT:     -11.6      6.794     12.268
REMARK SMILES Cc1cccc(S(=O)(=O)Nc2cc(C(=O)NCCCNC(=O)c3ccc(-c4c5nc(c(-c6ccc(S(=O)(=O)[O-])cc6)c6ccc([nH]6)c(-c6ccc(S(=O)(=O)[O-])cc6)c6nc(c(-c7ccc(S(=O)(=O)[O-])cc7)c7ccc4[nH]7)C=C6)C=C5)cc3)ccc2N2CCC[C@H](C[NH+]3CCCC3)C2)c1
REMARK SMILES IDX 18 1 17 2 16 3 14 4 15 5 13 7 11 8 12 9 85 10 84 11 83 12
REMARK SMILES IDX 10 13 7 15 8 16 9 17 6 18 1 19 2 20 3 21 98 22 4 23 5 24
REMARK SMILES IDX 86 25 87 26 97 27 88 28 90 29 89 30 91 31 92 32 93 33 96 34
REMARK SMILES IDX 94 36 95 37 19 38 20 39 21 40 22 42 23 43 24 44 82 45 25 46
REMARK SMILES IDX 81 47 26 48 27 49 28 50 75 51 29 52 80 53 74 54 76 55 30 56
REMARK SMILES IDX 79 57 73 58 72 59 31 61 61 62 42 63 60 64 43 65 46 66 59 67
REMARK SMILES IDX 77 68 44 69 45 70 58 72 78 73 47 74 32 75 33 76 41 77 34 78
REMARK SMILES IDX 40 79 35 80 36 81 37 82 38 83 39 84 62 85 63 86 71 87 64 88
REMARK SMILES IDX 70 89 65 90 66 91 67 92 68 93 69 94 48 95 49 96 57 97 50 98
REMARK SMILES IDX 56 99 51 100 52 101 53 102 54 103 55 104
REMARK H PARENT 16 6 10 14 92 35 20 41 76 60 46 71
REMARK Flexibility Score: inf
ROOT
ATOM      1  C   UNL A   1      40.782  22.907  27.820  1.00  0.00     0.042 C 
ENDROOT
BRANCH   1   2
ATOM      2  C   UNL A   1      40.354  24.437  27.543  1.00  0.00     0.118 C 
BRANCH   2   3
ATOM      3  N   UNL A   1      41.297  25.495  27.074  1.00  0.00    -0.352 N 
ATOM      4  C   UNL A   1      41.715  26.741  27.474  1.00  0.00     0.251 C 
ATOM      5  O   UNL A   1      42.773  27.254  27.120  1.00  0.00    -0.269 OA
ATOM      6  H   UNL A   1      41.748  25.222  26.243  1.00  0.00     0.163 HD
BRANCH   4   7
ATOM      7  C   UNL A   1      40.853  27.504  28.376  1.00  0.00     0.042 A 
ATOM      8  C   UNL A   1      40.809  28.800  30.362  1.00  0.00     0.073 A 
ATOM      9  C   UNL A   1      41.362  27.783  29.632  1.00  0.00     0.042 A 
ATOM     10  C   UNL A   1      39.531  29.280  30.037  1.00  0.00     0.061 A 
ATOM     11  C   UNL A   1      38.923  28.839  28.847  1.00  0.00     0.029 A 
ATOM     12  C   UNL A   1      39.606  27.989  27.981  1.00  0.00     0.016 A 
BRANCH   8  13
ATOM     13  N   UNL A   1      41.592  29.330  31.427  1.00  0.00    -0.277 N 
ATOM     14  H   UNL A   1      41.539  28.905  32.314  1.00  0.00     0.180 HD
BRANCH  13  15
ATOM     15  S   UNL A   1      42.620  30.677  31.218  1.00  0.00     0.261 S 
ATOM     16  O   UNL A   1      43.170  30.505  29.885  1.00  0.00    -0.201 OA
ATOM     17  O   UNL A   1      43.531  30.663  32.346  1.00  0.00    -0.201 OA
BRANCH  15  18
ATOM     18  C   UNL A   1      41.857  32.303  31.242  1.00  0.00     0.088 A 
ATOM     19  C   UNL A   1      39.404  34.465  33.200  1.00  0.00     0.044 C 
ATOM     20  C   UNL A   1      40.424  34.035  32.179  1.00  0.00    -0.050 A 
ATOM     21  C   UNL A   1      40.503  34.759  30.979  1.00  0.00     0.003 A 
ATOM     22  C   UNL A   1      41.174  32.847  32.337  1.00  0.00     0.025 A 
ATOM     23  C   UNL A   1      41.255  34.270  29.916  1.00  0.00     0.002 A 
ATOM     24  C   UNL A   1      41.907  33.040  30.038  1.00  0.00     0.022 A 
ENDBRANCH  15  18
ENDBRANCH  13  15
ENDBRANCH   8  13
BRANCH  10  25
ATOM     25  N   UNL A   1      38.820  30.103  30.881  1.00  0.00    -0.369 N 
ATOM     26  C   UNL A   1      38.594  29.641  32.242  1.00  0.00     0.116 C 
ATOM     27  C   UNL A   1      38.538  31.485  30.543  1.00  0.00     0.126 C 
ATOM     28  C   UNL A   1      37.144  29.928  32.611  1.00  0.00     0.022 C 
ATOM     29  C   UNL A   1      37.070  31.792  30.859  1.00  0.00     0.064 C 
ATOM     30  C   UNL A   1      36.796  31.389  32.323  1.00  0.00     0.013 C 
BRANCH  29  31
ATOM     31  C   UNL A   1      36.184  31.112  29.779  1.00  0.00     0.267 C 
BRANCH  31  32
ATOM     32  N   UNL A   1      34.894  31.700  29.413  1.00  0.00    -0.335 N 
ATOM     33  C   UNL A   1      34.751  32.042  28.001  1.00  0.00     0.262 C 
ATOM     34  C   UNL A   1      34.479  32.858  30.198  1.00  0.00     0.262 C 
ATOM     35  H   UNL A   1      34.271  30.923  29.636  1.00  0.00     0.348 HD
ATOM     36  C   UNL A   1      35.001  33.535  27.930  1.00  0.00     0.067 C 
ATOM     37  C   UNL A   1      34.470  34.055  29.254  1.00  0.00     0.067 C 
ENDBRANCH  31  32
ENDBRANCH  29  31
ENDBRANCH  10  25
ENDBRANCH   4   7
ENDBRANCH   2   3
ENDBRANCH   1   2
BRANCH   1  38
ATOM     38  C   UNL A   1      40.582  21.908  26.574  1.00  0.00     0.118 C 
BRANCH  38  39
ATOM     39  N   UNL A   1      41.617  21.528  25.452  1.00  0.00    -0.352 N 
ATOM     40  C   UNL A   1      43.058  21.493  25.234  1.00  0.00     0.251 C 
ATOM     41  H   UNL A   1      41.145  21.217  24.646  1.00  0.00     0.163 HD
ATOM     42  O   UNL A   1      43.468  20.385  24.840  1.00  0.00    -0.269 OA
BRANCH  40  43
ATOM     43  C   UNL A   1      44.216  22.554  25.385  1.00  0.00     0.039 A 
ATOM     44  C   UNL A   1      45.545  22.186  25.745  1.00  0.00     0.014 A 
ATOM     45  C   UNL A   1      44.081  23.916  25.224  1.00  0.00     0.014 A 
ATOM     46  C   UNL A   1      46.338  23.053  26.578  1.00  0.00     0.010 A 
ATOM     47  C   UNL A   1      44.895  24.795  25.991  1.00  0.00     0.010 A 
ATOM     48  C   UNL A   1      45.869  24.325  26.892  1.00  0.00    -0.014 A 
BRANCH  48  49
ATOM     49  C   UNL A   1      46.234  25.110  28.148  1.00  0.00     0.031 A 
ATOM     50  C   UNL A   1      45.206  25.465  29.120  1.00  0.00     0.074 A 
ATOM     51  C   UNL A   1      47.476  25.416  28.639  1.00  0.00     0.049 A 
ATOM     52  N   UNL A   1      45.087  26.624  29.680  1.00  0.00    -0.248 NA
ATOM     53  C   UNL A   1      44.262  24.470  29.590  1.00  0.00     0.031 C 
ATOM     54  C   UNL A   1      47.967  26.003  29.905  1.00  0.00     0.029 A 
ATOM     55  N   UNL A   1      48.695  25.167  28.048  1.00  0.00    -0.354 N 
ATOM     56  C   UNL A   1      44.318  26.413  30.804  1.00  0.00     0.074 A 
ATOM     57  C   UNL A   1      43.680  25.133  30.587  1.00  0.00     0.031 C 
ATOM     58  C   UNL A   1      49.253  26.406  29.755  1.00  0.00     0.029 A 
ATOM     59  C   UNL A   1      49.642  26.122  28.390  1.00  0.00     0.049 A 
ATOM     60  H   UNL A   1      48.872  24.401  27.456  1.00  0.00     0.167 HD
ATOM     61  C   UNL A   1      44.469  27.190  31.919  1.00  0.00     0.031 A 
ATOM     62  C   UNL A   1      50.091  26.949  27.395  1.00  0.00     0.031 A 
ATOM     63  C   UNL A   1      45.604  28.122  31.796  1.00  0.00     0.049 A 
ATOM     64  C   UNL A   1      49.491  28.307  27.586  1.00  0.00     0.074 A 
ATOM     65  C   UNL A   1      46.854  28.163  32.400  1.00  0.00     0.029 A 
ATOM     66  N   UNL A   1      45.679  28.997  30.712  1.00  0.00    -0.354 N 
ATOM     67  N   UNL A   1      48.592  28.540  28.496  1.00  0.00    -0.248 NA
ATOM     68  C   UNL A   1      49.829  29.505  26.831  1.00  0.00     0.031 C 
ATOM     69  C   UNL A   1      47.712  28.959  31.588  1.00  0.00     0.029 A 
ATOM     70  C   UNL A   1      46.977  29.442  30.519  1.00  0.00     0.049 A 
ATOM     71  H   UNL A   1      44.911  29.263  30.157  1.00  0.00     0.167 HD
ATOM     72  C   UNL A   1      48.234  29.841  28.495  1.00  0.00     0.074 A 
ATOM     73  C   UNL A   1      49.041  30.419  27.433  1.00  0.00     0.031 C 
ATOM     74  C   UNL A   1      47.309  30.305  29.382  1.00  0.00     0.031 A 
BRANCH  61  75
ATOM     75  C   UNL A   1      43.780  26.859  33.234  1.00  0.00    -0.014 A 
ATOM     76  C   UNL A   1      42.567  27.475  33.597  1.00  0.00     0.010 A 
ATOM     77  C   UNL A   1      44.282  25.916  34.154  1.00  0.00     0.010 A 
ATOM     78  C   UNL A   1      41.943  27.223  34.834  1.00  0.00     0.020 A 
ATOM     79  C   UNL A   1      43.714  25.702  35.417  1.00  0.00     0.020 A 
ATOM     80  C   UNL A   1      42.535  26.351  35.747  1.00  0.00     0.054 A 
BRANCH  80  81
ATOM     81  S   UNL A   1      41.719  26.011  37.328  1.00  0.00     0.124 S 
ATOM     82  O   UNL A   1      40.662  27.019  37.368  1.00  0.00    -0.237 OA
ATOM     83  O   UNL A   1      41.269  24.632  37.156  1.00  0.00    -0.237 OA
ATOM     84  O   UNL A   1      42.781  26.194  38.316  1.00  0.00    -0.744 OA
ENDBRANCH  80  81
ENDBRANCH  61  75
BRANCH  62  85
ATOM     85  C   UNL A   1      50.373  26.234  26.069  1.00  0.00    -0.014 A 
ATOM     86  C   UNL A   1      49.336  25.351  25.709  1.00  0.00     0.010 A 
ATOM     87  C   UNL A   1      50.830  27.017  25.017  1.00  0.00     0.010 A 
ATOM     88  C   UNL A   1      48.334  25.828  24.851  1.00  0.00     0.020 A 
ATOM     89  C   UNL A   1      49.890  27.348  24.023  1.00  0.00     0.020 A 
ATOM     90  C   UNL A   1      48.553  27.009  24.155  1.00  0.00     0.054 A 
BRANCH  90  91
ATOM     91  S   UNL A   1      46.945  28.150  23.787  1.00  0.00     0.124 S 
ATOM     92  O   UNL A   1      45.923  27.196  24.162  1.00  0.00    -0.237 OA
ATOM     93  O   UNL A   1      46.892  29.244  24.742  1.00  0.00    -0.237 OA
ATOM     94  O   UNL A   1      46.935  28.536  22.406  1.00  0.00    -0.744 OA
ENDBRANCH  90  91
ENDBRANCH  62  85
BRANCH  74  95
ATOM     95  C   UNL A   1      46.707  31.669  29.312  1.00  0.00    -0.014 A 
ATOM     96  C   UNL A   1      47.058  32.714  30.178  1.00  0.00     0.010 A 
ATOM     97  C   UNL A   1      45.818  31.961  28.254  1.00  0.00     0.010 A 
ATOM     98  C   UNL A   1      46.466  33.972  30.056  1.00  0.00     0.020 A 
ATOM     99  C   UNL A   1      45.268  33.227  28.088  1.00  0.00     0.020 A 
ATOM    100  C   UNL A   1      45.566  34.215  29.019  1.00  0.00     0.054 A 
BRANCH 100 101
ATOM    101  S   UNL A   1      44.809  35.847  28.876  1.00  0.00     0.124 S 
ATOM    102  O   UNL A   1      45.952  36.672  28.490  1.00  0.00    -0.237 OA
ATOM    103  O   UNL A   1      43.802  35.648  27.837  1.00  0.00    -0.237 OA
ATOM    104  O   UNL A   1      44.276  36.100  30.212  1.00  0.00    -0.744 OA
ENDBRANCH 100 101
ENDBRANCH  74  95
ENDBRANCH  48  49
ENDBRANCH  40  43
ENDBRANCH  38  39
ENDBRANCH   1  38
TORSDOF 19
ENDMDL
