MODEL 1
REMARK VINA RESULT:     -12.7      0.000      0.000
REMARK SMILES O=C(NCCCNC(=O)[C@@H]1CN(C(=O)C2CCCC2)C[C@H]1c1ccccc1)c1ccc(-c2c3nc(c(-c4ccc(S(=O)(=O)[O-])cc4)c4ccc([nH]4)c(-c4ccc(S(=O)(=O)[O-])cc4)c4nc(c(-c5ccc(S(=O)(=O)[O-])cc5)c5ccc2[nH]5)C=C4)C=C3)cc1
REMARK SMILES IDX 4 1 3 2 1 3 2 4 28 6 29 7 87 8 30 9 86 10 31 11 32 12 33 13
REMARK SMILES IDX 80 14 34 15 85 16 79 17 81 18 35 19 84 20 78 21 77 22 36 24
REMARK SMILES IDX 66 25 47 26 65 27 48 28 51 29 64 30 82 31 49 32 50 33 63 35
REMARK SMILES IDX 83 36 52 37 37 38 38 39 46 40 39 41 45 42 40 43 41 44 42 45
REMARK SMILES IDX 43 46 44 47 67 48 68 49 76 50 69 51 75 52 70 53 71 54 72 55
REMARK SMILES IDX 73 56 74 57 53 58 54 59 62 60 55 61 61 62 56 63 57 64 58 65
REMARK SMILES IDX 59 66 60 67 5 68 6 69 7 70 8 71 9 73 10 74 11 75 21 76 12 77
REMARK SMILES IDX 20 78 22 79 23 80 27 81 24 82 26 83 25 84 13 85 14 86 15 87
REMARK SMILES IDX 16 88 19 89 17 90 18 91
REMARK H PARENT 3 5 81 23 51 34 7 72
REMARK Flexibility Score: inf
ROOT
ATOM      1  C   UNL A   1      39.298  23.764  26.810  1.00  0.00     0.118 C 
ENDROOT
BRANCH   1   2
ATOM      2  N   UNL A   1      40.244  24.469  25.962  1.00  0.00    -0.352 N 
ATOM      3  O   UNL A   1      41.372  26.217  25.140  1.00  0.00    -0.269 OA
ATOM      4  C   UNL A   1      40.842  25.696  26.119  1.00  0.00     0.251 C 
ATOM      5  H   UNL A   1      40.497  23.989  25.141  1.00  0.00     0.163 HD
BRANCH   4   6
ATOM      6  C   UNL A   1      40.863  26.396  27.428  1.00  0.00     0.039 A 
ATOM      7  C   UNL A   1      41.716  27.473  27.670  1.00  0.00     0.014 A 
ATOM      8  C   UNL A   1      39.907  26.053  28.393  1.00  0.00     0.014 A 
ATOM      9  C   UNL A   1      41.690  28.137  28.894  1.00  0.00     0.010 A 
ATOM     10  C   UNL A   1      39.805  26.789  29.580  1.00  0.00     0.010 A 
ATOM     11  C   UNL A   1      40.691  27.845  29.835  1.00  0.00    -0.014 A 
BRANCH  11  12
ATOM     12  C   UNL A   1      40.480  28.778  30.974  1.00  0.00     0.031 A 
ATOM     13  C   UNL A   1      39.401  29.820  30.953  1.00  0.00     0.074 A 
ATOM     14  C   UNL A   1      41.308  28.675  32.035  1.00  0.00     0.049 A 
ATOM     15  N   UNL A   1      39.112  30.712  31.865  1.00  0.00    -0.248 NA
ATOM     16  C   UNL A   1      38.539  29.880  29.761  1.00  0.00     0.031 C 
ATOM     17  C   UNL A   1      42.418  27.719  32.150  1.00  0.00     0.029 A 
ATOM     18  N   UNL A   1      41.352  29.366  33.218  1.00  0.00    -0.354 N 
ATOM     19  C   UNL A   1      38.059  31.459  31.353  1.00  0.00     0.074 A 
ATOM     20  C   UNL A   1      37.759  30.918  30.044  1.00  0.00     0.031 C 
ATOM     21  C   UNL A   1      43.003  27.860  33.348  1.00  0.00     0.029 A 
ATOM     22  C   UNL A   1      42.366  28.961  34.055  1.00  0.00     0.049 A 
ATOM     23  H   UNL A   1      40.718  30.084  33.447  1.00  0.00     0.167 HD
ATOM     24  C   UNL A   1      37.409  32.502  31.924  1.00  0.00     0.031 A 
ATOM     25  C   UNL A   1      42.771  29.441  35.246  1.00  0.00     0.031 A 
ATOM     26  C   UNL A   1      37.709  33.022  33.234  1.00  0.00     0.049 A 
ATOM     27  C   UNL A   1      42.046  30.613  35.837  1.00  0.00     0.074 A 
ATOM     28  C   UNL A   1      37.052  34.023  33.929  1.00  0.00     0.029 A 
ATOM     29  N   UNL A   1      38.757  32.601  34.036  1.00  0.00    -0.354 N 
ATOM     30  N   UNL A   1      41.000  31.250  35.369  1.00  0.00    -0.248 NA
ATOM     31  C   UNL A   1      42.561  31.141  37.107  1.00  0.00     0.031 C 
ATOM     32  C   UNL A   1      37.739  34.248  35.126  1.00  0.00     0.029 A 
ATOM     33  C   UNL A   1      38.795  33.354  35.197  1.00  0.00     0.049 A 
ATOM     34  H   UNL A   1      39.384  31.875  33.813  1.00  0.00     0.167 HD
ATOM     35  C   UNL A   1      40.734  32.258  36.285  1.00  0.00     0.074 A 
ATOM     36  C   UNL A   1      41.706  32.124  37.352  1.00  0.00     0.031 C 
ATOM     37  C   UNL A   1      39.778  33.215  36.242  1.00  0.00     0.031 A 
BRANCH  24  38
ATOM     38  C   UNL A   1      36.320  33.181  31.139  1.00  0.00    -0.014 A 
ATOM     39  C   UNL A   1      34.996  33.218  31.609  1.00  0.00     0.010 A 
ATOM     40  C   UNL A   1      36.653  33.888  29.967  1.00  0.00     0.010 A 
ATOM     41  C   UNL A   1      34.021  33.942  30.914  1.00  0.00     0.020 A 
ATOM     42  C   UNL A   1      35.684  34.626  29.280  1.00  0.00     0.020 A 
ATOM     43  C   UNL A   1      34.371  34.643  29.756  1.00  0.00     0.054 A 
BRANCH  43  44
ATOM     44  S   UNL A   1      33.099  35.623  28.912  1.00  0.00     0.124 S 
ATOM     45  O   UNL A   1      32.410  34.605  28.123  1.00  0.00    -0.237 OA
ATOM     46  O   UNL A   1      32.334  36.181  30.024  1.00  0.00    -0.237 OA
ATOM     47  O   UNL A   1      33.866  36.596  28.138  1.00  0.00    -0.744 OA
ENDBRANCH  43  44
ENDBRANCH  24  38
BRANCH  25  48
ATOM     48  C   UNL A   1      43.964  28.857  35.916  1.00  0.00    -0.014 A 
ATOM     49  C   UNL A   1      45.252  29.356  35.663  1.00  0.00     0.010 A 
ATOM     50  C   UNL A   1      43.808  27.791  36.823  1.00  0.00     0.010 A 
ATOM     51  C   UNL A   1      46.366  28.786  36.289  1.00  0.00     0.020 A 
ATOM     52  C   UNL A   1      44.914  27.240  37.473  1.00  0.00     0.020 A 
ATOM     53  C   UNL A   1      46.189  27.730  37.187  1.00  0.00     0.054 A 
BRANCH  53  54
ATOM     54  S   UNL A   1      47.640  27.024  38.016  1.00  0.00     0.124 S 
ATOM     55  O   UNL A   1      47.068  25.861  38.685  1.00  0.00    -0.237 OA
ATOM     56  O   UNL A   1      48.537  26.737  36.900  1.00  0.00    -0.237 OA
ATOM     57  O   UNL A   1      48.084  28.101  38.899  1.00  0.00    -0.744 OA
ENDBRANCH  53  54
ENDBRANCH  25  48
BRANCH  37  58
ATOM     58  C   UNL A   1      39.740  34.197  37.378  1.00  0.00    -0.014 A 
ATOM     59  C   UNL A   1      40.391  35.439  37.272  1.00  0.00     0.010 A 
ATOM     60  C   UNL A   1      39.006  33.899  38.539  1.00  0.00     0.010 A 
ATOM     61  C   UNL A   1      40.323  36.361  38.319  1.00  0.00     0.020 A 
ATOM     62  C   UNL A   1      38.915  34.829  39.578  1.00  0.00     0.020 A 
ATOM     63  C   UNL A   1      39.584  36.050  39.465  1.00  0.00     0.054 A 
BRANCH  63  64
ATOM     64  S   UNL A   1      39.463  37.286  40.786  1.00  0.00     0.124 S 
ATOM     65  O   UNL A   1      40.826  37.805  40.842  1.00  0.00    -0.237 OA
ATOM     66  O   UNL A   1      38.457  38.211  40.269  1.00  0.00    -0.237 OA
ATOM     67  O   UNL A   1      39.043  36.508  41.950  1.00  0.00    -0.744 OA
ENDBRANCH  63  64
ENDBRANCH  37  58
ENDBRANCH  11  12
ENDBRANCH   4   6
ENDBRANCH   1   2
BRANCH   1  68
ATOM     68  C   UNL A   1      39.024  22.356  26.302  1.00  0.00     0.042 C 
BRANCH  68  69
ATOM     69  C   UNL A   1      37.743  22.263  25.484  1.00  0.00     0.117 C 
BRANCH  69  70
ATOM     70  N   UNL A   1      36.581  22.060  26.334  1.00  0.00    -0.356 N 
ATOM     71  C   UNL A   1      35.255  21.918  26.131  1.00  0.00     0.225 C 
ATOM     72  H   UNL A   1      36.818  22.013  27.288  1.00  0.00     0.163 HD
ATOM     73  O   UNL A   1      34.581  21.848  27.170  1.00  0.00    -0.275 OA
BRANCH  71  74
ATOM     74  C   UNL A   1      34.528  21.861  24.794  1.00  0.00     0.107 C 
ATOM     75  C   UNL A   1      34.092  23.304  24.512  1.00  0.00     0.133 C 
ATOM     76  C   UNL A   1      33.234  21.060  24.568  1.00  0.00     0.053 C 
ATOM     77  N   UNL A   1      33.059  23.210  23.507  1.00  0.00    -0.341 N 
ATOM     78  C   UNL A   1      32.451  21.897  23.533  1.00  0.00     0.128 C 
BRANCH  76  79
ATOM     79  C   UNL A   1      33.387  19.617  24.095  1.00  0.00    -0.042 A 
ATOM     80  C   UNL A   1      32.477  19.097  23.157  1.00  0.00     0.004 A 
ATOM     81  C   UNL A   1      34.388  18.758  24.572  1.00  0.00     0.004 A 
ATOM     82  C   UNL A   1      32.569  17.772  22.718  1.00  0.00     0.000 A 
ATOM     83  C   UNL A   1      34.464  17.427  24.154  1.00  0.00     0.000 A 
ATOM     84  C   UNL A   1      33.556  16.934  23.225  1.00  0.00     0.000 A 
ENDBRANCH  76  79
BRANCH  77  85
ATOM     85  C   UNL A   1      32.598  24.157  22.627  1.00  0.00     0.225 C 
ATOM     86  O   UNL A   1      33.260  24.458  21.628  1.00  0.00    -0.275 OA
BRANCH  85  87
ATOM     87  C   UNL A   1      31.298  24.908  22.890  1.00  0.00     0.078 C 
ATOM     88  C   UNL A   1      30.793  24.944  24.326  1.00  0.00     0.013 C 
ATOM     89  C   UNL A   1      31.312  26.362  22.411  1.00  0.00     0.013 C 
ATOM     90  C   UNL A   1      29.803  26.100  24.311  1.00  0.00     0.001 C 
ATOM     91  C   UNL A   1      30.436  27.138  23.394  1.00  0.00     0.001 C 
ENDBRANCH  85  87
ENDBRANCH  77  85
ENDBRANCH  71  74
ENDBRANCH  69  70
ENDBRANCH  68  69
ENDBRANCH   1  68
TORSDOF 16
ENDMDL
MODEL 2
REMARK VINA RESULT:     -12.5      1.616      2.291
REMARK SMILES O=C(NCCCNC(=O)[C@@H]1CN(C(=O)C2CCCC2)C[C@H]1c1ccccc1)c1ccc(-c2c3nc(c(-c4ccc(S(=O)(=O)[O-])cc4)c4ccc([nH]4)c(-c4ccc(S(=O)(=O)[O-])cc4)c4nc(c(-c5ccc(S(=O)(=O)[O-])cc5)c5ccc2[nH]5)C=C4)C=C3)cc1
REMARK SMILES IDX 4 1 3 2 1 3 2 4 28 6 29 7 87 8 30 9 86 10 31 11 32 12 33 13
REMARK SMILES IDX 80 14 34 15 85 16 79 17 81 18 35 19 84 20 78 21 77 22 36 24
REMARK SMILES IDX 66 25 47 26 65 27 48 28 51 29 64 30 82 31 49 32 50 33 63 35
REMARK SMILES IDX 83 36 52 37 37 38 38 39 46 40 39 41 45 42 40 43 41 44 42 45
REMARK SMILES IDX 43 46 44 47 67 48 68 49 76 50 69 51 75 52 70 53 71 54 72 55
REMARK SMILES IDX 73 56 74 57 53 58 54 59 62 60 55 61 61 62 56 63 57 64 58 65
REMARK SMILES IDX 59 66 60 67 5 68 6 69 7 70 8 71 9 73 10 74 11 75 21 76 12 77
REMARK SMILES IDX 20 78 22 79 23 80 27 81 24 82 26 83 25 84 13 85 14 86 15 87
REMARK SMILES IDX 16 88 19 89 17 90 18 91
REMARK H PARENT 3 5 81 23 51 34 7 72
REMARK Flexibility Score: inf
ROOT
ATOM      1  C   UNL A   1      38.798  24.272  26.824  1.00  0.00     0.118 C 
ENDROOT
BRANCH   1   2
ATOM      2  N   UNL A   1      39.930  24.882  26.148  1.00  0.00    -0.352 N 
ATOM      3  O   UNL A   1      41.257  26.532  25.426  1.00  0.00    -0.269 OA
ATOM      4  C   UNL A   1      40.503  26.121  26.305  1.00  0.00     0.251 C 
ATOM      5  H   UNL A   1      40.355  24.314  25.466  1.00  0.00     0.163 HD
BRANCH   4   6
ATOM      6  C   UNL A   1      40.236  26.961  27.499  1.00  0.00     0.039 A 
ATOM      7  C   UNL A   1      39.677  26.429  28.662  1.00  0.00     0.014 A 
ATOM      8  C   UNL A   1      40.685  28.289  27.505  1.00  0.00     0.014 A 
ATOM      9  C   UNL A   1      39.472  27.231  29.781  1.00  0.00     0.010 A 
ATOM     10  C   UNL A   1      40.581  29.066  28.666  1.00  0.00     0.010 A 
ATOM     11  C   UNL A   1      39.981  28.538  29.818  1.00  0.00    -0.014 A 
BRANCH  11  12
ATOM     12  C   UNL A   1      40.044  29.249  31.122  1.00  0.00     0.031 A 
ATOM     13  C   UNL A   1      39.005  30.254  31.526  1.00  0.00     0.074 A 
ATOM     14  C   UNL A   1      41.085  28.979  31.938  1.00  0.00     0.049 A 
ATOM     15  N   UNL A   1      38.942  30.964  32.623  1.00  0.00    -0.248 NA
ATOM     16  C   UNL A   1      37.902  30.505  30.585  1.00  0.00     0.031 C 
ATOM     17  C   UNL A   1      42.175  28.043  31.633  1.00  0.00     0.029 A 
ATOM     18  N   UNL A   1      41.402  29.451  33.185  1.00  0.00    -0.354 N 
ATOM     19  C   UNL A   1      37.814  31.766  32.497  1.00  0.00     0.074 A 
ATOM     20  C   UNL A   1      37.222  31.458  31.213  1.00  0.00     0.031 C 
ATOM     21  C   UNL A   1      43.014  27.983  32.676  1.00  0.00     0.029 A 
ATOM     22  C   UNL A   1      42.569  28.927  33.692  1.00  0.00     0.049 A 
ATOM     23  H   UNL A   1      40.848  30.103  33.672  1.00  0.00     0.167 HD
ATOM     24  C   UNL A   1      37.327  32.676  33.374  1.00  0.00     0.031 A 
ATOM     25  C   UNL A   1      43.237  29.198  34.828  1.00  0.00     0.031 A 
ATOM     26  C   UNL A   1      37.919  32.963  34.656  1.00  0.00     0.049 A 
ATOM     27  C   UNL A   1      42.682  30.230  35.764  1.00  0.00     0.074 A 
ATOM     28  C   UNL A   1      37.450  33.810  35.646  1.00  0.00     0.029 A 
ATOM     29  N   UNL A   1      39.111  32.431  35.119  1.00  0.00    -0.354 N 
ATOM     30  N   UNL A   1      41.569  30.916  35.660  1.00  0.00    -0.248 NA
ATOM     31  C   UNL A   1      43.475  30.536  36.962  1.00  0.00     0.031 C 
ATOM     32  C   UNL A   1      38.389  33.836  36.681  1.00  0.00     0.029 A 
ATOM     33  C   UNL A   1      39.419  32.967  36.358  1.00  0.00     0.049 A 
ATOM     34  H   UNL A   1      39.660  31.770  34.637  1.00  0.00     0.167 HD
ATOM     35  C   UNL A   1      41.531  31.739  36.777  1.00  0.00     0.074 A 
ATOM     36  C   UNL A   1      42.713  31.441  37.561  1.00  0.00     0.031 C 
ATOM     37  C   UNL A   1      40.606  32.668  37.116  1.00  0.00     0.031 A 
BRANCH  24  38
ATOM     38  C   UNL A   1      36.102  33.459  32.983  1.00  0.00    -0.014 A 
ATOM     39  C   UNL A   1      34.811  32.932  33.161  1.00  0.00     0.010 A 
ATOM     40  C   UNL A   1      36.246  34.786  32.535  1.00  0.00     0.010 A 
ATOM     41  C   UNL A   1      33.686  33.716  32.886  1.00  0.00     0.020 A 
ATOM     42  C   UNL A   1      35.123  35.577  32.276  1.00  0.00     0.020 A 
ATOM     43  C   UNL A   1      33.849  35.033  32.448  1.00  0.00     0.054 A 
BRANCH  43  44
ATOM     44  S   UNL A   1      32.370  36.046  32.159  1.00  0.00     0.124 S 
ATOM     45  O   UNL A   1      32.644  37.218  32.987  1.00  0.00    -0.237 OA
ATOM     46  O   UNL A   1      32.413  36.271  30.717  1.00  0.00    -0.237 OA
ATOM     47  O   UNL A   1      31.273  35.199  32.622  1.00  0.00    -0.744 OA
ENDBRANCH  43  44
ENDBRANCH  24  38
BRANCH  25  48
ATOM     48  C   UNL A   1      44.538  28.531  35.103  1.00  0.00    -0.014 A 
ATOM     49  C   UNL A   1      44.595  27.328  35.827  1.00  0.00     0.010 A 
ATOM     50  C   UNL A   1      45.735  29.104  34.631  1.00  0.00     0.010 A 
ATOM     51  C   UNL A   1      45.828  26.721  36.090  1.00  0.00     0.020 A 
ATOM     52  C   UNL A   1      46.964  28.485  34.867  1.00  0.00     0.020 A 
ATOM     53  C   UNL A   1      47.003  27.305  35.611  1.00  0.00     0.054 A 
BRANCH  53  54
ATOM     54  S   UNL A   1      48.590  26.487  35.933  1.00  0.00     0.124 S 
ATOM     55  O   UNL A   1      49.223  27.415  36.865  1.00  0.00    -0.237 OA
ATOM     56  O   UNL A   1      48.179  25.204  36.497  1.00  0.00    -0.237 OA
ATOM     57  O   UNL A   1      49.206  26.408  34.610  1.00  0.00    -0.744 OA
ENDBRANCH  53  54
ENDBRANCH  25  48
BRANCH  37  58
ATOM     58  C   UNL A   1      40.840  33.432  38.389  1.00  0.00    -0.014 A 
ATOM     59  C   UNL A   1      41.549  34.646  38.374  1.00  0.00     0.010 A 
ATOM     60  C   UNL A   1      40.301  32.961  39.599  1.00  0.00     0.010 A 
ATOM     61  C   UNL A   1      41.731  35.368  39.555  1.00  0.00     0.020 A 
ATOM     62  C   UNL A   1      40.461  33.693  40.778  1.00  0.00     0.020 A 
ATOM     63  C   UNL A   1      41.185  34.887  40.750  1.00  0.00     0.054 A 
BRANCH  63  64
ATOM     64  S   UNL A   1      41.386  35.872  42.259  1.00  0.00     0.124 S 
ATOM     65  O   UNL A   1      41.584  37.214  41.721  1.00  0.00    -0.237 OA
ATOM     66  O   UNL A   1      40.122  35.653  42.956  1.00  0.00    -0.237 OA
ATOM     67  O   UNL A   1      42.556  35.279  42.904  1.00  0.00    -0.744 OA
ENDBRANCH  63  64
ENDBRANCH  37  58
ENDBRANCH  11  12
ENDBRANCH   4   6
ENDBRANCH   1   2
BRANCH   1  68
ATOM     68  C   UNL A   1      38.390  22.959  26.172  1.00  0.00     0.042 C 
BRANCH  68  69
ATOM     69  C   UNL A   1      36.893  22.873  25.906  1.00  0.00     0.117 C 
BRANCH  69  70
ATOM     70  N   UNL A   1      36.589  23.068  24.497  1.00  0.00    -0.356 N 
ATOM     71  C   UNL A   1      35.501  22.904  23.717  1.00  0.00     0.225 C 
ATOM     72  H   UNL A   1      37.364  23.400  23.989  1.00  0.00     0.163 HD
ATOM     73  O   UNL A   1      35.698  23.112  22.510  1.00  0.00    -0.275 OA
BRANCH  71  74
ATOM     74  C   UNL A   1      34.106  22.481  24.158  1.00  0.00     0.107 C 
ATOM     75  C   UNL A   1      33.553  23.678  24.943  1.00  0.00     0.133 C 
ATOM     76  C   UNL A   1      33.839  21.297  25.105  1.00  0.00     0.053 C 
ATOM     77  N   UNL A   1      32.449  23.160  25.717  1.00  0.00    -0.341 N 
ATOM     78  C   UNL A   1      32.596  21.733  25.910  1.00  0.00     0.128 C 
BRANCH  76  79
ATOM     79  C   UNL A   1      33.617  19.932  24.460  1.00  0.00    -0.042 A 
ATOM     80  C   UNL A   1      34.542  18.899  24.692  1.00  0.00     0.004 A 
ATOM     81  C   UNL A   1      32.533  19.654  23.613  1.00  0.00     0.004 A 
ATOM     82  C   UNL A   1      34.385  17.641  24.100  1.00  0.00     0.000 A 
ATOM     83  C   UNL A   1      32.391  18.406  23.000  1.00  0.00     0.000 A 
ATOM     84  C   UNL A   1      33.316  17.399  23.245  1.00  0.00     0.000 A 
ENDBRANCH  76  79
BRANCH  77  85
ATOM     85  C   UNL A   1      31.383  23.818  26.278  1.00  0.00     0.225 C 
ATOM     86  O   UNL A   1      31.018  23.551  27.429  1.00  0.00    -0.275 OA
BRANCH  85  87
ATOM     87  C   UNL A   1      30.582  24.840  25.481  1.00  0.00     0.078 C 
ATOM     88  C   UNL A   1      30.963  26.305  25.644  1.00  0.00     0.013 C 
ATOM     89  C   UNL A   1      30.564  24.575  23.972  1.00  0.00     0.013 C 
ATOM     90  C   UNL A   1      30.329  26.961  24.427  1.00  0.00     0.001 C 
ATOM     91  C   UNL A   1      30.510  25.948  23.304  1.00  0.00     0.001 C 
ENDBRANCH  85  87
ENDBRANCH  77  85
ENDBRANCH  71  74
ENDBRANCH  69  70
ENDBRANCH  68  69
ENDBRANCH   1  68
TORSDOF 16
ENDMDL
MODEL 3
REMARK VINA RESULT:     -12.5      4.590     10.510
REMARK SMILES O=C(NCCCNC(=O)[C@@H]1CN(C(=O)C2CCCC2)C[C@H]1c1ccccc1)c1ccc(-c2c3nc(c(-c4ccc(S(=O)(=O)[O-])cc4)c4ccc([nH]4)c(-c4ccc(S(=O)(=O)[O-])cc4)c4nc(c(-c5ccc(S(=O)(=O)[O-])cc5)c5ccc2[nH]5)C=C4)C=C3)cc1
REMARK SMILES IDX 4 1 3 2 1 3 2 4 28 6 29 7 87 8 30 9 86 10 31 11 32 12 33 13
REMARK SMILES IDX 80 14 34 15 85 16 79 17 81 18 35 19 84 20 78 21 77 22 36 24
REMARK SMILES IDX 66 25 47 26 65 27 48 28 51 29 64 30 82 31 49 32 50 33 63 35
REMARK SMILES IDX 83 36 52 37 37 38 38 39 46 40 39 41 45 42 40 43 41 44 42 45
REMARK SMILES IDX 43 46 44 47 67 48 68 49 76 50 69 51 75 52 70 53 71 54 72 55
REMARK SMILES IDX 73 56 74 57 53 58 54 59 62 60 55 61 61 62 56 63 57 64 58 65
REMARK SMILES IDX 59 66 60 67 5 68 6 69 7 70 8 71 9 73 10 74 11 75 21 76 12 77
REMARK SMILES IDX 20 78 22 79 23 80 27 81 24 82 26 83 25 84 13 85 14 86 15 87
REMARK SMILES IDX 16 88 19 89 17 90 18 91
REMARK H PARENT 3 5 81 23 51 34 7 72
REMARK Flexibility Score: inf
ROOT
ATOM      1  C   UNL A   1      33.696  29.518  26.176  1.00  0.00     0.118 C 
ENDROOT
BRANCH   1   2
ATOM      2  N   UNL A   1      33.715  30.638  27.102  1.00  0.00    -0.352 N 
ATOM      3  O   UNL A   1      34.220  31.763  28.968  1.00  0.00    -0.269 OA
ATOM      4  C   UNL A   1      34.569  30.926  28.139  1.00  0.00     0.251 C 
ATOM      5  H   UNL A   1      32.997  31.298  26.963  1.00  0.00     0.163 HD
BRANCH   4   6
ATOM      6  C   UNL A   1      35.887  30.258  28.276  1.00  0.00     0.039 A 
ATOM      7  C   UNL A   1      36.871  30.367  27.291  1.00  0.00     0.014 A 
ATOM      8  C   UNL A   1      36.199  29.618  29.483  1.00  0.00     0.014 A 
ATOM      9  C   UNL A   1      38.113  29.761  27.461  1.00  0.00     0.010 A 
ATOM     10  C   UNL A   1      37.484  29.105  29.700  1.00  0.00     0.010 A 
ATOM     11  C   UNL A   1      38.455  29.181  28.692  1.00  0.00    -0.014 A 
BRANCH  11  12
ATOM     12  C   UNL A   1      39.879  28.845  28.959  1.00  0.00     0.031 A 
ATOM     13  C   UNL A   1      40.470  27.527  28.548  1.00  0.00     0.074 A 
ATOM     14  C   UNL A   1      40.632  29.759  29.605  1.00  0.00     0.049 A 
ATOM     15  N   UNL A   1      41.689  27.090  28.732  1.00  0.00    -0.248 NA
ATOM     16  C   UNL A   1      39.589  26.576  27.853  1.00  0.00     0.031 C 
ATOM     17  C   UNL A   1      40.153  31.062  30.083  1.00  0.00     0.029 A 
ATOM     18  N   UNL A   1      41.954  29.746  29.971  1.00  0.00    -0.354 N 
ATOM     19  C   UNL A   1      41.720  25.805  28.203  1.00  0.00     0.074 A 
ATOM     20  C   UNL A   1      40.393  25.529  27.694  1.00  0.00     0.031 C 
ATOM     21  C   UNL A   1      41.171  31.734  30.640  1.00  0.00     0.029 A 
ATOM     22  C   UNL A   1      42.354  30.885  30.630  1.00  0.00     0.049 A 
ATOM     23  H   UNL A   1      42.559  28.993  29.779  1.00  0.00     0.167 HD
ATOM     24  C   UNL A   1      42.761  24.939  28.156  1.00  0.00     0.031 A 
ATOM     25  C   UNL A   1      43.530  31.206  31.201  1.00  0.00     0.031 A 
ATOM     26  C   UNL A   1      44.080  25.231  28.654  1.00  0.00     0.049 A 
ATOM     27  C   UNL A   1      44.652  30.213  31.152  1.00  0.00     0.074 A 
ATOM     28  C   UNL A   1      45.218  24.447  28.576  1.00  0.00     0.029 A 
ATOM     29  N   UNL A   1      44.436  26.384  29.336  1.00  0.00    -0.354 N 
ATOM     30  N   UNL A   1      44.679  29.036  30.575  1.00  0.00    -0.248 NA
ATOM     31  C   UNL A   1      45.896  30.582  31.841  1.00  0.00     0.031 C 
ATOM     32  C   UNL A   1      46.247  25.099  29.264  1.00  0.00     0.029 A 
ATOM     33  C   UNL A   1      45.762  26.311  29.727  1.00  0.00     0.049 A 
ATOM     34  H   UNL A   1      43.834  27.142  29.517  1.00  0.00     0.167 HD
ATOM     35  C   UNL A   1      45.942  28.521  30.835  1.00  0.00     0.074 A 
ATOM     36  C   UNL A   1      46.660  29.528  31.591  1.00  0.00     0.031 C 
ATOM     37  C   UNL A   1      46.456  27.317  30.490  1.00  0.00     0.031 A 
BRANCH  24  38
ATOM     38  C   UNL A   1      42.526  23.574  27.568  1.00  0.00    -0.014 A 
ATOM     39  C   UNL A   1      42.809  23.302  26.218  1.00  0.00     0.010 A 
ATOM     40  C   UNL A   1      42.122  22.521  28.410  1.00  0.00     0.010 A 
ATOM     41  C   UNL A   1      42.680  22.002  25.719  1.00  0.00     0.020 A 
ATOM     42  C   UNL A   1      42.009  21.216  27.918  1.00  0.00     0.020 A 
ATOM     43  C   UNL A   1      42.284  20.967  26.571  1.00  0.00     0.054 A 
BRANCH  43  44
ATOM     44  S   UNL A   1      42.186  19.280  25.909  1.00  0.00     0.124 S 
ATOM     45  O   UNL A   1      42.999  19.386  24.700  1.00  0.00    -0.237 OA
ATOM     46  O   UNL A   1      42.764  18.480  26.986  1.00  0.00    -0.237 OA
ATOM     47  O   UNL A   1      40.758  19.077  25.683  1.00  0.00    -0.744 OA
ENDBRANCH  43  44
ENDBRANCH  24  38
BRANCH  25  48
ATOM     48  C   UNL A   1      43.675  32.496  31.928  1.00  0.00    -0.014 A 
ATOM     49  C   UNL A   1      44.131  33.650  31.269  1.00  0.00     0.010 A 
ATOM     50  C   UNL A   1      43.349  32.573  33.296  1.00  0.00     0.010 A 
ATOM     51  C   UNL A   1      44.277  34.852  31.970  1.00  0.00     0.020 A 
ATOM     52  C   UNL A   1      43.464  33.778  33.991  1.00  0.00     0.020 A 
ATOM     53  C   UNL A   1      43.946  34.907  33.326  1.00  0.00     0.054 A 
BRANCH  53  54
ATOM     54  S   UNL A   1      44.110  36.481  34.212  1.00  0.00     0.124 S 
ATOM     55  O   UNL A   1      44.535  36.038  35.536  1.00  0.00    -0.237 OA
ATOM     56  O   UNL A   1      45.118  37.187  33.425  1.00  0.00    -0.237 OA
ATOM     57  O   UNL A   1      42.766  37.051  34.142  1.00  0.00    -0.744 OA
ENDBRANCH  53  54
ENDBRANCH  25  48
BRANCH  37  58
ATOM     58  C   UNL A   1      47.861  27.021  30.931  1.00  0.00    -0.014 A 
ATOM     59  C   UNL A   1      48.104  26.346  32.140  1.00  0.00     0.010 A 
ATOM     60  C   UNL A   1      48.944  27.373  30.107  1.00  0.00     0.010 A 
ATOM     61  C   UNL A   1      49.411  26.043  32.527  1.00  0.00     0.020 A 
ATOM     62  C   UNL A   1      50.251  27.050  30.479  1.00  0.00     0.020 A 
ATOM     63  C   UNL A   1      50.477  26.396  31.693  1.00  0.00     0.054 A 
BRANCH  63  64
ATOM     64  S   UNL A   1      52.160  25.942  32.190  1.00  0.00     0.124 S 
ATOM     65  O   UNL A   1      52.023  24.513  32.454  1.00  0.00    -0.237 OA
ATOM     66  O   UNL A   1      52.948  26.291  31.010  1.00  0.00    -0.237 OA
ATOM     67  O   UNL A   1      52.410  26.773  33.365  1.00  0.00    -0.744 OA
ENDBRANCH  63  64
ENDBRANCH  37  58
ENDBRANCH  11  12
ENDBRANCH   4   6
ENDBRANCH   1   2
BRANCH   1  68
ATOM     68  C   UNL A   1      32.387  28.745  26.252  1.00  0.00     0.042 C 
BRANCH  68  69
ATOM     69  C   UNL A   1      32.551  27.368  26.880  1.00  0.00     0.117 C 
BRANCH  69  70
ATOM     70  N   UNL A   1      31.292  26.641  26.909  1.00  0.00    -0.356 N 
ATOM     71  C   UNL A   1      30.458  26.127  25.983  1.00  0.00     0.225 C 
ATOM     72  H   UNL A   1      30.971  26.485  27.826  1.00  0.00     0.163 HD
ATOM     73  O   UNL A   1      29.414  25.641  26.444  1.00  0.00    -0.275 OA
BRANCH  71  74
ATOM     74  C   UNL A   1      30.657  26.107  24.473  1.00  0.00     0.107 C 
ATOM     75  C   UNL A   1      31.818  25.132  24.235  1.00  0.00     0.133 C 
ATOM     76  C   UNL A   1      31.074  27.343  23.657  1.00  0.00     0.053 C 
ATOM     77  N   UNL A   1      32.300  25.417  22.903  1.00  0.00    -0.341 N 
ATOM     78  C   UNL A   1      31.942  26.766  22.517  1.00  0.00     0.128 C 
BRANCH  76  79
ATOM     79  C   UNL A   1      29.952  28.212  23.096  1.00  0.00    -0.042 A 
ATOM     80  C   UNL A   1      30.272  29.327  22.301  1.00  0.00     0.004 A 
ATOM     81  C   UNL A   1      28.594  27.970  23.356  1.00  0.00     0.004 A 
ATOM     82  C   UNL A   1      29.274  30.162  21.790  1.00  0.00     0.000 A 
ATOM     83  C   UNL A   1      27.598  28.820  22.868  1.00  0.00     0.000 A 
ATOM     84  C   UNL A   1      27.937  29.915  22.083  1.00  0.00     0.000 A 
ENDBRANCH  76  79
BRANCH  77  85
ATOM     85  C   UNL A   1      33.032  24.635  22.046  1.00  0.00     0.225 C 
ATOM     86  O   UNL A   1      33.251  25.010  20.889  1.00  0.00    -0.275 OA
BRANCH  85  87
ATOM     87  C   UNL A   1      33.535  23.261  22.471  1.00  0.00     0.078 C 
ATOM     88  C   UNL A   1      34.514  23.207  23.636  1.00  0.00     0.013 C 
ATOM     89  C   UNL A   1      32.419  22.269  22.812  1.00  0.00     0.013 C 
ATOM     90  C   UNL A   1      34.441  21.752  24.077  1.00  0.00     0.001 C 
ATOM     91  C   UNL A   1      32.974  21.374  23.920  1.00  0.00     0.001 C 
ENDBRANCH  85  87
ENDBRANCH  77  85
ENDBRANCH  71  74
ENDBRANCH  69  70
ENDBRANCH  68  69
ENDBRANCH   1  68
TORSDOF 16
ENDMDL
