MODEL 1
REMARK VINA RESULT:     -10.1      0.000      0.000
REMARK SMILES O=C(NCCCNC(=O)[C@@H](CCOC(F)(F)F)Cc1ccccc1Cl)c1ccc(-c2c3nc(c(-c4ccc(S(=O)(=O)[O-])cc4)c4ccc([nH]4)c(-c4ccc(S(=O)(=O)[O-])cc4)c4nc(c(-c5ccc(S(=O)(=O)[O-])cc5)c5ccc2[nH]5)C=C4)C=C3)cc1
REMARK SMILES IDX 5 1 4 2 3 3 1 4 2 5 26 7 27 8 85 9 28 10 84 11 29 12 30 13
REMARK SMILES IDX 31 14 78 15 32 16 83 17 77 18 79 19 33 20 82 21 76 22 75 23
REMARK SMILES IDX 34 25 64 26 45 27 63 28 46 29 49 30 62 31 80 32 47 33 48 34
REMARK SMILES IDX 61 36 81 37 50 38 35 39 36 40 44 41 37 42 43 43 38 44 39 45
REMARK SMILES IDX 40 46 41 47 42 48 65 49 66 50 74 51 67 52 73 53 68 54 69 55
REMARK SMILES IDX 70 56 71 57 72 58 51 59 52 60 60 61 53 62 59 63 54 64 55 65
REMARK SMILES IDX 56 66 57 67 58 68 6 69 7 70 8 71 9 73 10 74 11 75 12 76
REMARK SMILES IDX 13 77 14 78 15 79 16 80 17 81 18 82 19 83 20 84 24 85 21 86
REMARK SMILES IDX 23 87 25 88 22 89
REMARK H PARENT 3 6 79 24 49 35 7 72
REMARK Flexibility Score: inf
ROOT
ATOM      1  C   UNL A   1      35.716  23.652  25.905  1.00  0.00     0.042 C 
ENDROOT
BRANCH   1   2
ATOM      2  C   UNL A   1      37.005  23.767  25.123  1.00  0.00     0.118 C 
BRANCH   2   3
ATOM      3  N   UNL A   1      37.947  22.716  25.496  1.00  0.00    -0.352 N 
ATOM      4  O   UNL A   1      39.943  21.889  26.149  1.00  0.00    -0.269 OA
ATOM      5  C   UNL A   1      39.164  22.837  26.120  1.00  0.00     0.251 C 
ATOM      6  H   UNL A   1      37.674  21.798  25.270  1.00  0.00     0.163 HD
BRANCH   5   7
ATOM      7  C   UNL A   1      39.519  24.127  26.742  1.00  0.00     0.039 A 
ATOM      8  C   UNL A   1      39.156  24.377  28.067  1.00  0.00     0.014 A 
ATOM      9  C   UNL A   1      40.211  25.091  26.005  1.00  0.00     0.014 A 
ATOM     10  C   UNL A   1      39.332  25.638  28.603  1.00  0.00     0.010 A 
ATOM     11  C   UNL A   1      40.519  26.316  26.599  1.00  0.00     0.010 A 
ATOM     12  C   UNL A   1      40.077  26.596  27.902  1.00  0.00    -0.014 A 
BRANCH  12  13
ATOM     13  C   UNL A   1      40.528  27.798  28.637  1.00  0.00     0.031 A 
ATOM     14  C   UNL A   1      39.605  28.944  28.918  1.00  0.00     0.074 A 
ATOM     15  C   UNL A   1      41.811  27.815  29.055  1.00  0.00     0.049 A 
ATOM     16  N   UNL A   1      39.871  30.068  29.529  1.00  0.00    -0.248 NA
ATOM     17  C   UNL A   1      38.213  28.828  28.452  1.00  0.00     0.031 C 
ATOM     18  C   UNL A   1      42.792  26.746  28.814  1.00  0.00     0.029 A 
ATOM     19  N   UNL A   1      42.512  28.741  29.780  1.00  0.00    -0.354 N 
ATOM     20  C   UNL A   1      38.698  30.810  29.492  1.00  0.00     0.074 A 
ATOM     21  C   UNL A   1      37.712  30.008  28.799  1.00  0.00     0.031 C 
ATOM     22  C   UNL A   1      43.943  27.052  29.424  1.00  0.00     0.029 A 
ATOM     23  C   UNL A   1      43.819  28.378  30.009  1.00  0.00     0.049 A 
ATOM     24  H   UNL A   1      42.120  29.583  30.106  1.00  0.00     0.167 HD
ATOM     25  C   UNL A   1      38.480  32.051  29.987  1.00  0.00     0.031 A 
ATOM     26  C   UNL A   1      44.829  29.056  30.581  1.00  0.00     0.031 A 
ATOM     27  C   UNL A   1      39.476  32.821  30.684  1.00  0.00     0.049 A 
ATOM     28  C   UNL A   1      44.557  30.439  31.085  1.00  0.00     0.074 A 
ATOM     29  C   UNL A   1      39.336  34.063  31.282  1.00  0.00     0.029 A 
ATOM     30  N   UNL A   1      40.797  32.437  30.866  1.00  0.00    -0.354 N 
ATOM     31  N   UNL A   1      43.423  31.098  31.097  1.00  0.00    -0.248 NA
ATOM     32  C   UNL A   1      45.698  31.178  31.637  1.00  0.00     0.031 C 
ATOM     33  C   UNL A   1      40.588  34.457  31.766  1.00  0.00     0.029 A 
ATOM     34  C   UNL A   1      41.493  33.437  31.523  1.00  0.00     0.049 A 
ATOM     35  H   UNL A   1      41.182  31.580  30.572  1.00  0.00     0.167 HD
ATOM     36  C   UNL A   1      43.715  32.334  31.655  1.00  0.00     0.074 A 
ATOM     37  C   UNL A   1      45.122  32.315  32.004  1.00  0.00     0.031 C 
ATOM     38  C   UNL A   1      42.896  33.395  31.850  1.00  0.00     0.031 A 
BRANCH  25  39
ATOM     39  C   UNL A   1      37.131  32.685  29.770  1.00  0.00    -0.014 A 
ATOM     40  C   UNL A   1      36.172  32.736  30.794  1.00  0.00     0.010 A 
ATOM     41  C   UNL A   1      36.871  33.345  28.554  1.00  0.00     0.010 A 
ATOM     42  C   UNL A   1      34.974  33.433  30.604  1.00  0.00     0.020 A 
ATOM     43  C   UNL A   1      35.685  34.059  28.367  1.00  0.00     0.020 A 
ATOM     44  C   UNL A   1      34.740  34.096  29.394  1.00  0.00     0.054 A 
BRANCH  44  45
ATOM     45  S   UNL A   1      33.211  35.054  29.206  1.00  0.00     0.124 S 
ATOM     46  O   UNL A   1      32.664  35.020  30.561  1.00  0.00    -0.237 OA
ATOM     47  O   UNL A   1      33.703  36.356  28.761  1.00  0.00    -0.237 OA
ATOM     48  O   UNL A   1      32.450  34.306  28.209  1.00  0.00    -0.744 OA
ENDBRANCH  44  45
ENDBRANCH  25  39
BRANCH  26  49
ATOM     49  C   UNL A   1      46.193  28.465  30.619  1.00  0.00    -0.014 A 
ATOM     50  C   UNL A   1      47.098  28.664  29.564  1.00  0.00     0.010 A 
ATOM     51  C   UNL A   1      46.595  27.698  31.731  1.00  0.00     0.010 A 
ATOM     52  C   UNL A   1      48.367  28.078  29.605  1.00  0.00     0.020 A 
ATOM     53  C   UNL A   1      47.873  27.143  31.792  1.00  0.00     0.020 A 
ATOM     54  C   UNL A   1      48.744  27.318  30.717  1.00  0.00     0.054 A 
BRANCH  54  55
ATOM     55  S   UNL A   1      50.400  26.579  30.758  1.00  0.00     0.124 S 
ATOM     56  O   UNL A   1      50.090  25.155  30.826  1.00  0.00    -0.237 OA
ATOM     57  O   UNL A   1      50.985  27.041  29.501  1.00  0.00    -0.237 OA
ATOM     58  O   UNL A   1      51.000  27.151  31.962  1.00  0.00    -0.744 OA
ENDBRANCH  54  55
ENDBRANCH  26  49
BRANCH  38  59
ATOM     59  C   UNL A   1      43.508  34.619  32.468  1.00  0.00    -0.014 A 
ATOM     60  C   UNL A   1      44.015  35.654  31.663  1.00  0.00     0.010 A 
ATOM     61  C   UNL A   1      43.535  34.756  33.867  1.00  0.00     0.010 A 
ATOM     62  C   UNL A   1      44.560  36.798  32.248  1.00  0.00     0.020 A 
ATOM     63  C   UNL A   1      44.052  35.911  34.455  1.00  0.00     0.020 A 
ATOM     64  C   UNL A   1      44.571  36.920  33.641  1.00  0.00     0.054 A 
BRANCH  64  65
ATOM     65  S   UNL A   1      45.232  38.441  34.374  1.00  0.00     0.124 S 
ATOM     66  O   UNL A   1      46.656  38.330  34.068  1.00  0.00    -0.237 OA
ATOM     67  O   UNL A   1      44.513  39.484  33.648  1.00  0.00    -0.237 OA
ATOM     68  O   UNL A   1      44.887  38.321  35.789  1.00  0.00    -0.744 OA
ENDBRANCH  64  65
ENDBRANCH  38  59
ENDBRANCH  12  13
ENDBRANCH   5   7
ENDBRANCH   2   3
ENDBRANCH   1   2
BRANCH   1  69
ATOM     69  C   UNL A   1      34.760  24.751  25.497  1.00  0.00     0.117 C 
BRANCH  69  70
ATOM     70  N   UNL A   1      33.508  24.670  26.217  1.00  0.00    -0.356 N 
ATOM     71  C   UNL A   1      32.342  25.341  26.077  1.00  0.00     0.223 C 
ATOM     72  H   UNL A   1      33.504  24.003  26.942  1.00  0.00     0.163 HD
ATOM     73  O   UNL A   1      31.408  24.979  26.804  1.00  0.00    -0.275 OA
BRANCH  71  74
ATOM     74  C   UNL A   1      32.146  26.539  25.152  1.00  0.00     0.085 C 
BRANCH  74  75
ATOM     75  C   UNL A   1      31.601  26.119  23.757  1.00  0.00     0.042 C 
BRANCH  75  76
ATOM     76  C   UNL A   1      31.773  27.009  22.520  1.00  0.00     0.171 C 
BRANCH  76  77
ATOM     77  O   UNL A   1      30.600  27.654  22.083  1.00  0.00    -0.292 OA
BRANCH  77  78
ATOM     78  C   UNL A   1      30.472  29.007  22.452  1.00  0.00     0.522 C 
ATOM     79  F   UNL A   1      31.659  29.419  22.940  1.00  0.00    -0.144 F 
ATOM     80  F   UNL A   1      30.153  29.779  21.398  1.00  0.00    -0.144 F 
ATOM     81  F   UNL A   1      29.535  29.136  23.407  1.00  0.00    -0.144 F 
ENDBRANCH  77  78
ENDBRANCH  76  77
ENDBRANCH  75  76
ENDBRANCH  74  75
BRANCH  74  82
ATOM     82  C   UNL A   1      31.517  27.815  25.740  1.00  0.00     0.050 C 
BRANCH  82  83
ATOM     83  C   UNL A   1      32.426  28.806  26.450  1.00  0.00    -0.029 A 
ATOM     84  C   UNL A   1      33.590  28.304  27.064  1.00  0.00     0.005 A 
ATOM     85  C   UNL A   1      32.259  30.202  26.417  1.00  0.00     0.044 A 
ATOM     86  C   UNL A   1      34.568  29.163  27.574  1.00  0.00     0.000 A 
ATOM     87  C   UNL A   1      33.233  31.056  26.944  1.00  0.00     0.021 A 
ATOM     88  Cl  UNL A   1      30.918  30.981  25.675  1.00  0.00    -0.084 Cl
ATOM     89  C   UNL A   1      34.395  30.540  27.506  1.00  0.00     0.002 A 
ENDBRANCH  82  83
ENDBRANCH  74  82
ENDBRANCH  71  74
ENDBRANCH  69  70
ENDBRANCH   1  69
TORSDOF 19
ENDMDL
MODEL 2
REMARK VINA RESULT:      -9.8      1.463      2.083
REMARK SMILES O=C(NCCCNC(=O)[C@@H](CCOC(F)(F)F)Cc1ccccc1Cl)c1ccc(-c2c3nc(c(-c4ccc(S(=O)(=O)[O-])cc4)c4ccc([nH]4)c(-c4ccc(S(=O)(=O)[O-])cc4)c4nc(c(-c5ccc(S(=O)(=O)[O-])cc5)c5ccc2[nH]5)C=C4)C=C3)cc1
REMARK SMILES IDX 5 1 4 2 3 3 1 4 2 5 26 7 27 8 85 9 28 10 84 11 29 12 30 13
REMARK SMILES IDX 31 14 78 15 32 16 83 17 77 18 79 19 33 20 82 21 76 22 75 23
REMARK SMILES IDX 34 25 64 26 45 27 63 28 46 29 49 30 62 31 80 32 47 33 48 34
REMARK SMILES IDX 61 36 81 37 50 38 35 39 36 40 44 41 37 42 43 43 38 44 39 45
REMARK SMILES IDX 40 46 41 47 42 48 65 49 66 50 74 51 67 52 73 53 68 54 69 55
REMARK SMILES IDX 70 56 71 57 72 58 51 59 52 60 60 61 53 62 59 63 54 64 55 65
REMARK SMILES IDX 56 66 57 67 58 68 6 69 7 70 8 71 9 73 10 74 11 75 12 76
REMARK SMILES IDX 13 77 14 78 15 79 16 80 17 81 18 82 19 83 20 84 24 85 21 86
REMARK SMILES IDX 23 87 25 88 22 89
REMARK H PARENT 3 6 79 24 49 35 7 72
REMARK Flexibility Score: inf
ROOT
ATOM      1  C   UNL A   1      35.902  23.886  26.037  1.00  0.00     0.042 C 
ENDROOT
BRANCH   1   2
ATOM      2  C   UNL A   1      37.048  23.763  25.059  1.00  0.00     0.118 C 
BRANCH   2   3
ATOM      3  N   UNL A   1      37.970  22.701  25.451  1.00  0.00    -0.352 N 
ATOM      4  O   UNL A   1      39.938  21.852  26.160  1.00  0.00    -0.269 OA
ATOM      5  C   UNL A   1      39.167  22.807  26.115  1.00  0.00     0.251 C 
ATOM      6  H   UNL A   1      37.696  21.788  25.209  1.00  0.00     0.163 HD
BRANCH   5   7
ATOM      7  C   UNL A   1      39.513  24.089  26.759  1.00  0.00     0.039 A 
ATOM      8  C   UNL A   1      39.154  24.309  28.090  1.00  0.00     0.014 A 
ATOM      9  C   UNL A   1      40.191  25.073  26.037  1.00  0.00     0.014 A 
ATOM     10  C   UNL A   1      39.320  25.563  28.650  1.00  0.00     0.010 A 
ATOM     11  C   UNL A   1      40.490  26.290  26.652  1.00  0.00     0.010 A 
ATOM     12  C   UNL A   1      40.052  26.541  27.962  1.00  0.00    -0.014 A 
BRANCH  12  13
ATOM     13  C   UNL A   1      40.496  27.733  28.718  1.00  0.00     0.031 A 
ATOM     14  C   UNL A   1      39.575  28.886  28.984  1.00  0.00     0.074 A 
ATOM     15  C   UNL A   1      41.767  27.736  29.169  1.00  0.00     0.049 A 
ATOM     16  N   UNL A   1      39.836  30.003  29.610  1.00  0.00    -0.248 NA
ATOM     17  C   UNL A   1      38.195  28.786  28.482  1.00  0.00     0.031 C 
ATOM     18  C   UNL A   1      42.745  26.659  28.945  1.00  0.00     0.029 A 
ATOM     19  N   UNL A   1      42.458  28.649  29.918  1.00  0.00    -0.354 N 
ATOM     20  C   UNL A   1      38.671  30.755  29.549  1.00  0.00     0.074 A 
ATOM     21  C   UNL A   1      37.696  29.968  28.825  1.00  0.00     0.031 C 
ATOM     22  C   UNL A   1      43.882  26.950  29.585  1.00  0.00     0.029 A 
ATOM     23  C   UNL A   1      43.755  28.273  30.177  1.00  0.00     0.049 A 
ATOM     24  H   UNL A   1      42.066  29.492  30.240  1.00  0.00     0.167 HD
ATOM     25  C   UNL A   1      38.452  31.994  30.047  1.00  0.00     0.031 A 
ATOM     26  C   UNL A   1      44.757  28.937  30.779  1.00  0.00     0.031 A 
ATOM     27  C   UNL A   1      39.437  32.751  30.776  1.00  0.00     0.049 A 
ATOM     28  C   UNL A   1      44.485  30.319  31.287  1.00  0.00     0.074 A 
ATOM     29  C   UNL A   1      39.293  33.989  31.379  1.00  0.00     0.029 A 
ATOM     30  N   UNL A   1      40.749  32.353  30.988  1.00  0.00    -0.354 N 
ATOM     31  N   UNL A   1      43.356  30.988  31.276  1.00  0.00    -0.248 NA
ATOM     32  C   UNL A   1      45.617  31.043  31.873  1.00  0.00     0.031 C 
ATOM     33  C   UNL A   1      40.535  34.368  31.898  1.00  0.00     0.029 A 
ATOM     34  C   UNL A   1      41.438  33.341  31.670  1.00  0.00     0.049 A 
ATOM     35  H   UNL A   1      41.133  31.494  30.697  1.00  0.00     0.167 HD
ATOM     36  C   UNL A   1      43.645  32.217  31.850  1.00  0.00     0.074 A 
ATOM     37  C   UNL A   1      45.042  32.183  32.234  1.00  0.00     0.031 C 
ATOM     38  C   UNL A   1      42.831  33.285  32.032  1.00  0.00     0.031 A 
BRANCH  25  39
ATOM     39  C   UNL A   1      37.115  32.642  29.801  1.00  0.00    -0.014 A 
ATOM     40  C   UNL A   1      36.088  32.593  30.759  1.00  0.00     0.010 A 
ATOM     41  C   UNL A   1      36.931  33.415  28.639  1.00  0.00     0.010 A 
ATOM     42  C   UNL A   1      34.899  33.301  30.555  1.00  0.00     0.020 A 
ATOM     43  C   UNL A   1      35.753  34.140  28.441  1.00  0.00     0.020 A 
ATOM     44  C   UNL A   1      34.741  34.076  29.400  1.00  0.00     0.054 A 
BRANCH  44  45
ATOM     45  S   UNL A   1      33.219  35.044  29.202  1.00  0.00     0.124 S 
ATOM     46  O   UNL A   1      32.489  34.259  28.209  1.00  0.00    -0.237 OA
ATOM     47  O   UNL A   1      32.655  35.031  30.549  1.00  0.00    -0.237 OA
ATOM     48  O   UNL A   1      33.692  36.346  28.740  1.00  0.00    -0.744 OA
ENDBRANCH  44  45
ENDBRANCH  25  39
BRANCH  26  49
ATOM     49  C   UNL A   1      46.114  28.334  30.848  1.00  0.00    -0.014 A 
ATOM     50  C   UNL A   1      47.022  28.472  29.786  1.00  0.00     0.010 A 
ATOM     51  C   UNL A   1      46.506  27.615  31.995  1.00  0.00     0.010 A 
ATOM     52  C   UNL A   1      48.285  27.874  29.857  1.00  0.00     0.020 A 
ATOM     53  C   UNL A   1      47.778  27.050  32.085  1.00  0.00     0.020 A 
ATOM     54  C   UNL A   1      48.652  27.164  31.004  1.00  0.00     0.054 A 
BRANCH  54  55
ATOM     55  S   UNL A   1      50.299  26.409  31.082  1.00  0.00     0.124 S 
ATOM     56  O   UNL A   1      50.350  25.945  32.465  1.00  0.00    -0.237 OA
ATOM     57  O   UNL A   1      50.218  25.364  30.065  1.00  0.00    -0.237 OA
ATOM     58  O   UNL A   1      51.198  27.515  30.757  1.00  0.00    -0.744 OA
ENDBRANCH  54  55
ENDBRANCH  26  49
BRANCH  38  59
ATOM     59  C   UNL A   1      43.438  34.498  32.675  1.00  0.00    -0.014 A 
ATOM     60  C   UNL A   1      43.964  35.540  31.890  1.00  0.00     0.010 A 
ATOM     61  C   UNL A   1      43.441  34.618  34.075  1.00  0.00     0.010 A 
ATOM     62  C   UNL A   1      44.503  36.674  32.498  1.00  0.00     0.020 A 
ATOM     63  C   UNL A   1      43.954  35.764  34.686  1.00  0.00     0.020 A 
ATOM     64  C   UNL A   1      44.492  36.780  33.892  1.00  0.00     0.054 A 
BRANCH  64  65
ATOM     65  S   UNL A   1      45.147  38.289  34.654  1.00  0.00     0.124 S 
ATOM     66  O   UNL A   1      46.273  37.773  35.429  1.00  0.00    -0.237 OA
ATOM     67  O   UNL A   1      45.503  39.104  33.495  1.00  0.00    -0.237 OA
ATOM     68  O   UNL A   1      44.026  38.794  35.443  1.00  0.00    -0.744 OA
ENDBRANCH  64  65
ENDBRANCH  38  59
ENDBRANCH  12  13
ENDBRANCH   5   7
ENDBRANCH   2   3
ENDBRANCH   1   2
BRANCH   1  69
ATOM     69  C   UNL A   1      34.836  22.859  25.721  1.00  0.00     0.117 C 
BRANCH  69  70
ATOM     70  N   UNL A   1      33.775  22.866  26.704  1.00  0.00    -0.356 N 
ATOM     71  C   UNL A   1      32.521  23.372  26.674  1.00  0.00     0.223 C 
ATOM     72  H   UNL A   1      34.008  22.421  27.551  1.00  0.00     0.163 HD
ATOM     73  O   UNL A   1      31.810  23.139  27.659  1.00  0.00    -0.275 OA
BRANCH  71  74
ATOM     74  C   UNL A   1      31.979  24.256  25.555  1.00  0.00     0.085 C 
BRANCH  74  75
ATOM     75  C   UNL A   1      31.569  23.430  24.302  1.00  0.00     0.042 C 
BRANCH  75  76
ATOM     76  C   UNL A   1      32.316  23.560  22.968  1.00  0.00     0.171 C 
BRANCH  76  77
ATOM     77  O   UNL A   1      33.032  24.762  22.799  1.00  0.00    -0.292 OA
BRANCH  77  78
ATOM     78  C   UNL A   1      32.690  25.522  21.665  1.00  0.00     0.522 C 
ATOM     79  F   UNL A   1      32.965  24.785  20.570  1.00  0.00    -0.144 F 
ATOM     80  F   UNL A   1      31.380  25.832  21.654  1.00  0.00    -0.144 F 
ATOM     81  F   UNL A   1      33.420  26.649  21.631  1.00  0.00    -0.144 F 
ENDBRANCH  77  78
ENDBRANCH  76  77
ENDBRANCH  75  76
ENDBRANCH  74  75
BRANCH  74  82
ATOM     82  C   UNL A   1      31.009  25.392  25.930  1.00  0.00     0.050 C 
BRANCH  82  83
ATOM     83  C   UNL A   1      30.673  26.433  24.874  1.00  0.00    -0.029 A 
ATOM     84  C   UNL A   1      29.387  26.394  24.301  1.00  0.00     0.005 A 
ATOM     85  C   UNL A   1      31.505  27.513  24.530  1.00  0.00     0.044 A 
ATOM     86  C   UNL A   1      28.935  27.419  23.464  1.00  0.00     0.000 A 
ATOM     87  C   UNL A   1      31.053  28.527  23.678  1.00  0.00     0.021 A 
ATOM     88  Cl  UNL A   1      33.087  27.734  25.165  1.00  0.00    -0.084 Cl
ATOM     89  C   UNL A   1      29.765  28.491  23.159  1.00  0.00     0.002 A 
ENDBRANCH  82  83
ENDBRANCH  74  82
ENDBRANCH  71  74
ENDBRANCH  69  70
ENDBRANCH   1  69
TORSDOF 19
ENDMDL
MODEL 3
REMARK VINA RESULT:      -9.7      2.720      9.110
REMARK SMILES O=C(NCCCNC(=O)[C@@H](CCOC(F)(F)F)Cc1ccccc1Cl)c1ccc(-c2c3nc(c(-c4ccc(S(=O)(=O)[O-])cc4)c4ccc([nH]4)c(-c4ccc(S(=O)(=O)[O-])cc4)c4nc(c(-c5ccc(S(=O)(=O)[O-])cc5)c5ccc2[nH]5)C=C4)C=C3)cc1
REMARK SMILES IDX 5 1 4 2 3 3 1 4 2 5 26 7 27 8 85 9 28 10 84 11 29 12 30 13
REMARK SMILES IDX 31 14 78 15 32 16 83 17 77 18 79 19 33 20 82 21 76 22 75 23
REMARK SMILES IDX 34 25 64 26 45 27 63 28 46 29 49 30 62 31 80 32 47 33 48 34
REMARK SMILES IDX 61 36 81 37 50 38 35 39 36 40 44 41 37 42 43 43 38 44 39 45
REMARK SMILES IDX 40 46 41 47 42 48 65 49 66 50 74 51 67 52 73 53 68 54 69 55
REMARK SMILES IDX 70 56 71 57 72 58 51 59 52 60 60 61 53 62 59 63 54 64 55 65
REMARK SMILES IDX 56 66 57 67 58 68 6 69 7 70 8 71 9 73 10 74 11 75 12 76
REMARK SMILES IDX 13 77 14 78 15 79 16 80 17 81 18 82 19 83 20 84 24 85 21 86
REMARK SMILES IDX 23 87 25 88 22 89
REMARK H PARENT 3 6 79 24 49 35 7 72
REMARK Flexibility Score: inf
ROOT
ATOM      1  C   UNL A   1      32.728  28.070  26.243  1.00  0.00     0.042 C 
ENDROOT
BRANCH   1   2
ATOM      2  C   UNL A   1      33.775  28.486  27.250  1.00  0.00     0.118 C 
BRANCH   2   3
ATOM      3  N   UNL A   1      33.665  29.906  27.574  1.00  0.00    -0.352 N 
ATOM      4  O   UNL A   1      34.222  31.814  28.644  1.00  0.00    -0.269 OA
ATOM      5  C   UNL A   1      34.561  30.704  28.242  1.00  0.00     0.251 C 
ATOM      6  H   UNL A   1      32.841  30.350  27.273  1.00  0.00     0.163 HD
BRANCH   5   7
ATOM      7  C   UNL A   1      35.927  30.200  28.476  1.00  0.00     0.039 A 
ATOM      8  C   UNL A   1      36.890  30.328  27.472  1.00  0.00     0.014 A 
ATOM      9  C   UNL A   1      36.251  29.596  29.692  1.00  0.00     0.014 A 
ATOM     10  C   UNL A   1      38.119  29.711  27.613  1.00  0.00     0.010 A 
ATOM     11  C   UNL A   1      37.542  29.103  29.890  1.00  0.00     0.010 A 
ATOM     12  C   UNL A   1      38.481  29.155  28.848  1.00  0.00    -0.014 A 
BRANCH  12  13
ATOM     13  C   UNL A   1      39.904  28.814  29.063  1.00  0.00     0.031 A 
ATOM     14  C   UNL A   1      40.478  27.504  28.614  1.00  0.00     0.074 A 
ATOM     15  C   UNL A   1      40.672  29.740  29.676  1.00  0.00     0.049 A 
ATOM     16  N   UNL A   1      41.699  27.063  28.759  1.00  0.00    -0.248 NA
ATOM     17  C   UNL A   1      39.577  26.565  27.926  1.00  0.00     0.031 C 
ATOM     18  C   UNL A   1      40.195  31.043  30.163  1.00  0.00     0.029 A 
ATOM     19  N   UNL A   1      42.006  29.749  29.980  1.00  0.00    -0.354 N 
ATOM     20  C   UNL A   1      41.710  25.785  28.216  1.00  0.00     0.074 A 
ATOM     21  C   UNL A   1      40.371  25.519  27.735  1.00  0.00     0.031 C 
ATOM     22  C   UNL A   1      41.226  31.740  30.653  1.00  0.00     0.029 A 
ATOM     23  C   UNL A   1      42.414  30.901  30.611  1.00  0.00     0.049 A 
ATOM     24  H   UNL A   1      42.614  29.005  29.769  1.00  0.00     0.167 HD
ATOM     25  C   UNL A   1      42.748  24.919  28.142  1.00  0.00     0.031 A 
ATOM     26  C   UNL A   1      43.600  31.233  31.148  1.00  0.00     0.031 A 
ATOM     27  C   UNL A   1      44.074  25.216  28.617  1.00  0.00     0.049 A 
ATOM     28  C   UNL A   1      44.714  30.235  31.076  1.00  0.00     0.074 A 
ATOM     29  C   UNL A   1      45.211  24.431  28.529  1.00  0.00     0.029 A 
ATOM     30  N   UNL A   1      44.441  26.378  29.281  1.00  0.00    -0.354 N 
ATOM     31  N   UNL A   1      44.721  29.056  30.502  1.00  0.00    -0.248 NA
ATOM     32  C   UNL A   1      45.972  30.599  31.736  1.00  0.00     0.031 C 
ATOM     33  C   UNL A   1      46.248  25.089  29.198  1.00  0.00     0.029 A 
ATOM     34  C   UNL A   1      45.773  26.310  29.650  1.00  0.00     0.049 A 
ATOM     35  H   UNL A   1      43.842  27.138  29.462  1.00  0.00     0.167 HD
ATOM     36  C   UNL A   1      45.984  28.534  30.734  1.00  0.00     0.074 A 
ATOM     37  C   UNL A   1      46.726  29.542  31.465  1.00  0.00     0.031 C 
ATOM     38  C   UNL A   1      46.484  27.324  30.386  1.00  0.00     0.031 A 
BRANCH  25  39
ATOM     39  C   UNL A   1      42.503  23.551  27.562  1.00  0.00    -0.014 A 
ATOM     40  C   UNL A   1      42.839  23.247  26.232  1.00  0.00     0.010 A 
ATOM     41  C   UNL A   1      42.038  22.522  28.403  1.00  0.00     0.010 A 
ATOM     42  C   UNL A   1      42.710  21.939  25.753  1.00  0.00     0.020 A 
ATOM     43  C   UNL A   1      41.928  21.210  27.935  1.00  0.00     0.020 A 
ATOM     44  C   UNL A   1      42.261  20.927  26.610  1.00  0.00     0.054 A 
BRANCH  44  45
ATOM     45  S   UNL A   1      42.178  19.227  25.981  1.00  0.00     0.124 S 
ATOM     46  O   UNL A   1      40.745  19.061  25.746  1.00  0.00    -0.237 OA
ATOM     47  O   UNL A   1      43.008  19.290  24.781  1.00  0.00    -0.237 OA
ATOM     48  O   UNL A   1      42.726  18.424  27.072  1.00  0.00    -0.744 OA
ENDBRANCH  44  45
ENDBRANCH  25  39
BRANCH  26  49
ATOM     49  C   UNL A   1      43.755  32.524  31.869  1.00  0.00    -0.014 A 
ATOM     50  C   UNL A   1      44.172  33.684  31.196  1.00  0.00     0.010 A 
ATOM     51  C   UNL A   1      43.476  32.595  33.249  1.00  0.00     0.010 A 
ATOM     52  C   UNL A   1      44.339  34.883  31.896  1.00  0.00     0.020 A 
ATOM     53  C   UNL A   1      43.605  33.799  33.942  1.00  0.00     0.020 A 
ATOM     54  C   UNL A   1      44.058  34.931  33.265  1.00  0.00     0.054 A 
BRANCH  54  55
ATOM     55  S   UNL A   1      44.266  36.499  34.153  1.00  0.00     0.124 S 
ATOM     56  O   UNL A   1      43.882  36.128  35.511  1.00  0.00    -0.237 OA
ATOM     57  O   UNL A   1      45.683  36.791  33.952  1.00  0.00    -0.237 OA
ATOM     58  O   UNL A   1      43.348  37.405  33.465  1.00  0.00    -0.744 OA
ENDBRANCH  54  55
ENDBRANCH  26  49
BRANCH  38  59
ATOM     59  C   UNL A   1      47.899  27.032  30.795  1.00  0.00    -0.014 A 
ATOM     60  C   UNL A   1      48.177  26.397  32.019  1.00  0.00     0.010 A 
ATOM     61  C   UNL A   1      48.957  27.352  29.927  1.00  0.00     0.010 A 
ATOM     62  C   UNL A   1      49.493  26.108  32.378  1.00  0.00     0.020 A 
ATOM     63  C   UNL A   1      50.273  27.038  30.270  1.00  0.00     0.020 A 
ATOM     64  C   UNL A   1      50.533  26.428  31.499  1.00  0.00     0.054 A 
BRANCH  64  65
ATOM     65  S   UNL A   1      52.230  25.990  31.964  1.00  0.00     0.124 S 
ATOM     66  O   UNL A   1      52.415  26.757  33.193  1.00  0.00    -0.237 OA
ATOM     67  O   UNL A   1      52.151  24.541  32.134  1.00  0.00    -0.237 OA
ATOM     68  O   UNL A   1      53.027  26.436  30.824  1.00  0.00    -0.744 OA
ENDBRANCH  64  65
ENDBRANCH  38  59
ENDBRANCH  12  13
ENDBRANCH   5   7
ENDBRANCH   2   3
ENDBRANCH   1   2
BRANCH   1  69
ATOM     69  C   UNL A   1      32.933  26.624  25.846  1.00  0.00     0.117 C 
BRANCH  69  70
ATOM     70  N   UNL A   1      32.046  25.738  26.566  1.00  0.00    -0.356 N 
ATOM     71  C   UNL A   1      31.363  24.635  26.180  1.00  0.00     0.223 C 
ATOM     72  H   UNL A   1      31.914  25.981  27.512  1.00  0.00     0.163 HD
ATOM     73  O   UNL A   1      30.743  24.034  27.066  1.00  0.00    -0.275 OA
BRANCH  71  74
ATOM     74  C   UNL A   1      31.257  24.154  24.736  1.00  0.00     0.085 C 
BRANCH  74  75
ATOM     75  C   UNL A   1      30.248  25.001  23.909  1.00  0.00     0.042 C 
BRANCH  75  76
ATOM     76  C   UNL A   1      29.540  26.225  24.504  1.00  0.00     0.171 C 
BRANCH  76  77
ATOM     77  O   UNL A   1      28.813  27.002  23.580  1.00  0.00    -0.292 OA
BRANCH  77  78
ATOM     78  C   UNL A   1      29.498  28.105  23.038  1.00  0.00     0.522 C 
ATOM     79  F   UNL A   1      28.592  28.905  22.440  1.00  0.00    -0.144 F 
ATOM     80  F   UNL A   1      30.129  28.814  23.993  1.00  0.00    -0.144 F 
ATOM     81  F   UNL A   1      30.389  27.688  22.122  1.00  0.00    -0.144 F 
ENDBRANCH  77  78
ENDBRANCH  76  77
ENDBRANCH  75  76
ENDBRANCH  74  75
BRANCH  74  82
ATOM     82  C   UNL A   1      32.555  23.783  23.996  1.00  0.00     0.050 C 
BRANCH  82  83
ATOM     83  C   UNL A   1      33.332  22.566  24.471  1.00  0.00    -0.029 A 
ATOM     84  C   UNL A   1      32.795  21.294  24.190  1.00  0.00     0.005 A 
ATOM     85  C   UNL A   1      34.615  22.616  25.045  1.00  0.00     0.044 A 
ATOM     86  C   UNL A   1      33.530  20.128  24.425  1.00  0.00     0.000 A 
ATOM     87  C   UNL A   1      35.339  21.445  25.294  1.00  0.00     0.021 A 
ATOM     88  Cl  UNL A   1      35.432  24.082  25.416  1.00  0.00    -0.084 Cl
ATOM     89  C   UNL A   1      34.807  20.204  24.969  1.00  0.00     0.002 A 
ENDBRANCH  82  83
ENDBRANCH  74  82
ENDBRANCH  71  74
ENDBRANCH  69  70
ENDBRANCH   1  69
TORSDOF 19
ENDMDL
