MODEL 1
REMARK VINA RESULT:     -11.0      0.000      0.000
REMARK SMILES CC1(C)CCC[C@@](C)(CCC(=O)NCCCNC(=O)c2ccc(-c3c4nc(c(-c5ccc(S(=O)(=O)[O-])cc5)c5ccc([nH]5)c(-c5ccc(S(=O)(=O)[O-])cc5)c5nc(c(-c6ccc(S(=O)(=O)[O-])cc6)c6ccc3[nH]6)C=C5)C=C4)cc2)C1=O
REMARK SMILES IDX 15 1 14 2 13 3 11 4 12 5 10 7 9 8 7 9 1 10 2 11 3 12 4 13
REMARK SMILES IDX 80 14 5 15 81 16 6 17 8 18 16 19 17 20 18 21 19 23 20 24
REMARK SMILES IDX 21 25 79 26 22 27 78 28 23 29 24 30 25 31 72 32 26 33 77 34
REMARK SMILES IDX 71 35 73 36 27 37 76 38 70 39 69 40 28 42 58 43 39 44 57 45
REMARK SMILES IDX 40 46 43 47 56 48 74 49 41 50 42 51 55 53 75 54 44 55 29 56
REMARK SMILES IDX 30 57 38 58 31 59 37 60 32 61 33 62 34 63 35 64 36 65 59 66
REMARK SMILES IDX 60 67 68 68 61 69 67 70 62 71 63 72 64 73 65 74 66 75 45 76
REMARK SMILES IDX 46 77 54 78 47 79 53 80 48 81 49 82 50 83 51 84 52 85
REMARK H PARENT 13 6 17 22 73 41 43 52
REMARK Flexibility Score: inf
ROOT
ATOM      1  C   UNL A   1      32.069  27.806  27.188  1.00  0.00     0.042 C 
ENDROOT
BRANCH   1   2
ATOM      2  C   UNL A   1      31.658  26.722  26.180  1.00  0.00     0.117 C 
BRANCH   2   3
ATOM      3  N   UNL A   1      31.006  25.585  26.827  1.00  0.00    -0.356 N 
ATOM      4  C   UNL A   1      31.156  24.235  26.666  1.00  0.00     0.220 C 
ATOM      5  O   UNL A   1      30.360  23.497  27.251  1.00  0.00    -0.275 OA
ATOM      6  H   UNL A   1      30.336  25.837  27.503  1.00  0.00     0.163 HD
BRANCH   4   7
ATOM      7  C   UNL A   1      32.276  23.642  25.819  1.00  0.00     0.101 C 
BRANCH   7   8
ATOM      8  C   UNL A   1      31.858  23.070  24.440  1.00  0.00     0.024 C 
BRANCH   8   9
ATOM      9  C   UNL A   1      32.855  22.096  23.738  1.00  0.00     0.027 C 
ATOM     10  C   UNL A   1      35.404  24.123  24.998  1.00  0.00     0.019 C 
ATOM     11  C   UNL A   1      35.404  22.831  24.158  1.00  0.00     0.024 C 
ATOM     12  C   UNL A   1      36.630  22.812  23.222  1.00  0.00     0.019 C 
ATOM     13  C   UNL A   1      35.530  21.590  25.056  1.00  0.00     0.014 C 
ATOM     14  C   UNL A   1      34.129  22.847  23.287  1.00  0.00     0.144 C 
ATOM     15  C   UNL A   1      34.229  21.249  25.739  1.00  0.00     0.002 C 
ATOM     16  O   UNL A   1      34.088  23.560  22.276  1.00  0.00    -0.298 OA
ATOM     17  C   UNL A   1      33.206  20.938  24.668  1.00  0.00     0.014 C 
ATOM     18  C   UNL A   1      32.222  21.540  22.441  1.00  0.00     0.020 C 
ENDBRANCH   8   9
ENDBRANCH   7   8
ENDBRANCH   4   7
ENDBRANCH   2   3
ENDBRANCH   1   2
BRANCH   1  19
ATOM     19  C   UNL A   1      33.427  28.446  26.935  1.00  0.00     0.118 C 
BRANCH  19  20
ATOM     20  N   UNL A   1      33.513  29.780  27.495  1.00  0.00    -0.352 N 
ATOM     21  C   UNL A   1      34.501  30.463  28.162  1.00  0.00     0.251 C 
ATOM     22  H   UNL A   1      32.691  30.307  27.370  1.00  0.00     0.163 HD
ATOM     23  O   UNL A   1      34.169  31.531  28.682  1.00  0.00    -0.269 OA
BRANCH  21  24
ATOM     24  C   UNL A   1      35.917  30.004  28.304  1.00  0.00     0.039 A 
ATOM     25  C   UNL A   1      36.323  29.556  29.573  1.00  0.00     0.014 A 
ATOM     26  C   UNL A   1      36.891  30.103  27.309  1.00  0.00     0.014 A 
ATOM     27  C   UNL A   1      37.662  29.230  29.834  1.00  0.00     0.010 A 
ATOM     28  C   UNL A   1      38.206  29.674  27.540  1.00  0.00     0.010 A 
ATOM     29  C   UNL A   1      38.625  29.280  28.817  1.00  0.00    -0.014 A 
BRANCH  29  30
ATOM     30  C   UNL A   1      40.068  29.018  29.105  1.00  0.00     0.031 A 
ATOM     31  C   UNL A   1      40.692  27.687  28.741  1.00  0.00     0.074 A 
ATOM     32  C   UNL A   1      40.832  29.965  29.688  1.00  0.00     0.049 A 
ATOM     33  N   UNL A   1      41.926  27.275  28.908  1.00  0.00    -0.248 NA
ATOM     34  C   UNL A   1      39.810  26.676  28.133  1.00  0.00     0.031 C 
ATOM     35  C   UNL A   1      40.366  31.282  30.128  1.00  0.00     0.029 A 
ATOM     36  N   UNL A   1      42.171  29.969  30.001  1.00  0.00    -0.354 N 
ATOM     37  C   UNL A   1      41.958  25.962  28.449  1.00  0.00     0.074 A 
ATOM     38  C   UNL A   1      40.609  25.623  28.055  1.00  0.00     0.031 C 
ATOM     39  C   UNL A   1      41.407  31.981  30.608  1.00  0.00     0.029 A 
ATOM     40  C   UNL A   1      42.609  31.155  30.545  1.00  0.00     0.049 A 
ATOM     41  H   UNL A   1      42.761  29.197  29.850  1.00  0.00     0.167 HD
ATOM     42  C   UNL A   1      43.011  25.117  28.331  1.00  0.00     0.031 A 
ATOM     43  C   UNL A   1      43.840  31.543  30.938  1.00  0.00     0.031 A 
ATOM     44  C   UNL A   1      44.364  25.455  28.686  1.00  0.00     0.049 A 
ATOM     45  C   UNL A   1      44.999  30.595  30.782  1.00  0.00     0.074 A 
ATOM     46  C   UNL A   1      45.507  24.684  28.559  1.00  0.00     0.029 A 
ATOM     47  N   UNL A   1      44.760  26.670  29.222  1.00  0.00    -0.354 N 
ATOM     48  N   UNL A   1      45.009  29.375  30.303  1.00  0.00    -0.248 NA
ATOM     49  C   UNL A   1      46.318  31.087  31.207  1.00  0.00     0.031 C 
ATOM     50  C   UNL A   1      46.590  25.420  29.054  1.00  0.00     0.029 A 
ATOM     51  C   UNL A   1      46.127  26.667  29.443  1.00  0.00     0.049 A 
ATOM     52  H   UNL A   1      44.158  27.423  29.420  1.00  0.00     0.167 HD
ATOM     53  C   UNL A   1      46.337  28.964  30.343  1.00  0.00     0.074 A 
ATOM     54  C   UNL A   1      47.103  30.072  30.875  1.00  0.00     0.031 C 
ATOM     55  C   UNL A   1      46.877  27.776  29.972  1.00  0.00     0.031 A 
BRANCH  42  56
ATOM     56  C   UNL A   1      42.740  23.740  27.778  1.00  0.00    -0.014 A 
ATOM     57  C   UNL A   1      42.385  22.676  28.627  1.00  0.00     0.010 A 
ATOM     58  C   UNL A   1      42.814  23.510  26.392  1.00  0.00     0.010 A 
ATOM     59  C   UNL A   1      42.160  21.398  28.108  1.00  0.00     0.020 A 
ATOM     60  C   UNL A   1      42.561  22.239  25.864  1.00  0.00     0.020 A 
ATOM     61  C   UNL A   1      42.257  21.187  26.730  1.00  0.00     0.054 A 
BRANCH  61  62
ATOM     62  S   UNL A   1      41.953  19.518  26.084  1.00  0.00     0.124 S 
ATOM     63  O   UNL A   1      42.325  18.684  27.222  1.00  0.00    -0.237 OA
ATOM     64  O   UNL A   1      40.528  19.550  25.767  1.00  0.00    -0.237 OA
ATOM     65  O   UNL A   1      42.843  19.428  24.928  1.00  0.00    -0.744 OA
ENDBRANCH  61  62
ENDBRANCH  42  56
BRANCH  43  66
ATOM     66  C   UNL A   1      44.052  32.910  31.492  1.00  0.00    -0.014 A 
ATOM     67  C   UNL A   1      43.955  33.140  32.877  1.00  0.00     0.010 A 
ATOM     68  C   UNL A   1      44.342  33.988  30.639  1.00  0.00     0.010 A 
ATOM     69  C   UNL A   1      44.118  34.428  33.395  1.00  0.00     0.020 A 
ATOM     70  C   UNL A   1      44.533  35.274  31.156  1.00  0.00     0.020 A 
ATOM     71  C   UNL A   1      44.405  35.487  32.530  1.00  0.00     0.054 A 
BRANCH  71  72
ATOM     72  S   UNL A   1      44.651  37.146  33.226  1.00  0.00     0.124 S 
ATOM     73  O   UNL A   1      43.303  37.494  33.663  1.00  0.00    -0.237 OA
ATOM     74  O   UNL A   1      45.620  36.902  34.292  1.00  0.00    -0.237 OA
ATOM     75  O   UNL A   1      45.163  37.916  32.095  1.00  0.00    -0.744 OA
ENDBRANCH  71  72
ENDBRANCH  43  66
BRANCH  55  76
ATOM     76  C   UNL A   1      48.369  27.627  30.097  1.00  0.00    -0.014 A 
ATOM     77  C   UNL A   1      49.230  28.002  29.052  1.00  0.00     0.010 A 
ATOM     78  C   UNL A   1      48.919  27.130  31.293  1.00  0.00     0.010 A 
ATOM     79  C   UNL A   1      50.612  27.842  29.183  1.00  0.00     0.020 A 
ATOM     80  C   UNL A   1      50.301  26.993  31.438  1.00  0.00     0.020 A 
ATOM     81  C   UNL A   1      51.139  27.333  30.374  1.00  0.00     0.054 A 
BRANCH  81  82
ATOM     82  S   UNL A   1      52.937  27.151  30.530  1.00  0.00     0.124 S 
ATOM     83  O   UNL A   1      53.310  26.675  29.201  1.00  0.00    -0.237 OA
ATOM     84  O   UNL A   1      53.371  28.508  30.855  1.00  0.00    -0.237 OA
ATOM     85  O   UNL A   1      53.094  26.178  31.608  1.00  0.00    -0.744 OA
ENDBRANCH  81  82
ENDBRANCH  55  76
ENDBRANCH  29  30
ENDBRANCH  21  24
ENDBRANCH  19  20
ENDBRANCH   1  19
TORSDOF 15
ENDMDL
MODEL 2
REMARK VINA RESULT:     -10.9      4.964      9.995
REMARK SMILES CC1(C)CCC[C@@](C)(CCC(=O)NCCCNC(=O)c2ccc(-c3c4nc(c(-c5ccc(S(=O)(=O)[O-])cc5)c5ccc([nH]5)c(-c5ccc(S(=O)(=O)[O-])cc5)c5nc(c(-c6ccc(S(=O)(=O)[O-])cc6)c6ccc3[nH]6)C=C5)C=C4)cc2)C1=O
REMARK SMILES IDX 15 1 14 2 13 3 11 4 12 5 10 7 9 8 7 9 1 10 2 11 3 12 4 13
REMARK SMILES IDX 80 14 5 15 81 16 6 17 8 18 16 19 17 20 18 21 19 23 20 24
REMARK SMILES IDX 21 25 79 26 22 27 78 28 23 29 24 30 25 31 72 32 26 33 77 34
REMARK SMILES IDX 71 35 73 36 27 37 76 38 70 39 69 40 28 42 58 43 39 44 57 45
REMARK SMILES IDX 40 46 43 47 56 48 74 49 41 50 42 51 55 53 75 54 44 55 29 56
REMARK SMILES IDX 30 57 38 58 31 59 37 60 32 61 33 62 34 63 35 64 36 65 59 66
REMARK SMILES IDX 60 67 68 68 61 69 67 70 62 71 63 72 64 73 65 74 66 75 45 76
REMARK SMILES IDX 46 77 54 78 47 79 53 80 48 81 49 82 50 83 51 84 52 85
REMARK H PARENT 13 6 17 22 73 41 43 52
REMARK Flexibility Score: inf
ROOT
ATOM      1  C   UNL A   1      39.486  22.248  26.245  1.00  0.00     0.042 C 
ENDROOT
BRANCH   1   2
ATOM      2  C   UNL A   1      38.169  23.021  26.078  1.00  0.00     0.117 C 
BRANCH   2   3
ATOM      3  N   UNL A   1      37.776  23.146  24.675  1.00  0.00    -0.356 N 
ATOM      4  C   UNL A   1      36.589  22.911  24.037  1.00  0.00     0.220 C 
ATOM      5  O   UNL A   1      36.583  22.961  22.805  1.00  0.00    -0.275 OA
ATOM      6  H   UNL A   1      38.498  23.454  24.082  1.00  0.00     0.163 HD
BRANCH   4   7
ATOM      7  C   UNL A   1      35.303  22.621  24.801  1.00  0.00     0.101 C 
BRANCH   7   8
ATOM      8  C   UNL A   1      34.306  21.652  24.116  1.00  0.00     0.024 C 
BRANCH   8   9
ATOM      9  C   UNL A   1      32.854  22.170  23.880  1.00  0.00     0.027 C 
ATOM     10  C   UNL A   1      32.756  22.849  27.303  1.00  0.00     0.019 C 
ATOM     11  C   UNL A   1      31.745  23.057  26.160  1.00  0.00     0.024 C 
ATOM     12  C   UNL A   1      30.305  22.932  26.701  1.00  0.00     0.019 C 
ATOM     13  C   UNL A   1      31.861  24.473  25.572  1.00  0.00     0.014 C 
ATOM     14  C   UNL A   1      31.975  21.931  25.129  1.00  0.00     0.144 C 
ATOM     15  C   UNL A   1      33.054  24.613  24.659  1.00  0.00     0.002 C 
ATOM     16  O   UNL A   1      31.548  20.792  25.362  1.00  0.00    -0.298 OA
ATOM     17  C   UNL A   1      32.875  23.650  23.505  1.00  0.00     0.014 C 
ATOM     18  C   UNL A   1      32.184  21.362  22.743  1.00  0.00     0.020 C 
ENDBRANCH   8   9
ENDBRANCH   7   8
ENDBRANCH   4   7
ENDBRANCH   2   3
ENDBRANCH   1   2
BRANCH   1  19
ATOM     19  C   UNL A   1      40.621  23.033  26.887  1.00  0.00     0.118 C 
BRANCH  19  20
ATOM     20  N   UNL A   1      41.205  23.992  25.971  1.00  0.00    -0.352 N 
ATOM     21  C   UNL A   1      41.484  25.335  26.058  1.00  0.00     0.251 C 
ATOM     22  H   UNL A   1      41.456  23.598  25.104  1.00  0.00     0.163 HD
ATOM     23  O   UNL A   1      41.805  25.895  25.008  1.00  0.00    -0.269 OA
BRANCH  21  24
ATOM     24  C   UNL A   1      41.417  26.146  27.313  1.00  0.00     0.039 A 
ATOM     25  C   UNL A   1      40.287  25.972  28.130  1.00  0.00     0.014 A 
ATOM     26  C   UNL A   1      42.327  27.143  27.667  1.00  0.00     0.014 A 
ATOM     27  C   UNL A   1      40.074  26.781  29.256  1.00  0.00     0.010 A 
ATOM     28  C   UNL A   1      42.170  27.877  28.853  1.00  0.00     0.010 A 
ATOM     29  C   UNL A   1      41.018  27.745  29.637  1.00  0.00    -0.014 A 
BRANCH  29  30
ATOM     30  C   UNL A   1      40.760  28.669  30.784  1.00  0.00     0.031 A 
ATOM     31  C   UNL A   1      41.609  28.590  32.036  1.00  0.00     0.074 A 
ATOM     32  C   UNL A   1      39.772  29.585  30.716  1.00  0.00     0.049 A 
ATOM     33  N   UNL A   1      41.540  29.308  33.131  1.00  0.00    -0.248 NA
ATOM     34  C   UNL A   1      42.655  27.556  32.073  1.00  0.00     0.031 C 
ATOM     35  C   UNL A   1      38.848  29.757  29.592  1.00  0.00     0.029 A 
ATOM     36  N   UNL A   1      39.385  30.555  31.609  1.00  0.00    -0.354 N 
ATOM     37  C   UNL A   1      42.512  28.798  33.986  1.00  0.00     0.074 A 
ATOM     38  C   UNL A   1      43.115  27.671  33.310  1.00  0.00     0.031 C 
ATOM     39  C   UNL A   1      38.037  30.798  29.843  1.00  0.00     0.029 A 
ATOM     40  C   UNL A   1      38.355  31.348  31.157  1.00  0.00     0.049 A 
ATOM     41  H   UNL A   1      39.807  30.673  32.491  1.00  0.00     0.167 HD
ATOM     42  C   UNL A   1      42.899  29.237  35.209  1.00  0.00     0.031 A 
ATOM     43  C   UNL A   1      37.741  32.405  31.726  1.00  0.00     0.031 A 
ATOM     44  C   UNL A   1      42.332  30.378  35.877  1.00  0.00     0.049 A 
ATOM     45  C   UNL A   1      38.198  32.887  33.077  1.00  0.00     0.074 A 
ATOM     46  C   UNL A   1      42.688  30.929  37.096  1.00  0.00     0.029 A 
ATOM     47  N   UNL A   1      41.299  31.154  35.375  1.00  0.00    -0.354 N 
ATOM     48  N   UNL A   1      39.151  32.414  33.844  1.00  0.00    -0.248 NA
ATOM     49  C   UNL A   1      37.505  34.060  33.631  1.00  0.00     0.031 C 
ATOM     50  C   UNL A   1      41.845  32.017  37.348  1.00  0.00     0.029 A 
ATOM     51  C   UNL A   1      40.997  32.172  36.264  1.00  0.00     0.049 A 
ATOM     52  H   UNL A   1      40.845  31.002  34.515  1.00  0.00     0.167 HD
ATOM     53  C   UNL A   1      39.189  33.247  34.957  1.00  0.00     0.074 A 
ATOM     54  C   UNL A   1      38.177  34.264  34.755  1.00  0.00     0.031 C 
ATOM     55  C   UNL A   1      39.989  33.178  36.050  1.00  0.00     0.031 A 
BRANCH  42  56
ATOM     56  C   UNL A   1      44.007  28.481  35.901  1.00  0.00    -0.014 A 
ATOM     57  C   UNL A   1      45.354  28.839  35.714  1.00  0.00     0.010 A 
ATOM     58  C   UNL A   1      43.698  27.418  36.769  1.00  0.00     0.010 A 
ATOM     59  C   UNL A   1      46.374  28.116  36.339  1.00  0.00     0.020 A 
ATOM     60  C   UNL A   1      44.714  26.710  37.421  1.00  0.00     0.020 A 
ATOM     61  C   UNL A   1      46.047  27.052  37.183  1.00  0.00     0.054 A 
BRANCH  61  62
ATOM     62  S   UNL A   1      47.392  26.136  37.987  1.00  0.00     0.124 S 
ATOM     63  O   UNL A   1      48.279  27.217  38.408  1.00  0.00    -0.237 OA
ATOM     64  O   UNL A   1      46.704  25.433  39.066  1.00  0.00    -0.237 OA
ATOM     65  O   UNL A   1      47.913  25.281  36.923  1.00  0.00    -0.744 OA
ENDBRANCH  61  62
ENDBRANCH  42  56
BRANCH  43  66
ATOM     66  C   UNL A   1      36.642  33.108  31.006  1.00  0.00    -0.014 A 
ATOM     67  C   UNL A   1      35.311  32.990  31.448  1.00  0.00     0.010 A 
ATOM     68  C   UNL A   1      36.918  33.890  29.871  1.00  0.00     0.010 A 
ATOM     69  C   UNL A   1      34.274  33.620  30.754  1.00  0.00     0.020 A 
ATOM     70  C   UNL A   1      35.886  34.544  29.190  1.00  0.00     0.020 A 
ATOM     71  C   UNL A   1      34.569  34.391  29.628  1.00  0.00     0.054 A 
BRANCH  71  72
ATOM     72  S   UNL A   1      33.213  35.232  28.761  1.00  0.00     0.124 S 
ATOM     73  O   UNL A   1      32.618  34.140  27.998  1.00  0.00    -0.237 OA
ATOM     74  O   UNL A   1      32.405  35.749  29.863  1.00  0.00    -0.237 OA
ATOM     75  O   UNL A   1      33.896  36.252  27.969  1.00  0.00    -0.744 OA
ENDBRANCH  71  72
ENDBRANCH  43  66
BRANCH  55  76
ATOM     76  C   UNL A   1      39.826  34.250  37.094  1.00  0.00    -0.014 A 
ATOM     77  C   UNL A   1      39.002  34.057  38.215  1.00  0.00     0.010 A 
ATOM     78  C   UNL A   1      40.535  35.459  36.963  1.00  0.00     0.010 A 
ATOM     79  C   UNL A   1      38.854  35.071  39.165  1.00  0.00     0.020 A 
ATOM     80  C   UNL A   1      40.410  36.464  37.924  1.00  0.00     0.020 A 
ATOM     81  C   UNL A   1      39.554  36.271  39.011  1.00  0.00     0.054 A 
BRANCH  81  82
ATOM     82  S   UNL A   1      39.362  37.566  40.266  1.00  0.00     0.124 S 
ATOM     83  O   UNL A   1      40.718  38.098  40.363  1.00  0.00    -0.237 OA
ATOM     84  O   UNL A   1      38.379  38.460  39.659  1.00  0.00    -0.237 OA
ATOM     85  O   UNL A   1      38.891  36.839  41.443  1.00  0.00    -0.744 OA
ENDBRANCH  81  82
ENDBRANCH  55  76
ENDBRANCH  29  30
ENDBRANCH  21  24
ENDBRANCH  19  20
ENDBRANCH   1  19
TORSDOF 15
ENDMDL
MODEL 3
REMARK VINA RESULT:     -10.8      5.289      9.897
REMARK SMILES CC1(C)CCC[C@@](C)(CCC(=O)NCCCNC(=O)c2ccc(-c3c4nc(c(-c5ccc(S(=O)(=O)[O-])cc5)c5ccc([nH]5)c(-c5ccc(S(=O)(=O)[O-])cc5)c5nc(c(-c6ccc(S(=O)(=O)[O-])cc6)c6ccc3[nH]6)C=C5)C=C4)cc2)C1=O
REMARK SMILES IDX 15 1 14 2 13 3 11 4 12 5 10 7 9 8 7 9 1 10 2 11 3 12 4 13
REMARK SMILES IDX 80 14 5 15 81 16 6 17 8 18 16 19 17 20 18 21 19 23 20 24
REMARK SMILES IDX 21 25 79 26 22 27 78 28 23 29 24 30 25 31 72 32 26 33 77 34
REMARK SMILES IDX 71 35 73 36 27 37 76 38 70 39 69 40 28 42 58 43 39 44 57 45
REMARK SMILES IDX 40 46 43 47 56 48 74 49 41 50 42 51 55 53 75 54 44 55 29 56
REMARK SMILES IDX 30 57 38 58 31 59 37 60 32 61 33 62 34 63 35 64 36 65 59 66
REMARK SMILES IDX 60 67 68 68 61 69 67 70 62 71 63 72 64 73 65 74 66 75 45 76
REMARK SMILES IDX 46 77 54 78 47 79 53 80 48 81 49 82 50 83 51 84 52 85
REMARK H PARENT 13 6 17 22 73 41 43 52
REMARK Flexibility Score: inf
ROOT
ATOM      1  C   UNL A   1      38.292  24.086  26.448  1.00  0.00     0.042 C 
ENDROOT
BRANCH   1   2
ATOM      2  C   UNL A   1      37.904  22.787  25.726  1.00  0.00     0.117 C 
BRANCH   2   3
ATOM      3  N   UNL A   1      37.554  23.017  24.325  1.00  0.00    -0.356 N 
ATOM      4  C   UNL A   1      36.421  22.739  23.610  1.00  0.00     0.220 C 
ATOM      5  O   UNL A   1      36.457  22.915  22.391  1.00  0.00    -0.275 OA
ATOM      6  H   UNL A   1      38.264  23.452  23.800  1.00  0.00     0.163 HD
BRANCH   4   7
ATOM      7  C   UNL A   1      35.142  22.253  24.281  1.00  0.00     0.101 C 
BRANCH   7   8
ATOM      8  C   UNL A   1      33.867  23.092  24.006  1.00  0.00     0.024 C 
BRANCH   8   9
ATOM      9  C   UNL A   1      33.443  24.126  25.094  1.00  0.00     0.027 C 
ATOM     10  C   UNL A   1      30.423  24.405  23.363  1.00  0.00     0.019 C 
ATOM     11  C   UNL A   1      30.960  25.052  24.654  1.00  0.00     0.024 C 
ATOM     12  C   UNL A   1      30.362  26.465  24.822  1.00  0.00     0.019 C 
ATOM     13  C   UNL A   1      30.529  24.252  25.893  1.00  0.00     0.014 C 
ATOM     14  C   UNL A   1      32.491  25.189  24.499  1.00  0.00     0.144 C 
ATOM     15  C   UNL A   1      31.350  23.000  26.075  1.00  0.00     0.002 C 
ATOM     16  O   UNL A   1      32.955  26.096  23.795  1.00  0.00    -0.298 OA
ATOM     17  C   UNL A   1      32.792  23.413  26.277  1.00  0.00     0.014 C 
ATOM     18  C   UNL A   1      34.682  24.911  25.585  1.00  0.00     0.020 C 
ENDBRANCH   8   9
ENDBRANCH   7   8
ENDBRANCH   4   7
ENDBRANCH   2   3
ENDBRANCH   1   2
BRANCH   1  19
ATOM     19  C   UNL A   1      39.748  24.176  26.881  1.00  0.00     0.118 C 
BRANCH  19  20
ATOM     20  N   UNL A   1      40.479  25.176  26.128  1.00  0.00    -0.352 N 
ATOM     21  C   UNL A   1      40.750  26.507  26.339  1.00  0.00     0.251 C 
ATOM     22  H   UNL A   1      40.861  24.829  25.291  1.00  0.00     0.163 HD
ATOM     23  O   UNL A   1      41.239  27.121  25.388  1.00  0.00    -0.269 OA
BRANCH  21  24
ATOM     24  C   UNL A   1      40.490  27.245  27.613  1.00  0.00     0.039 A 
ATOM     25  C   UNL A   1      41.033  28.536  27.731  1.00  0.00     0.014 A 
ATOM     26  C   UNL A   1      39.856  26.704  28.733  1.00  0.00     0.014 A 
ATOM     27  C   UNL A   1      40.952  29.251  28.934  1.00  0.00     0.010 A 
ATOM     28  C   UNL A   1      39.680  27.461  29.901  1.00  0.00     0.010 A 
ATOM     29  C   UNL A   1      40.269  28.724  30.039  1.00  0.00    -0.014 A 
BRANCH  29  30
ATOM     30  C   UNL A   1      40.252  29.440  31.351  1.00  0.00     0.031 A 
ATOM     31  C   UNL A   1      41.351  29.203  32.366  1.00  0.00     0.074 A 
ATOM     32  C   UNL A   1      39.261  30.306  31.645  1.00  0.00     0.049 A 
ATOM     33  N   UNL A   1      41.509  29.733  33.556  1.00  0.00    -0.248 NA
ATOM     34  C   UNL A   1      42.394  28.227  32.011  1.00  0.00     0.031 C 
ATOM     35  C   UNL A   1      38.115  30.611  30.785  1.00  0.00     0.029 A 
ATOM     36  N   UNL A   1      39.063  31.102  32.749  1.00  0.00    -0.354 N 
ATOM     37  C   UNL A   1      42.649  29.139  34.090  1.00  0.00     0.074 A 
ATOM     38  C   UNL A   1      43.107  28.165  33.125  1.00  0.00     0.031 C 
ATOM     39  C   UNL A   1      37.363  31.559  31.370  1.00  0.00     0.029 A 
ATOM     40  C   UNL A   1      37.949  31.906  32.661  1.00  0.00     0.049 A 
ATOM     41  H   UNL A   1      39.662  31.097  33.530  1.00  0.00     0.167 HD
ATOM     42  C   UNL A   1      43.284  29.396  35.260  1.00  0.00     0.031 A 
ATOM     43  C   UNL A   1      37.459  32.828  33.514  1.00  0.00     0.031 A 
ATOM     44  C   UNL A   1      42.859  30.386  36.213  1.00  0.00     0.049 A 
ATOM     45  C   UNL A   1      38.189  33.109  34.800  1.00  0.00     0.074 A 
ATOM     46  C   UNL A   1      43.462  30.752  37.404  1.00  0.00     0.029 A 
ATOM     47  N   UNL A   1      41.733  31.182  36.075  1.00  0.00    -0.354 N 
ATOM     48  N   UNL A   1      39.290  32.566  35.260  1.00  0.00    -0.248 NA
ATOM     49  C   UNL A   1      37.616  34.144  35.674  1.00  0.00     0.031 C 
ATOM     50  C   UNL A   1      42.679  31.745  38.005  1.00  0.00     0.029 A 
ATOM     51  C   UNL A   1      41.616  32.030  37.164  1.00  0.00     0.049 A 
ATOM     52  H   UNL A   1      41.107  31.148  35.316  1.00  0.00     0.167 HD
ATOM     53  C   UNL A   1      39.556  33.211  36.463  1.00  0.00     0.074 A 
ATOM     54  C   UNL A   1      38.512  34.198  36.650  1.00  0.00     0.031 C 
ATOM     55  C   UNL A   1      40.573  33.007  37.336  1.00  0.00     0.031 A 
BRANCH  42  56
ATOM     56  C   UNL A   1      44.524  28.593  35.569  1.00  0.00    -0.014 A 
ATOM     57  C   UNL A   1      44.440  27.365  36.250  1.00  0.00     0.010 A 
ATOM     58  C   UNL A   1      45.785  29.056  35.151  1.00  0.00     0.010 A 
ATOM     59  C   UNL A   1      45.597  26.641  36.554  1.00  0.00     0.020 A 
ATOM     60  C   UNL A   1      46.943  28.321  35.427  1.00  0.00     0.020 A 
ATOM     61  C   UNL A   1      46.842  27.128  36.146  1.00  0.00     0.054 A 
BRANCH  61  62
ATOM     62  S   UNL A   1      48.325  26.163  36.548  1.00  0.00     0.124 S 
ATOM     63  O   UNL A   1      48.951  26.991  37.576  1.00  0.00    -0.237 OA
ATOM     64  O   UNL A   1      47.771  24.896  37.014  1.00  0.00    -0.237 OA
ATOM     65  O   UNL A   1      49.048  26.095  35.279  1.00  0.00    -0.744 OA
ENDBRANCH  61  62
ENDBRANCH  42  56
BRANCH  43  66
ATOM     66  C   UNL A   1      36.222  33.583  33.168  1.00  0.00    -0.014 A 
ATOM     67  C   UNL A   1      36.306  34.841  32.543  1.00  0.00     0.010 A 
ATOM     68  C   UNL A   1      34.955  33.054  33.469  1.00  0.00     0.010 A 
ATOM     69  C   UNL A   1      35.148  35.567  32.249  1.00  0.00     0.020 A 
ATOM     70  C   UNL A   1      33.793  33.765  33.152  1.00  0.00     0.020 A 
ATOM     71  C   UNL A   1      33.898  35.024  32.558  1.00  0.00     0.054 A 
BRANCH  71  72
ATOM     72  S   UNL A   1      32.404  35.965  32.135  1.00  0.00     0.124 S 
ATOM     73  O   UNL A   1      31.344  35.043  32.530  1.00  0.00    -0.237 OA
ATOM     74  O   UNL A   1      32.541  37.164  32.960  1.00  0.00    -0.237 OA
ATOM     75  O   UNL A   1      32.539  36.189  30.698  1.00  0.00    -0.744 OA
ENDBRANCH  71  72
ENDBRANCH  43  66
BRANCH  55  76
ATOM     76  C   UNL A   1      40.625  33.890  38.555  1.00  0.00    -0.014 A 
ATOM     77  C   UNL A   1      41.245  35.150  38.516  1.00  0.00     0.010 A 
ATOM     78  C   UNL A   1      40.015  33.461  39.748  1.00  0.00     0.010 A 
ATOM     79  C   UNL A   1      41.294  35.948  39.663  1.00  0.00     0.020 A 
ATOM     80  C   UNL A   1      40.040  34.267  40.889  1.00  0.00     0.020 A 
ATOM     81  C   UNL A   1      40.696  35.499  40.844  1.00  0.00     0.054 A 
BRANCH  81  82
ATOM     82  S   UNL A   1      40.755  36.559  42.314  1.00  0.00     0.124 S 
ATOM     83  O   UNL A   1      41.534  35.747  43.243  1.00  0.00    -0.237 OA
ATOM     84  O   UNL A   1      41.422  37.761  41.819  1.00  0.00    -0.237 OA
ATOM     85  O   UNL A   1      39.348  36.736  42.669  1.00  0.00    -0.744 OA
ENDBRANCH  81  82
ENDBRANCH  55  76
ENDBRANCH  29  30
ENDBRANCH  21  24
ENDBRANCH  19  20
ENDBRANCH   1  19
TORSDOF 15
ENDMDL
