MODEL 1
REMARK VINA RESULT:     -11.7      0.000      0.000
REMARK SMILES O=C(NCCCNC(=O)c1cccc(S(=O)(=O)Cc2cccc(O)c2)c1)c1ccc(-c2c3nc(c(-c4ccc(S(=O)(=O)[O-])cc4)c4ccc([nH]4)c(-c4ccc(S(=O)(=O)[O-])cc4)c4nc(c(-c5ccc(S(=O)(=O)[O-])cc5)c5ccc2[nH]5)C=C4)C=C3)cc1
REMARK SMILES IDX 5 1 4 2 3 3 1 4 2 5 27 7 28 8 86 9 29 10 85 11 30 12 31 13
REMARK SMILES IDX 32 14 79 15 33 16 84 17 78 18 80 19 34 20 83 21 77 22 76 23
REMARK SMILES IDX 35 25 65 26 46 27 64 28 47 29 50 30 63 31 81 32 48 33 49 34
REMARK SMILES IDX 62 36 82 37 51 38 36 39 37 40 45 41 38 42 44 43 39 44 40 45
REMARK SMILES IDX 41 46 42 47 43 48 66 49 67 50 75 51 68 52 74 53 69 54 70 55
REMARK SMILES IDX 71 56 72 57 73 58 52 59 53 60 61 61 54 62 60 63 55 64 56 65
REMARK SMILES IDX 57 66 58 67 59 68 6 69 7 70 8 71 9 73 10 74 11 75 26 76
REMARK SMILES IDX 12 77 14 78 13 79 15 80 16 81 17 82 18 83 19 84 20 85 25 86
REMARK SMILES IDX 21 87 23 88 22 89 24 90
REMARK H PARENT 3 6 80 24 50 35 7 72 24 91
REMARK Flexibility Score: inf
ROOT
ATOM      1  C   UNL A   1      35.622  23.794  25.833  1.00  0.00     0.042 C 
ENDROOT
BRANCH   1   2
ATOM      2  C   UNL A   1      36.852  23.631  24.952  1.00  0.00     0.118 C 
BRANCH   2   3
ATOM      3  N   UNL A   1      37.815  22.671  25.470  1.00  0.00    -0.352 N 
ATOM      4  O   UNL A   1      39.635  21.799  26.425  1.00  0.00    -0.269 OA
ATOM      5  C   UNL A   1      38.948  22.802  26.235  1.00  0.00     0.251 C 
ATOM      6  H   UNL A   1      37.613  21.739  25.222  1.00  0.00     0.163 HD
BRANCH   5   7
ATOM      7  C   UNL A   1      39.386  24.100  26.810  1.00  0.00     0.039 A 
ATOM      8  C   UNL A   1      40.005  25.093  26.051  1.00  0.00     0.014 A 
ATOM      9  C   UNL A   1      39.098  24.364  28.157  1.00  0.00     0.014 A 
ATOM     10  C   UNL A   1      40.484  26.253  26.660  1.00  0.00     0.010 A 
ATOM     11  C   UNL A   1      39.484  25.576  28.744  1.00  0.00     0.010 A 
ATOM     12  C   UNL A   1      40.219  26.517  28.011  1.00  0.00    -0.014 A 
BRANCH  12  13
ATOM     13  C   UNL A   1      40.677  27.795  28.626  1.00  0.00     0.031 A 
ATOM     14  C   UNL A   1      42.096  27.957  29.105  1.00  0.00     0.074 A 
ATOM     15  C   UNL A   1      39.811  28.821  28.750  1.00  0.00     0.049 A 
ATOM     16  N   UNL A   1      42.656  28.987  29.690  1.00  0.00    -0.248 NA
ATOM     17  C   UNL A   1      43.001  26.815  28.911  1.00  0.00     0.031 C 
ATOM     18  C   UNL A   1      38.408  28.798  28.329  1.00  0.00     0.029 A 
ATOM     19  N   UNL A   1      39.981  30.085  29.257  1.00  0.00    -0.354 N 
ATOM     20  C   UNL A   1      43.965  28.607  29.961  1.00  0.00     0.074 A 
ATOM     21  C   UNL A   1      44.111  27.245  29.495  1.00  0.00     0.031 C 
ATOM     22  C   UNL A   1      37.859  29.999  28.558  1.00  0.00     0.029 A 
ATOM     23  C   UNL A   1      38.845  30.857  29.206  1.00  0.00     0.049 A 
ATOM     24  H   UNL A   1      40.837  30.408  29.623  1.00  0.00     0.167 HD
ATOM     25  C   UNL A   1      44.957  29.325  30.544  1.00  0.00     0.031 A 
ATOM     26  C   UNL A   1      38.604  32.106  29.651  1.00  0.00     0.031 A 
ATOM     27  C   UNL A   1      44.812  30.681  31.007  1.00  0.00     0.049 A 
ATOM     28  C   UNL A   1      39.708  32.876  30.314  1.00  0.00     0.074 A 
ATOM     29  C   UNL A   1      45.766  31.499  31.585  1.00  0.00     0.029 A 
ATOM     30  N   UNL A   1      43.638  31.417  30.948  1.00  0.00    -0.354 N 
ATOM     31  N   UNL A   1      40.946  32.504  30.541  1.00  0.00    -0.248 NA
ATOM     32  C   UNL A   1      39.387  34.231  30.782  1.00  0.00     0.031 C 
ATOM     33  C   UNL A   1      45.157  32.713  31.922  1.00  0.00     0.029 A 
ATOM     34  C   UNL A   1      43.837  32.672  31.499  1.00  0.00     0.049 A 
ATOM     35  H   UNL A   1      42.787  31.095  30.571  1.00  0.00     0.167 HD
ATOM     36  C   UNL A   1      41.557  33.587  31.160  1.00  0.00     0.074 A 
ATOM     37  C   UNL A   1      40.557  34.631  31.263  1.00  0.00     0.031 C 
ATOM     38  C   UNL A   1      42.835  33.704  31.597  1.00  0.00     0.031 A 
BRANCH  25  39
ATOM     39  C   UNL A   1      46.281  28.635  30.750  1.00  0.00    -0.014 A 
ATOM     40  C   UNL A   1      46.563  27.925  31.931  1.00  0.00     0.010 A 
ATOM     41  C   UNL A   1      47.257  28.688  29.737  1.00  0.00     0.010 A 
ATOM     42  C   UNL A   1      47.814  27.333  32.120  1.00  0.00     0.020 A 
ATOM     43  C   UNL A   1      48.500  28.074  29.911  1.00  0.00     0.020 A 
ATOM     44  C   UNL A   1      48.780  27.422  31.113  1.00  0.00     0.054 A 
BRANCH  44  45
ATOM     45  S   UNL A   1      50.404  26.662  31.389  1.00  0.00     0.124 S 
ATOM     46  O   UNL A   1      50.737  27.147  32.727  1.00  0.00    -0.237 OA
ATOM     47  O   UNL A   1      50.112  25.233  31.297  1.00  0.00    -0.237 OA
ATOM     48  O   UNL A   1      51.226  27.198  30.309  1.00  0.00    -0.744 OA
ENDBRANCH  44  45
ENDBRANCH  25  39
BRANCH  26  49
ATOM     49  C   UNL A   1      37.245  32.686  29.482  1.00  0.00    -0.014 A 
ATOM     50  C   UNL A   1      36.335  32.702  30.552  1.00  0.00     0.010 A 
ATOM     51  C   UNL A   1      36.885  33.296  28.266  1.00  0.00     0.010 A 
ATOM     52  C   UNL A   1      35.091  33.326  30.412  1.00  0.00     0.020 A 
ATOM     53  C   UNL A   1      35.654  33.943  28.131  1.00  0.00     0.020 A 
ATOM     54  C   UNL A   1      34.763  33.951  29.205  1.00  0.00     0.054 A 
BRANCH  54  55
ATOM     55  S   UNL A   1      33.187  34.841  29.079  1.00  0.00     0.124 S 
ATOM     56  O   UNL A   1      32.690  34.775  30.450  1.00  0.00    -0.237 OA
ATOM     57  O   UNL A   1      33.606  36.163  28.621  1.00  0.00    -0.237 OA
ATOM     58  O   UNL A   1      32.432  34.063  28.100  1.00  0.00    -0.744 OA
ENDBRANCH  54  55
ENDBRANCH  26  49
BRANCH  38  59
ATOM     59  C   UNL A   1      43.248  35.021  32.195  1.00  0.00    -0.014 A 
ATOM     60  C   UNL A   1      43.857  36.018  31.416  1.00  0.00     0.010 A 
ATOM     61  C   UNL A   1      42.950  35.289  33.544  1.00  0.00     0.010 A 
ATOM     62  C   UNL A   1      44.175  37.258  31.979  1.00  0.00     0.020 A 
ATOM     63  C   UNL A   1      43.245  36.534  34.105  1.00  0.00     0.020 A 
ATOM     64  C   UNL A   1      43.864  37.508  33.320  1.00  0.00     0.054 A 
BRANCH  64  65
ATOM     65  S   UNL A   1      44.224  39.146  34.011  1.00  0.00     0.124 S 
ATOM     66  O   UNL A   1      45.175  39.683  33.041  1.00  0.00    -0.237 OA
ATOM     67  O   UNL A   1      42.911  39.787  34.023  1.00  0.00    -0.237 OA
ATOM     68  O   UNL A   1      44.778  38.852  35.330  1.00  0.00    -0.744 OA
ENDBRANCH  64  65
ENDBRANCH  38  59
ENDBRANCH  12  13
ENDBRANCH   5   7
ENDBRANCH   2   3
ENDBRANCH   1   2
BRANCH   1  69
ATOM     69  C   UNL A   1      34.524  22.766  25.593  1.00  0.00     0.118 C 
BRANCH  69  70
ATOM     70  N   UNL A   1      33.519  22.714  26.643  1.00  0.00    -0.352 N 
ATOM     71  C   UNL A   1      32.309  23.362  26.693  1.00  0.00     0.251 C 
ATOM     72  H   UNL A   1      33.733  22.142  27.415  1.00  0.00     0.163 HD
ATOM     73  O   UNL A   1      31.577  23.265  27.672  1.00  0.00    -0.269 OA
BRANCH  71  74
ATOM     74  C   UNL A   1      31.899  24.213  25.557  1.00  0.00     0.041 A 
ATOM     75  C   UNL A   1      31.129  23.633  24.544  1.00  0.00     0.014 A 
ATOM     76  C   UNL A   1      32.257  25.566  25.509  1.00  0.00     0.034 A 
ATOM     77  C   UNL A   1      30.666  24.422  23.492  1.00  0.00     0.002 A 
ATOM     78  C   UNL A   1      31.763  26.354  24.465  1.00  0.00     0.068 A 
ATOM     79  C   UNL A   1      30.970  25.785  23.460  1.00  0.00     0.020 A 
BRANCH  78  80
ATOM     80  S   UNL A   1      32.080  28.107  24.371  1.00  0.00     0.182 S 
ATOM     81  O   UNL A   1      31.455  28.654  25.565  1.00  0.00    -0.223 OA
ATOM     82  O   UNL A   1      33.506  28.269  24.164  1.00  0.00    -0.223 OA
BRANCH  80  83
ATOM     83  C   UNL A   1      31.221  28.793  22.977  1.00  0.00     0.177 C 
BRANCH  83  84
ATOM     84  C   UNL A   1      29.878  29.426  23.262  1.00  0.00    -0.029 A 
ATOM     85  C   UNL A   1      29.712  30.774  23.602  1.00  0.00     0.005 A 
ATOM     86  C   UNL A   1      28.715  28.663  23.039  1.00  0.00     0.051 A 
ATOM     87  C   UNL A   1      28.443  31.360  23.663  1.00  0.00     0.004 A 
ATOM     88  C   UNL A   1      27.452  29.249  23.132  1.00  0.00     0.115 A 
ATOM     89  C   UNL A   1      27.310  30.598  23.414  1.00  0.00     0.046 A 
BRANCH  88  90
ATOM     90  O   UNL A   1      26.316  28.522  22.937  1.00  0.00    -0.508 OA
ATOM     91  H   UNL A   1      25.809  28.645  22.160  1.00  0.00     0.293 HD
ENDBRANCH  88  90
ENDBRANCH  83  84
ENDBRANCH  80  83
ENDBRANCH  78  80
ENDBRANCH  71  74
ENDBRANCH  69  70
ENDBRANCH   1  69
TORSDOF 17
ENDMDL
MODEL 2
REMARK VINA RESULT:     -11.7      3.169      9.671
REMARK SMILES O=C(NCCCNC(=O)c1cccc(S(=O)(=O)Cc2cccc(O)c2)c1)c1ccc(-c2c3nc(c(-c4ccc(S(=O)(=O)[O-])cc4)c4ccc([nH]4)c(-c4ccc(S(=O)(=O)[O-])cc4)c4nc(c(-c5ccc(S(=O)(=O)[O-])cc5)c5ccc2[nH]5)C=C4)C=C3)cc1
REMARK SMILES IDX 5 1 4 2 3 3 1 4 2 5 27 7 28 8 86 9 29 10 85 11 30 12 31 13
REMARK SMILES IDX 32 14 79 15 33 16 84 17 78 18 80 19 34 20 83 21 77 22 76 23
REMARK SMILES IDX 35 25 65 26 46 27 64 28 47 29 50 30 63 31 81 32 48 33 49 34
REMARK SMILES IDX 62 36 82 37 51 38 36 39 37 40 45 41 38 42 44 43 39 44 40 45
REMARK SMILES IDX 41 46 42 47 43 48 66 49 67 50 75 51 68 52 74 53 69 54 70 55
REMARK SMILES IDX 71 56 72 57 73 58 52 59 53 60 61 61 54 62 60 63 55 64 56 65
REMARK SMILES IDX 57 66 58 67 59 68 6 69 7 70 8 71 9 73 10 74 11 75 26 76
REMARK SMILES IDX 12 77 14 78 13 79 15 80 16 81 17 82 18 83 19 84 20 85 25 86
REMARK SMILES IDX 21 87 23 88 22 89 24 90
REMARK H PARENT 3 6 80 24 50 35 7 72 24 91
REMARK Flexibility Score: inf
ROOT
ATOM      1  C   UNL A   1      32.190  27.354  26.844  1.00  0.00     0.042 C 
ENDROOT
BRANCH   1   2
ATOM      2  C   UNL A   1      33.512  28.109  26.875  1.00  0.00     0.118 C 
BRANCH   2   3
ATOM      3  N   UNL A   1      33.379  29.497  27.292  1.00  0.00    -0.352 N 
ATOM      4  O   UNL A   1      33.804  31.477  28.230  1.00  0.00    -0.269 OA
ATOM      5  C   UNL A   1      34.246  30.382  27.886  1.00  0.00     0.251 C 
ATOM      6  H   UNL A   1      32.489  29.878  27.113  1.00  0.00     0.163 HD
BRANCH   5   7
ATOM      7  C   UNL A   1      35.671  30.058  28.153  1.00  0.00     0.039 A 
ATOM      8  C   UNL A   1      36.680  30.252  27.210  1.00  0.00     0.014 A 
ATOM      9  C   UNL A   1      36.023  29.607  29.433  1.00  0.00     0.014 A 
ATOM     10  C   UNL A   1      37.986  29.840  27.478  1.00  0.00     0.010 A 
ATOM     11  C   UNL A   1      37.355  29.296  29.737  1.00  0.00     0.010 A 
ATOM     12  C   UNL A   1      38.345  29.369  28.748  1.00  0.00    -0.014 A 
BRANCH  12  13
ATOM     13  C   UNL A   1      39.760  29.002  29.037  1.00  0.00     0.031 A 
ATOM     14  C   UNL A   1      40.693  29.983  29.698  1.00  0.00     0.074 A 
ATOM     15  C   UNL A   1      40.209  27.774  28.708  1.00  0.00     0.049 A 
ATOM     16  N   UNL A   1      41.961  29.841  29.996  1.00  0.00    -0.248 NA
ATOM     17  C   UNL A   1      40.136  31.293  30.064  1.00  0.00     0.031 C 
ATOM     18  C   UNL A   1      39.411  26.728  28.062  1.00  0.00     0.029 A 
ATOM     19  N   UNL A   1      41.440  27.191  28.876  1.00  0.00    -0.354 N 
ATOM     20  C   UNL A   1      42.360  31.050  30.553  1.00  0.00     0.074 A 
ATOM     21  C   UNL A   1      41.204  31.921  30.535  1.00  0.00     0.031 C 
ATOM     22  C   UNL A   1      40.159  25.624  27.926  1.00  0.00     0.029 A 
ATOM     23  C   UNL A   1      41.508  25.901  28.406  1.00  0.00     0.049 A 
ATOM     24  H   UNL A   1      42.203  27.654  29.293  1.00  0.00     0.167 HD
ATOM     25  C   UNL A   1      43.575  31.405  31.039  1.00  0.00     0.031 A 
ATOM     26  C   UNL A   1      42.540  25.037  28.342  1.00  0.00     0.031 A 
ATOM     27  C   UNL A   1      44.725  30.537  31.058  1.00  0.00     0.049 A 
ATOM     28  C   UNL A   1      43.883  25.457  28.862  1.00  0.00     0.074 A 
ATOM     29  C   UNL A   1      45.990  30.798  31.554  1.00  0.00     0.029 A 
ATOM     30  N   UNL A   1      44.750  29.244  30.558  1.00  0.00    -0.354 N 
ATOM     31  N   UNL A   1      44.232  26.599  29.405  1.00  0.00    -0.248 NA
ATOM     32  C   UNL A   1      44.972  24.475  28.762  1.00  0.00     0.031 C 
ATOM     33  C   UNL A   1      46.796  29.680  31.309  1.00  0.00     0.029 A 
ATOM     34  C   UNL A   1      46.015  28.701  30.713  1.00  0.00     0.049 A 
ATOM     35  H   UNL A   1      43.983  28.780  30.152  1.00  0.00     0.167 HD
ATOM     36  C   UNL A   1      45.576  26.466  29.731  1.00  0.00     0.074 A 
ATOM     37  C   UNL A   1      45.975  25.131  29.333  1.00  0.00     0.031 C 
ATOM     38  C   UNL A   1      46.402  27.370  30.313  1.00  0.00     0.031 A 
BRANCH  25  39
ATOM     39  C   UNL A   1      43.731  32.813  31.552  1.00  0.00    -0.014 A 
ATOM     40  C   UNL A   1      43.468  33.138  32.895  1.00  0.00     0.010 A 
ATOM     41  C   UNL A   1      44.162  33.827  30.678  1.00  0.00     0.010 A 
ATOM     42  C   UNL A   1      43.574  34.459  33.339  1.00  0.00     0.020 A 
ATOM     43  C   UNL A   1      44.297  35.145  31.123  1.00  0.00     0.020 A 
ATOM     44  C   UNL A   1      43.977  35.457  32.445  1.00  0.00     0.054 A 
BRANCH  44  45
ATOM     45  S   UNL A   1      44.089  37.168  33.039  1.00  0.00     0.124 S 
ATOM     46  O   UNL A   1      43.896  37.925  31.804  1.00  0.00    -0.237 OA
ATOM     47  O   UNL A   1      42.993  37.249  34.000  1.00  0.00    -0.237 OA
ATOM     48  O   UNL A   1      45.428  37.247  33.616  1.00  0.00    -0.744 OA
ENDBRANCH  44  45
ENDBRANCH  25  39
BRANCH  26  49
ATOM     49  C   UNL A   1      42.324  23.692  27.744  1.00  0.00    -0.014 A 
ATOM     50  C   UNL A   1      42.621  23.452  26.392  1.00  0.00     0.010 A 
ATOM     51  C   UNL A   1      41.890  22.624  28.551  1.00  0.00     0.010 A 
ATOM     52  C   UNL A   1      42.496  22.165  25.860  1.00  0.00     0.020 A 
ATOM     53  C   UNL A   1      41.790  21.332  28.030  1.00  0.00     0.020 A 
ATOM     54  C   UNL A   1      42.091  21.111  26.685  1.00  0.00     0.054 A 
BRANCH  54  55
ATOM     55  S   UNL A   1      42.035  19.433  25.999  1.00  0.00     0.124 S 
ATOM     56  O   UNL A   1      42.907  19.551  24.835  1.00  0.00    -0.237 OA
ATOM     57  O   UNL A   1      42.554  18.624  27.099  1.00  0.00    -0.237 OA
ATOM     58  O   UNL A   1      40.618  19.231  25.704  1.00  0.00    -0.744 OA
ENDBRANCH  54  55
ENDBRANCH  26  49
BRANCH  38  59
ATOM     59  C   UNL A   1      47.815  26.941  30.596  1.00  0.00    -0.014 A 
ATOM     60  C   UNL A   1      48.868  27.281  29.730  1.00  0.00     0.010 A 
ATOM     61  C   UNL A   1      48.101  26.251  31.789  1.00  0.00     0.010 A 
ATOM     62  C   UNL A   1      50.183  26.925  30.045  1.00  0.00     0.020 A 
ATOM     63  C   UNL A   1      49.416  25.914  32.118  1.00  0.00     0.020 A 
ATOM     64  C   UNL A   1      50.448  26.246  31.239  1.00  0.00     0.054 A 
BRANCH  64  65
ATOM     65  S   UNL A   1      52.169  25.855  31.661  1.00  0.00     0.124 S 
ATOM     66  O   UNL A   1      52.837  25.994  30.370  1.00  0.00    -0.237 OA
ATOM     67  O   UNL A   1      52.499  26.877  32.652  1.00  0.00    -0.237 OA
ATOM     68  O   UNL A   1      52.096  24.492  32.182  1.00  0.00    -0.744 OA
ENDBRANCH  64  65
ENDBRANCH  38  59
ENDBRANCH  12  13
ENDBRANCH   5   7
ENDBRANCH   2   3
ENDBRANCH   1   2
BRANCH   1  69
ATOM     69  C   UNL A   1      31.422  27.464  25.535  1.00  0.00     0.118 C 
BRANCH  69  70
ATOM     70  N   UNL A   1      32.262  27.688  24.369  1.00  0.00    -0.352 N 
ATOM     71  C   UNL A   1      32.789  26.756  23.509  1.00  0.00     0.251 C 
ATOM     72  H   UNL A   1      32.481  28.628  24.171  1.00  0.00     0.163 HD
ATOM     73  O   UNL A   1      33.528  27.088  22.589  1.00  0.00    -0.269 OA
BRANCH  71  74
ATOM     74  C   UNL A   1      32.479  25.326  23.717  1.00  0.00     0.041 A 
ATOM     75  C   UNL A   1      31.288  24.826  23.182  1.00  0.00     0.014 A 
ATOM     76  C   UNL A   1      33.365  24.495  24.415  1.00  0.00     0.034 A 
ATOM     77  C   UNL A   1      30.997  23.468  23.299  1.00  0.00     0.002 A 
ATOM     78  C   UNL A   1      33.077  23.130  24.501  1.00  0.00     0.068 A 
ATOM     79  C   UNL A   1      31.897  22.618  23.945  1.00  0.00     0.020 A 
BRANCH  78  80
ATOM     80  S   UNL A   1      34.190  21.975  25.279  1.00  0.00     0.182 S 
ATOM     81  O   UNL A   1      35.183  21.680  24.257  1.00  0.00    -0.223 OA
ATOM     82  O   UNL A   1      34.603  22.567  26.538  1.00  0.00    -0.223 OA
BRANCH  80  83
ATOM     83  C   UNL A   1      33.332  20.457  25.619  1.00  0.00     0.177 C 
BRANCH  83  84
ATOM     84  C   UNL A   1      33.573  19.320  24.652  1.00  0.00    -0.029 A 
ATOM     85  C   UNL A   1      34.620  18.400  24.782  1.00  0.00     0.005 A 
ATOM     86  C   UNL A   1      32.617  19.081  23.646  1.00  0.00     0.051 A 
ATOM     87  C   UNL A   1      34.687  17.255  23.981  1.00  0.00     0.004 A 
ATOM     88  C   UNL A   1      32.708  17.951  22.833  1.00  0.00     0.115 A 
ATOM     89  C   UNL A   1      33.720  17.022  23.012  1.00  0.00     0.046 A 
BRANCH  88  90
ATOM     90  O   UNL A   1      31.802  17.714  21.843  1.00  0.00    -0.508 OA
ATOM     91  H   UNL A   1      32.015  17.920  20.954  1.00  0.00     0.293 HD
ENDBRANCH  88  90
ENDBRANCH  83  84
ENDBRANCH  80  83
ENDBRANCH  78  80
ENDBRANCH  71  74
ENDBRANCH  69  70
ENDBRANCH   1  69
TORSDOF 17
ENDMDL
MODEL 3
REMARK VINA RESULT:     -11.3      4.191     10.482
REMARK SMILES O=C(NCCCNC(=O)c1cccc(S(=O)(=O)Cc2cccc(O)c2)c1)c1ccc(-c2c3nc(c(-c4ccc(S(=O)(=O)[O-])cc4)c4ccc([nH]4)c(-c4ccc(S(=O)(=O)[O-])cc4)c4nc(c(-c5ccc(S(=O)(=O)[O-])cc5)c5ccc2[nH]5)C=C4)C=C3)cc1
REMARK SMILES IDX 5 1 4 2 3 3 1 4 2 5 27 7 28 8 86 9 29 10 85 11 30 12 31 13
REMARK SMILES IDX 32 14 79 15 33 16 84 17 78 18 80 19 34 20 83 21 77 22 76 23
REMARK SMILES IDX 35 25 65 26 46 27 64 28 47 29 50 30 63 31 81 32 48 33 49 34
REMARK SMILES IDX 62 36 82 37 51 38 36 39 37 40 45 41 38 42 44 43 39 44 40 45
REMARK SMILES IDX 41 46 42 47 43 48 66 49 67 50 75 51 68 52 74 53 69 54 70 55
REMARK SMILES IDX 71 56 72 57 73 58 52 59 53 60 61 61 54 62 60 63 55 64 56 65
REMARK SMILES IDX 57 66 58 67 59 68 6 69 7 70 8 71 9 73 10 74 11 75 26 76
REMARK SMILES IDX 12 77 14 78 13 79 15 80 16 81 17 82 18 83 19 84 20 85 25 86
REMARK SMILES IDX 21 87 23 88 22 89 24 90
REMARK H PARENT 3 6 80 24 50 35 7 72 24 91
REMARK Flexibility Score: inf
ROOT
ATOM      1  C   UNL A   1      33.807  29.536  27.112  1.00  0.00     0.042 C 
ENDROOT
BRANCH   1   2
ATOM      2  C   UNL A   1      35.233  29.650  27.632  1.00  0.00     0.118 C 
BRANCH   2   3
ATOM      3  N   UNL A   1      35.318  30.177  28.986  1.00  0.00    -0.352 N 
ATOM      4  O   UNL A   1      36.075  30.653  31.031  1.00  0.00    -0.269 OA
ATOM      5  C   UNL A   1      36.340  30.243  29.902  1.00  0.00     0.251 C 
ATOM      6  H   UNL A   1      34.473  30.566  29.310  1.00  0.00     0.163 HD
BRANCH   5   7
ATOM      7  C   UNL A   1      37.728  29.813  29.593  1.00  0.00     0.039 A 
ATOM      8  C   UNL A   1      38.609  29.345  30.567  1.00  0.00     0.014 A 
ATOM      9  C   UNL A   1      38.142  29.811  28.253  1.00  0.00     0.014 A 
ATOM     10  C   UNL A   1      39.932  29.047  30.239  1.00  0.00     0.010 A 
ATOM     11  C   UNL A   1      39.439  29.408  27.910  1.00  0.00     0.010 A 
ATOM     12  C   UNL A   1      40.362  29.061  28.905  1.00  0.00    -0.014 A 
BRANCH  12  13
ATOM     13  C   UNL A   1      41.759  28.670  28.567  1.00  0.00     0.031 A 
ATOM     14  C   UNL A   1      42.880  29.675  28.628  1.00  0.00     0.074 A 
ATOM     15  C   UNL A   1      42.026  27.398  28.206  1.00  0.00     0.049 A 
ATOM     16  N   UNL A   1      44.148  29.514  28.340  1.00  0.00    -0.248 NA
ATOM     17  C   UNL A   1      42.533  31.036  29.062  1.00  0.00     0.031 C 
ATOM     18  C   UNL A   1      41.033  26.324  28.104  1.00  0.00     0.029 A 
ATOM     19  N   UNL A   1      43.207  26.787  27.867  1.00  0.00    -0.354 N 
ATOM     20  C   UNL A   1      44.742  30.757  28.525  1.00  0.00     0.074 A 
ATOM     21  C   UNL A   1      43.692  31.667  28.932  1.00  0.00     0.031 C 
ATOM     22  C   UNL A   1      41.652  25.183  27.767  1.00  0.00     0.029 A 
ATOM     23  C   UNL A   1      43.070  25.454  27.559  1.00  0.00     0.049 A 
ATOM     24  H   UNL A   1      44.071  27.260  27.845  1.00  0.00     0.167 HD
ATOM     25  C   UNL A   1      46.042  31.112  28.373  1.00  0.00     0.031 A 
ATOM     26  C   UNL A   1      43.972  24.549  27.132  1.00  0.00     0.031 A 
ATOM     27  C   UNL A   1      47.086  30.206  27.969  1.00  0.00     0.049 A 
ATOM     28  C   UNL A   1      45.401  24.966  26.946  1.00  0.00     0.074 A 
ATOM     29  C   UNL A   1      48.437  30.466  27.812  1.00  0.00     0.029 A 
ATOM     30  N   UNL A   1      46.898  28.869  27.653  1.00  0.00    -0.354 N 
ATOM     31  N   UNL A   1      45.945  26.143  27.148  1.00  0.00    -0.248 NA
ATOM     32  C   UNL A   1      46.339  23.938  26.476  1.00  0.00     0.031 C 
ATOM     33  C   UNL A   1      49.057  29.298  27.355  1.00  0.00     0.029 A 
ATOM     34  C   UNL A   1      48.103  28.295  27.282  1.00  0.00     0.049 A 
ATOM     35  H   UNL A   1      46.035  28.396  27.687  1.00  0.00     0.167 HD
ATOM     36  C   UNL A   1      47.293  25.991  26.850  1.00  0.00     0.074 A 
ATOM     37  C   UNL A   1      47.484  24.608  26.462  1.00  0.00     0.031 C 
ATOM     38  C   UNL A   1      48.282  26.917  26.898  1.00  0.00     0.031 A 
BRANCH  25  39
ATOM     39  C   UNL A   1      46.397  32.557  28.606  1.00  0.00    -0.014 A 
ATOM     40  C   UNL A   1      46.899  32.999  29.843  1.00  0.00     0.010 A 
ATOM     41  C   UNL A   1      46.238  33.489  27.563  1.00  0.00     0.010 A 
ATOM     42  C   UNL A   1      47.178  34.353  30.052  1.00  0.00     0.020 A 
ATOM     43  C   UNL A   1      46.542  34.838  27.759  1.00  0.00     0.020 A 
ATOM     44  C   UNL A   1      46.986  35.266  29.011  1.00  0.00     0.054 A 
BRANCH  44  45
ATOM     45  S   UNL A   1      47.336  37.021  29.311  1.00  0.00     0.124 S 
ATOM     46  O   UNL A   1      45.991  37.573  29.455  1.00  0.00    -0.237 OA
ATOM     47  O   UNL A   1      48.133  36.986  30.535  1.00  0.00    -0.237 OA
ATOM     48  O   UNL A   1      48.058  37.440  28.113  1.00  0.00    -0.744 OA
ENDBRANCH  44  45
ENDBRANCH  25  39
BRANCH  26  49
ATOM     49  C   UNL A   1      43.524  23.160  26.845  1.00  0.00    -0.014 A 
ATOM     50  C   UNL A   1      43.876  22.528  25.640  1.00  0.00     0.010 A 
ATOM     51  C   UNL A   1      42.806  22.436  27.815  1.00  0.00     0.010 A 
ATOM     52  C   UNL A   1      43.524  21.193  25.414  1.00  0.00     0.020 A 
ATOM     53  C   UNL A   1      42.476  21.095  27.604  1.00  0.00     0.020 A 
ATOM     54  C   UNL A   1      42.836  20.483  26.401  1.00  0.00     0.054 A 
BRANCH  54  55
ATOM     55  S   UNL A   1      42.480  18.724  26.129  1.00  0.00     0.124 S 
ATOM     56  O   UNL A   1      43.436  18.380  25.081  1.00  0.00    -0.237 OA
ATOM     57  O   UNL A   1      42.743  18.141  27.442  1.00  0.00    -0.237 OA
ATOM     58  O   UNL A   1      41.076  18.718  25.725  1.00  0.00    -0.744 OA
ENDBRANCH  54  55
ENDBRANCH  26  49
BRANCH  38  59
ATOM     59  C   UNL A   1      49.677  26.463  26.561  1.00  0.00    -0.014 A 
ATOM     60  C   UNL A   1      50.520  25.910  27.539  1.00  0.00     0.010 A 
ATOM     61  C   UNL A   1      50.118  26.525  25.227  1.00  0.00     0.010 A 
ATOM     62  C   UNL A   1      51.789  25.438  27.190  1.00  0.00     0.020 A 
ATOM     63  C   UNL A   1      51.376  26.034  24.870  1.00  0.00     0.020 A 
ATOM     64  C   UNL A   1      52.207  25.501  25.857  1.00  0.00     0.054 A 
BRANCH  64  65
ATOM     65  S   UNL A   1      53.830  24.820  25.416  1.00  0.00     0.124 S 
ATOM     66  O   UNL A   1      53.488  23.464  24.998  1.00  0.00    -0.237 OA
ATOM     67  O   UNL A   1      54.275  25.713  24.348  1.00  0.00    -0.237 OA
ATOM     68  O   UNL A   1      54.595  24.916  26.658  1.00  0.00    -0.744 OA
ENDBRANCH  64  65
ENDBRANCH  38  59
ENDBRANCH  12  13
ENDBRANCH   5   7
ENDBRANCH   2   3
ENDBRANCH   1   2
BRANCH   1  69
ATOM     69  C   UNL A   1      33.606  28.492  26.023  1.00  0.00     0.118 C 
BRANCH  69  70
ATOM     70  N   UNL A   1      33.879  28.973  24.678  1.00  0.00    -0.352 N 
ATOM     71  C   UNL A   1      33.692  28.318  23.486  1.00  0.00     0.251 C 
ATOM     72  H   UNL A   1      34.245  29.886  24.615  1.00  0.00     0.163 HD
ATOM     73  O   UNL A   1      34.018  28.831  22.422  1.00  0.00    -0.269 OA
BRANCH  71  74
ATOM     74  C   UNL A   1      33.116  26.957  23.495  1.00  0.00     0.041 A 
ATOM     75  C   UNL A   1      31.724  26.832  23.451  1.00  0.00     0.014 A 
ATOM     76  C   UNL A   1      33.943  25.828  23.525  1.00  0.00     0.034 A 
ATOM     77  C   UNL A   1      31.148  25.564  23.387  1.00  0.00     0.002 A 
ATOM     78  C   UNL A   1      33.356  24.563  23.431  1.00  0.00     0.068 A 
ATOM     79  C   UNL A   1      31.963  24.431  23.362  1.00  0.00     0.020 A 
BRANCH  78  80
ATOM     80  S   UNL A   1      34.330  23.070  23.361  1.00  0.00     0.182 S 
ATOM     81  O   UNL A   1      33.404  22.054  22.884  1.00  0.00    -0.223 OA
ATOM     82  O   UNL A   1      35.522  23.378  22.593  1.00  0.00    -0.223 OA
BRANCH  80  83
ATOM     83  C   UNL A   1      34.816  22.598  25.002  1.00  0.00     0.177 C 
BRANCH  83  84
ATOM     84  C   UNL A   1      36.271  22.806  25.356  1.00  0.00    -0.029 A 
ATOM     85  C   UNL A   1      36.786  24.016  25.837  1.00  0.00     0.005 A 
ATOM     86  C   UNL A   1      37.132  21.692  25.338  1.00  0.00     0.051 A 
ATOM     87  C   UNL A   1      38.090  24.105  26.336  1.00  0.00     0.004 A 
ATOM     88  C   UNL A   1      38.441  21.798  25.811  1.00  0.00     0.115 A 
ATOM     89  C   UNL A   1      38.916  22.989  26.335  1.00  0.00     0.046 A 
BRANCH  88  90
ATOM     90  O   UNL A   1      39.293  20.736  25.784  1.00  0.00    -0.508 OA
ATOM     91  H   UNL A   1      39.297  20.120  26.491  1.00  0.00     0.293 HD
ENDBRANCH  88  90
ENDBRANCH  83  84
ENDBRANCH  80  83
ENDBRANCH  78  80
ENDBRANCH  71  74
ENDBRANCH  69  70
ENDBRANCH   1  69
TORSDOF 17
ENDMDL
