MODEL 1
REMARK VINA RESULT:     -13.0      0.000      0.000
REMARK SMILES Cc1cc(C(=O)NCCCNC(=O)c2ccc(-c3c4nc(c(-c5ccc(S(=O)(=O)[O-])cc5)c5ccc([nH]5)c(-c5ccc(S(=O)(=O)[O-])cc5)c5nc(c(-c6ccc(S(=O)(=O)[O-])cc6)c6ccc3[nH]6)C=C5)C=C4)cc2)c(C#Cc2ccccc2)s1
REMARK SMILES IDX 9 1 8 2 7 3 5 4 6 5 4 7 1 8 2 9 3 10 83 11 74 12 75 13 76 14
REMARK SMILES IDX 77 15 78 16 82 17 79 18 81 19 80 20 10 21 11 22 12 23 13 25
REMARK SMILES IDX 14 26 15 27 73 28 16 29 72 30 17 31 18 32 19 33 66 34 20 35
REMARK SMILES IDX 71 36 65 37 67 38 21 39 70 40 64 41 63 42 22 44 52 45 33 46
REMARK SMILES IDX 51 47 34 48 37 49 50 50 68 51 35 52 36 53 49 55 69 56 38 57
REMARK SMILES IDX 23 58 24 59 32 60 25 61 31 62 26 63 27 64 28 65 29 66 30 67
REMARK SMILES IDX 53 68 54 69 62 70 55 71 61 72 56 73 57 74 58 75 59 76 60 77
REMARK SMILES IDX 39 78 40 79 48 80 41 81 47 82 42 83 43 84 44 85 45 86 46 87
REMARK H PARENT 7 6 11 24 67 43 37 54
REMARK Flexibility Score: inf
ROOT
ATOM      1  C   UNL A   1      39.027  21.314  25.842  1.00  0.00     0.042 C 
ENDROOT
BRANCH   1   2
ATOM      2  C   UNL A   1      37.828  22.266  25.752  1.00  0.00     0.118 C 
BRANCH   2   3
ATOM      3  N   UNL A   1      37.355  22.419  24.385  1.00  0.00    -0.352 N 
ATOM      4  C   UNL A   1      36.234  22.935  23.782  1.00  0.00     0.253 C 
ATOM      5  O   UNL A   1      36.269  22.906  22.549  1.00  0.00    -0.269 OA
ATOM      6  H   UNL A   1      37.997  22.065  23.729  1.00  0.00     0.163 HD
BRANCH   4   7
ATOM      7  C   UNL A   1      35.090  23.501  24.518  1.00  0.00     0.066 A 
ATOM      8  C   UNL A   1      33.058  26.371  25.999  1.00  0.00     0.056 C 
ATOM      9  C   UNL A   1      33.632  25.075  25.533  1.00  0.00     0.004 A 
ATOM     10  C   UNL A   1      34.862  24.861  24.943  1.00  0.00     0.030 A 
ATOM     11  S   UNL A   1      32.771  23.626  25.701  1.00  0.00    -0.131 S 
ATOM     12  C   UNL A   1      34.021  22.715  24.957  1.00  0.00     0.090 A 
BRANCH  12  13
ATOM     13  C   UNL A   1      33.866  21.298  24.851  1.00  0.00    -0.050 C 
ATOM     14  C   UNL A   1      33.777  20.092  24.821  1.00  0.00    -0.061 C 
BRANCH  14  15
ATOM     15  C   UNL A   1      33.674  18.668  24.830  1.00  0.00     0.025 A 
ATOM     16  C   UNL A   1      32.662  18.039  25.558  1.00  0.00     0.017 A 
ATOM     17  C   UNL A   1      34.601  17.897  24.124  1.00  0.00     0.017 A 
ATOM     18  C   UNL A   1      32.588  16.644  25.591  1.00  0.00     0.001 A 
ATOM     19  C   UNL A   1      34.528  16.502  24.158  1.00  0.00     0.001 A 
ATOM     20  C   UNL A   1      33.523  15.877  24.895  1.00  0.00     0.000 A 
ENDBRANCH  14  15
ENDBRANCH  12  13
ENDBRANCH   4   7
ENDBRANCH   2   3
ENDBRANCH   1   2
BRANCH   1  21
ATOM     21  C   UNL A   1      40.245  21.935  26.533  1.00  0.00     0.118 C 
BRANCH  21  22
ATOM     22  N   UNL A   1      41.353  22.204  25.636  1.00  0.00    -0.352 N 
ATOM     23  C   UNL A   1      42.278  23.194  25.479  1.00  0.00     0.251 C 
ATOM     24  H   UNL A   1      41.467  21.488  24.971  1.00  0.00     0.163 HD
ATOM     25  O   UNL A   1      43.131  22.976  24.613  1.00  0.00    -0.269 OA
BRANCH  23  26
ATOM     26  C   UNL A   1      42.293  24.506  26.179  1.00  0.00     0.039 A 
ATOM     27  C   UNL A   1      43.100  24.863  27.260  1.00  0.00     0.014 A 
ATOM     28  C   UNL A   1      41.336  25.432  25.719  1.00  0.00     0.014 A 
ATOM     29  C   UNL A   1      42.842  26.047  27.958  1.00  0.00     0.010 A 
ATOM     30  C   UNL A   1      41.093  26.618  26.393  1.00  0.00     0.010 A 
ATOM     31  C   UNL A   1      41.789  26.884  27.563  1.00  0.00    -0.014 A 
BRANCH  31  32
ATOM     32  C   UNL A   1      41.519  28.120  28.296  1.00  0.00     0.031 A 
ATOM     33  C   UNL A   1      42.560  29.166  28.087  1.00  0.00     0.074 A 
ATOM     34  C   UNL A   1      40.375  28.348  28.984  1.00  0.00     0.049 A 
ATOM     35  N   UNL A   1      43.351  29.669  28.975  1.00  0.00    -0.248 NA
ATOM     36  C   UNL A   1      42.879  29.578  26.707  1.00  0.00     0.031 C 
ATOM     37  C   UNL A   1      39.184  27.498  29.085  1.00  0.00     0.029 A 
ATOM     38  N   UNL A   1      39.992  29.450  29.690  1.00  0.00    -0.354 N 
ATOM     39  C   UNL A   1      44.124  30.618  28.311  1.00  0.00     0.074 A 
ATOM     40  C   UNL A   1      43.910  30.402  26.903  1.00  0.00     0.031 C 
ATOM     41  C   UNL A   1      38.145  28.218  29.576  1.00  0.00     0.029 A 
ATOM     42  C   UNL A   1      38.626  29.531  29.971  1.00  0.00     0.049 A 
ATOM     43  H   UNL A   1      40.632  30.139  29.982  1.00  0.00     0.167 HD
ATOM     44  C   UNL A   1      44.708  31.648  28.981  1.00  0.00     0.031 A 
ATOM     45  C   UNL A   1      37.939  30.595  30.478  1.00  0.00     0.031 A 
ATOM     46  C   UNL A   1      44.767  31.390  30.395  1.00  0.00     0.049 A 
ATOM     47  C   UNL A   1      38.941  31.461  31.148  1.00  0.00     0.074 A 
ATOM     48  C   UNL A   1      45.389  30.434  31.170  1.00  0.00     0.029 A 
ATOM     49  N   UNL A   1      43.768  31.926  31.173  1.00  0.00    -0.354 N 
ATOM     50  N   UNL A   1      39.599  31.092  32.211  1.00  0.00    -0.248 NA
ATOM     51  C   UNL A   1      39.567  32.497  30.341  1.00  0.00     0.031 C 
ATOM     52  C   UNL A   1      44.429  30.096  32.166  1.00  0.00     0.029 A 
ATOM     53  C   UNL A   1      43.325  30.939  32.017  1.00  0.00     0.049 A 
ATOM     54  H   UNL A   1      43.432  32.851  31.133  1.00  0.00     0.167 HD
ATOM     55  C   UNL A   1      40.901  31.497  31.968  1.00  0.00     0.074 A 
ATOM     56  C   UNL A   1      40.810  32.405  30.821  1.00  0.00     0.031 C 
ATOM     57  C   UNL A   1      41.967  30.841  32.514  1.00  0.00     0.031 A 
BRANCH  44  58
ATOM     58  C   UNL A   1      44.897  33.026  28.400  1.00  0.00    -0.014 A 
ATOM     59  C   UNL A   1      43.822  33.894  28.116  1.00  0.00     0.010 A 
ATOM     60  C   UNL A   1      46.192  33.580  28.362  1.00  0.00     0.010 A 
ATOM     61  C   UNL A   1      44.021  35.236  27.789  1.00  0.00     0.020 A 
ATOM     62  C   UNL A   1      46.401  34.936  28.074  1.00  0.00     0.020 A 
ATOM     63  C   UNL A   1      45.312  35.753  27.776  1.00  0.00     0.054 A 
BRANCH  63  64
ATOM     64  S   UNL A   1      45.526  37.508  27.401  1.00  0.00     0.124 S 
ATOM     65  O   UNL A   1      44.144  37.941  27.203  1.00  0.00    -0.237 OA
ATOM     66  O   UNL A   1      46.177  38.010  28.607  1.00  0.00    -0.237 OA
ATOM     67  O   UNL A   1      46.356  37.505  26.200  1.00  0.00    -0.744 OA
ENDBRANCH  63  64
ENDBRANCH  44  58
BRANCH  45  68
ATOM     68  C   UNL A   1      36.638  31.160  30.000  1.00  0.00    -0.014 A 
ATOM     69  C   UNL A   1      36.483  31.491  28.640  1.00  0.00     0.010 A 
ATOM     70  C   UNL A   1      35.691  31.693  30.906  1.00  0.00     0.010 A 
ATOM     71  C   UNL A   1      35.496  32.389  28.210  1.00  0.00     0.020 A 
ATOM     72  C   UNL A   1      34.689  32.592  30.480  1.00  0.00     0.020 A 
ATOM     73  C   UNL A   1      34.631  32.968  29.137  1.00  0.00     0.054 A 
BRANCH  73  74
ATOM     74  S   UNL A   1      33.516  34.287  28.562  1.00  0.00     0.124 S 
ATOM     75  O   UNL A   1      32.668  33.575  27.611  1.00  0.00    -0.237 OA
ATOM     76  O   UNL A   1      32.855  34.704  29.797  1.00  0.00    -0.237 OA
ATOM     77  O   UNL A   1      34.416  35.278  27.978  1.00  0.00    -0.744 OA
ENDBRANCH  73  74
ENDBRANCH  45  68
BRANCH  57  78
ATOM     78  C   UNL A   1      41.725  29.774  33.566  1.00  0.00    -0.014 A 
ATOM     79  C   UNL A   1      42.035  30.117  34.895  1.00  0.00     0.010 A 
ATOM     80  C   UNL A   1      41.431  28.425  33.277  1.00  0.00     0.010 A 
ATOM     81  C   UNL A   1      42.103  29.147  35.894  1.00  0.00     0.020 A 
ATOM     82  C   UNL A   1      41.471  27.446  34.287  1.00  0.00     0.020 A 
ATOM     83  C   UNL A   1      41.834  27.813  35.585  1.00  0.00     0.054 A 
BRANCH  83  84
ATOM     84  S   UNL A   1      42.001  26.587  36.913  1.00  0.00     0.124 S 
ATOM     85  O   UNL A   1      43.135  27.107  37.675  1.00  0.00    -0.237 OA
ATOM     86  O   UNL A   1      40.708  26.668  37.590  1.00  0.00    -0.237 OA
ATOM     87  O   UNL A   1      42.253  25.331  36.209  1.00  0.00    -0.744 OA
ENDBRANCH  83  84
ENDBRANCH  57  78
ENDBRANCH  31  32
ENDBRANCH  23  26
ENDBRANCH  21  22
ENDBRANCH   1  21
TORSDOF 15
ENDMDL
MODEL 2
REMARK VINA RESULT:     -12.7      3.513     10.323
REMARK SMILES Cc1cc(C(=O)NCCCNC(=O)c2ccc(-c3c4nc(c(-c5ccc(S(=O)(=O)[O-])cc5)c5ccc([nH]5)c(-c5ccc(S(=O)(=O)[O-])cc5)c5nc(c(-c6ccc(S(=O)(=O)[O-])cc6)c6ccc3[nH]6)C=C5)C=C4)cc2)c(C#Cc2ccccc2)s1
REMARK SMILES IDX 9 1 8 2 7 3 5 4 6 5 4 7 1 8 2 9 3 10 83 11 74 12 75 13 76 14
REMARK SMILES IDX 77 15 78 16 82 17 79 18 81 19 80 20 10 21 11 22 12 23 13 25
REMARK SMILES IDX 14 26 15 27 73 28 16 29 72 30 17 31 18 32 19 33 66 34 20 35
REMARK SMILES IDX 71 36 65 37 67 38 21 39 70 40 64 41 63 42 22 44 52 45 33 46
REMARK SMILES IDX 51 47 34 48 37 49 50 50 68 51 35 52 36 53 49 55 69 56 38 57
REMARK SMILES IDX 23 58 24 59 32 60 25 61 31 62 26 63 27 64 28 65 29 66 30 67
REMARK SMILES IDX 53 68 54 69 62 70 55 71 61 72 56 73 57 74 58 75 59 76 60 77
REMARK SMILES IDX 39 78 40 79 48 80 41 81 47 82 42 83 43 84 44 85 45 86 46 87
REMARK H PARENT 7 6 11 24 67 43 37 54
REMARK Flexibility Score: inf
ROOT
ATOM      1  C   UNL A   1      34.479  30.636  27.663  1.00  0.00     0.042 C 
ENDROOT
BRANCH   1   2
ATOM      2  C   UNL A   1      33.227  30.464  26.792  1.00  0.00     0.118 C 
BRANCH   2   3
ATOM      3  N   UNL A   1      32.285  29.520  27.372  1.00  0.00    -0.352 N 
ATOM      4  C   UNL A   1      31.948  28.207  27.156  1.00  0.00     0.253 C 
ATOM      5  O   UNL A   1      31.099  27.772  27.939  1.00  0.00    -0.269 OA
ATOM      6  H   UNL A   1      31.758  29.922  28.099  1.00  0.00     0.163 HD
BRANCH   4   7
ATOM      7  C   UNL A   1      32.549  27.364  26.108  1.00  0.00     0.066 A 
ATOM      8  C   UNL A   1      34.847  24.591  24.848  1.00  0.00     0.056 C 
ATOM      9  C   UNL A   1      33.876  25.705  25.049  1.00  0.00     0.004 A 
ATOM     10  C   UNL A   1      33.616  26.399  26.214  1.00  0.00     0.030 A 
ATOM     11  S   UNL A   1      32.927  26.280  23.768  1.00  0.00    -0.131 S 
ATOM     12  C   UNL A   1      32.145  27.432  24.771  1.00  0.00     0.090 A 
BRANCH  12  13
ATOM     13  C   UNL A   1      31.189  28.315  24.183  1.00  0.00    -0.050 C 
ATOM     14  C   UNL A   1      30.426  29.120  23.697  1.00  0.00    -0.061 C 
BRANCH  14  15
ATOM     15  C   UNL A   1      29.562  30.091  23.108  1.00  0.00     0.025 A 
ATOM     16  C   UNL A   1      29.159  31.211  23.838  1.00  0.00     0.017 A 
ATOM     17  C   UNL A   1      29.099  29.913  21.801  1.00  0.00     0.017 A 
ATOM     18  C   UNL A   1      28.286  32.141  23.268  1.00  0.00     0.001 A 
ATOM     19  C   UNL A   1      28.225  30.842  21.232  1.00  0.00     0.001 A 
ATOM     20  C   UNL A   1      27.816  31.954  21.968  1.00  0.00     0.000 A 
ENDBRANCH  14  15
ENDBRANCH  12  13
ENDBRANCH   4   7
ENDBRANCH   2   3
ENDBRANCH   1   2
BRANCH   1  21
ATOM     21  C   UNL A   1      34.643  32.053  28.219  1.00  0.00     0.118 C 
BRANCH  21  22
ATOM     22  N   UNL A   1      34.386  32.157  29.642  1.00  0.00    -0.352 N 
ATOM     23  C   UNL A   1      35.072  31.895  30.792  1.00  0.00     0.251 C 
ATOM     24  H   UNL A   1      33.484  32.506  29.827  1.00  0.00     0.163 HD
ATOM     25  O   UNL A   1      34.492  32.225  31.831  1.00  0.00    -0.269 OA
BRANCH  23  26
ATOM     26  C   UNL A   1      36.380  31.194  30.898  1.00  0.00     0.039 A 
ATOM     27  C   UNL A   1      37.630  31.785  31.077  1.00  0.00     0.014 A 
ATOM     28  C   UNL A   1      36.314  29.797  30.727  1.00  0.00     0.014 A 
ATOM     29  C   UNL A   1      38.789  31.018  30.928  1.00  0.00     0.010 A 
ATOM     30  C   UNL A   1      37.461  29.028  30.603  1.00  0.00     0.010 A 
ATOM     31  C   UNL A   1      38.698  29.654  30.618  1.00  0.00    -0.014 A 
BRANCH  31  32
ATOM     32  C   UNL A   1      39.912  28.855  30.459  1.00  0.00     0.031 A 
ATOM     33  C   UNL A   1      40.614  28.592  31.747  1.00  0.00     0.074 A 
ATOM     34  C   UNL A   1      40.290  28.292  29.287  1.00  0.00     0.049 A 
ATOM     35  N   UNL A   1      41.794  28.990  32.089  1.00  0.00    -0.248 NA
ATOM     36  C   UNL A   1      39.859  27.962  32.847  1.00  0.00     0.031 C 
ATOM     37  C   UNL A   1      39.578  28.285  28.004  1.00  0.00     0.029 A 
ATOM     38  N   UNL A   1      41.377  27.517  29.007  1.00  0.00    -0.354 N 
ATOM     39  C   UNL A   1      42.019  28.481  33.365  1.00  0.00     0.074 A 
ATOM     40  C   UNL A   1      40.746  28.006  33.843  1.00  0.00     0.031 C 
ATOM     41  C   UNL A   1      40.112  27.345  27.186  1.00  0.00     0.029 A 
ATOM     42  C   UNL A   1      41.296  26.789  27.818  1.00  0.00     0.049 A 
ATOM     43  H   UNL A   1      42.162  27.475  29.600  1.00  0.00     0.167 HD
ATOM     44  C   UNL A   1      43.280  28.293  33.839  1.00  0.00     0.031 A 
ATOM     45  C   UNL A   1      42.131  25.798  27.388  1.00  0.00     0.031 A 
ATOM     46  C   UNL A   1      44.246  29.033  33.072  1.00  0.00     0.049 A 
ATOM     47  C   UNL A   1      43.403  25.967  28.132  1.00  0.00     0.074 A 
ATOM     48  C   UNL A   1      44.456  30.375  32.832  1.00  0.00     0.029 A 
ATOM     49  N   UNL A   1      44.908  28.356  32.075  1.00  0.00    -0.354 N 
ATOM     50  N   UNL A   1      44.183  27.000  27.977  1.00  0.00    -0.248 NA
ATOM     51  C   UNL A   1      43.530  25.259  29.396  1.00  0.00     0.031 C 
ATOM     52  C   UNL A   1      44.793  30.447  31.452  1.00  0.00     0.029 A 
ATOM     53  C   UNL A   1      44.884  29.146  30.952  1.00  0.00     0.049 A 
ATOM     54  H   UNL A   1      45.325  27.468  32.152  1.00  0.00     0.167 HD
ATOM     55  C   UNL A   1      44.556  27.346  29.266  1.00  0.00     0.074 A 
ATOM     56  C   UNL A   1      44.164  26.204  30.096  1.00  0.00     0.031 C 
ATOM     57  C   UNL A   1      44.871  28.633  29.596  1.00  0.00     0.031 A 
BRANCH  44  58
ATOM     58  C   UNL A   1      43.670  27.167  34.762  1.00  0.00    -0.014 A 
ATOM     59  C   UNL A   1      43.772  25.826  34.339  1.00  0.00     0.010 A 
ATOM     60  C   UNL A   1      44.192  27.477  36.035  1.00  0.00     0.010 A 
ATOM     61  C   UNL A   1      44.343  24.837  35.143  1.00  0.00     0.020 A 
ATOM     62  C   UNL A   1      44.803  26.500  36.834  1.00  0.00     0.020 A 
ATOM     63  C   UNL A   1      44.862  25.182  36.386  1.00  0.00     0.054 A 
BRANCH  63  64
ATOM     64  S   UNL A   1      45.641  23.884  37.375  1.00  0.00     0.124 S 
ATOM     65  O   UNL A   1      45.021  24.094  38.682  1.00  0.00    -0.237 OA
ATOM     66  O   UNL A   1      45.239  22.670  36.673  1.00  0.00    -0.237 OA
ATOM     67  O   UNL A   1      47.064  24.205  37.301  1.00  0.00    -0.744 OA
ENDBRANCH  63  64
ENDBRANCH  44  58
BRANCH  45  68
ATOM     68  C   UNL A   1      41.756  24.471  26.805  1.00  0.00    -0.014 A 
ATOM     69  C   UNL A   1      40.800  23.670  27.461  1.00  0.00     0.010 A 
ATOM     70  C   UNL A   1      42.563  23.843  25.828  1.00  0.00     0.010 A 
ATOM     71  C   UNL A   1      40.717  22.290  27.232  1.00  0.00     0.020 A 
ATOM     72  C   UNL A   1      42.480  22.454  25.586  1.00  0.00     0.020 A 
ATOM     73  C   UNL A   1      41.585  21.681  26.327  1.00  0.00     0.054 A 
BRANCH  73  74
ATOM     74  S   UNL A   1      41.584  19.863  26.228  1.00  0.00     0.124 S 
ATOM     75  O   UNL A   1      41.944  19.484  27.592  1.00  0.00    -0.237 OA
ATOM     76  O   UNL A   1      40.206  19.568  25.842  1.00  0.00    -0.237 OA
ATOM     77  O   UNL A   1      42.588  19.566  25.210  1.00  0.00    -0.744 OA
ENDBRANCH  73  74
ENDBRANCH  45  68
BRANCH  57  78
ATOM     78  C   UNL A   1      45.015  29.670  28.498  1.00  0.00    -0.014 A 
ATOM     79  C   UNL A   1      46.288  30.244  28.334  1.00  0.00     0.010 A 
ATOM     80  C   UNL A   1      43.931  30.244  27.800  1.00  0.00     0.010 A 
ATOM     81  C   UNL A   1      46.473  31.380  27.546  1.00  0.00     0.020 A 
ATOM     82  C   UNL A   1      44.116  31.373  26.981  1.00  0.00     0.020 A 
ATOM     83  C   UNL A   1      45.386  31.948  26.883  1.00  0.00     0.054 A 
BRANCH  83  84
ATOM     84  S   UNL A   1      45.676  33.462  25.925  1.00  0.00     0.124 S 
ATOM     85  O   UNL A   1      44.922  33.204  24.700  1.00  0.00    -0.237 OA
ATOM     86  O   UNL A   1      45.121  34.501  26.790  1.00  0.00    -0.237 OA
ATOM     87  O   UNL A   1      47.127  33.506  25.759  1.00  0.00    -0.744 OA
ENDBRANCH  83  84
ENDBRANCH  57  78
ENDBRANCH  31  32
ENDBRANCH  23  26
ENDBRANCH  21  22
ENDBRANCH   1  21
TORSDOF 15
ENDMDL
MODEL 3
REMARK VINA RESULT:     -12.3      1.227      3.342
REMARK SMILES Cc1cc(C(=O)NCCCNC(=O)c2ccc(-c3c4nc(c(-c5ccc(S(=O)(=O)[O-])cc5)c5ccc([nH]5)c(-c5ccc(S(=O)(=O)[O-])cc5)c5nc(c(-c6ccc(S(=O)(=O)[O-])cc6)c6ccc3[nH]6)C=C5)C=C4)cc2)c(C#Cc2ccccc2)s1
REMARK SMILES IDX 9 1 8 2 7 3 5 4 6 5 4 7 1 8 2 9 3 10 83 11 74 12 75 13 76 14
REMARK SMILES IDX 77 15 78 16 82 17 79 18 81 19 80 20 10 21 11 22 12 23 13 25
REMARK SMILES IDX 14 26 15 27 73 28 16 29 72 30 17 31 18 32 19 33 66 34 20 35
REMARK SMILES IDX 71 36 65 37 67 38 21 39 70 40 64 41 63 42 22 44 52 45 33 46
REMARK SMILES IDX 51 47 34 48 37 49 50 50 68 51 35 52 36 53 49 55 69 56 38 57
REMARK SMILES IDX 23 58 24 59 32 60 25 61 31 62 26 63 27 64 28 65 29 66 30 67
REMARK SMILES IDX 53 68 54 69 62 70 55 71 61 72 56 73 57 74 58 75 59 76 60 77
REMARK SMILES IDX 39 78 40 79 48 80 41 81 47 82 42 83 43 84 44 85 45 86 46 87
REMARK H PARENT 7 6 11 24 67 43 37 54
REMARK Flexibility Score: inf
ROOT
ATOM      1  C   UNL A   1      38.421  22.596  25.733  1.00  0.00     0.042 C 
ENDROOT
BRANCH   1   2
ATOM      2  C   UNL A   1      37.193  21.680  25.660  1.00  0.00     0.118 C 
BRANCH   2   3
ATOM      3  N   UNL A   1      36.102  22.163  26.492  1.00  0.00    -0.352 N 
ATOM      4  C   UNL A   1      34.732  22.067  26.473  1.00  0.00     0.253 C 
ATOM      5  O   UNL A   1      34.179  22.605  27.436  1.00  0.00    -0.269 OA
ATOM      6  H   UNL A   1      36.425  22.688  27.259  1.00  0.00     0.163 HD
BRANCH   4   7
ATOM      7  C   UNL A   1      33.970  21.371  25.422  1.00  0.00     0.066 A 
ATOM      8  C   UNL A   1      32.395  18.292  23.811  1.00  0.00     0.056 C 
ATOM      9  C   UNL A   1      32.896  19.641  24.203  1.00  0.00     0.004 A 
ATOM     10  C   UNL A   1      33.743  19.957  25.245  1.00  0.00     0.030 A 
ATOM     11  S   UNL A   1      32.448  21.026  23.335  1.00  0.00    -0.131 S 
ATOM     12  C   UNL A   1      33.355  22.053  24.368  1.00  0.00     0.090 A 
BRANCH  12  13
ATOM     13  C   UNL A   1      33.398  23.451  24.078  1.00  0.00    -0.050 C 
ATOM     14  C   UNL A   1      33.477  24.645  23.892  1.00  0.00    -0.061 C 
BRANCH  14  15
ATOM     15  C   UNL A   1      33.612  26.051  23.690  1.00  0.00     0.025 A 
ATOM     16  C   UNL A   1      33.731  26.912  24.782  1.00  0.00     0.017 A 
ATOM     17  C   UNL A   1      33.607  26.573  22.394  1.00  0.00     0.017 A 
ATOM     18  C   UNL A   1      33.828  28.291  24.579  1.00  0.00     0.001 A 
ATOM     19  C   UNL A   1      33.703  27.952  22.190  1.00  0.00     0.001 A 
ATOM     20  C   UNL A   1      33.809  28.810  23.284  1.00  0.00     0.000 A 
ENDBRANCH  14  15
ENDBRANCH  12  13
ENDBRANCH   4   7
ENDBRANCH   2   3
ENDBRANCH   1   2
BRANCH   1  21
ATOM     21  C   UNL A   1      39.612  21.960  26.456  1.00  0.00     0.118 C 
BRANCH  21  22
ATOM     22  N   UNL A   1      40.861  22.058  25.725  1.00  0.00    -0.352 N 
ATOM     23  C   UNL A   1      41.922  22.914  25.693  1.00  0.00     0.251 C 
ATOM     24  H   UNL A   1      40.972  21.315  25.089  1.00  0.00     0.163 HD
ATOM     25  O   UNL A   1      42.852  22.563  24.960  1.00  0.00    -0.269 OA
BRANCH  23  26
ATOM     26  C   UNL A   1      42.013  24.232  26.377  1.00  0.00     0.039 A 
ATOM     27  C   UNL A   1      42.806  24.544  27.482  1.00  0.00     0.014 A 
ATOM     28  C   UNL A   1      41.144  25.220  25.871  1.00  0.00     0.014 A 
ATOM     29  C   UNL A   1      42.614  25.754  28.154  1.00  0.00     0.010 A 
ATOM     30  C   UNL A   1      40.969  26.431  26.522  1.00  0.00     0.010 A 
ATOM     31  C   UNL A   1      41.642  26.662  27.712  1.00  0.00    -0.014 A 
BRANCH  31  32
ATOM     32  C   UNL A   1      41.442  27.925  28.420  1.00  0.00     0.031 A 
ATOM     33  C   UNL A   1      42.530  28.914  28.176  1.00  0.00     0.074 A 
ATOM     34  C   UNL A   1      40.318  28.225  29.114  1.00  0.00     0.049 A 
ATOM     35  N   UNL A   1      43.354  29.397  29.044  1.00  0.00    -0.248 NA
ATOM     36  C   UNL A   1      42.853  29.279  26.784  1.00  0.00     0.031 C 
ATOM     37  C   UNL A   1      39.088  27.437  29.246  1.00  0.00     0.029 A 
ATOM     38  N   UNL A   1      39.998  29.360  29.798  1.00  0.00    -0.354 N 
ATOM     39  C   UNL A   1      44.165  30.292  28.351  1.00  0.00     0.074 A 
ATOM     40  C   UNL A   1      43.925  30.056  26.951  1.00  0.00     0.031 C 
ATOM     41  C   UNL A   1      38.091  28.218  29.731  1.00  0.00     0.029 A 
ATOM     42  C   UNL A   1      38.640  29.514  30.090  1.00  0.00     0.049 A 
ATOM     43  H   UNL A   1      40.674  30.023  30.068  1.00  0.00     0.167 HD
ATOM     44  C   UNL A   1      44.807  31.307  28.991  1.00  0.00     0.031 A 
ATOM     45  C   UNL A   1      38.012  30.622  30.581  1.00  0.00     0.031 A 
ATOM     46  C   UNL A   1      44.869  31.077  30.410  1.00  0.00     0.049 A 
ATOM     47  C   UNL A   1      39.062  31.452  31.220  1.00  0.00     0.074 A 
ATOM     48  C   UNL A   1      45.452  30.110  31.201  1.00  0.00     0.029 A 
ATOM     49  N   UNL A   1      43.906  31.680  31.186  1.00  0.00    -0.354 N 
ATOM     50  N   UNL A   1      39.713  31.075  32.285  1.00  0.00    -0.248 NA
ATOM     51  C   UNL A   1      39.729  32.438  30.384  1.00  0.00     0.031 C 
ATOM     52  C   UNL A   1      44.488  29.841  32.213  1.00  0.00     0.029 A 
ATOM     53  C   UNL A   1      43.425  30.734  32.056  1.00  0.00     0.049 A 
ATOM     54  H   UNL A   1      43.616  32.618  31.128  1.00  0.00     0.167 HD
ATOM     55  C   UNL A   1      41.031  31.410  32.019  1.00  0.00     0.074 A 
ATOM     56  C   UNL A   1      40.971  32.296  30.853  1.00  0.00     0.031 C 
ATOM     57  C   UNL A   1      42.069  30.714  32.569  1.00  0.00     0.031 A 
BRANCH  44  58
ATOM     58  C   UNL A   1      45.056  32.660  28.377  1.00  0.00    -0.014 A 
ATOM     59  C   UNL A   1      44.091  33.347  27.614  1.00  0.00     0.010 A 
ATOM     60  C   UNL A   1      46.195  33.391  28.772  1.00  0.00     0.010 A 
ATOM     61  C   UNL A   1      44.254  34.683  27.241  1.00  0.00     0.020 A 
ATOM     62  C   UNL A   1      46.351  34.743  28.438  1.00  0.00     0.020 A 
ATOM     63  C   UNL A   1      45.383  35.376  27.661  1.00  0.00     0.054 A 
BRANCH  63  64
ATOM     64  S   UNL A   1      45.534  37.119  27.205  1.00  0.00     0.124 S 
ATOM     65  O   UNL A   1      46.409  37.046  26.036  1.00  0.00    -0.237 OA
ATOM     66  O   UNL A   1      44.150  37.494  26.934  1.00  0.00    -0.237 OA
ATOM     67  O   UNL A   1      46.127  37.735  28.389  1.00  0.00    -0.744 OA
ENDBRANCH  63  64
ENDBRANCH  44  58
BRANCH  45  68
ATOM     68  C   UNL A   1      36.734  31.239  30.103  1.00  0.00    -0.014 A 
ATOM     69  C   UNL A   1      36.662  31.763  28.798  1.00  0.00     0.010 A 
ATOM     70  C   UNL A   1      35.721  31.627  31.011  1.00  0.00     0.010 A 
ATOM     71  C   UNL A   1      35.690  32.706  28.437  1.00  0.00     0.020 A 
ATOM     72  C   UNL A   1      34.733  32.570  30.653  1.00  0.00     0.020 A 
ATOM     73  C   UNL A   1      34.756  33.137  29.378  1.00  0.00     0.054 A 
BRANCH  73  74
ATOM     74  S   UNL A   1      33.657  34.516  28.927  1.00  0.00     0.124 S 
ATOM     75  O   UNL A   1      32.717  33.870  28.014  1.00  0.00    -0.237 OA
ATOM     76  O   UNL A   1      33.100  34.914  30.218  1.00  0.00    -0.237 OA
ATOM     77  O   UNL A   1      34.553  35.493  28.313  1.00  0.00    -0.744 OA
ENDBRANCH  73  74
ENDBRANCH  45  68
BRANCH  57  78
ATOM     78  C   UNL A   1      41.788  29.685  33.648  1.00  0.00    -0.014 A 
ATOM     79  C   UNL A   1      42.218  30.000  34.949  1.00  0.00     0.010 A 
ATOM     80  C   UNL A   1      41.336  28.372  33.395  1.00  0.00     0.010 A 
ATOM     81  C   UNL A   1      42.251  29.033  35.954  1.00  0.00     0.020 A 
ATOM     82  C   UNL A   1      41.339  27.399  34.413  1.00  0.00     0.020 A 
ATOM     83  C   UNL A   1      41.824  27.734  35.680  1.00  0.00     0.054 A 
BRANCH  83  84
ATOM     84  S   UNL A   1      41.949  26.504  37.009  1.00  0.00     0.124 S 
ATOM     85  O   UNL A   1      42.222  25.274  36.268  1.00  0.00    -0.237 OA
ATOM     86  O   UNL A   1      43.063  27.009  37.809  1.00  0.00    -0.237 OA
ATOM     87  O   UNL A   1      40.644  26.554  37.665  1.00  0.00    -0.744 OA
ENDBRANCH  83  84
ENDBRANCH  57  78
ENDBRANCH  31  32
ENDBRANCH  23  26
ENDBRANCH  21  22
ENDBRANCH   1  21
TORSDOF 15
ENDMDL
