MODEL 1
REMARK VINA RESULT:     -10.2      0.000      0.000
REMARK SMILES O=C(NCCCNC(=O)c1cn(C2C[NH+](CCC[C@@H]3CCCO3)C2)nn1)c1ccc(-c2c3nc(c(-c4ccc(S(=O)(=O)[O-])cc4)c4ccc([nH]4)c(-c4ccc(S(=O)(=O)[O-])cc4)c4nc(c(-c5ccc(S(=O)(=O)[O-])cc5)c5ccc2[nH]5)C=C4)C=C3)cc1
REMARK SMILES IDX 6 1 5 2 4 3 3 4 1 5 2 6 27 8 28 9 86 10 29 11 85 12 30 13
REMARK SMILES IDX 31 14 32 15 79 16 33 17 84 18 78 19 80 20 34 21 83 22 77 23
REMARK SMILES IDX 76 24 35 26 65 27 46 28 64 29 47 30 50 31 63 32 81 33 48 34
REMARK SMILES IDX 49 35 62 37 82 38 51 39 36 40 37 41 45 42 38 43 44 44 39 45
REMARK SMILES IDX 40 46 41 47 42 48 43 49 66 50 67 51 75 52 68 53 74 54 69 55
REMARK SMILES IDX 70 56 71 57 72 58 73 59 52 60 53 61 61 62 54 63 60 64 55 65
REMARK SMILES IDX 56 66 57 67 58 68 59 69 7 70 8 71 9 73 10 74 11 75 26 76
REMARK SMILES IDX 12 77 25 78 13 79 14 80 24 81 15 82 16 84 17 85 18 86 19 87
REMARK SMILES IDX 20 88 23 89 21 90 22 91
REMARK H PARENT 3 7 80 25 50 36 7 72 15 83
REMARK Flexibility Score: inf
ROOT
ATOM      1  C   UNL A   1      33.166  35.558  29.387  1.00  0.00     0.118 C 
ENDROOT
BRANCH   1   2
ATOM      2  C   UNL A   1      34.553  35.031  29.023  1.00  0.00     0.042 C 
BRANCH   2   3
ATOM      3  C   UNL A   1      34.612  34.333  27.665  1.00  0.00     0.118 C 
BRANCH   3   4
ATOM      4  N   UNL A   1      33.958  33.041  27.620  1.00  0.00    -0.352 N 
ATOM      5  O   UNL A   1      33.399  30.936  27.990  1.00  0.00    -0.269 OA
ATOM      6  C   UNL A   1      34.276  31.798  28.089  1.00  0.00     0.251 C 
ATOM      7  H   UNL A   1      33.095  33.065  27.147  1.00  0.00     0.163 HD
BRANCH   6   8
ATOM      8  C   UNL A   1      35.617  31.413  28.593  1.00  0.00     0.039 A 
ATOM      9  C   UNL A   1      36.487  32.242  29.307  1.00  0.00     0.014 A 
ATOM     10  C   UNL A   1      36.035  30.118  28.249  1.00  0.00     0.014 A 
ATOM     11  C   UNL A   1      37.801  31.852  29.534  1.00  0.00     0.010 A 
ATOM     12  C   UNL A   1      37.332  29.709  28.500  1.00  0.00     0.010 A 
ATOM     13  C   UNL A   1      38.226  30.606  29.083  1.00  0.00    -0.014 A 
BRANCH  13  14
ATOM     14  C   UNL A   1      39.602  30.196  29.332  1.00  0.00     0.031 A 
ATOM     15  C   UNL A   1      40.016  30.229  30.770  1.00  0.00     0.074 A 
ATOM     16  C   UNL A   1      40.321  29.624  28.344  1.00  0.00     0.049 A 
ATOM     17  N   UNL A   1      41.071  30.757  31.302  1.00  0.00    -0.248 NA
ATOM     18  C   UNL A   1      39.068  29.679  31.759  1.00  0.00     0.031 C 
ATOM     19  C   UNL A   1      39.872  29.297  26.984  1.00  0.00     0.029 A 
ATOM     20  N   UNL A   1      41.554  29.053  28.394  1.00  0.00    -0.354 N 
ATOM     21  C   UNL A   1      41.014  30.445  32.662  1.00  0.00     0.074 A 
ATOM     22  C   UNL A   1      39.700  29.910  32.907  1.00  0.00     0.031 C 
ATOM     23  C   UNL A   1      40.687  28.354  26.462  1.00  0.00     0.029 A 
ATOM     24  C   UNL A   1      41.778  28.114  27.390  1.00  0.00     0.049 A 
ATOM     25  H   UNL A   1      42.226  29.283  29.076  1.00  0.00     0.167 HD
ATOM     26  C   UNL A   1      42.115  30.435  33.464  1.00  0.00     0.031 A 
ATOM     27  C   UNL A   1      42.722  27.136  27.384  1.00  0.00     0.031 A 
ATOM     28  C   UNL A   1      43.206  31.175  32.898  1.00  0.00     0.049 A 
ATOM     29  C   UNL A   1      43.741  27.513  28.397  1.00  0.00     0.074 A 
ATOM     30  C   UNL A   1      43.409  32.497  32.560  1.00  0.00     0.029 A 
ATOM     31  N   UNL A   1      44.181  30.465  32.239  1.00  0.00    -0.354 N 
ATOM     32  N   UNL A   1      44.487  28.578  28.299  1.00  0.00    -0.248 NA
ATOM     33  C   UNL A   1      43.580  26.986  29.745  1.00  0.00     0.031 C 
ATOM     34  C   UNL A   1      44.144  32.451  31.340  1.00  0.00     0.029 A 
ATOM     35  C   UNL A   1      44.404  31.110  31.048  1.00  0.00     0.049 A 
ATOM     36  H   UNL A   1      44.634  29.651  32.559  1.00  0.00     0.167 HD
ATOM     37  C   UNL A   1      44.540  29.099  29.585  1.00  0.00     0.074 A 
ATOM     38  C   UNL A   1      44.026  28.033  30.446  1.00  0.00     0.031 C 
ATOM     39  C   UNL A   1      44.722  30.435  29.808  1.00  0.00     0.031 A 
BRANCH  26  40
ATOM     40  C   UNL A   1      42.312  29.433  34.576  1.00  0.00    -0.014 A 
ATOM     41  C   UNL A   1      42.691  29.886  35.855  1.00  0.00     0.010 A 
ATOM     42  C   UNL A   1      42.420  28.048  34.328  1.00  0.00     0.010 A 
ATOM     43  C   UNL A   1      43.218  29.003  36.809  1.00  0.00     0.020 A 
ATOM     44  C   UNL A   1      42.904  27.155  35.284  1.00  0.00     0.020 A 
ATOM     45  C   UNL A   1      43.337  27.645  36.509  1.00  0.00     0.054 A 
BRANCH  45  46
ATOM     46  S   UNL A   1      44.142  26.538  37.693  1.00  0.00     0.124 S 
ATOM     47  O   UNL A   1      45.230  25.983  36.893  1.00  0.00    -0.237 OA
ATOM     48  O   UNL A   1      44.540  27.457  38.755  1.00  0.00    -0.237 OA
ATOM     49  O   UNL A   1      43.085  25.595  38.054  1.00  0.00    -0.744 OA
ENDBRANCH  45  46
ENDBRANCH  26  40
BRANCH  27  50
ATOM     50  C   UNL A   1      42.552  25.744  26.880  1.00  0.00    -0.014 A 
ATOM     51  C   UNL A   1      43.651  24.892  26.661  1.00  0.00     0.010 A 
ATOM     52  C   UNL A   1      41.267  25.161  26.860  1.00  0.00     0.010 A 
ATOM     53  C   UNL A   1      43.469  23.507  26.464  1.00  0.00     0.020 A 
ATOM     54  C   UNL A   1      41.077  23.789  26.659  1.00  0.00     0.020 A 
ATOM     55  C   UNL A   1      42.182  22.962  26.480  1.00  0.00     0.054 A 
BRANCH  55  56
ATOM     56  S   UNL A   1      41.958  21.159  26.379  1.00  0.00     0.124 S 
ATOM     57  O   UNL A   1      42.850  20.795  25.282  1.00  0.00    -0.237 OA
ATOM     58  O   UNL A   1      42.374  20.712  27.706  1.00  0.00    -0.237 OA
ATOM     59  O   UNL A   1      40.532  21.003  26.095  1.00  0.00    -0.744 OA
ENDBRANCH  55  56
ENDBRANCH  27  50
BRANCH  39  60
ATOM     60  C   UNL A   1      45.040  31.328  28.626  1.00  0.00    -0.014 A 
ATOM     61  C   UNL A   1      44.062  31.801  27.726  1.00  0.00     0.010 A 
ATOM     62  C   UNL A   1      46.339  31.856  28.535  1.00  0.00     0.010 A 
ATOM     63  C   UNL A   1      44.382  32.763  26.754  1.00  0.00     0.020 A 
ATOM     64  C   UNL A   1      46.659  32.824  27.580  1.00  0.00     0.020 A 
ATOM     65  C   UNL A   1      45.683  33.271  26.690  1.00  0.00     0.054 A 
BRANCH  65  66
ATOM     66  S   UNL A   1      46.080  34.560  25.473  1.00  0.00     0.124 S 
ATOM     67  O   UNL A   1      45.215  34.219  24.348  1.00  0.00    -0.237 OA
ATOM     68  O   UNL A   1      45.738  35.794  26.178  1.00  0.00    -0.237 OA
ATOM     69  O   UNL A   1      47.511  34.378  25.227  1.00  0.00    -0.744 OA
ENDBRANCH  65  66
ENDBRANCH  39  60
ENDBRANCH  13  14
ENDBRANCH   6   8
ENDBRANCH   3   4
ENDBRANCH   2   3
ENDBRANCH   1   2
BRANCH   1  70
ATOM     70  N   UNL A   1      33.235  36.739  30.240  1.00  0.00    -0.351 N 
ATOM     71  C   UNL A   1      33.295  36.834  31.602  1.00  0.00     0.273 C 
ATOM     72  H   UNL A   1      33.239  37.599  29.760  1.00  0.00     0.163 HD
ATOM     73  O   UNL A   1      33.052  37.930  32.129  1.00  0.00    -0.267 OA
BRANCH  71  74
ATOM     74  C   UNL A   1      33.657  35.669  32.372  1.00  0.00     0.170 A 
ATOM     75  C   UNL A   1      34.793  35.475  33.136  1.00  0.00     0.145 A 
ATOM     76  N   UNL A   1      32.849  34.568  32.483  1.00  0.00    -0.125 NA
ATOM     77  N   UNL A   1      34.661  34.202  33.593  1.00  0.00    -0.237 N 
ATOM     78  N   UNL A   1      33.480  33.670  33.222  1.00  0.00    -0.066 NA
BRANCH  77  79
ATOM     79  C   UNL A   1      35.603  33.414  34.310  1.00  0.00     0.218 C 
ATOM     80  C   UNL A   1      36.430  32.412  33.447  1.00  0.00     0.295 C 
ATOM     81  C   UNL A   1      36.975  34.072  34.560  1.00  0.00     0.295 C 
ATOM     82  N   UNL A   1      37.621  32.786  34.229  1.00  0.00    -0.331 N 
ATOM     83  H   UNL A   1      38.554  32.770  33.817  1.00  0.00     0.348 HD
BRANCH  82  84
ATOM     84  C   UNL A   1      37.869  31.902  35.387  1.00  0.00     0.262 C 
BRANCH  84  85
ATOM     85  C   UNL A   1      39.253  31.685  36.061  1.00  0.00     0.064 C 
BRANCH  85  86
ATOM     86  C   UNL A   1      40.119  32.894  36.482  1.00  0.00     0.038 C 
BRANCH  86  87
ATOM     87  C   UNL A   1      41.117  33.424  35.455  1.00  0.00     0.118 C 
ATOM     88  C   UNL A   1      41.672  34.792  35.818  1.00  0.00     0.034 C 
ATOM     89  O   UNL A   1      40.519  33.534  34.162  1.00  0.00    -0.378 OA
ATOM     90  C   UNL A   1      41.917  35.406  34.464  1.00  0.00     0.031 C 
ATOM     91  C   UNL A   1      40.766  34.852  33.658  1.00  0.00     0.160 C 
ENDBRANCH  86  87
ENDBRANCH  85  86
ENDBRANCH  84  85
ENDBRANCH  82  84
ENDBRANCH  77  79
ENDBRANCH  71  74
ENDBRANCH   1  70
TORSDOF 18
ENDMDL
MODEL 2
REMARK VINA RESULT:      -9.8      4.600     11.738
REMARK SMILES O=C(NCCCNC(=O)c1cn(C2C[NH+](CCC[C@@H]3CCCO3)C2)nn1)c1ccc(-c2c3nc(c(-c4ccc(S(=O)(=O)[O-])cc4)c4ccc([nH]4)c(-c4ccc(S(=O)(=O)[O-])cc4)c4nc(c(-c5ccc(S(=O)(=O)[O-])cc5)c5ccc2[nH]5)C=C4)C=C3)cc1
REMARK SMILES IDX 6 1 5 2 4 3 3 4 1 5 2 6 27 8 28 9 86 10 29 11 85 12 30 13
REMARK SMILES IDX 31 14 32 15 79 16 33 17 84 18 78 19 80 20 34 21 83 22 77 23
REMARK SMILES IDX 76 24 35 26 65 27 46 28 64 29 47 30 50 31 63 32 81 33 48 34
REMARK SMILES IDX 49 35 62 37 82 38 51 39 36 40 37 41 45 42 38 43 44 44 39 45
REMARK SMILES IDX 40 46 41 47 42 48 43 49 66 50 67 51 75 52 68 53 74 54 69 55
REMARK SMILES IDX 70 56 71 57 72 58 73 59 52 60 53 61 61 62 54 63 60 64 55 65
REMARK SMILES IDX 56 66 57 67 58 68 59 69 7 70 8 71 9 73 10 74 11 75 26 76
REMARK SMILES IDX 12 77 25 78 13 79 14 80 24 81 15 82 16 84 17 85 18 86 19 87
REMARK SMILES IDX 20 88 23 89 21 90 22 91
REMARK H PARENT 3 7 80 25 50 36 7 72 15 83
REMARK Flexibility Score: inf
ROOT
ATOM      1  C   UNL A   1      37.376  21.381  25.266  1.00  0.00     0.118 C 
ENDROOT
BRANCH   1   2
ATOM      2  C   UNL A   1      38.698  20.815  25.783  1.00  0.00     0.042 C 
BRANCH   2   3
ATOM      3  C   UNL A   1      39.728  21.884  26.145  1.00  0.00     0.118 C 
BRANCH   3   4
ATOM      4  N   UNL A   1      40.997  21.759  25.457  1.00  0.00    -0.352 N 
ATOM      5  O   UNL A   1      43.133  21.900  24.910  1.00  0.00    -0.269 OA
ATOM      6  C   UNL A   1      42.214  22.363  25.591  1.00  0.00     0.251 C 
ATOM      7  H   UNL A   1      40.976  21.091  24.734  1.00  0.00     0.163 HD
BRANCH   6   8
ATOM      8  C   UNL A   1      42.458  23.580  26.404  1.00  0.00     0.039 A 
ATOM      9  C   UNL A   1      43.239  23.643  27.562  1.00  0.00     0.014 A 
ATOM     10  C   UNL A   1      41.778  24.731  25.974  1.00  0.00     0.014 A 
ATOM     11  C   UNL A   1      43.216  24.778  28.362  1.00  0.00     0.010 A 
ATOM     12  C   UNL A   1      41.777  25.875  26.749  1.00  0.00     0.010 A 
ATOM     13  C   UNL A   1      42.444  25.868  27.974  1.00  0.00    -0.014 A 
BRANCH  13  14
ATOM     14  C   UNL A   1      42.431  27.060  28.811  1.00  0.00     0.031 A 
ATOM     15  C   UNL A   1      43.580  27.994  28.592  1.00  0.00     0.074 A 
ATOM     16  C   UNL A   1      41.333  27.358  29.538  1.00  0.00     0.049 A 
ATOM     17  N   UNL A   1      44.367  28.536  29.463  1.00  0.00    -0.248 NA
ATOM     18  C   UNL A   1      43.958  28.282  27.194  1.00  0.00     0.031 C 
ATOM     19  C   UNL A   1      40.058  26.631  29.572  1.00  0.00     0.029 A 
ATOM     20  N   UNL A   1      41.060  28.471  30.269  1.00  0.00    -0.354 N 
ATOM     21  C   UNL A   1      45.218  29.378  28.743  1.00  0.00     0.074 A 
ATOM     22  C   UNL A   1      45.017  29.073  27.351  1.00  0.00     0.031 C 
ATOM     23  C   UNL A   1      39.089  27.454  30.031  1.00  0.00     0.029 A 
ATOM     24  C   UNL A   1      39.698  28.707  30.442  1.00  0.00     0.049 A 
ATOM     25  H   UNL A   1      41.759  29.055  30.643  1.00  0.00     0.167 HD
ATOM     26  C   UNL A   1      45.876  30.426  29.313  1.00  0.00     0.031 A 
ATOM     27  C   UNL A   1      39.111  29.884  30.786  1.00  0.00     0.031 A 
ATOM     28  C   UNL A   1      45.950  30.310  30.741  1.00  0.00     0.049 A 
ATOM     29  C   UNL A   1      40.174  30.741  31.372  1.00  0.00     0.074 A 
ATOM     30  C   UNL A   1      46.534  29.412  31.611  1.00  0.00     0.029 A 
ATOM     31  N   UNL A   1      45.030  31.009  31.484  1.00  0.00    -0.354 N 
ATOM     32  N   UNL A   1      40.802  30.446  32.477  1.00  0.00    -0.248 NA
ATOM     33  C   UNL A   1      40.875  31.653  30.480  1.00  0.00     0.031 C 
ATOM     34  C   UNL A   1      45.591  29.268  32.669  1.00  0.00     0.029 A 
ATOM     35  C   UNL A   1      44.526  30.135  32.415  1.00  0.00     0.049 A 
ATOM     36  H   UNL A   1      44.780  31.955  31.371  1.00  0.00     0.167 HD
ATOM     37  C   UNL A   1      42.127  30.780  32.235  1.00  0.00     0.074 A 
ATOM     38  C   UNL A   1      42.098  31.590  31.016  1.00  0.00     0.031 C 
ATOM     39  C   UNL A   1      43.153  30.140  32.873  1.00  0.00     0.031 A 
BRANCH  26  40
ATOM     40  C   UNL A   1      46.109  31.735  28.598  1.00  0.00    -0.014 A 
ATOM     41  C   UNL A   1      45.023  32.391  27.986  1.00  0.00     0.010 A 
ATOM     42  C   UNL A   1      47.403  32.186  28.262  1.00  0.00     0.010 A 
ATOM     43  C   UNL A   1      45.229  33.399  27.032  1.00  0.00     0.020 A 
ATOM     44  C   UNL A   1      47.618  33.216  27.345  1.00  0.00     0.020 A 
ATOM     45  C   UNL A   1      46.529  33.791  26.706  1.00  0.00     0.054 A 
BRANCH  45  46
ATOM     46  S   UNL A   1      46.789  34.995  25.380  1.00  0.00     0.124 S 
ATOM     47  O   UNL A   1      48.148  34.677  24.949  1.00  0.00    -0.237 OA
ATOM     48  O   UNL A   1      45.728  34.651  24.437  1.00  0.00    -0.237 OA
ATOM     49  O   UNL A   1      46.629  36.283  26.049  1.00  0.00    -0.744 OA
ENDBRANCH  45  46
ENDBRANCH  26  40
BRANCH  27  50
ATOM     50  C   UNL A   1      37.833  30.428  30.245  1.00  0.00    -0.014 A 
ATOM     51  C   UNL A   1      36.866  31.023  31.077  1.00  0.00     0.010 A 
ATOM     52  C   UNL A   1      37.679  30.594  28.852  1.00  0.00     0.010 A 
ATOM     53  C   UNL A   1      35.808  31.782  30.534  1.00  0.00     0.020 A 
ATOM     54  C   UNL A   1      36.629  31.340  28.305  1.00  0.00     0.020 A 
ATOM     55  C   UNL A   1      35.706  31.948  29.150  1.00  0.00     0.054 A 
BRANCH  55  56
ATOM     56  S   UNL A   1      34.433  33.050  28.460  1.00  0.00     0.124 S 
ATOM     57  O   UNL A   1      33.576  32.119  27.731  1.00  0.00    -0.237 OA
ATOM     58  O   UNL A   1      33.845  33.646  29.656  1.00  0.00    -0.237 OA
ATOM     59  O   UNL A   1      35.195  33.975  27.621  1.00  0.00    -0.744 OA
ENDBRANCH  55  56
ENDBRANCH  27  50
BRANCH  39  60
ATOM     60  C   UNL A   1      42.818  29.168  33.984  1.00  0.00    -0.014 A 
ATOM     61  C   UNL A   1      42.384  29.572  35.264  1.00  0.00     0.010 A 
ATOM     62  C   UNL A   1      42.761  27.801  33.664  1.00  0.00     0.010 A 
ATOM     63  C   UNL A   1      41.921  28.631  36.200  1.00  0.00     0.020 A 
ATOM     64  C   UNL A   1      42.288  26.863  34.584  1.00  0.00     0.020 A 
ATOM     65  C   UNL A   1      41.874  27.279  35.850  1.00  0.00     0.054 A 
BRANCH  65  66
ATOM     66  S   UNL A   1      41.217  26.071  37.037  1.00  0.00     0.124 S 
ATOM     67  O   UNL A   1      40.207  26.843  37.756  1.00  0.00    -0.237 OA
ATOM     68  O   UNL A   1      40.701  25.010  36.175  1.00  0.00    -0.237 OA
ATOM     69  O   UNL A   1      42.386  25.694  37.833  1.00  0.00    -0.744 OA
ENDBRANCH  65  66
ENDBRANCH  39  60
ENDBRANCH  13  14
ENDBRANCH   6   8
ENDBRANCH   3   4
ENDBRANCH   2   3
ENDBRANCH   1   2
BRANCH   1  70
ATOM     70  N   UNL A   1      36.497  20.336  24.755  1.00  0.00    -0.351 N 
ATOM     71  C   UNL A   1      35.152  20.160  24.928  1.00  0.00     0.273 C 
ATOM     72  H   UNL A   1      36.939  19.653  24.201  1.00  0.00     0.163 HD
ATOM     73  O   UNL A   1      34.661  19.054  24.654  1.00  0.00    -0.267 OA
BRANCH  71  74
ATOM     74  C   UNL A   1      34.355  21.265  25.400  1.00  0.00     0.170 A 
ATOM     75  C   UNL A   1      33.527  22.091  24.662  1.00  0.00     0.145 A 
ATOM     76  N   UNL A   1      34.281  21.622  26.721  1.00  0.00    -0.125 NA
ATOM     77  N   UNL A   1      33.068  22.988  25.575  1.00  0.00    -0.237 N 
ATOM     78  N   UNL A   1      33.500  22.686  26.815  1.00  0.00    -0.066 NA
BRANCH  77  79
ATOM     79  C   UNL A   1      32.294  24.160  25.356  1.00  0.00     0.218 C 
ATOM     80  C   UNL A   1      31.141  24.015  24.316  1.00  0.00     0.295 C 
ATOM     81  C   UNL A   1      31.141  24.398  26.352  1.00  0.00     0.295 C 
ATOM     82  N   UNL A   1      30.283  24.801  25.219  1.00  0.00    -0.331 N 
ATOM     83  H   UNL A   1      29.274  24.651  25.258  1.00  0.00     0.348 HD
BRANCH  82  84
ATOM     84  C   UNL A   1      30.286  26.249  24.925  1.00  0.00     0.262 C 
BRANCH  84  85
ATOM     85  C   UNL A   1      29.588  26.911  23.703  1.00  0.00     0.064 C 
BRANCH  85  86
ATOM     86  C   UNL A   1      30.424  27.617  22.611  1.00  0.00     0.038 C 
BRANCH  86  87
ATOM     87  C   UNL A   1      30.202  29.117  22.429  1.00  0.00     0.118 C 
ATOM     88  C   UNL A   1      29.882  29.832  23.732  1.00  0.00     0.034 C 
ATOM     89  O   UNL A   1      29.126  29.374  21.524  1.00  0.00    -0.378 OA
ATOM     90  C   UNL A   1      28.984  30.949  23.270  1.00  0.00     0.031 C 
ATOM     91  C   UNL A   1      28.219  30.290  22.147  1.00  0.00     0.160 C 
ENDBRANCH  86  87
ENDBRANCH  85  86
ENDBRANCH  84  85
ENDBRANCH  82  84
ENDBRANCH  77  79
ENDBRANCH  71  74
ENDBRANCH   1  70
TORSDOF 18
ENDMDL
MODEL 3
REMARK VINA RESULT:      -9.8      4.051      7.817
REMARK SMILES O=C(NCCCNC(=O)c1cn(C2C[NH+](CCC[C@@H]3CCCO3)C2)nn1)c1ccc(-c2c3nc(c(-c4ccc(S(=O)(=O)[O-])cc4)c4ccc([nH]4)c(-c4ccc(S(=O)(=O)[O-])cc4)c4nc(c(-c5ccc(S(=O)(=O)[O-])cc5)c5ccc2[nH]5)C=C4)C=C3)cc1
REMARK SMILES IDX 6 1 5 2 4 3 3 4 1 5 2 6 27 8 28 9 86 10 29 11 85 12 30 13
REMARK SMILES IDX 31 14 32 15 79 16 33 17 84 18 78 19 80 20 34 21 83 22 77 23
REMARK SMILES IDX 76 24 35 26 65 27 46 28 64 29 47 30 50 31 63 32 81 33 48 34
REMARK SMILES IDX 49 35 62 37 82 38 51 39 36 40 37 41 45 42 38 43 44 44 39 45
REMARK SMILES IDX 40 46 41 47 42 48 43 49 66 50 67 51 75 52 68 53 74 54 69 55
REMARK SMILES IDX 70 56 71 57 72 58 73 59 52 60 53 61 61 62 54 63 60 64 55 65
REMARK SMILES IDX 56 66 57 67 58 68 59 69 7 70 8 71 9 73 10 74 11 75 26 76
REMARK SMILES IDX 12 77 25 78 13 79 14 80 24 81 15 82 16 84 17 85 18 86 19 87
REMARK SMILES IDX 20 88 23 89 21 90 22 91
REMARK H PARENT 3 7 80 25 50 36 7 72 15 83
REMARK Flexibility Score: inf
ROOT
ATOM      1  C   UNL A   1      33.841  29.981  26.614  1.00  0.00     0.118 C 
ENDROOT
BRANCH   1   2
ATOM      2  C   UNL A   1      33.328  31.116  27.499  1.00  0.00     0.042 C 
BRANCH   2   3
ATOM      3  C   UNL A   1      34.429  31.855  28.257  1.00  0.00     0.118 C 
BRANCH   3   4
ATOM      4  N   UNL A   1      34.125  32.133  29.647  1.00  0.00    -0.352 N 
ATOM      5  O   UNL A   1      34.288  32.651  31.788  1.00  0.00    -0.269 OA
ATOM      6  C   UNL A   1      34.880  32.265  30.777  1.00  0.00     0.251 C 
ATOM      7  H   UNL A   1      33.162  32.253  29.812  1.00  0.00     0.163 HD
BRANCH   6   8
ATOM      8  C   UNL A   1      36.308  31.874  30.878  1.00  0.00     0.039 A 
ATOM      9  C   UNL A   1      37.391  32.755  30.933  1.00  0.00     0.014 A 
ATOM     10  C   UNL A   1      36.552  30.491  30.849  1.00  0.00     0.014 A 
ATOM     11  C   UNL A   1      38.690  32.281  30.802  1.00  0.00     0.010 A 
ATOM     12  C   UNL A   1      37.844  30.009  30.751  1.00  0.00     0.010 A 
ATOM     13  C   UNL A   1      38.902  30.913  30.660  1.00  0.00    -0.014 A 
BRANCH  13  14
ATOM     14  C   UNL A   1      40.266  30.418  30.533  1.00  0.00     0.031 A 
ATOM     15  C   UNL A   1      41.030  30.344  31.818  1.00  0.00     0.074 A 
ATOM     16  C   UNL A   1      40.676  29.870  29.369  1.00  0.00     0.049 A 
ATOM     17  N   UNL A   1      42.216  30.784  32.088  1.00  0.00    -0.248 NA
ATOM     18  C   UNL A   1      40.327  29.785  32.990  1.00  0.00     0.031 C 
ATOM     19  C   UNL A   1      39.879  29.649  28.155  1.00  0.00     0.029 A 
ATOM     20  N   UNL A   1      41.842  29.235  29.079  1.00  0.00    -0.354 N 
ATOM     21  C   UNL A   1      42.483  30.394  33.402  1.00  0.00     0.074 A 
ATOM     22  C   UNL A   1      41.241  29.915  33.949  1.00  0.00     0.031 C 
ATOM     23  C   UNL A   1      40.474  28.698  27.401  1.00  0.00     0.029 A 
ATOM     24  C   UNL A   1      41.745  28.348  28.010  1.00  0.00     0.049 A 
ATOM     25  H   UNL A   1      42.677  29.388  29.577  1.00  0.00     0.167 HD
ATOM     26  C   UNL A   1      43.747  30.281  33.896  1.00  0.00     0.031 A 
ATOM     27  C   UNL A   1      42.592  27.324  27.720  1.00  0.00     0.031 A 
ATOM     28  C   UNL A   1      44.707  30.996  33.106  1.00  0.00     0.049 A 
ATOM     29  C   UNL A   1      43.855  27.587  28.457  1.00  0.00     0.074 A 
ATOM     30  C   UNL A   1      44.903  32.323  32.787  1.00  0.00     0.029 A 
ATOM     31  N   UNL A   1      45.437  30.277  32.189  1.00  0.00    -0.354 N 
ATOM     32  N   UNL A   1      44.620  28.616  28.220  1.00  0.00    -0.248 NA
ATOM     33  C   UNL A   1      44.004  26.989  29.777  1.00  0.00     0.031 C 
ATOM     34  C   UNL A   1      45.303  32.312  31.419  1.00  0.00     0.029 A 
ATOM     35  C   UNL A   1      45.394  30.980  31.011  1.00  0.00     0.049 A 
ATOM     36  H   UNL A   1      45.901  29.424  32.347  1.00  0.00     0.167 HD
ATOM     37  C   UNL A   1      45.028  29.056  29.472  1.00  0.00     0.074 A 
ATOM     38  C   UNL A   1      44.678  27.968  30.388  1.00  0.00     0.031 C 
ATOM     39  C   UNL A   1      45.346  30.365  29.701  1.00  0.00     0.031 A 
BRANCH  26  40
ATOM     40  C   UNL A   1      44.151  29.205  34.876  1.00  0.00    -0.014 A 
ATOM     41  C   UNL A   1      44.093  27.854  34.482  1.00  0.00     0.010 A 
ATOM     42  C   UNL A   1      44.305  29.466  36.255  1.00  0.00     0.010 A 
ATOM     43  C   UNL A   1      44.116  26.821  35.431  1.00  0.00     0.020 A 
ATOM     44  C   UNL A   1      44.370  28.444  37.203  1.00  0.00     0.020 A 
ATOM     45  C   UNL A   1      44.236  27.126  36.788  1.00  0.00     0.054 A 
BRANCH  45  46
ATOM     46  S   UNL A   1      44.129  25.798  38.012  1.00  0.00     0.124 S 
ATOM     47  O   UNL A   1      43.755  26.531  39.219  1.00  0.00    -0.237 OA
ATOM     48  O   UNL A   1      43.093  24.938  37.447  1.00  0.00    -0.237 OA
ATOM     49  O   UNL A   1      45.473  25.226  38.017  1.00  0.00    -0.744 OA
ENDBRANCH  45  46
ENDBRANCH  26  40
BRANCH  27  50
ATOM     50  C   UNL A   1      42.211  25.975  27.214  1.00  0.00    -0.014 A 
ATOM     51  C   UNL A   1      42.966  25.307  26.232  1.00  0.00     0.010 A 
ATOM     52  C   UNL A   1      41.230  25.224  27.898  1.00  0.00     0.010 A 
ATOM     53  C   UNL A   1      42.769  23.935  25.971  1.00  0.00     0.020 A 
ATOM     54  C   UNL A   1      41.024  23.864  27.641  1.00  0.00     0.020 A 
ATOM     55  C   UNL A   1      41.808  23.219  26.690  1.00  0.00     0.054 A 
BRANCH  55  56
ATOM     56  S   UNL A   1      41.659  21.420  26.462  1.00  0.00     0.124 S 
ATOM     57  O   UNL A   1      42.085  20.904  27.760  1.00  0.00    -0.237 OA
ATOM     58  O   UNL A   1      40.242  21.255  26.152  1.00  0.00    -0.237 OA
ATOM     59  O   UNL A   1      42.570  21.134  25.355  1.00  0.00    -0.744 OA
ENDBRANCH  55  56
ENDBRANCH  27  50
BRANCH  39  60
ATOM     60  C   UNL A   1      45.415  31.309  28.519  1.00  0.00    -0.014 A 
ATOM     61  C   UNL A   1      44.283  31.948  27.970  1.00  0.00     0.010 A 
ATOM     62  C   UNL A   1      46.685  31.707  28.072  1.00  0.00     0.010 A 
ATOM     63  C   UNL A   1      44.422  32.945  26.990  1.00  0.00     0.020 A 
ATOM     64  C   UNL A   1      46.831  32.708  27.108  1.00  0.00     0.020 A 
ATOM     65  C   UNL A   1      45.700  33.321  26.567  1.00  0.00     0.054 A 
BRANCH  65  66
ATOM     66  S   UNL A   1      45.882  34.652  25.345  1.00  0.00     0.124 S 
ATOM     67  O   UNL A   1      45.507  35.841  26.106  1.00  0.00    -0.237 OA
ATOM     68  O   UNL A   1      47.292  34.565  24.971  1.00  0.00    -0.237 OA
ATOM     69  O   UNL A   1      44.946  34.281  24.283  1.00  0.00    -0.744 OA
ENDBRANCH  65  66
ENDBRANCH  39  60
ENDBRANCH  13  14
ENDBRANCH   6   8
ENDBRANCH   3   4
ENDBRANCH   2   3
ENDBRANCH   1   2
BRANCH   1  70
ATOM     70  N   UNL A   1      33.232  30.002  25.289  1.00  0.00    -0.351 N 
ATOM     71  C   UNL A   1      32.829  28.965  24.494  1.00  0.00     0.273 C 
ATOM     72  H   UNL A   1      33.089  30.899  24.910  1.00  0.00     0.163 HD
ATOM     73  O   UNL A   1      32.610  29.192  23.294  1.00  0.00    -0.267 OA
BRANCH  71  74
ATOM     74  C   UNL A   1      32.653  27.659  25.079  1.00  0.00     0.170 A 
ATOM     75  C   UNL A   1      33.469  26.550  24.942  1.00  0.00     0.145 A 
ATOM     76  N   UNL A   1      31.622  27.354  25.928  1.00  0.00    -0.125 NA
ATOM     77  N   UNL A   1      32.819  25.584  25.644  1.00  0.00    -0.237 N 
ATOM     78  N   UNL A   1      31.726  26.077  26.257  1.00  0.00    -0.066 NA
BRANCH  77  79
ATOM     79  C   UNL A   1      33.120  24.197  25.730  1.00  0.00     0.218 C 
ATOM     80  C   UNL A   1      32.914  23.385  24.414  1.00  0.00     0.295 C 
ATOM     81  C   UNL A   1      34.602  23.818  25.535  1.00  0.00     0.295 C 
ATOM     82  N   UNL A   1      34.171  22.675  24.704  1.00  0.00    -0.331 N 
ATOM     83  H   UNL A   1      34.771  22.329  23.955  1.00  0.00     0.348 HD
BRANCH  82  84
ATOM     84  C   UNL A   1      33.979  21.411  25.444  1.00  0.00     0.262 C 
BRANCH  84  85
ATOM     85  C   UNL A   1      33.930  19.998  24.796  1.00  0.00     0.064 C 
BRANCH  85  86
ATOM     86  C   UNL A   1      32.615  19.461  24.187  1.00  0.00     0.038 C 
BRANCH  86  87
ATOM     87  C   UNL A   1      32.491  17.946  24.030  1.00  0.00     0.118 C 
ATOM     88  C   UNL A   1      32.498  17.209  25.360  1.00  0.00     0.034 C 
ATOM     89  O   UNL A   1      33.562  17.420  23.244  1.00  0.00    -0.378 OA
ATOM     90  C   UNL A   1      33.148  15.900  24.995  1.00  0.00     0.031 C 
ATOM     91  C   UNL A   1      34.158  16.331  23.959  1.00  0.00     0.160 C 
ENDBRANCH  86  87
ENDBRANCH  85  86
ENDBRANCH  84  85
ENDBRANCH  82  84
ENDBRANCH  77  79
ENDBRANCH  71  74
ENDBRANCH   1  70
TORSDOF 18
ENDMDL
