MODEL 1
REMARK VINA RESULT:     -13.5      0.000      0.000
REMARK SMILES CC[C@@H](C)[C@@H](NC(=O)CCn1ccc2ccc(Br)cc21)C(=O)NCCCNC(=O)c1ccc(-c2c3nc(c(-c4ccc(S(=O)(=O)[O-])cc4)c4ccc([nH]4)c(-c4ccc(S(=O)(=O)[O-])cc4)c4nc(c(-c5ccc(S(=O)(=O)[O-])cc5)c5ccc2[nH]5)C=C4)C=C3)cc1
REMARK SMILES IDX 24 1 23 2 21 3 22 4 5 6 3 7 4 8 2 9 1 10 6 11 7 12 8 14 9 15
REMARK SMILES IDX 10 16 11 17 12 18 20 19 13 20 14 21 19 22 15 23 17 24 16 25
REMARK SMILES IDX 18 26 25 27 26 28 27 29 28 30 29 32 30 33 31 34 89 35 32 36
REMARK SMILES IDX 88 37 33 38 34 39 35 40 82 41 36 42 87 43 81 44 83 45 37 46
REMARK SMILES IDX 86 47 80 48 79 49 38 51 68 52 49 53 67 54 50 55 53 56 66 57
REMARK SMILES IDX 84 58 51 59 52 60 65 62 85 63 54 64 39 65 40 66 48 67 41 68
REMARK SMILES IDX 47 69 42 70 43 71 44 72 45 73 46 74 69 75 70 76 78 77 71 78
REMARK SMILES IDX 77 79 72 80 73 81 74 82 75 83 76 84 55 85 56 86 64 87 57 88
REMARK SMILES IDX 63 89 58 90 59 91 60 92 61 93 62 94
REMARK H PARENT 23 5 6 13 27 31 83 50 53 61
REMARK Flexibility Score: inf
ROOT
ATOM      1  C   UNL A   1      37.908  22.982  25.795  1.00  0.00     0.117 C 
ENDROOT
BRANCH   1   2
ATOM      2  N   UNL A   1      36.461  22.975  26.446  1.00  0.00    -0.354 N 
ATOM      3  C   UNL A   1      35.071  22.730  26.212  1.00  0.00     0.242 C 
ATOM      4  O   UNL A   1      34.632  21.969  27.112  1.00  0.00    -0.273 OA
ATOM      5  H   UNL A   1      36.560  23.248  27.387  1.00  0.00     0.163 HD
BRANCH   3   6
ATOM      6  C   UNL A   1      33.738  23.306  25.024  1.00  0.00     0.174 C 
BRANCH   6   7
ATOM      7  C   UNL A   1      32.958  22.857  23.548  1.00  0.00     0.018 C 
ATOM      8  C   UNL A   1      32.538  21.385  23.328  1.00  0.00     0.010 C 
BRANCH   7   9
ATOM      9  C   UNL A   1      33.499  23.401  22.174  1.00  0.00     0.002 C 
ATOM     10  C   UNL A   1      32.814  24.732  21.772  1.00  0.00     0.004 C 
ENDBRANCH   7   9
ENDBRANCH   6   7
BRANCH   6  11
ATOM     11  N   UNL A   1      32.684  23.622  25.936  1.00  0.00    -0.344 N 
ATOM     12  C   UNL A   1      32.435  24.922  26.195  1.00  0.00     0.222 C 
ATOM     13  H   UNL A   1      32.154  22.910  26.363  1.00  0.00     0.164 HD
ATOM     14  O   UNL A   1      31.600  25.227  27.058  1.00  0.00    -0.275 OA
BRANCH  12  15
ATOM     15  C   UNL A   1      33.129  25.932  25.285  1.00  0.00     0.122 C 
BRANCH  15  16
ATOM     16  C   UNL A   1      32.244  27.141  24.599  1.00  0.00     0.132 C 
BRANCH  16  17
ATOM     17  N   UNL A   1      30.828  27.339  23.877  1.00  0.00    -0.347 N 
ATOM     18  C   UNL A   1      30.022  26.192  24.002  1.00  0.00     0.087 A 
ATOM     19  C   UNL A   1      29.862  28.398  23.387  1.00  0.00     0.049 A 
ATOM     20  C   UNL A   1      28.714  26.456  23.711  1.00  0.00     0.028 A 
ATOM     21  C   UNL A   1      28.568  27.824  23.423  1.00  0.00    -0.000 A 
ATOM     22  C   UNL A   1      29.818  29.809  22.969  1.00  0.00     0.042 A 
ATOM     23  C   UNL A   1      27.396  28.622  23.220  1.00  0.00     0.011 A 
ATOM     24  C   UNL A   1      28.651  30.585  22.851  1.00  0.00     0.020 A 
ATOM     25  C   UNL A   1      27.430  29.999  22.999  1.00  0.00     0.016 A 
ATOM     26  Br  UNL A   1      28.774  32.474  22.631  1.00  0.00    -0.051 Br
ENDBRANCH  16  17
ENDBRANCH  15  16
ENDBRANCH  12  15
ENDBRANCH   6  11
ENDBRANCH   3   6
ENDBRANCH   1   2
BRANCH   1  27
ATOM     27  C   UNL A   1      38.863  21.725  25.821  1.00  0.00     0.042 C 
BRANCH  27  28
ATOM     28  C   UNL A   1      40.236  21.828  26.517  1.00  0.00     0.118 C 
BRANCH  28  29
ATOM     29  N   UNL A   1      41.346  22.128  25.644  1.00  0.00    -0.352 N 
ATOM     30  C   UNL A   1      42.237  23.142  25.460  1.00  0.00     0.251 C 
ATOM     31  H   UNL A   1      41.502  21.397  25.004  1.00  0.00     0.163 HD
ATOM     32  O   UNL A   1      43.064  22.931  24.565  1.00  0.00    -0.269 OA
BRANCH  30  33
ATOM     33  C   UNL A   1      42.273  24.457  26.155  1.00  0.00     0.039 A 
ATOM     34  C   UNL A   1      43.115  24.829  27.203  1.00  0.00     0.014 A 
ATOM     35  C   UNL A   1      41.274  25.364  25.741  1.00  0.00     0.014 A 
ATOM     36  C   UNL A   1      42.852  26.010  27.913  1.00  0.00     0.010 A 
ATOM     37  C   UNL A   1      41.026  26.543  26.427  1.00  0.00     0.010 A 
ATOM     38  C   UNL A   1      41.765  26.829  27.565  1.00  0.00    -0.014 A 
BRANCH  38  39
ATOM     39  C   UNL A   1      41.509  28.069  28.307  1.00  0.00     0.031 A 
ATOM     40  C   UNL A   1      42.562  29.103  28.103  1.00  0.00     0.074 A 
ATOM     41  C   UNL A   1      40.368  28.324  28.992  1.00  0.00     0.049 A 
ATOM     42  N   UNL A   1      43.370  29.593  28.984  1.00  0.00    -0.248 NA
ATOM     43  C   UNL A   1      42.869  29.515  26.721  1.00  0.00     0.031 C 
ATOM     44  C   UNL A   1      39.149  27.509  29.062  1.00  0.00     0.029 A 
ATOM     45  N   UNL A   1      40.011  29.432  29.704  1.00  0.00    -0.354 N 
ATOM     46  C   UNL A   1      44.155  30.526  28.310  1.00  0.00     0.074 A 
ATOM     47  C   UNL A   1      43.927  30.305  26.905  1.00  0.00     0.031 C 
ATOM     48  C   UNL A   1      38.127  28.252  29.551  1.00  0.00     0.029 A 
ATOM     49  C   UNL A   1      38.645  29.542  29.976  1.00  0.00     0.049 A 
ATOM     50  H   UNL A   1      40.666  30.101  30.007  1.00  0.00     0.167 HD
ATOM     51  C   UNL A   1      44.763  31.555  28.962  1.00  0.00     0.031 A 
ATOM     52  C   UNL A   1      37.986  30.621  30.482  1.00  0.00     0.031 A 
ATOM     53  C   UNL A   1      44.813  31.324  30.380  1.00  0.00     0.049 A 
ATOM     54  C   UNL A   1      39.003  31.468  31.150  1.00  0.00     0.074 A 
ATOM     55  C   UNL A   1      45.429  30.391  31.187  1.00  0.00     0.029 A 
ATOM     56  N   UNL A   1      43.819  31.895  31.137  1.00  0.00    -0.354 N 
ATOM     57  N   UNL A   1      39.658  31.097  32.212  1.00  0.00    -0.248 NA
ATOM     58  C   UNL A   1      39.619  32.521  30.362  1.00  0.00     0.031 C 
ATOM     59  C   UNL A   1      44.480  30.114  32.212  1.00  0.00     0.029 A 
ATOM     60  C   UNL A   1      43.380  30.956  32.035  1.00  0.00     0.049 A 
ATOM     61  H   UNL A   1      43.481  32.815  31.048  1.00  0.00     0.167 HD
ATOM     62  C   UNL A   1      40.955  31.531  31.988  1.00  0.00     0.074 A 
ATOM     63  C   UNL A   1      40.853  32.470  30.871  1.00  0.00     0.031 C 
ATOM     64  C   UNL A   1      42.022  30.879  32.537  1.00  0.00     0.031 A 
BRANCH  51  65
ATOM     65  C   UNL A   1      44.980  32.920  28.357  1.00  0.00    -0.014 A 
ATOM     66  C   UNL A   1      43.932  33.717  27.854  1.00  0.00     0.010 A 
ATOM     67  C   UNL A   1      46.235  33.546  28.510  1.00  0.00     0.010 A 
ATOM     68  C   UNL A   1      44.118  35.053  27.499  1.00  0.00     0.020 A 
ATOM     69  C   UNL A   1      46.424  34.900  28.197  1.00  0.00     0.020 A 
ATOM     70  C   UNL A   1      45.364  35.641  27.681  1.00  0.00     0.054 A 
BRANCH  70  71
ATOM     71  S   UNL A   1      45.545  37.392  27.270  1.00  0.00     0.124 S 
ATOM     72  O   UNL A   1      46.469  37.339  26.140  1.00  0.00    -0.237 OA
ATOM     73  O   UNL A   1      44.175  37.781  26.947  1.00  0.00    -0.237 OA
ATOM     74  O   UNL A   1      46.088  37.977  28.493  1.00  0.00    -0.744 OA
ENDBRANCH  70  71
ENDBRANCH  51  65
BRANCH  52  75
ATOM     75  C   UNL A   1      36.683  31.206  30.041  1.00  0.00    -0.014 A 
ATOM     76  C   UNL A   1      36.524  31.614  28.702  1.00  0.00     0.010 A 
ATOM     77  C   UNL A   1      35.749  31.691  30.983  1.00  0.00     0.010 A 
ATOM     78  C   UNL A   1      35.541  32.543  28.334  1.00  0.00     0.020 A 
ATOM     79  C   UNL A   1      34.757  32.623  30.620  1.00  0.00     0.020 A 
ATOM     80  C   UNL A   1      34.689  33.076  29.302  1.00  0.00     0.054 A 
BRANCH  80  81
ATOM     81  S   UNL A   1      33.581  34.437  28.821  1.00  0.00     0.124 S 
ATOM     82  O   UNL A   1      34.516  35.403  28.253  1.00  0.00    -0.237 OA
ATOM     83  O   UNL A   1      32.687  33.792  27.861  1.00  0.00    -0.237 OA
ATOM     84  O   UNL A   1      32.954  34.837  30.078  1.00  0.00    -0.744 OA
ENDBRANCH  80  81
ENDBRANCH  52  75
BRANCH  64  85
ATOM     85  C   UNL A   1      41.774  29.831  33.605  1.00  0.00    -0.014 A 
ATOM     86  C   UNL A   1      42.211  30.139  34.905  1.00  0.00     0.010 A 
ATOM     87  C   UNL A   1      41.335  28.516  33.340  1.00  0.00     0.010 A 
ATOM     88  C   UNL A   1      42.262  29.162  35.900  1.00  0.00     0.020 A 
ATOM     89  C   UNL A   1      41.356  27.534  34.347  1.00  0.00     0.020 A 
ATOM     90  C   UNL A   1      41.849  27.861  35.613  1.00  0.00     0.054 A 
BRANCH  90  91
ATOM     91  S   UNL A   1      42.004  26.616  36.924  1.00  0.00     0.124 S 
ATOM     92  O   UNL A   1      43.123  27.134  37.710  1.00  0.00    -0.237 OA
ATOM     93  O   UNL A   1      40.701  26.676  37.580  1.00  0.00    -0.237 OA
ATOM     94  O   UNL A   1      42.279  25.375  36.203  1.00  0.00    -0.744 OA
ENDBRANCH  90  91
ENDBRANCH  64  85
ENDBRANCH  38  39
ENDBRANCH  30  33
ENDBRANCH  28  29
ENDBRANCH  27  28
ENDBRANCH   1  27
TORSDOF 19
ENDMDL
MODEL 2
REMARK VINA RESULT:     -13.1      1.458      2.142
REMARK SMILES CC[C@@H](C)[C@@H](NC(=O)CCn1ccc2ccc(Br)cc21)C(=O)NCCCNC(=O)c1ccc(-c2c3nc(c(-c4ccc(S(=O)(=O)[O-])cc4)c4ccc([nH]4)c(-c4ccc(S(=O)(=O)[O-])cc4)c4nc(c(-c5ccc(S(=O)(=O)[O-])cc5)c5ccc2[nH]5)C=C4)C=C3)cc1
REMARK SMILES IDX 24 1 23 2 21 3 22 4 5 6 3 7 4 8 2 9 1 10 6 11 7 12 8 14 9 15
REMARK SMILES IDX 10 16 11 17 12 18 20 19 13 20 14 21 19 22 15 23 17 24 16 25
REMARK SMILES IDX 18 26 25 27 26 28 27 29 28 30 29 32 30 33 31 34 89 35 32 36
REMARK SMILES IDX 88 37 33 38 34 39 35 40 82 41 36 42 87 43 81 44 83 45 37 46
REMARK SMILES IDX 86 47 80 48 79 49 38 51 68 52 49 53 67 54 50 55 53 56 66 57
REMARK SMILES IDX 84 58 51 59 52 60 65 62 85 63 54 64 39 65 40 66 48 67 41 68
REMARK SMILES IDX 47 69 42 70 43 71 44 72 45 73 46 74 69 75 70 76 78 77 71 78
REMARK SMILES IDX 77 79 72 80 73 81 74 82 75 83 76 84 55 85 56 86 64 87 57 88
REMARK SMILES IDX 63 89 58 90 59 91 60 92 61 93 62 94
REMARK H PARENT 23 5 6 13 27 31 83 50 53 61
REMARK Flexibility Score: inf
ROOT
ATOM      1  C   UNL A   1      39.027  21.808  26.065  1.00  0.00     0.117 C 
ENDROOT
BRANCH   1   2
ATOM      2  N   UNL A   1      38.084  21.949  24.796  1.00  0.00    -0.354 N 
ATOM      3  C   UNL A   1      36.743  22.169  24.351  1.00  0.00     0.242 C 
ATOM      4  O   UNL A   1      36.743  23.081  23.486  1.00  0.00    -0.273 OA
ATOM      5  H   UNL A   1      38.648  21.843  23.996  1.00  0.00     0.163 HD
BRANCH   3   6
ATOM      6  C   UNL A   1      35.046  21.414  24.620  1.00  0.00     0.174 C 
BRANCH   6   7
ATOM      7  C   UNL A   1      34.275  19.896  24.921  1.00  0.00     0.018 C 
ATOM      8  C   UNL A   1      35.007  18.586  24.549  1.00  0.00     0.010 C 
BRANCH   7   9
ATOM      9  C   UNL A   1      32.754  19.702  24.566  1.00  0.00     0.002 C 
ATOM     10  C   UNL A   1      32.557  18.703  23.396  1.00  0.00     0.004 C 
ENDBRANCH   7   9
ENDBRANCH   6   7
BRANCH   6  11
ATOM     11  N   UNL A   1      34.497  22.321  25.577  1.00  0.00    -0.344 N 
ATOM     12  C   UNL A   1      33.679  23.298  25.132  1.00  0.00     0.222 C 
ATOM     13  H   UNL A   1      34.710  22.236  26.535  1.00  0.00     0.164 HD
ATOM     14  O   UNL A   1      33.270  24.162  25.921  1.00  0.00    -0.275 OA
BRANCH  12  15
ATOM     15  C   UNL A   1      33.210  23.173  23.685  1.00  0.00     0.122 C 
BRANCH  15  16
ATOM     16  C   UNL A   1      33.136  24.521  22.741  1.00  0.00     0.132 C 
BRANCH  16  17
ATOM     17  N   UNL A   1      32.674  26.051  22.857  1.00  0.00    -0.347 N 
ATOM     18  C   UNL A   1      31.557  26.314  22.044  1.00  0.00     0.087 A 
ATOM     19  C   UNL A   1      32.755  27.269  23.753  1.00  0.00     0.049 A 
ATOM     20  C   UNL A   1      30.944  27.486  22.386  1.00  0.00     0.028 A 
ATOM     21  C   UNL A   1      31.601  28.048  23.494  1.00  0.00    -0.000 A 
ATOM     22  C   UNL A   1      33.577  27.857  24.825  1.00  0.00     0.042 A 
ATOM     23  C   UNL A   1      31.259  29.166  24.321  1.00  0.00     0.011 A 
ATOM     24  C   UNL A   1      33.178  28.910  25.669  1.00  0.00     0.020 A 
ATOM     25  C   UNL A   1      32.003  29.558  25.435  1.00  0.00     0.016 A 
ATOM     26  Br  UNL A   1      34.202  29.336  27.217  1.00  0.00    -0.051 Br
ENDBRANCH  16  17
ENDBRANCH  15  16
ENDBRANCH  12  15
ENDBRANCH   6  11
ENDBRANCH   3   6
ENDBRANCH   1   2
BRANCH   1  27
ATOM     27  C   UNL A   1      40.147  20.703  26.178  1.00  0.00     0.042 C 
BRANCH  27  28
ATOM     28  C   UNL A   1      41.567  21.103  26.632  1.00  0.00     0.118 C 
BRANCH  28  29
ATOM     29  N   UNL A   1      42.330  21.858  25.667  1.00  0.00    -0.352 N 
ATOM     30  C   UNL A   1      42.625  23.164  25.416  1.00  0.00     0.251 C 
ATOM     31  H   UNL A   1      42.755  21.264  25.008  1.00  0.00     0.163 HD
ATOM     32  O   UNL A   1      43.376  23.334  24.449  1.00  0.00    -0.269 OA
BRANCH  30  33
ATOM     33  C   UNL A   1      42.101  24.365  26.119  1.00  0.00     0.039 A 
ATOM     34  C   UNL A   1      41.317  25.382  25.574  1.00  0.00     0.014 A 
ATOM     35  C   UNL A   1      42.544  24.501  27.452  1.00  0.00     0.014 A 
ATOM     36  C   UNL A   1      41.121  26.566  26.298  1.00  0.00     0.010 A 
ATOM     37  C   UNL A   1      42.333  25.662  28.179  1.00  0.00     0.010 A 
ATOM     38  C   UNL A   1      41.688  26.730  27.573  1.00  0.00    -0.014 A 
BRANCH  38  39
ATOM     39  C   UNL A   1      41.464  27.969  28.326  1.00  0.00     0.031 A 
ATOM     40  C   UNL A   1      42.540  28.980  28.126  1.00  0.00     0.074 A 
ATOM     41  C   UNL A   1      40.331  28.246  29.016  1.00  0.00     0.049 A 
ATOM     42  N   UNL A   1      43.362  29.443  29.009  1.00  0.00    -0.248 NA
ATOM     43  C   UNL A   1      42.852  29.395  26.747  1.00  0.00     0.031 C 
ATOM     44  C   UNL A   1      39.093  27.459  29.084  1.00  0.00     0.029 A 
ATOM     45  N   UNL A   1      40.003  29.356  29.740  1.00  0.00    -0.354 N 
ATOM     46  C   UNL A   1      44.167  30.362  28.340  1.00  0.00     0.074 A 
ATOM     47  C   UNL A   1      43.930  30.158  26.934  1.00  0.00     0.031 C 
ATOM     48  C   UNL A   1      38.091  28.223  29.584  1.00  0.00     0.029 A 
ATOM     49  C   UNL A   1      38.641  29.496  30.016  1.00  0.00     0.049 A 
ATOM     50  H   UNL A   1      40.675  30.007  30.045  1.00  0.00     0.167 HD
ATOM     51  C   UNL A   1      44.802  31.371  28.997  1.00  0.00     0.031 A 
ATOM     52  C   UNL A   1      38.009  30.587  30.534  1.00  0.00     0.031 A 
ATOM     53  C   UNL A   1      44.851  31.127  30.414  1.00  0.00     0.049 A 
ATOM     54  C   UNL A   1      39.049  31.403  31.205  1.00  0.00     0.074 A 
ATOM     55  C   UNL A   1      45.447  30.173  31.211  1.00  0.00     0.029 A 
ATOM     56  N   UNL A   1      43.873  31.715  31.178  1.00  0.00    -0.354 N 
ATOM     57  N   UNL A   1      39.698  31.008  32.262  1.00  0.00    -0.248 NA
ATOM     58  C   UNL A   1      39.687  32.447  30.423  1.00  0.00     0.031 C 
ATOM     59  C   UNL A   1      44.496  29.910  32.236  1.00  0.00     0.029 A 
ATOM     60  C   UNL A   1      43.415  30.780  32.070  1.00  0.00     0.049 A 
ATOM     61  H   UNL A   1      43.557  32.644  31.099  1.00  0.00     0.167 HD
ATOM     62  C   UNL A   1      41.004  31.413  32.037  1.00  0.00     0.074 A 
ATOM     63  C   UNL A   1      40.921  32.363  30.928  1.00  0.00     0.031 C 
ATOM     64  C   UNL A   1      42.057  30.732  32.577  1.00  0.00     0.031 A 
BRANCH  51  65
ATOM     65  C   UNL A   1      45.050  32.735  28.403  1.00  0.00    -0.014 A 
ATOM     66  C   UNL A   1      44.013  33.593  27.980  1.00  0.00     0.010 A 
ATOM     67  C   UNL A   1      46.341  33.296  28.488  1.00  0.00     0.010 A 
ATOM     68  C   UNL A   1      44.244  34.925  27.637  1.00  0.00     0.020 A 
ATOM     69  C   UNL A   1      46.578  34.646  28.186  1.00  0.00     0.020 A 
ATOM     70  C   UNL A   1      45.526  35.447  27.750  1.00  0.00     0.054 A 
BRANCH  70  71
ATOM     71  S   UNL A   1      45.770  37.196  27.358  1.00  0.00     0.124 S 
ATOM     72  O   UNL A   1      46.447  37.120  26.066  1.00  0.00    -0.237 OA
ATOM     73  O   UNL A   1      44.400  37.702  27.324  1.00  0.00    -0.237 OA
ATOM     74  O   UNL A   1      46.589  37.685  28.463  1.00  0.00    -0.744 OA
ENDBRANCH  70  71
ENDBRANCH  51  65
BRANCH  52  75
ATOM     75  C   UNL A   1      36.720  31.206  30.102  1.00  0.00    -0.014 A 
ATOM     76  C   UNL A   1      36.595  31.706  28.791  1.00  0.00     0.010 A 
ATOM     77  C   UNL A   1      35.763  31.627  31.052  1.00  0.00     0.010 A 
ATOM     78  C   UNL A   1      35.623  32.663  28.465  1.00  0.00     0.020 A 
ATOM     79  C   UNL A   1      34.782  32.586  30.730  1.00  0.00     0.020 A 
ATOM     80  C   UNL A   1      34.749  33.130  29.446  1.00  0.00     0.054 A 
BRANCH  80  81
ATOM     81  S   UNL A   1      33.656  34.525  29.034  1.00  0.00     0.124 S 
ATOM     82  O   UNL A   1      34.595  35.488  28.465  1.00  0.00    -0.237 OA
ATOM     83  O   UNL A   1      32.723  33.925  28.082  1.00  0.00    -0.237 OA
ATOM     84  O   UNL A   1      33.073  34.904  30.318  1.00  0.00    -0.744 OA
ENDBRANCH  80  81
ENDBRANCH  52  75
BRANCH  64  85
ATOM     85  C   UNL A   1      41.788  29.681  33.637  1.00  0.00    -0.014 A 
ATOM     86  C   UNL A   1      42.240  29.965  34.937  1.00  0.00     0.010 A 
ATOM     87  C   UNL A   1      41.313  28.380  33.363  1.00  0.00     0.010 A 
ATOM     88  C   UNL A   1      42.272  28.979  35.923  1.00  0.00     0.020 A 
ATOM     89  C   UNL A   1      41.314  27.389  34.361  1.00  0.00     0.020 A 
ATOM     90  C   UNL A   1      41.822  27.692  35.628  1.00  0.00     0.054 A 
BRANCH  90  91
ATOM     91  S   UNL A   1      41.953  26.431  36.926  1.00  0.00     0.124 S 
ATOM     92  O   UNL A   1      42.360  25.249  36.168  1.00  0.00    -0.237 OA
ATOM     93  O   UNL A   1      42.974  26.986  37.811  1.00  0.00    -0.237 OA
ATOM     94  O   UNL A   1      40.609  26.367  37.495  1.00  0.00    -0.744 OA
ENDBRANCH  90  91
ENDBRANCH  64  85
ENDBRANCH  38  39
ENDBRANCH  30  33
ENDBRANCH  28  29
ENDBRANCH  27  28
ENDBRANCH   1  27
TORSDOF 19
ENDMDL
MODEL 3
REMARK VINA RESULT:     -12.5      3.237      9.757
REMARK SMILES CC[C@@H](C)[C@@H](NC(=O)CCn1ccc2ccc(Br)cc21)C(=O)NCCCNC(=O)c1ccc(-c2c3nc(c(-c4ccc(S(=O)(=O)[O-])cc4)c4ccc([nH]4)c(-c4ccc(S(=O)(=O)[O-])cc4)c4nc(c(-c5ccc(S(=O)(=O)[O-])cc5)c5ccc2[nH]5)C=C4)C=C3)cc1
REMARK SMILES IDX 24 1 23 2 21 3 22 4 5 6 3 7 4 8 2 9 1 10 6 11 7 12 8 14 9 15
REMARK SMILES IDX 10 16 11 17 12 18 20 19 13 20 14 21 19 22 15 23 17 24 16 25
REMARK SMILES IDX 18 26 25 27 26 28 27 29 28 30 29 32 30 33 31 34 89 35 32 36
REMARK SMILES IDX 88 37 33 38 34 39 35 40 82 41 36 42 87 43 81 44 83 45 37 46
REMARK SMILES IDX 86 47 80 48 79 49 38 51 68 52 49 53 67 54 50 55 53 56 66 57
REMARK SMILES IDX 84 58 51 59 52 60 65 62 85 63 54 64 39 65 40 66 48 67 41 68
REMARK SMILES IDX 47 69 42 70 43 71 44 72 45 73 46 74 69 75 70 76 78 77 71 78
REMARK SMILES IDX 77 79 72 80 73 81 74 82 75 83 76 84 55 85 56 86 64 87 57 88
REMARK SMILES IDX 63 89 58 90 59 91 60 92 61 93 62 94
REMARK H PARENT 23 5 6 13 27 31 83 50 53 61
REMARK Flexibility Score: inf
ROOT
ATOM      1  C   UNL A   1      33.947  29.602  26.738  1.00  0.00     0.117 C 
ENDROOT
BRANCH   1   2
ATOM      2  N   UNL A   1      32.848  30.318  25.844  1.00  0.00    -0.354 N 
ATOM      3  C   UNL A   1      31.663  30.126  25.067  1.00  0.00     0.242 C 
ATOM      4  O   UNL A   1      30.796  30.960  25.429  1.00  0.00    -0.273 OA
ATOM      5  H   UNL A   1      33.071  31.276  25.813  1.00  0.00     0.163 HD
BRANCH   3   6
ATOM      6  C   UNL A   1      31.104  29.070  23.619  1.00  0.00     0.174 C 
BRANCH   6   7
ATOM      7  C   UNL A   1      29.724  28.763  22.624  1.00  0.00     0.018 C 
ATOM      8  C   UNL A   1      29.124  29.913  21.784  1.00  0.00     0.010 C 
BRANCH   7   9
ATOM      9  C   UNL A   1      28.525  27.912  23.182  1.00  0.00     0.002 C 
ATOM     10  C   UNL A   1      27.196  28.711  23.170  1.00  0.00     0.004 C 
ENDBRANCH   7   9
ENDBRANCH   6   7
BRANCH   6  11
ATOM     11  N   UNL A   1      32.198  29.251  22.717  1.00  0.00    -0.344 N 
ATOM     12  C   UNL A   1      33.084  28.242  22.580  1.00  0.00     0.222 C 
ATOM     13  H   UNL A   1      32.302  30.088  22.209  1.00  0.00     0.164 HD
ATOM     14  O   UNL A   1      34.098  28.406  21.887  1.00  0.00    -0.275 OA
BRANCH  12  15
ATOM     15  C   UNL A   1      32.682  26.907  23.202  1.00  0.00     0.122 C 
BRANCH  15  16
ATOM     16  C   UNL A   1      33.120  26.575  24.755  1.00  0.00     0.132 C 
BRANCH  16  17
ATOM     17  N   UNL A   1      33.307  25.302  25.709  1.00  0.00    -0.347 N 
ATOM     18  C   UNL A   1      32.099  24.947  26.336  1.00  0.00     0.087 A 
ATOM     19  C   UNL A   1      34.202  24.106  25.961  1.00  0.00     0.049 A 
ATOM     20  C   UNL A   1      32.151  23.688  26.863  1.00  0.00     0.028 A 
ATOM     21  C   UNL A   1      33.397  23.110  26.565  1.00  0.00    -0.000 A 
ATOM     22  C   UNL A   1      35.574  23.626  25.725  1.00  0.00     0.042 A 
ATOM     23  C   UNL A   1      33.881  21.774  26.746  1.00  0.00     0.011 A 
ATOM     24  C   UNL A   1      35.998  22.290  25.842  1.00  0.00     0.020 A 
ATOM     25  C   UNL A   1      35.144  21.349  26.334  1.00  0.00     0.016 A 
ATOM     26  Br  UNL A   1      37.707  21.766  25.183  1.00  0.00    -0.051 Br
ENDBRANCH  16  17
ENDBRANCH  15  16
ENDBRANCH  12  15
ENDBRANCH   6  11
ENDBRANCH   3   6
ENDBRANCH   1   2
BRANCH   1  27
ATOM     27  C   UNL A   1      34.664  30.318  27.948  1.00  0.00     0.042 C 
BRANCH  27  28
ATOM     28  C   UNL A   1      34.281  31.768  28.308  1.00  0.00     0.118 C 
BRANCH  28  29
ATOM     29  N   UNL A   1      34.193  32.048  29.721  1.00  0.00    -0.352 N 
ATOM     30  C   UNL A   1      34.977  31.909  30.826  1.00  0.00     0.251 C 
ATOM     31  H   UNL A   1      33.324  32.451  29.949  1.00  0.00     0.163 HD
ATOM     32  O   UNL A   1      34.462  32.336  31.866  1.00  0.00    -0.269 OA
BRANCH  30  33
ATOM     33  C   UNL A   1      36.312  31.260  30.917  1.00  0.00     0.039 A 
ATOM     34  C   UNL A   1      37.555  31.893  30.912  1.00  0.00     0.014 A 
ATOM     35  C   UNL A   1      36.277  29.849  30.914  1.00  0.00     0.014 A 
ATOM     36  C   UNL A   1      38.719  31.127  30.749  1.00  0.00     0.010 A 
ATOM     37  C   UNL A   1      37.427  29.089  30.774  1.00  0.00     0.010 A 
ATOM     38  C   UNL A   1      38.646  29.731  30.611  1.00  0.00    -0.014 A 
BRANCH  38  39
ATOM     39  C   UNL A   1      39.871  28.940  30.454  1.00  0.00     0.031 A 
ATOM     40  C   UNL A   1      40.582  28.698  31.741  1.00  0.00     0.074 A 
ATOM     41  C   UNL A   1      40.255  28.354  29.294  1.00  0.00     0.049 A 
ATOM     42  N   UNL A   1      41.756  29.115  32.086  1.00  0.00    -0.248 NA
ATOM     43  C   UNL A   1      39.829  28.064  32.839  1.00  0.00     0.031 C 
ATOM     44  C   UNL A   1      39.524  28.291  28.023  1.00  0.00     0.029 A 
ATOM     45  N   UNL A   1      41.356  27.592  29.028  1.00  0.00    -0.354 N 
ATOM     46  C   UNL A   1      41.975  28.625  33.371  1.00  0.00     0.074 A 
ATOM     47  C   UNL A   1      40.701  28.148  33.845  1.00  0.00     0.031 C 
ATOM     48  C   UNL A   1      40.071  27.340  27.226  1.00  0.00     0.029 A 
ATOM     49  C   UNL A   1      41.278  26.836  27.856  1.00  0.00     0.049 A 
ATOM     50  H   UNL A   1      42.146  27.579  29.616  1.00  0.00     0.167 HD
ATOM     51  C   UNL A   1      43.231  28.446  33.865  1.00  0.00     0.031 A 
ATOM     52  C   UNL A   1      42.126  25.848  27.451  1.00  0.00     0.031 A 
ATOM     53  C   UNL A   1      44.208  29.162  33.090  1.00  0.00     0.049 A 
ATOM     54  C   UNL A   1      43.393  26.043  28.193  1.00  0.00     0.074 A 
ATOM     55  C   UNL A   1      44.452  30.494  32.832  1.00  0.00     0.029 A 
ATOM     56  N   UNL A   1      44.869  28.452  32.117  1.00  0.00    -0.354 N 
ATOM     57  N   UNL A   1      44.170  27.075  28.028  1.00  0.00    -0.248 NA
ATOM     58  C   UNL A   1      43.551  25.327  29.447  1.00  0.00     0.031 C 
ATOM     59  C   UNL A   1      44.840  30.535  31.463  1.00  0.00     0.029 A 
ATOM     60  C   UNL A   1      44.908  29.224  30.984  1.00  0.00     0.049 A 
ATOM     61  H   UNL A   1      45.246  27.548  32.216  1.00  0.00     0.167 HD
ATOM     62  C   UNL A   1      44.581  27.407  29.309  1.00  0.00     0.074 A 
ATOM     63  C   UNL A   1      44.233  26.249  30.132  1.00  0.00     0.031 C 
ATOM     64  C   UNL A   1      44.903  28.694  29.635  1.00  0.00     0.031 A 
BRANCH  51  65
ATOM     65  C   UNL A   1      43.609  27.341  34.819  1.00  0.00    -0.014 A 
ATOM     66  C   UNL A   1      43.650  25.981  34.448  1.00  0.00     0.010 A 
ATOM     67  C   UNL A   1      44.181  27.675  36.065  1.00  0.00     0.010 A 
ATOM     68  C   UNL A   1      44.205  25.001  35.272  1.00  0.00     0.020 A 
ATOM     69  C   UNL A   1      44.779  26.705  36.883  1.00  0.00     0.020 A 
ATOM     70  C   UNL A   1      44.775  25.371  36.483  1.00  0.00     0.054 A 
BRANCH  70  71
ATOM     71  S   UNL A   1      45.541  24.080  37.491  1.00  0.00     0.124 S 
ATOM     72  O   UNL A   1      45.190  22.873  36.748  1.00  0.00    -0.237 OA
ATOM     73  O   UNL A   1      46.953  24.453  37.458  1.00  0.00    -0.237 OA
ATOM     74  O   UNL A   1      44.888  24.225  38.789  1.00  0.00    -0.744 OA
ENDBRANCH  70  71
ENDBRANCH  51  65
BRANCH  52  75
ATOM     75  C   UNL A   1      41.787  24.517  26.862  1.00  0.00    -0.014 A 
ATOM     76  C   UNL A   1      40.902  23.660  27.546  1.00  0.00     0.010 A 
ATOM     77  C   UNL A   1      42.589  23.948  25.847  1.00  0.00     0.010 A 
ATOM     78  C   UNL A   1      40.888  22.280  27.301  1.00  0.00     0.020 A 
ATOM     79  C   UNL A   1      42.577  22.563  25.594  1.00  0.00     0.020 A 
ATOM     80  C   UNL A   1      41.756  21.731  26.357  1.00  0.00     0.054 A 
BRANCH  80  81
ATOM     81  S   UNL A   1      41.860  19.919  26.231  1.00  0.00     0.124 S 
ATOM     82  O   UNL A   1      40.535  19.574  25.723  1.00  0.00    -0.237 OA
ATOM     83  O   UNL A   1      42.959  19.730  25.287  1.00  0.00    -0.237 OA
ATOM     84  O   UNL A   1      42.137  19.489  27.598  1.00  0.00    -0.744 OA
ENDBRANCH  80  81
ENDBRANCH  52  75
BRANCH  64  85
ATOM     85  C   UNL A   1      45.059  29.717  28.526  1.00  0.00    -0.014 A 
ATOM     86  C   UNL A   1      46.308  30.356  28.427  1.00  0.00     0.010 A 
ATOM     87  C   UNL A   1      43.993  30.207  27.742  1.00  0.00     0.010 A 
ATOM     88  C   UNL A   1      46.483  31.478  27.619  1.00  0.00     0.020 A 
ATOM     89  C   UNL A   1      44.171  31.320  26.901  1.00  0.00     0.020 A 
ATOM     90  C   UNL A   1      45.411  31.965  26.870  1.00  0.00     0.054 A 
BRANCH  90  91
ATOM     91  S   UNL A   1      45.677  33.469  25.891  1.00  0.00     0.124 S 
ATOM     92  O   UNL A   1      47.131  33.489  25.743  1.00  0.00    -0.237 OA
ATOM     93  O   UNL A   1      44.930  33.191  24.666  1.00  0.00    -0.237 OA
ATOM     94  O   UNL A   1      45.126  34.536  26.723  1.00  0.00    -0.744 OA
ENDBRANCH  90  91
ENDBRANCH  64  85
ENDBRANCH  38  39
ENDBRANCH  30  33
ENDBRANCH  28  29
ENDBRANCH  27  28
ENDBRANCH   1  27
TORSDOF 19
ENDMDL
