MODEL 1
REMARK VINA RESULT:     -10.7      0.000      0.000
REMARK SMILES Cc1c(CC(=O)NCCCNC(=O)c2ccc(-c3c4nc(c(-c5ccc(S(=O)(=O)[O-])cc5)c5ccc([nH]5)c(-c5ccc(S(=O)(=O)[O-])cc5)c5nc(c(-c6ccc(S(=O)(=O)[O-])cc6)c6ccc3[nH]6)C=C5)C=C4)cc2)cc(-c2ccccc2)cc1-c1ccccc1
REMARK SMILES IDX 9 1 8 2 7 3 5 4 6 5 4 7 3 8 1 9 2 10 83 11 74 12 82 13 75 14
REMARK SMILES IDX 84 15 85 16 89 17 86 18 88 19 87 20 76 21 77 22 81 23 78 24
REMARK SMILES IDX 80 25 79 26 10 27 11 28 12 29 13 31 14 32 15 33 73 34 16 35
REMARK SMILES IDX 72 36 17 37 18 38 19 39 66 40 20 41 71 42 65 43 67 44 21 45
REMARK SMILES IDX 70 46 64 47 63 48 22 50 52 51 33 52 51 53 34 54 37 55 50 56
REMARK SMILES IDX 68 57 35 58 36 59 49 61 69 62 38 63 23 64 24 65 32 66 25 67
REMARK SMILES IDX 31 68 26 69 27 70 28 71 29 72 30 73 53 74 54 75 62 76 55 77
REMARK SMILES IDX 61 78 56 79 57 80 58 81 59 82 60 83 39 84 40 85 48 86 41 87
REMARK SMILES IDX 47 88 42 89 43 90 44 91 45 92 46 93
REMARK H PARENT 7 6 11 30 67 49 37 60
REMARK Flexibility Score: inf
ROOT
ATOM      1  C   UNL A   1      35.359  33.001  29.140  1.00  0.00     0.042 C 
ENDROOT
BRANCH   1   2
ATOM      2  C   UNL A   1      36.522  33.788  29.736  1.00  0.00     0.117 C 
BRANCH   2   3
ATOM      3  N   UNL A   1      36.173  34.471  30.975  1.00  0.00    -0.356 N 
ATOM      4  C   UNL A   1      36.721  34.348  32.221  1.00  0.00     0.224 C 
ATOM      5  O   UNL A   1      36.288  35.057  33.133  1.00  0.00    -0.275 OA
ATOM      6  H   UNL A   1      35.431  35.114  30.905  1.00  0.00     0.163 HD
BRANCH   4   7
ATOM      7  C   UNL A   1      37.857  33.362  32.480  1.00  0.00     0.135 C 
BRANCH   7   8
ATOM      8  C   UNL A   1      39.216  34.024  32.626  1.00  0.00    -0.035 A 
ATOM      9  C   UNL A   1      39.877  33.530  30.213  1.00  0.00     0.045 C 
ATOM     10  C   UNL A   1      40.195  34.042  31.600  1.00  0.00    -0.040 A 
ATOM     11  C   UNL A   1      41.484  34.570  31.884  1.00  0.00    -0.015 A 
ATOM     12  C   UNL A   1      39.518  34.601  33.881  1.00  0.00     0.013 A 
ATOM     13  C   UNL A   1      41.744  35.108  33.161  1.00  0.00     0.017 A 
ATOM     14  C   UNL A   1      40.772  35.149  34.169  1.00  0.00    -0.017 A 
BRANCH  11  15
ATOM     15  C   UNL A   1      42.600  34.512  30.921  1.00  0.00    -0.018 A 
ATOM     16  C   UNL A   1      43.451  33.392  30.893  1.00  0.00     0.009 A 
ATOM     17  C   UNL A   1      42.834  35.548  30.003  1.00  0.00     0.009 A 
ATOM     18  C   UNL A   1      44.493  33.305  29.969  1.00  0.00     0.001 A 
ATOM     19  C   UNL A   1      43.870  35.456  29.070  1.00  0.00     0.001 A 
ATOM     20  C   UNL A   1      44.698  34.335  29.054  1.00  0.00     0.000 A 
ENDBRANCH  11  15
BRANCH  14  21
ATOM     21  C   UNL A   1      41.070  35.731  35.488  1.00  0.00    -0.018 A 
ATOM     22  C   UNL A   1      42.378  36.100  35.844  1.00  0.00     0.009 A 
ATOM     23  C   UNL A   1      40.049  35.934  36.432  1.00  0.00     0.009 A 
ATOM     24  C   UNL A   1      42.655  36.646  37.100  1.00  0.00     0.001 A 
ATOM     25  C   UNL A   1      40.325  36.477  37.690  1.00  0.00     0.001 A 
ATOM     26  C   UNL A   1      41.629  36.832  38.023  1.00  0.00     0.000 A 
ENDBRANCH  14  21
ENDBRANCH   7   8
ENDBRANCH   4   7
ENDBRANCH   2   3
ENDBRANCH   1   2
BRANCH   1  27
ATOM     27  C   UNL A   1      35.779  32.092  27.995  1.00  0.00     0.118 C 
BRANCH  27  28
ATOM     28  N   UNL A   1      35.259  30.737  28.122  1.00  0.00    -0.352 N 
ATOM     29  C   UNL A   1      35.972  29.565  27.935  1.00  0.00     0.251 C 
ATOM     30  H   UNL A   1      34.310  30.647  28.366  1.00  0.00     0.163 HD
ATOM     31  O   UNL A   1      35.448  28.495  27.680  1.00  0.00    -0.269 OA
BRANCH  29  32
ATOM     32  C   UNL A   1      37.414  29.644  28.241  1.00  0.00     0.039 A 
ATOM     33  C   UNL A   1      38.285  29.725  27.148  1.00  0.00     0.014 A 
ATOM     34  C   UNL A   1      37.873  29.320  29.514  1.00  0.00     0.014 A 
ATOM     35  C   UNL A   1      39.607  29.319  27.299  1.00  0.00     0.010 A 
ATOM     36  C   UNL A   1      39.157  28.826  29.636  1.00  0.00     0.010 A 
ATOM     37  C   UNL A   1      40.011  28.787  28.522  1.00  0.00    -0.014 A 
BRANCH  37  38
ATOM     38  C   UNL A   1      41.284  28.105  28.727  1.00  0.00     0.031 A 
ATOM     39  C   UNL A   1      41.408  26.666  28.396  1.00  0.00     0.074 A 
ATOM     40  C   UNL A   1      42.375  28.795  29.126  1.00  0.00     0.049 A 
ATOM     41  N   UNL A   1      42.320  25.880  28.864  1.00  0.00    -0.248 NA
ATOM     42  C   UNL A   1      40.451  25.980  27.532  1.00  0.00     0.031 C 
ATOM     43  C   UNL A   1      43.764  28.346  29.050  1.00  0.00     0.029 A 
ATOM     44  N   UNL A   1      42.442  29.963  29.889  1.00  0.00    -0.354 N 
ATOM     45  C   UNL A   1      42.263  24.706  28.144  1.00  0.00     0.074 A 
ATOM     46  C   UNL A   1      41.031  24.786  27.393  1.00  0.00     0.031 C 
ATOM     47  C   UNL A   1      44.481  29.019  29.963  1.00  0.00     0.029 A 
ATOM     48  C   UNL A   1      43.546  29.810  30.745  1.00  0.00     0.049 A 
ATOM     49  H   UNL A   1      41.836  30.738  29.838  1.00  0.00     0.167 HD
ATOM     50  C   UNL A   1      43.329  23.857  28.140  1.00  0.00     0.031 A 
ATOM     51  C   UNL A   1      43.477  29.827  32.108  1.00  0.00     0.031 A 
ATOM     52  C   UNL A   1      44.379  24.299  29.054  1.00  0.00     0.049 A 
ATOM     53  C   UNL A   1      44.030  28.570  32.746  1.00  0.00     0.074 A 
ATOM     54  C   UNL A   1      45.577  24.970  28.863  1.00  0.00     0.029 A 
ATOM     55  N   UNL A   1      44.131  24.315  30.421  1.00  0.00    -0.354 N 
ATOM     56  N   UNL A   1      44.271  27.470  32.089  1.00  0.00    -0.248 NA
ATOM     57  C   UNL A   1      44.312  28.432  34.173  1.00  0.00     0.031 C 
ATOM     58  C   UNL A   1      46.008  25.462  30.123  1.00  0.00     0.029 A 
ATOM     59  C   UNL A   1      45.088  25.063  31.077  1.00  0.00     0.049 A 
ATOM     60  H   UNL A   1      43.378  23.857  30.859  1.00  0.00     0.167 HD
ATOM     61  C   UNL A   1      44.715  26.501  32.950  1.00  0.00     0.074 A 
ATOM     62  C   UNL A   1      44.736  27.157  34.244  1.00  0.00     0.031 C 
ATOM     63  C   UNL A   1      45.016  25.240  32.522  1.00  0.00     0.031 A 
BRANCH  50  64
ATOM     64  C   UNL A   1      43.537  22.793  27.082  1.00  0.00    -0.014 A 
ATOM     65  C   UNL A   1      42.763  21.614  27.118  1.00  0.00     0.010 A 
ATOM     66  C   UNL A   1      44.514  22.858  26.071  1.00  0.00     0.010 A 
ATOM     67  C   UNL A   1      43.026  20.522  26.276  1.00  0.00     0.020 A 
ATOM     68  C   UNL A   1      44.817  21.762  25.249  1.00  0.00     0.020 A 
ATOM     69  C   UNL A   1      44.079  20.590  25.367  1.00  0.00     0.054 A 
BRANCH  69  70
ATOM     70  S   UNL A   1      44.474  19.138  24.358  1.00  0.00     0.124 S 
ATOM     71  O   UNL A   1      45.816  18.789  24.819  1.00  0.00    -0.237 OA
ATOM     72  O   UNL A   1      43.416  18.202  24.726  1.00  0.00    -0.237 OA
ATOM     73  O   UNL A   1      44.408  19.641  22.987  1.00  0.00    -0.744 OA
ENDBRANCH  69  70
ENDBRANCH  50  64
BRANCH  51  74
ATOM     74  C   UNL A   1      42.364  30.652  32.654  1.00  0.00    -0.014 A 
ATOM     75  C   UNL A   1      41.050  30.232  32.358  1.00  0.00     0.010 A 
ATOM     76  C   UNL A   1      42.580  31.482  33.768  1.00  0.00     0.010 A 
ATOM     77  C   UNL A   1      40.010  30.467  33.261  1.00  0.00     0.020 A 
ATOM     78  C   UNL A   1      41.535  31.724  34.672  1.00  0.00     0.020 A 
ATOM     79  C   UNL A   1      40.281  31.146  34.449  1.00  0.00     0.054 A 
BRANCH  79  80
ATOM     80  S   UNL A   1      39.029  31.092  35.768  1.00  0.00     0.124 S 
ATOM     81  O   UNL A   1      39.277  29.792  36.385  1.00  0.00    -0.237 OA
ATOM     82  O   UNL A   1      39.390  32.253  36.584  1.00  0.00    -0.237 OA
ATOM     83  O   UNL A   1      37.770  31.214  35.041  1.00  0.00    -0.744 OA
ENDBRANCH  79  80
ENDBRANCH  51  74
BRANCH  63  84
ATOM     84  C   UNL A   1      45.342  24.055  33.399  1.00  0.00    -0.014 A 
ATOM     85  C   UNL A   1      46.586  23.846  34.013  1.00  0.00     0.010 A 
ATOM     86  C   UNL A   1      44.299  23.157  33.741  1.00  0.00     0.010 A 
ATOM     87  C   UNL A   1      46.794  22.765  34.884  1.00  0.00     0.020 A 
ATOM     88  C   UNL A   1      44.485  22.103  34.639  1.00  0.00     0.020 A 
ATOM     89  C   UNL A   1      45.744  21.899  35.190  1.00  0.00     0.054 A 
BRANCH  89  90
ATOM     90  S   UNL A   1      45.998  20.552  36.373  1.00  0.00     0.124 S 
ATOM     91  O   UNL A   1      45.096  19.525  35.859  1.00  0.00    -0.237 OA
ATOM     92  O   UNL A   1      47.423  20.257  36.239  1.00  0.00    -0.237 OA
ATOM     93  O   UNL A   1      45.612  21.144  37.651  1.00  0.00    -0.744 OA
ENDBRANCH  89  90
ENDBRANCH  63  84
ENDBRANCH  37  38
ENDBRANCH  29  32
ENDBRANCH  27  28
ENDBRANCH   1  27
TORSDOF 16
ENDMDL
MODEL 2
REMARK VINA RESULT:     -10.7      4.400      8.899
REMARK SMILES Cc1c(CC(=O)NCCCNC(=O)c2ccc(-c3c4nc(c(-c5ccc(S(=O)(=O)[O-])cc5)c5ccc([nH]5)c(-c5ccc(S(=O)(=O)[O-])cc5)c5nc(c(-c6ccc(S(=O)(=O)[O-])cc6)c6ccc3[nH]6)C=C5)C=C4)cc2)cc(-c2ccccc2)cc1-c1ccccc1
REMARK SMILES IDX 9 1 8 2 7 3 5 4 6 5 4 7 3 8 1 9 2 10 83 11 74 12 82 13 75 14
REMARK SMILES IDX 84 15 85 16 89 17 86 18 88 19 87 20 76 21 77 22 81 23 78 24
REMARK SMILES IDX 80 25 79 26 10 27 11 28 12 29 13 31 14 32 15 33 73 34 16 35
REMARK SMILES IDX 72 36 17 37 18 38 19 39 66 40 20 41 71 42 65 43 67 44 21 45
REMARK SMILES IDX 70 46 64 47 63 48 22 50 52 51 33 52 51 53 34 54 37 55 50 56
REMARK SMILES IDX 68 57 35 58 36 59 49 61 69 62 38 63 23 64 24 65 32 66 25 67
REMARK SMILES IDX 31 68 26 69 27 70 28 71 29 72 30 73 53 74 54 75 62 76 55 77
REMARK SMILES IDX 61 78 56 79 57 80 58 81 59 82 60 83 39 84 40 85 48 86 41 87
REMARK SMILES IDX 47 88 42 89 43 90 44 91 45 92 46 93
REMARK H PARENT 7 6 11 30 67 49 37 60
REMARK Flexibility Score: inf
ROOT
ATOM      1  C   UNL A   1      33.017  31.593  27.491  1.00  0.00     0.042 C 
ENDROOT
BRANCH   1   2
ATOM      2  C   UNL A   1      33.243  30.113  27.194  1.00  0.00     0.117 C 
BRANCH   2   3
ATOM      3  N   UNL A   1      33.687  29.867  25.828  1.00  0.00    -0.356 N 
ATOM      4  C   UNL A   1      33.962  28.684  25.201  1.00  0.00     0.224 C 
ATOM      5  O   UNL A   1      34.295  28.704  24.013  1.00  0.00    -0.275 OA
ATOM      6  H   UNL A   1      33.808  30.673  25.274  1.00  0.00     0.163 HD
BRANCH   4   7
ATOM      7  C   UNL A   1      33.848  27.359  25.951  1.00  0.00     0.135 C 
BRANCH   7   8
ATOM      8  C   UNL A   1      32.751  26.452  25.420  1.00  0.00    -0.035 A 
ATOM      9  C   UNL A   1      34.125  24.336  25.786  1.00  0.00     0.045 C 
ATOM     10  C   UNL A   1      32.897  25.050  25.269  1.00  0.00    -0.040 A 
ATOM     11  C   UNL A   1      31.859  24.311  24.638  1.00  0.00    -0.015 A 
ATOM     12  C   UNL A   1      31.547  27.071  25.013  1.00  0.00     0.013 A 
ATOM     13  C   UNL A   1      30.689  24.980  24.224  1.00  0.00     0.017 A 
ATOM     14  C   UNL A   1      30.504  26.355  24.416  1.00  0.00    -0.017 A 
BRANCH  11  15
ATOM     15  C   UNL A   1      31.979  22.875  24.322  1.00  0.00    -0.018 A 
ATOM     16  C   UNL A   1      32.135  22.456  22.989  1.00  0.00     0.009 A 
ATOM     17  C   UNL A   1      31.962  21.897  25.329  1.00  0.00     0.009 A 
ATOM     18  C   UNL A   1      32.281  21.105  22.673  1.00  0.00     0.001 A 
ATOM     19  C   UNL A   1      32.120  20.545  25.014  1.00  0.00     0.001 A 
ATOM     20  C   UNL A   1      32.278  20.150  23.687  1.00  0.00     0.000 A 
ENDBRANCH  11  15
BRANCH  14  21
ATOM     21  C   UNL A   1      29.265  27.023  23.985  1.00  0.00    -0.018 A 
ATOM     22  C   UNL A   1      29.298  28.249  23.300  1.00  0.00     0.009 A 
ATOM     23  C   UNL A   1      28.009  26.451  24.251  1.00  0.00     0.009 A 
ATOM     24  C   UNL A   1      28.118  28.881  22.899  1.00  0.00     0.001 A 
ATOM     25  C   UNL A   1      26.828  27.084  23.854  1.00  0.00     0.001 A 
ATOM     26  C   UNL A   1      26.883  28.300  23.178  1.00  0.00     0.000 A 
ENDBRANCH  14  21
ENDBRANCH   7   8
ENDBRANCH   4   7
ENDBRANCH   2   3
ENDBRANCH   1   2
BRANCH   1  27
ATOM     27  C   UNL A   1      34.308  32.356  27.740  1.00  0.00     0.118 C 
BRANCH  27  28
ATOM     28  N   UNL A   1      34.436  32.829  29.111  1.00  0.00    -0.352 N 
ATOM     29  C   UNL A   1      35.084  32.178  30.147  1.00  0.00     0.251 C 
ATOM     30  H   UNL A   1      34.021  33.696  29.321  1.00  0.00     0.163 HD
ATOM     31  O   UNL A   1      34.857  32.397  31.323  1.00  0.00    -0.269 OA
BRANCH  29  32
ATOM     32  C   UNL A   1      36.211  31.313  29.744  1.00  0.00     0.039 A 
ATOM     33  C   UNL A   1      36.309  30.070  30.381  1.00  0.00     0.014 A 
ATOM     34  C   UNL A   1      37.278  31.851  29.032  1.00  0.00     0.014 A 
ATOM     35  C   UNL A   1      37.543  29.430  30.439  1.00  0.00     0.010 A 
ATOM     36  C   UNL A   1      38.519  31.262  29.176  1.00  0.00     0.010 A 
ATOM     37  C   UNL A   1      38.661  30.075  29.913  1.00  0.00    -0.014 A 
BRANCH  37  38
ATOM     38  C   UNL A   1      40.031  29.627  30.132  1.00  0.00     0.031 A 
ATOM     39  C   UNL A   1      40.490  28.348  29.538  1.00  0.00     0.074 A 
ATOM     40  C   UNL A   1      40.912  30.410  30.792  1.00  0.00     0.049 A 
ATOM     41  N   UNL A   1      41.510  27.672  29.948  1.00  0.00    -0.248 NA
ATOM     42  C   UNL A   1      39.775  27.698  28.443  1.00  0.00     0.031 C 
ATOM     43  C   UNL A   1      42.365  30.269  30.800  1.00  0.00     0.029 A 
ATOM     44  N   UNL A   1      40.663  31.370  31.776  1.00  0.00    -0.354 N 
ATOM     45  C   UNL A   1      41.766  26.698  29.006  1.00  0.00     0.074 A 
ATOM     46  C   UNL A   1      40.609  26.701  28.141  1.00  0.00     0.031 C 
ATOM     47  C   UNL A   1      42.846  30.849  31.910  1.00  0.00     0.029 A 
ATOM     48  C   UNL A   1      41.703  31.250  32.713  1.00  0.00     0.049 A 
ATOM     49  H   UNL A   1      39.910  32.004  31.807  1.00  0.00     0.167 HD
ATOM     50  C   UNL A   1      42.988  26.096  28.964  1.00  0.00     0.031 A 
ATOM     51  C   UNL A   1      41.524  30.951  34.033  1.00  0.00     0.031 A 
ATOM     52  C   UNL A   1      43.841  26.521  30.071  1.00  0.00     0.049 A 
ATOM     53  C   UNL A   1      42.285  29.716  34.470  1.00  0.00     0.074 A 
ATOM     54  C   UNL A   1      44.876  27.438  30.167  1.00  0.00     0.029 A 
ATOM     55  N   UNL A   1      43.489  26.185  31.372  1.00  0.00    -0.354 N 
ATOM     56  N   UNL A   1      42.810  28.857  33.641  1.00  0.00    -0.248 NA
ATOM     57  C   UNL A   1      42.476  29.324  35.864  1.00  0.00     0.031 C 
ATOM     58  C   UNL A   1      45.090  27.713  31.543  1.00  0.00     0.029 A 
ATOM     59  C   UNL A   1      44.207  26.942  32.277  1.00  0.00     0.049 A 
ATOM     60  H   UNL A   1      42.821  25.503  31.613  1.00  0.00     0.167 HD
ATOM     61  C   UNL A   1      43.384  27.828  34.339  1.00  0.00     0.074 A 
ATOM     62  C   UNL A   1      43.160  28.173  35.731  1.00  0.00     0.031 C 
ATOM     63  C   UNL A   1      43.984  26.776  33.708  1.00  0.00     0.031 A 
BRANCH  50  64
ATOM     64  C   UNL A   1      43.504  25.354  27.748  1.00  0.00    -0.014 A 
ATOM     65  C   UNL A   1      43.276  23.967  27.630  1.00  0.00     0.010 A 
ATOM     66  C   UNL A   1      44.272  25.942  26.726  1.00  0.00     0.010 A 
ATOM     67  C   UNL A   1      43.875  23.196  26.621  1.00  0.00     0.020 A 
ATOM     68  C   UNL A   1      44.910  25.180  25.735  1.00  0.00     0.020 A 
ATOM     69  C   UNL A   1      44.720  23.804  25.698  1.00  0.00     0.054 A 
BRANCH  69  70
ATOM     70  S   UNL A   1      45.568  22.783  24.464  1.00  0.00     0.124 S 
ATOM     71  O   UNL A   1      46.486  23.735  23.843  1.00  0.00    -0.237 OA
ATOM     72  O   UNL A   1      46.190  21.749  25.286  1.00  0.00    -0.237 OA
ATOM     73  O   UNL A   1      44.486  22.318  23.597  1.00  0.00    -0.744 OA
ENDBRANCH  69  70
ENDBRANCH  50  64
BRANCH  51  74
ATOM     74  C   UNL A   1      40.220  31.402  34.592  1.00  0.00    -0.014 A 
ATOM     75  C   UNL A   1      39.295  30.398  34.951  1.00  0.00     0.010 A 
ATOM     76  C   UNL A   1      40.102  32.676  35.174  1.00  0.00     0.010 A 
ATOM     77  C   UNL A   1      38.404  30.599  36.008  1.00  0.00     0.020 A 
ATOM     78  C   UNL A   1      39.204  32.881  36.231  1.00  0.00     0.020 A 
ATOM     79  C   UNL A   1      38.420  31.816  36.689  1.00  0.00     0.054 A 
BRANCH  79  80
ATOM     80  S   UNL A   1      37.552  31.913  38.285  1.00  0.00     0.124 S 
ATOM     81  O   UNL A   1      36.995  30.571  38.423  1.00  0.00    -0.237 OA
ATOM     82  O   UNL A   1      38.641  32.238  39.208  1.00  0.00    -0.237 OA
ATOM     83  O   UNL A   1      36.581  32.981  38.073  1.00  0.00    -0.744 OA
ENDBRANCH  79  80
ENDBRANCH  51  74
BRANCH  63  84
ATOM     84  C   UNL A   1      44.489  25.513  34.364  1.00  0.00    -0.014 A 
ATOM     85  C   UNL A   1      43.661  24.493  34.853  1.00  0.00     0.010 A 
ATOM     86  C   UNL A   1      45.885  25.267  34.374  1.00  0.00     0.010 A 
ATOM     87  C   UNL A   1      44.200  23.306  35.376  1.00  0.00     0.020 A 
ATOM     88  C   UNL A   1      46.429  24.072  34.853  1.00  0.00     0.020 A 
ATOM     89  C   UNL A   1      45.581  23.104  35.375  1.00  0.00     0.054 A 
BRANCH  89  90
ATOM     90  S   UNL A   1      46.266  21.541  35.978  1.00  0.00     0.124 S 
ATOM     91  O   UNL A   1      45.909  21.582  37.393  1.00  0.00    -0.237 OA
ATOM     92  O   UNL A   1      45.557  20.540  35.183  1.00  0.00    -0.237 OA
ATOM     93  O   UNL A   1      47.693  21.658  35.686  1.00  0.00    -0.744 OA
ENDBRANCH  89  90
ENDBRANCH  63  84
ENDBRANCH  37  38
ENDBRANCH  29  32
ENDBRANCH  27  28
ENDBRANCH   1  27
TORSDOF 16
ENDMDL
MODEL 3
REMARK VINA RESULT:     -10.6      5.483     13.865
REMARK SMILES Cc1c(CC(=O)NCCCNC(=O)c2ccc(-c3c4nc(c(-c5ccc(S(=O)(=O)[O-])cc5)c5ccc([nH]5)c(-c5ccc(S(=O)(=O)[O-])cc5)c5nc(c(-c6ccc(S(=O)(=O)[O-])cc6)c6ccc3[nH]6)C=C5)C=C4)cc2)cc(-c2ccccc2)cc1-c1ccccc1
REMARK SMILES IDX 9 1 8 2 7 3 5 4 6 5 4 7 3 8 1 9 2 10 83 11 74 12 82 13 75 14
REMARK SMILES IDX 84 15 85 16 89 17 86 18 88 19 87 20 76 21 77 22 81 23 78 24
REMARK SMILES IDX 80 25 79 26 10 27 11 28 12 29 13 31 14 32 15 33 73 34 16 35
REMARK SMILES IDX 72 36 17 37 18 38 19 39 66 40 20 41 71 42 65 43 67 44 21 45
REMARK SMILES IDX 70 46 64 47 63 48 22 50 52 51 33 52 51 53 34 54 37 55 50 56
REMARK SMILES IDX 68 57 35 58 36 59 49 61 69 62 38 63 23 64 24 65 32 66 25 67
REMARK SMILES IDX 31 68 26 69 27 70 28 71 29 72 30 73 53 74 54 75 62 76 55 77
REMARK SMILES IDX 61 78 56 79 57 80 58 81 59 82 60 83 39 84 40 85 48 86 41 87
REMARK SMILES IDX 47 88 42 89 43 90 44 91 45 92 46 93
REMARK H PARENT 7 6 11 30 67 49 37 60
REMARK Flexibility Score: inf
ROOT
ATOM      1  C   UNL A   1      39.558  20.238  25.892  1.00  0.00     0.042 C 
ENDROOT
BRANCH   1   2
ATOM      2  C   UNL A   1      38.251  20.835  25.379  1.00  0.00     0.117 C 
BRANCH   2   3
ATOM      3  N   UNL A   1      38.314  22.280  25.205  1.00  0.00    -0.356 N 
ATOM      4  C   UNL A   1      37.488  23.253  25.696  1.00  0.00     0.224 C 
ATOM      5  O   UNL A   1      37.749  24.433  25.450  1.00  0.00    -0.275 OA
ATOM      6  H   UNL A   1      39.060  22.604  24.651  1.00  0.00     0.163 HD
BRANCH   4   7
ATOM      7  C   UNL A   1      36.271  22.890  26.542  1.00  0.00     0.135 C 
BRANCH   7   8
ATOM      8  C   UNL A   1      35.002  22.693  25.731  1.00  0.00    -0.035 A 
ATOM      9  C   UNL A   1      34.293  25.130  25.978  1.00  0.00     0.045 C 
ATOM     10  C   UNL A   1      34.036  23.710  25.525  1.00  0.00    -0.040 A 
ATOM     11  C   UNL A   1      32.820  23.385  24.865  1.00  0.00    -0.015 A 
ATOM     12  C   UNL A   1      34.770  21.401  25.207  1.00  0.00     0.013 A 
ATOM     13  C   UNL A   1      32.624  22.074  24.385  1.00  0.00     0.017 A 
ATOM     14  C   UNL A   1      33.590  21.071  24.530  1.00  0.00    -0.017 A 
BRANCH  11  15
ATOM     15  C   UNL A   1      31.708  24.344  24.722  1.00  0.00    -0.018 A 
ATOM     16  C   UNL A   1      30.817  24.556  25.789  1.00  0.00     0.009 A 
ATOM     17  C   UNL A   1      31.517  25.078  23.541  1.00  0.00     0.009 A 
ATOM     18  C   UNL A   1      29.778  25.481  25.684  1.00  0.00     0.001 A 
ATOM     19  C   UNL A   1      30.483  26.013  23.440  1.00  0.00     0.001 A 
ATOM     20  C   UNL A   1      29.615  26.213  24.511  1.00  0.00     0.000 A 
ENDBRANCH  11  15
BRANCH  14  21
ATOM     21  C   UNL A   1      33.362  19.714  24.005  1.00  0.00    -0.018 A 
ATOM     22  C   UNL A   1      34.025  18.601  24.550  1.00  0.00     0.009 A 
ATOM     23  C   UNL A   1      32.474  19.494  22.939  1.00  0.00     0.009 A 
ATOM     24  C   UNL A   1      33.809  17.316  24.045  1.00  0.00     0.001 A 
ATOM     25  C   UNL A   1      32.260  18.211  22.430  1.00  0.00     0.001 A 
ATOM     26  C   UNL A   1      32.929  17.122  22.983  1.00  0.00     0.000 A 
ENDBRANCH  14  21
ENDBRANCH   7   8
ENDBRANCH   4   7
ENDBRANCH   2   3
ENDBRANCH   1   2
BRANCH   1  27
ATOM     27  C   UNL A   1      40.360  21.205  26.748  1.00  0.00     0.118 C 
BRANCH  27  28
ATOM     28  N   UNL A   1      41.645  21.557  26.159  1.00  0.00    -0.352 N 
ATOM     29  C   UNL A   1      42.093  22.835  25.872  1.00  0.00     0.251 C 
ATOM     30  H   UNL A   1      42.254  20.814  25.945  1.00  0.00     0.163 HD
ATOM     31  O   UNL A   1      42.971  23.072  25.062  1.00  0.00    -0.269 OA
BRANCH  29  32
ATOM     32  C   UNL A   1      41.565  23.902  26.744  1.00  0.00     0.039 A 
ATOM     33  C   UNL A   1      41.052  25.039  26.107  1.00  0.00     0.014 A 
ATOM     34  C   UNL A   1      41.872  23.906  28.101  1.00  0.00     0.014 A 
ATOM     35  C   UNL A   1      40.995  26.242  26.802  1.00  0.00     0.010 A 
ATOM     36  C   UNL A   1      41.908  25.122  28.756  1.00  0.00     0.010 A 
ATOM     37  C   UNL A   1      41.509  26.296  28.097  1.00  0.00    -0.014 A 
BRANCH  37  38
ATOM     38  C   UNL A   1      41.734  27.538  28.827  1.00  0.00     0.031 A 
ATOM     39  C   UNL A   1      40.624  28.507  28.988  1.00  0.00     0.074 A 
ATOM     40  C   UNL A   1      42.917  27.770  29.438  1.00  0.00     0.049 A 
ATOM     41  N   UNL A   1      40.775  29.759  29.265  1.00  0.00    -0.248 NA
ATOM     42  C   UNL A   1      39.228  28.131  28.787  1.00  0.00     0.031 C 
ATOM     43  C   UNL A   1      43.183  28.775  30.464  1.00  0.00     0.029 A 
ATOM     44  N   UNL A   1      44.185  27.292  29.100  1.00  0.00    -0.354 N 
ATOM     45  C   UNL A   1      39.533  30.266  29.579  1.00  0.00     0.074 A 
ATOM     46  C   UNL A   1      38.598  29.239  29.181  1.00  0.00     0.031 C 
ATOM     47  C   UNL A   1      44.494  29.060  30.454  1.00  0.00     0.029 A 
ATOM     48  C   UNL A   1      45.077  28.354  29.327  1.00  0.00     0.049 A 
ATOM     49  H   UNL A   1      44.409  26.392  28.769  1.00  0.00     0.167 HD
ATOM     50  C   UNL A   1      39.431  31.432  30.279  1.00  0.00     0.031 A 
ATOM     51  C   UNL A   1      45.868  28.918  28.368  1.00  0.00     0.031 A 
ATOM     52  C   UNL A   1      40.734  32.055  30.489  1.00  0.00     0.049 A 
ATOM     53  C   UNL A   1      45.645  30.409  28.218  1.00  0.00     0.074 A 
ATOM     54  C   UNL A   1      41.601  32.091  31.570  1.00  0.00     0.029 A 
ATOM     55  N   UNL A   1      41.447  32.531  29.396  1.00  0.00    -0.354 N 
ATOM     56  N   UNL A   1      44.621  31.042  28.718  1.00  0.00    -0.248 NA
ATOM     57  C   UNL A   1      46.524  31.295  27.458  1.00  0.00     0.031 C 
ATOM     58  C   UNL A   1      42.870  32.518  31.099  1.00  0.00     0.029 A 
ATOM     59  C   UNL A   1      42.762  32.768  29.742  1.00  0.00     0.049 A 
ATOM     60  H   UNL A   1      41.066  32.679  28.500  1.00  0.00     0.167 HD
ATOM     61  C   UNL A   1      44.676  32.366  28.368  1.00  0.00     0.074 A 
ATOM     62  C   UNL A   1      45.896  32.478  27.589  1.00  0.00     0.031 C 
ATOM     63  C   UNL A   1      43.707  33.251  28.743  1.00  0.00     0.031 A 
BRANCH  50  64
ATOM     64  C   UNL A   1      38.178  31.841  31.027  1.00  0.00    -0.014 A 
ATOM     65  C   UNL A   1      37.325  32.819  30.474  1.00  0.00     0.010 A 
ATOM     66  C   UNL A   1      37.818  31.356  32.298  1.00  0.00     0.010 A 
ATOM     67  C   UNL A   1      36.250  33.365  31.193  1.00  0.00     0.020 A 
ATOM     68  C   UNL A   1      36.772  31.919  33.046  1.00  0.00     0.020 A 
ATOM     69  C   UNL A   1      36.001  32.934  32.493  1.00  0.00     0.054 A 
BRANCH  69  70
ATOM     70  S   UNL A   1      34.676  33.718  33.448  1.00  0.00     0.124 S 
ATOM     71  O   UNL A   1      35.114  33.512  34.826  1.00  0.00    -0.237 OA
ATOM     72  O   UNL A   1      34.718  35.097  32.971  1.00  0.00    -0.237 OA
ATOM     73  O   UNL A   1      33.481  32.966  33.065  1.00  0.00    -0.744 OA
ENDBRANCH  69  70
ENDBRANCH  50  64
BRANCH  51  74
ATOM     74  C   UNL A   1      46.256  27.990  27.270  1.00  0.00    -0.014 A 
ATOM     75  C   UNL A   1      45.497  28.051  26.081  1.00  0.00     0.010 A 
ATOM     76  C   UNL A   1      47.555  27.455  27.222  1.00  0.00     0.010 A 
ATOM     77  C   UNL A   1      46.089  27.772  24.847  1.00  0.00     0.020 A 
ATOM     78  C   UNL A   1      48.148  27.169  25.984  1.00  0.00     0.020 A 
ATOM     79  C   UNL A   1      47.434  27.406  24.805  1.00  0.00     0.054 A 
BRANCH  79  80
ATOM     80  S   UNL A   1      48.277  27.437  23.193  1.00  0.00     0.124 S 
ATOM     81  O   UNL A   1      48.331  26.022  22.837  1.00  0.00    -0.237 OA
ATOM     82  O   UNL A   1      47.368  28.252  22.385  1.00  0.00    -0.237 OA
ATOM     83  O   UNL A   1      49.561  28.060  23.498  1.00  0.00    -0.744 OA
ENDBRANCH  79  80
ENDBRANCH  51  74
BRANCH  63  84
ATOM     84  C   UNL A   1      43.574  34.680  28.273  1.00  0.00    -0.014 A 
ATOM     85  C   UNL A   1      43.162  35.052  26.986  1.00  0.00     0.010 A 
ATOM     86  C   UNL A   1      43.743  35.723  29.219  1.00  0.00     0.010 A 
ATOM     87  C   UNL A   1      42.980  36.401  26.641  1.00  0.00     0.020 A 
ATOM     88  C   UNL A   1      43.523  37.065  28.898  1.00  0.00     0.020 A 
ATOM     89  C   UNL A   1      43.164  37.399  27.599  1.00  0.00     0.054 A 
BRANCH  89  90
ATOM     90  S   UNL A   1      42.852  39.130  27.171  1.00  0.00     0.124 S 
ATOM     91  O   UNL A   1      44.019  39.455  26.356  1.00  0.00    -0.237 OA
ATOM     92  O   UNL A   1      41.583  39.070  26.449  1.00  0.00    -0.237 OA
ATOM     93  O   UNL A   1      42.788  39.796  28.470  1.00  0.00    -0.744 OA
ENDBRANCH  89  90
ENDBRANCH  63  84
ENDBRANCH  37  38
ENDBRANCH  29  32
ENDBRANCH  27  28
ENDBRANCH   1  27
TORSDOF 16
ENDMDL
