MODEL 1
REMARK VINA RESULT:      -9.5      0.000      0.000
REMARK SMILES Cn1cc(S(=O)(=O)N(CCC#N)CCC#N)cc1C(=O)NCCCNC(=O)c1ccc(-c2c3nc(c(-c4ccc(S(=O)(=O)[O-])cc4)c4ccc([nH]4)c(-c4ccc(S(=O)(=O)[O-])cc4)c4nc(c(-c5ccc(S(=O)(=O)[O-])cc5)c5ccc2[nH]5)C=C4)C=C3)cc1
REMARK SMILES IDX 22 1 21 2 19 3 20 4 18 6 1 7 2 8 3 9 4 10 17 11 5 12 6 13
REMARK SMILES IDX 7 14 8 15 9 16 10 17 11 18 12 19 13 20 14 21 15 22 16 23
REMARK SMILES IDX 23 24 24 25 25 26 26 27 27 29 28 30 29 31 87 32 30 33 86 34
REMARK SMILES IDX 31 35 32 36 33 37 80 38 34 39 85 40 79 41 81 42 35 43 84 44
REMARK SMILES IDX 78 45 77 46 36 48 66 49 47 50 65 51 48 52 51 53 64 54 82 55
REMARK SMILES IDX 49 56 50 57 63 59 83 60 52 61 37 62 38 63 46 64 39 65 45 66
REMARK SMILES IDX 40 67 41 68 42 69 43 70 44 71 67 72 68 73 76 74 69 75 75 76
REMARK SMILES IDX 70 77 71 78 72 79 73 80 74 81 53 82 54 83 62 84 55 85 61 86
REMARK SMILES IDX 56 87 57 88 58 89 59 90 60 91
REMARK H PARENT 21 5 25 28 81 47 51 58
REMARK Flexibility Score: inf
ROOT
ATOM      1  C   UNL A   1      34.161  23.256  26.377  1.00  0.00     0.118 C 
ENDROOT
BRANCH   1   2
ATOM      2  N   UNL A   1      32.911  22.545  26.409  1.00  0.00    -0.351 N 
ATOM      3  C   UNL A   1      31.810  22.725  25.612  1.00  0.00     0.267 C 
ATOM      4  O   UNL A   1      30.855  21.974  25.824  1.00  0.00    -0.268 OA
ATOM      5  H   UNL A   1      32.836  21.839  27.092  1.00  0.00     0.163 HD
BRANCH   3   6
ATOM      6  C   UNL A   1      31.723  23.819  24.651  1.00  0.00     0.108 A 
ATOM      7  C   UNL A   1      33.391  23.390  22.730  1.00  0.00     0.150 C 
ATOM      8  N   UNL A   1      32.502  24.174  23.559  1.00  0.00    -0.345 N 
ATOM      9  C   UNL A   1      32.210  25.454  23.185  1.00  0.00     0.107 A 
ATOM     10  C   UNL A   1      31.013  25.787  23.765  1.00  0.00     0.101 A 
ATOM     11  C   UNL A   1      30.683  24.754  24.659  1.00  0.00     0.055 A 
BRANCH  10  12
ATOM     12  S   UNL A   1      30.150  27.174  23.289  1.00  0.00     0.244 S 
ATOM     13  O   UNL A   1      30.609  27.442  21.944  1.00  0.00    -0.207 OA
ATOM     14  O   UNL A   1      28.782  26.811  23.581  1.00  0.00    -0.207 OA
BRANCH  12  15
ATOM     15  N   UNL A   1      30.495  28.542  24.197  1.00  0.00    -0.196 NA
BRANCH  15  16
ATOM     16  C   UNL A   1      31.602  28.506  25.213  1.00  0.00     0.118 C 
BRANCH  16  17
ATOM     17  C   UNL A   1      32.440  29.786  25.374  1.00  0.00     0.137 C 
BRANCH  17  18
ATOM     18  C   UNL A   1      33.591  29.344  26.262  1.00  0.00     0.064 C 
ATOM     19  N   UNL A   1      34.546  28.976  27.000  1.00  0.00    -0.198 NA
ENDBRANCH  17  18
ENDBRANCH  16  17
ENDBRANCH  15  16
BRANCH  15  20
ATOM     20  C   UNL A   1      30.203  29.840  23.470  1.00  0.00     0.118 C 
BRANCH  20  21
ATOM     21  C   UNL A   1      28.740  30.339  23.506  1.00  0.00     0.137 C 
BRANCH  21  22
ATOM     22  C   UNL A   1      28.490  31.706  23.035  1.00  0.00     0.064 C 
ATOM     23  N   UNL A   1      28.358  32.822  22.737  1.00  0.00    -0.198 NA
ENDBRANCH  21  22
ENDBRANCH  20  21
ENDBRANCH  15  20
ENDBRANCH  12  15
ENDBRANCH  10  12
ENDBRANCH   3   6
ENDBRANCH   1   2
BRANCH   1  24
ATOM     24  C   UNL A   1      35.374  22.497  25.911  1.00  0.00     0.042 C 
BRANCH  24  25
ATOM     25  C   UNL A   1      36.626  23.331  25.781  1.00  0.00     0.118 C 
BRANCH  25  26
ATOM     26  N   UNL A   1      37.862  22.559  25.878  1.00  0.00    -0.352 N 
ATOM     27  C   UNL A   1      39.112  22.917  26.333  1.00  0.00     0.251 C 
ATOM     28  H   UNL A   1      37.789  21.629  25.566  1.00  0.00     0.163 HD
ATOM     29  O   UNL A   1      40.053  22.141  26.190  1.00  0.00    -0.269 OA
BRANCH  27  30
ATOM     30  C   UNL A   1      39.328  24.245  26.948  1.00  0.00     0.039 A 
ATOM     31  C   UNL A   1      38.883  24.482  28.250  1.00  0.00     0.014 A 
ATOM     32  C   UNL A   1      40.008  25.245  26.257  1.00  0.00     0.014 A 
ATOM     33  C   UNL A   1      39.218  25.681  28.885  1.00  0.00     0.010 A 
ATOM     34  C   UNL A   1      40.477  26.357  26.939  1.00  0.00     0.010 A 
ATOM     35  C   UNL A   1      40.070  26.603  28.255  1.00  0.00    -0.014 A 
BRANCH  35  36
ATOM     36  C   UNL A   1      40.529  27.842  28.933  1.00  0.00     0.031 A 
ATOM     37  C   UNL A   1      41.911  27.901  29.535  1.00  0.00     0.074 A 
ATOM     38  C   UNL A   1      39.684  28.885  29.072  1.00  0.00     0.049 A 
ATOM     39  N   UNL A   1      42.471  28.866  30.217  1.00  0.00    -0.248 NA
ATOM     40  C   UNL A   1      42.763  26.708  29.381  1.00  0.00     0.031 C 
ATOM     41  C   UNL A   1      38.304  28.931  28.581  1.00  0.00     0.029 A 
ATOM     42  N   UNL A   1      39.862  30.109  29.668  1.00  0.00    -0.354 N 
ATOM     43  C   UNL A   1      43.723  28.389  30.586  1.00  0.00     0.074 A 
ATOM     44  C   UNL A   1      43.815  27.026  30.117  1.00  0.00     0.031 C 
ATOM     45  C   UNL A   1      37.779  30.136  28.854  1.00  0.00     0.029 A 
ATOM     46  C   UNL A   1      38.760  30.928  29.589  1.00  0.00     0.049 A 
ATOM     47  H   UNL A   1      40.700  30.374  30.110  1.00  0.00     0.167 HD
ATOM     48  C   UNL A   1      44.721  29.034  31.234  1.00  0.00     0.031 A 
ATOM     49  C   UNL A   1      38.556  32.173  30.062  1.00  0.00     0.031 A 
ATOM     50  C   UNL A   1      44.628  30.395  31.688  1.00  0.00     0.049 A 
ATOM     51  C   UNL A   1      39.673  32.864  30.795  1.00  0.00     0.074 A 
ATOM     52  C   UNL A   1      45.603  31.164  32.299  1.00  0.00     0.029 A 
ATOM     53  N   UNL A   1      43.496  31.189  31.586  1.00  0.00    -0.354 N 
ATOM     54  N   UNL A   1      40.878  32.422  31.066  1.00  0.00    -0.248 NA
ATOM     55  C   UNL A   1      39.406  34.226  31.276  1.00  0.00     0.031 C 
ATOM     56  C   UNL A   1      45.036  32.395  32.636  1.00  0.00     0.029 A 
ATOM     57  C   UNL A   1      43.736  32.427  32.158  1.00  0.00     0.049 A 
ATOM     58  H   UNL A   1      42.648  30.913  31.169  1.00  0.00     0.167 HD
ATOM     59  C   UNL A   1      41.524  33.465  31.722  1.00  0.00     0.074 A 
ATOM     60  C   UNL A   1      40.582  34.563  31.790  1.00  0.00     0.031 C 
ATOM     61  C   UNL A   1      42.786  33.510  32.221  1.00  0.00     0.031 A 
BRANCH  48  62
ATOM     62  C   UNL A   1      45.994  28.271  31.502  1.00  0.00    -0.014 A 
ATOM     63  C   UNL A   1      47.049  28.256  30.571  1.00  0.00     0.010 A 
ATOM     64  C   UNL A   1      46.154  27.596  32.725  1.00  0.00     0.010 A 
ATOM     65  C   UNL A   1      48.223  27.548  30.841  1.00  0.00     0.020 A 
ATOM     66  C   UNL A   1      47.340  26.917  33.015  1.00  0.00     0.020 A 
ATOM     67  C   UNL A   1      48.362  26.885  32.064  1.00  0.00     0.054 A 
BRANCH  67  68
ATOM     68  S   UNL A   1      49.911  26.005  32.402  1.00  0.00     0.124 S 
ATOM     69  O   UNL A   1      49.427  24.738  32.945  1.00  0.00    -0.237 OA
ATOM     70  O   UNL A   1      50.526  25.928  31.080  1.00  0.00    -0.237 OA
ATOM     71  O   UNL A   1      50.599  26.868  33.359  1.00  0.00    -0.744 OA
ENDBRANCH  67  68
ENDBRANCH  48  62
BRANCH  49  72
ATOM     72  C   UNL A   1      37.245  32.848  29.844  1.00  0.00    -0.014 A 
ATOM     73  C   UNL A   1      36.252  32.828  30.838  1.00  0.00     0.010 A 
ATOM     74  C   UNL A   1      36.989  33.529  28.639  1.00  0.00     0.010 A 
ATOM     75  C   UNL A   1      35.022  33.460  30.626  1.00  0.00     0.020 A 
ATOM     76  C   UNL A   1      35.776  34.193  28.437  1.00  0.00     0.020 A 
ATOM     77  C   UNL A   1      34.796  34.144  29.429  1.00  0.00     0.054 A 
BRANCH  77  78
ATOM     78  S   UNL A   1      33.216  35.006  29.201  1.00  0.00     0.124 S 
ATOM     79  O   UNL A   1      32.654  34.972  30.547  1.00  0.00    -0.237 OA
ATOM     80  O   UNL A   1      33.643  36.320  28.725  1.00  0.00    -0.237 OA
ATOM     81  O   UNL A   1      32.519  34.187  28.211  1.00  0.00    -0.744 OA
ENDBRANCH  77  78
ENDBRANCH  49  72
BRANCH  61  82
ATOM     82  C   UNL A   1      43.240  34.801  32.849  1.00  0.00    -0.014 A 
ATOM     83  C   UNL A   1      43.116  35.032  34.230  1.00  0.00     0.010 A 
ATOM     84  C   UNL A   1      43.861  35.776  32.046  1.00  0.00     0.010 A 
ATOM     85  C   UNL A   1      43.571  36.228  34.789  1.00  0.00     0.020 A 
ATOM     86  C   UNL A   1      44.352  36.956  32.607  1.00  0.00     0.020 A 
ATOM     87  C   UNL A   1      44.190  37.181  33.974  1.00  0.00     0.054 A 
BRANCH  87  88
ATOM     88  S   UNL A   1      44.813  38.705  34.735  1.00  0.00     0.124 S 
ATOM     89  O   UNL A   1      46.257  38.559  34.570  1.00  0.00    -0.237 OA
ATOM     90  O   UNL A   1      44.190  39.744  33.920  1.00  0.00    -0.237 OA
ATOM     91  O   UNL A   1      44.333  38.628  36.113  1.00  0.00    -0.744 OA
ENDBRANCH  87  88
ENDBRANCH  61  82
ENDBRANCH  35  36
ENDBRANCH  27  30
ENDBRANCH  25  26
ENDBRANCH  24  25
ENDBRANCH   1  24
TORSDOF 21
ENDMDL
MODEL 2
REMARK VINA RESULT:      -9.2      3.866      5.142
REMARK SMILES Cn1cc(S(=O)(=O)N(CCC#N)CCC#N)cc1C(=O)NCCCNC(=O)c1ccc(-c2c3nc(c(-c4ccc(S(=O)(=O)[O-])cc4)c4ccc([nH]4)c(-c4ccc(S(=O)(=O)[O-])cc4)c4nc(c(-c5ccc(S(=O)(=O)[O-])cc5)c5ccc2[nH]5)C=C4)C=C3)cc1
REMARK SMILES IDX 22 1 21 2 19 3 20 4 18 6 1 7 2 8 3 9 4 10 17 11 5 12 6 13
REMARK SMILES IDX 7 14 8 15 9 16 10 17 11 18 12 19 13 20 14 21 15 22 16 23
REMARK SMILES IDX 23 24 24 25 25 26 26 27 27 29 28 30 29 31 87 32 30 33 86 34
REMARK SMILES IDX 31 35 32 36 33 37 80 38 34 39 85 40 79 41 81 42 35 43 84 44
REMARK SMILES IDX 78 45 77 46 36 48 66 49 47 50 65 51 48 52 51 53 64 54 82 55
REMARK SMILES IDX 49 56 50 57 63 59 83 60 52 61 37 62 38 63 46 64 39 65 45 66
REMARK SMILES IDX 40 67 41 68 42 69 43 70 44 71 67 72 68 73 76 74 69 75 75 76
REMARK SMILES IDX 70 77 71 78 72 79 73 80 74 81 53 82 54 83 62 84 55 85 61 86
REMARK SMILES IDX 56 87 57 88 58 89 59 90 60 91
REMARK H PARENT 21 5 25 28 81 47 51 58
REMARK Flexibility Score: inf
ROOT
ATOM      1  C   UNL A   1      37.044  22.318  25.130  1.00  0.00     0.118 C 
ENDROOT
BRANCH   1   2
ATOM      2  N   UNL A   1      36.224  22.481  26.300  1.00  0.00    -0.351 N 
ATOM      3  C   UNL A   1      34.898  22.826  26.368  1.00  0.00     0.267 C 
ATOM      4  O   UNL A   1      34.408  22.887  27.498  1.00  0.00    -0.268 OA
ATOM      5  H   UNL A   1      36.672  22.327  27.163  1.00  0.00     0.163 HD
BRANCH   3   6
ATOM      6  C   UNL A   1      34.141  23.216  25.184  1.00  0.00     0.108 A 
ATOM      7  C   UNL A   1      32.902  21.152  24.255  1.00  0.00     0.150 C 
ATOM      8  N   UNL A   1      33.464  22.485  24.219  1.00  0.00    -0.345 N 
ATOM      9  C   UNL A   1      33.201  23.281  23.141  1.00  0.00     0.107 A 
ATOM     10  C   UNL A   1      33.356  24.582  23.546  1.00  0.00     0.101 A 
ATOM     11  C   UNL A   1      33.913  24.551  24.836  1.00  0.00     0.055 A 
BRANCH  10  12
ATOM     12  S   UNL A   1      32.811  25.880  22.591  1.00  0.00     0.244 S 
ATOM     13  O   UNL A   1      33.997  26.352  21.912  1.00  0.00    -0.207 OA
ATOM     14  O   UNL A   1      31.692  25.302  21.881  1.00  0.00    -0.207 OA
BRANCH  12  15
ATOM     15  N   UNL A   1      32.212  27.176  23.472  1.00  0.00    -0.196 NA
BRANCH  15  16
ATOM     16  C   UNL A   1      32.907  27.607  24.733  1.00  0.00     0.118 C 
BRANCH  16  17
ATOM     17  C   UNL A   1      32.011  28.030  25.911  1.00  0.00     0.137 C 
BRANCH  17  18
ATOM     18  C   UNL A   1      31.249  26.759  26.248  1.00  0.00     0.064 C 
ATOM     19  N   UNL A   1      30.618  25.704  26.528  1.00  0.00    -0.198 NA
ENDBRANCH  17  18
ENDBRANCH  16  17
ENDBRANCH  15  16
BRANCH  15  20
ATOM     20  C   UNL A   1      31.520  28.220  22.618  1.00  0.00     0.118 C 
BRANCH  20  21
ATOM     21  C   UNL A   1      29.991  28.361  22.803  1.00  0.00     0.137 C 
BRANCH  21  22
ATOM     22  C   UNL A   1      29.484  29.689  23.164  1.00  0.00     0.064 C 
ATOM     23  N   UNL A   1      29.147  30.740  23.532  1.00  0.00    -0.198 NA
ENDBRANCH  21  22
ENDBRANCH  20  21
ENDBRANCH  15  20
ENDBRANCH  12  15
ENDBRANCH  10  12
ENDBRANCH   3   6
ENDBRANCH   1   2
BRANCH   1  24
ATOM     24  C   UNL A   1      37.995  21.152  25.111  1.00  0.00     0.042 C 
BRANCH  24  25
ATOM     25  C   UNL A   1      39.128  21.248  26.104  1.00  0.00     0.118 C 
BRANCH  25  26
ATOM     26  N   UNL A   1      40.034  20.103  26.078  1.00  0.00    -0.352 N 
ATOM     27  C   UNL A   1      41.406  20.040  26.174  1.00  0.00     0.251 C 
ATOM     28  H   UNL A   1      39.589  19.231  25.975  1.00  0.00     0.163 HD
ATOM     29  O   UNL A   1      41.978  18.970  25.984  1.00  0.00    -0.269 OA
BRANCH  27  30
ATOM     30  C   UNL A   1      42.189  21.263  26.460  1.00  0.00     0.039 A 
ATOM     31  C   UNL A   1      42.489  22.147  25.422  1.00  0.00     0.014 A 
ATOM     32  C   UNL A   1      42.589  21.562  27.760  1.00  0.00     0.014 A 
ATOM     33  C   UNL A   1      43.095  23.373  25.714  1.00  0.00     0.010 A 
ATOM     34  C   UNL A   1      43.037  22.837  28.068  1.00  0.00     0.010 A 
ATOM     35  C   UNL A   1      43.319  23.752  27.048  1.00  0.00    -0.014 A 
BRANCH  35  36
ATOM     36  C   UNL A   1      43.869  25.085  27.405  1.00  0.00     0.031 A 
ATOM     37  C   UNL A   1      45.333  25.376  27.186  1.00  0.00     0.074 A 
ATOM     38  C   UNL A   1      43.075  26.006  27.988  1.00  0.00     0.049 A 
ATOM     39  N   UNL A   1      46.012  26.452  27.487  1.00  0.00    -0.248 NA
ATOM     40  C   UNL A   1      46.149  24.306  26.584  1.00  0.00     0.031 C 
ATOM     41  C   UNL A   1      41.654  25.828  28.300  1.00  0.00     0.029 A 
ATOM     42  N   UNL A   1      43.348  27.280  28.422  1.00  0.00    -0.354 N 
ATOM     43  C   UNL A   1      47.328  26.180  27.131  1.00  0.00     0.074 A 
ATOM     44  C   UNL A   1      47.368  24.815  26.659  1.00  0.00     0.031 C 
ATOM     45  C   UNL A   1      41.173  26.962  28.831  1.00  0.00     0.029 A 
ATOM     46  C   UNL A   1      42.259  27.930  28.951  1.00  0.00     0.049 A 
ATOM     47  H   UNL A   1      44.241  27.688  28.360  1.00  0.00     0.167 HD
ATOM     48  C   UNL A   1      48.404  26.999  27.166  1.00  0.00     0.031 A 
ATOM     49  C   UNL A   1      42.145  29.163  29.483  1.00  0.00     0.031 A 
ATOM     50  C   UNL A   1      48.356  28.360  27.625  1.00  0.00     0.049 A 
ATOM     51  C   UNL A   1      43.359  30.050  29.529  1.00  0.00     0.074 A 
ATOM     52  C   UNL A   1      49.375  29.296  27.643  1.00  0.00     0.029 A 
ATOM     53  N   UNL A   1      47.233  28.980  28.151  1.00  0.00    -0.354 N 
ATOM     54  N   UNL A   1      44.579  29.799  29.115  1.00  0.00    -0.248 NA
ATOM     55  C   UNL A   1      43.179  31.390  30.102  1.00  0.00     0.031 C 
ATOM     56  C   UNL A   1      48.889  30.456  28.252  1.00  0.00     0.029 A 
ATOM     57  C   UNL A   1      47.544  30.274  28.532  1.00  0.00     0.049 A 
ATOM     58  H   UNL A   1      46.346  28.562  28.240  1.00  0.00     0.167 HD
ATOM     59  C   UNL A   1      45.304  30.962  29.349  1.00  0.00     0.074 A 
ATOM     60  C   UNL A   1      44.382  31.920  29.924  1.00  0.00     0.031 C 
ATOM     61  C   UNL A   1      46.615  31.216  29.107  1.00  0.00     0.031 A 
BRANCH  48  62
ATOM     62  C   UNL A   1      49.728  26.440  26.707  1.00  0.00    -0.014 A 
ATOM     63  C   UNL A   1      50.115  26.488  25.355  1.00  0.00     0.010 A 
ATOM     64  C   UNL A   1      50.618  25.899  27.652  1.00  0.00     0.010 A 
ATOM     65  C   UNL A   1      51.348  25.970  24.952  1.00  0.00     0.020 A 
ATOM     66  C   UNL A   1      51.868  25.413  27.259  1.00  0.00     0.020 A 
ATOM     67  C   UNL A   1      52.219  25.439  25.908  1.00  0.00     0.054 A 
BRANCH  67  68
ATOM     68  S   UNL A   1      53.828  24.808  25.359  1.00  0.00     0.124 S 
ATOM     69  O   UNL A   1      53.502  23.432  24.990  1.00  0.00    -0.237 OA
ATOM     70  O   UNL A   1      54.154  25.697  24.248  1.00  0.00    -0.237 OA
ATOM     71  O   UNL A   1      54.677  24.949  26.540  1.00  0.00    -0.744 OA
ENDBRANCH  67  68
ENDBRANCH  48  62
BRANCH  49  72
ATOM     72  C   UNL A   1      40.829  29.632  30.003  1.00  0.00    -0.014 A 
ATOM     73  C   UNL A   1      39.839  30.112  29.128  1.00  0.00     0.010 A 
ATOM     74  C   UNL A   1      40.555  29.588  31.383  1.00  0.00     0.010 A 
ATOM     75  C   UNL A   1      38.608  30.554  29.622  1.00  0.00     0.020 A 
ATOM     76  C   UNL A   1      39.312  29.994  31.877  1.00  0.00     0.020 A 
ATOM     77  C   UNL A   1      38.351  30.485  30.993  1.00  0.00     0.054 A 
BRANCH  77  78
ATOM     78  S   UNL A   1      36.725  31.009  31.604  1.00  0.00     0.124 S 
ATOM     79  O   UNL A   1      37.053  31.546  32.921  1.00  0.00    -0.237 OA
ATOM     80  O   UNL A   1      36.316  31.991  30.602  1.00  0.00    -0.237 OA
ATOM     81  O   UNL A   1      35.946  29.772  31.608  1.00  0.00    -0.744 OA
ENDBRANCH  77  78
ENDBRANCH  49  72
BRANCH  61  82
ATOM     82  C   UNL A   1      47.128  32.596  29.424  1.00  0.00    -0.014 A 
ATOM     83  C   UNL A   1      47.703  32.900  30.670  1.00  0.00     0.010 A 
ATOM     84  C   UNL A   1      47.087  33.591  28.429  1.00  0.00     0.010 A 
ATOM     85  C   UNL A   1      48.195  34.182  30.926  1.00  0.00     0.020 A 
ATOM     86  C   UNL A   1      47.612  34.862  28.668  1.00  0.00     0.020 A 
ATOM     87  C   UNL A   1      48.150  35.153  29.921  1.00  0.00     0.054 A 
BRANCH  87  88
ATOM     88  S   UNL A   1      48.837  36.795  30.267  1.00  0.00     0.124 S 
ATOM     89  O   UNL A   1      48.514  36.970  31.680  1.00  0.00    -0.237 OA
ATOM     90  O   UNL A   1      50.255  36.616  29.963  1.00  0.00    -0.237 OA
ATOM     91  O   UNL A   1      48.115  37.675  29.350  1.00  0.00    -0.744 OA
ENDBRANCH  87  88
ENDBRANCH  61  82
ENDBRANCH  35  36
ENDBRANCH  27  30
ENDBRANCH  25  26
ENDBRANCH  24  25
ENDBRANCH   1  24
TORSDOF 21
ENDMDL
MODEL 3
REMARK VINA RESULT:      -9.2      4.138     10.190
REMARK SMILES Cn1cc(S(=O)(=O)N(CCC#N)CCC#N)cc1C(=O)NCCCNC(=O)c1ccc(-c2c3nc(c(-c4ccc(S(=O)(=O)[O-])cc4)c4ccc([nH]4)c(-c4ccc(S(=O)(=O)[O-])cc4)c4nc(c(-c5ccc(S(=O)(=O)[O-])cc5)c5ccc2[nH]5)C=C4)C=C3)cc1
REMARK SMILES IDX 22 1 21 2 19 3 20 4 18 6 1 7 2 8 3 9 4 10 17 11 5 12 6 13
REMARK SMILES IDX 7 14 8 15 9 16 10 17 11 18 12 19 13 20 14 21 15 22 16 23
REMARK SMILES IDX 23 24 24 25 25 26 26 27 27 29 28 30 29 31 87 32 30 33 86 34
REMARK SMILES IDX 31 35 32 36 33 37 80 38 34 39 85 40 79 41 81 42 35 43 84 44
REMARK SMILES IDX 78 45 77 46 36 48 66 49 47 50 65 51 48 52 51 53 64 54 82 55
REMARK SMILES IDX 49 56 50 57 63 59 83 60 52 61 37 62 38 63 46 64 39 65 45 66
REMARK SMILES IDX 40 67 41 68 42 69 43 70 44 71 67 72 68 73 76 74 69 75 75 76
REMARK SMILES IDX 70 77 71 78 72 79 73 80 74 81 53 82 54 83 62 84 55 85 61 86
REMARK SMILES IDX 56 87 57 88 58 89 59 90 60 91
REMARK H PARENT 21 5 25 28 81 47 51 58
REMARK Flexibility Score: inf
ROOT
ATOM      1  C   UNL A   1      33.746  29.008  26.462  1.00  0.00     0.118 C 
ENDROOT
BRANCH   1   2
ATOM      2  N   UNL A   1      32.482  29.356  25.873  1.00  0.00    -0.351 N 
ATOM      3  C   UNL A   1      31.824  28.733  24.843  1.00  0.00     0.267 C 
ATOM      4  O   UNL A   1      30.733  29.213  24.523  1.00  0.00    -0.268 OA
ATOM      5  H   UNL A   1      32.031  30.142  26.257  1.00  0.00     0.163 HD
BRANCH   3   6
ATOM      6  C   UNL A   1      32.430  27.643  24.087  1.00  0.00     0.108 A 
ATOM      7  C   UNL A   1      34.411  28.566  22.714  1.00  0.00     0.150 C 
ATOM      8  N   UNL A   1      33.383  27.616  23.079  1.00  0.00    -0.345 N 
ATOM      9  C   UNL A   1      33.372  26.393  22.471  1.00  0.00     0.107 A 
ATOM     10  C   UNL A   1      32.710  25.528  23.305  1.00  0.00     0.101 A 
ATOM     11  C   UNL A   1      32.145  26.297  24.337  1.00  0.00     0.055 A 
BRANCH  10  12
ATOM     12  S   UNL A   1      32.760  23.845  23.061  1.00  0.00     0.244 S 
ATOM     13  O   UNL A   1      31.378  23.428  23.134  1.00  0.00    -0.207 OA
ATOM     14  O   UNL A   1      33.542  23.725  21.850  1.00  0.00    -0.207 OA
BRANCH  12  15
ATOM     15  N   UNL A   1      33.582  23.003  24.256  1.00  0.00    -0.196 NA
BRANCH  15  16
ATOM     16  C   UNL A   1      33.764  23.619  25.615  1.00  0.00     0.118 C 
BRANCH  16  17
ATOM     17  C   UNL A   1      34.801  22.963  26.543  1.00  0.00     0.137 C 
BRANCH  17  18
ATOM     18  C   UNL A   1      36.130  23.381  25.938  1.00  0.00     0.064 C 
ATOM     19  N   UNL A   1      37.233  23.728  25.435  1.00  0.00    -0.198 NA
ENDBRANCH  17  18
ENDBRANCH  16  17
ENDBRANCH  15  16
BRANCH  15  20
ATOM     20  C   UNL A   1      33.439  21.498  24.142  1.00  0.00     0.118 C 
BRANCH  20  21
ATOM     21  C   UNL A   1      32.419  20.826  25.090  1.00  0.00     0.137 C 
BRANCH  21  22
ATOM     22  C   UNL A   1      32.492  19.367  25.223  1.00  0.00     0.064 C 
ATOM     23  N   UNL A   1      32.573  18.226  25.429  1.00  0.00    -0.198 NA
ENDBRANCH  21  22
ENDBRANCH  20  21
ENDBRANCH  15  20
ENDBRANCH  12  15
ENDBRANCH  10  12
ENDBRANCH   3   6
ENDBRANCH   1   2
BRANCH   1  24
ATOM     24  C   UNL A   1      34.501  30.100  27.170  1.00  0.00     0.042 C 
BRANCH  24  25
ATOM     25  C   UNL A   1      35.553  29.614  28.138  1.00  0.00     0.118 C 
BRANCH  25  26
ATOM     26  N   UNL A   1      35.468  30.228  29.459  1.00  0.00    -0.352 N 
ATOM     27  C   UNL A   1      36.452  30.528  30.376  1.00  0.00     0.251 C 
ATOM     28  H   UNL A   1      34.556  30.467  29.743  1.00  0.00     0.163 HD
ATOM     29  O   UNL A   1      36.136  30.918  31.497  1.00  0.00    -0.269 OA
BRANCH  27  30
ATOM     30  C   UNL A   1      37.877  30.339  30.027  1.00  0.00     0.039 A 
ATOM     31  C   UNL A   1      38.786  29.965  31.018  1.00  0.00     0.014 A 
ATOM     32  C   UNL A   1      38.311  30.487  28.711  1.00  0.00     0.014 A 
ATOM     33  C   UNL A   1      40.098  29.640  30.663  1.00  0.00     0.010 A 
ATOM     34  C   UNL A   1      39.558  30.009  28.339  1.00  0.00     0.010 A 
ATOM     35  C   UNL A   1      40.477  29.601  29.311  1.00  0.00    -0.014 A 
BRANCH  35  36
ATOM     36  C   UNL A   1      41.833  29.166  28.886  1.00  0.00     0.031 A 
ATOM     37  C   UNL A   1      42.959  30.167  28.830  1.00  0.00     0.074 A 
ATOM     38  C   UNL A   1      42.035  27.895  28.485  1.00  0.00     0.049 A 
ATOM     39  N   UNL A   1      44.193  29.997  28.430  1.00  0.00    -0.248 NA
ATOM     40  C   UNL A   1      42.653  31.549  29.243  1.00  0.00     0.031 C 
ATOM     41  C   UNL A   1      41.014  26.844  28.442  1.00  0.00     0.029 A 
ATOM     42  N   UNL A   1      43.170  27.267  28.035  1.00  0.00    -0.354 N 
ATOM     43  C   UNL A   1      44.796  31.245  28.525  1.00  0.00     0.074 A 
ATOM     44  C   UNL A   1      43.779  32.179  28.950  1.00  0.00     0.031 C 
ATOM     45  C   UNL A   1      41.579  25.696  28.038  1.00  0.00     0.029 A 
ATOM     46  C   UNL A   1      42.986  25.937  27.736  1.00  0.00     0.049 A 
ATOM     47  H   UNL A   1      44.035  27.726  27.936  1.00  0.00     0.167 HD
ATOM     48  C   UNL A   1      46.088  31.583  28.305  1.00  0.00     0.031 A 
ATOM     49  C   UNL A   1      43.849  25.016  27.263  1.00  0.00     0.031 A 
ATOM     50  C   UNL A   1      47.099  30.648  27.894  1.00  0.00     0.049 A 
ATOM     51  C   UNL A   1      45.275  25.419  27.008  1.00  0.00     0.074 A 
ATOM     52  C   UNL A   1      48.450  30.874  27.704  1.00  0.00     0.029 A 
ATOM     53  N   UNL A   1      46.871  29.311  27.603  1.00  0.00    -0.354 N 
ATOM     54  N   UNL A   1      45.844  26.589  27.178  1.00  0.00    -0.248 NA
ATOM     55  C   UNL A   1      46.179  24.375  26.508  1.00  0.00     0.031 C 
ATOM     56  C   UNL A   1      49.024  29.693  27.224  1.00  0.00     0.029 A 
ATOM     57  C   UNL A   1      48.050  28.709  27.199  1.00  0.00     0.049 A 
ATOM     58  H   UNL A   1      45.999  28.858  27.675  1.00  0.00     0.167 HD
ATOM     59  C   UNL A   1      47.181  26.413  26.837  1.00  0.00     0.074 A 
ATOM     60  C   UNL A   1      47.337  25.021  26.468  1.00  0.00     0.031 C 
ATOM     61  C   UNL A   1      48.189  27.321  26.831  1.00  0.00     0.031 A 
BRANCH  48  62
ATOM     62  C   UNL A   1      46.478  33.028  28.492  1.00  0.00    -0.014 A 
ATOM     63  C   UNL A   1      47.112  33.470  29.668  1.00  0.00     0.010 A 
ATOM     64  C   UNL A   1      46.246  33.950  27.456  1.00  0.00     0.010 A 
ATOM     65  C   UNL A   1      47.471  34.812  29.819  1.00  0.00     0.020 A 
ATOM     66  C   UNL A   1      46.636  35.285  27.587  1.00  0.00     0.020 A 
ATOM     67  C   UNL A   1      47.233  35.711  28.775  1.00  0.00     0.054 A 
BRANCH  67  68
ATOM     68  S   UNL A   1      47.743  37.438  28.986  1.00  0.00     0.124 S 
ATOM     69  O   UNL A   1      47.514  37.648  30.414  1.00  0.00    -0.237 OA
ATOM     70  O   UNL A   1      49.143  37.408  28.573  1.00  0.00    -0.237 OA
ATOM     71  O   UNL A   1      46.848  38.176  28.099  1.00  0.00    -0.744 OA
ENDBRANCH  67  68
ENDBRANCH  48  62
BRANCH  49  72
ATOM     72  C   UNL A   1      43.386  23.622  27.012  1.00  0.00    -0.014 A 
ATOM     73  C   UNL A   1      43.195  22.724  28.077  1.00  0.00     0.010 A 
ATOM     74  C   UNL A   1      43.120  23.188  25.700  1.00  0.00     0.010 A 
ATOM     75  C   UNL A   1      42.764  21.416  27.835  1.00  0.00     0.020 A 
ATOM     76  C   UNL A   1      42.654  21.893  25.456  1.00  0.00     0.020 A 
ATOM     77  C   UNL A   1      42.490  21.012  26.526  1.00  0.00     0.054 A 
BRANCH  77  78
ATOM     78  S   UNL A   1      41.876  19.328  26.242  1.00  0.00     0.124 S 
ATOM     79  O   UNL A   1      42.212  18.666  27.498  1.00  0.00    -0.237 OA
ATOM     80  O   UNL A   1      40.451  19.552  26.004  1.00  0.00    -0.237 OA
ATOM     81  O   UNL A   1      42.632  18.880  25.075  1.00  0.00    -0.744 OA
ENDBRANCH  77  78
ENDBRANCH  49  72
BRANCH  61  82
ATOM     82  C   UNL A   1      49.563  26.834  26.454  1.00  0.00    -0.014 A 
ATOM     83  C   UNL A   1      50.390  26.174  27.379  1.00  0.00     0.010 A 
ATOM     84  C   UNL A   1      50.008  26.989  25.127  1.00  0.00     0.010 A 
ATOM     85  C   UNL A   1      51.650  25.709  26.994  1.00  0.00     0.020 A 
ATOM     86  C   UNL A   1      51.250  26.492  24.729  1.00  0.00     0.020 A 
ATOM     87  C   UNL A   1      52.069  25.868  25.669  1.00  0.00     0.054 A 
BRANCH  87  88
ATOM     88  S   UNL A   1      53.690  25.214  25.186  1.00  0.00     0.124 S 
ATOM     89  O   UNL A   1      54.587  25.922  26.094  1.00  0.00    -0.237 OA
ATOM     90  O   UNL A   1      53.543  23.782  25.437  1.00  0.00    -0.237 OA
ATOM     91  O   UNL A   1      53.810  25.586  23.777  1.00  0.00    -0.744 OA
ENDBRANCH  87  88
ENDBRANCH  61  82
ENDBRANCH  35  36
ENDBRANCH  27  30
ENDBRANCH  25  26
ENDBRANCH  24  25
ENDBRANCH   1  24
TORSDOF 21
ENDMDL
