MODEL 1
REMARK VINA RESULT:     -12.3      0.000      0.000
REMARK SMILES O=C(NCCCNC(=O)c1ccc(Cl)cc1-c1ccc(C(F)(F)F)cc1)c1ccc(-c2c3nc(c(-c4ccc(S(=O)(=O)[O-])cc4)c4ccc([nH]4)c(-c4ccc(S(=O)(=O)[O-])cc4)c4nc(c(-c5ccc(S(=O)(=O)[O-])cc5)c5ccc2[nH]5)C=C4)C=C3)cc1
REMARK SMILES IDX 4 1 3 2 1 3 2 4 27 6 28 7 86 8 29 9 85 10 30 11 31 12 32 13
REMARK SMILES IDX 79 14 33 15 84 16 78 17 80 18 34 19 83 20 77 21 76 22 35 24
REMARK SMILES IDX 65 25 46 26 64 27 47 28 50 29 63 30 81 31 48 32 49 33 62 35
REMARK SMILES IDX 82 36 51 37 36 38 37 39 45 40 38 41 44 42 39 43 40 44 41 45
REMARK SMILES IDX 42 46 43 47 66 48 67 49 75 50 68 51 74 52 69 53 70 54 71 55
REMARK SMILES IDX 72 56 73 57 52 58 53 59 61 60 54 61 60 62 55 63 56 64 57 65
REMARK SMILES IDX 58 66 59 67 5 68 6 69 7 70 8 71 9 73 10 74 11 75 16 76 12 77
REMARK SMILES IDX 15 78 13 79 14 80 17 81 18 82 26 83 19 84 25 85 20 86 21 87
REMARK SMILES IDX 22 88 23 89 24 90
REMARK H PARENT 3 5 80 23 50 34 7 72
REMARK Flexibility Score: inf
ROOT
ATOM      1  C   UNL A   1      35.353  29.884  27.663  1.00  0.00     0.118 C 
ENDROOT
BRANCH   1   2
ATOM      2  N   UNL A   1      35.428  29.953  29.118  1.00  0.00    -0.352 N 
ATOM      3  O   UNL A   1      36.249  29.641  31.190  1.00  0.00    -0.269 OA
ATOM      4  C   UNL A   1      36.459  29.651  29.978  1.00  0.00     0.251 C 
ATOM      5  H   UNL A   1      34.606  30.268  29.559  1.00  0.00     0.163 HD
BRANCH   4   6
ATOM      6  C   UNL A   1      37.803  29.310  29.459  1.00  0.00     0.039 A 
ATOM      7  C   UNL A   1      38.756  28.715  30.283  1.00  0.00     0.014 A 
ATOM      8  C   UNL A   1      38.116  29.572  28.120  1.00  0.00     0.014 A 
ATOM      9  C   UNL A   1      40.064  28.576  29.840  1.00  0.00     0.010 A 
ATOM     10  C   UNL A   1      39.405  29.313  27.637  1.00  0.00     0.010 A 
ATOM     11  C   UNL A   1      40.405  28.852  28.505  1.00  0.00    -0.014 A 
BRANCH  11  12
ATOM     12  C   UNL A   1      41.797  28.575  28.062  1.00  0.00     0.031 A 
ATOM     13  C   UNL A   1      42.867  29.633  28.097  1.00  0.00     0.074 A 
ATOM     14  C   UNL A   1      42.111  27.311  27.706  1.00  0.00     0.049 A 
ATOM     15  N   UNL A   1      44.148  29.511  27.851  1.00  0.00    -0.248 NA
ATOM     16  C   UNL A   1      42.455  31.004  28.442  1.00  0.00     0.031 C 
ATOM     17  C   UNL A   1      41.155  26.203  27.608  1.00  0.00     0.029 A 
ATOM     18  N   UNL A   1      43.318  26.731  27.412  1.00  0.00    -0.354 N 
ATOM     19  C   UNL A   1      44.693  30.781  27.999  1.00  0.00     0.074 A 
ATOM     20  C   UNL A   1      43.598  31.669  28.329  1.00  0.00     0.031 C 
ATOM     21  C   UNL A   1      41.820  25.067  27.361  1.00  0.00     0.029 A 
ATOM     22  C   UNL A   1      43.237  25.372  27.211  1.00  0.00     0.049 A 
ATOM     23  H   UNL A   1      44.160  27.237  27.350  1.00  0.00     0.167 HD
ATOM     24  C   UNL A   1      45.985  31.170  27.878  1.00  0.00     0.031 A 
ATOM     25  C   UNL A   1      44.192  24.466  26.931  1.00  0.00     0.031 A 
ATOM     26  C   UNL A   1      47.072  30.284  27.550  1.00  0.00     0.049 A 
ATOM     27  C   UNL A   1      45.615  24.925  26.814  1.00  0.00     0.074 A 
ATOM     28  C   UNL A   1      48.417  30.585  27.404  1.00  0.00     0.029 A 
ATOM     29  N   UNL A   1      46.944  28.923  27.318  1.00  0.00    -0.354 N 
ATOM     30  N   UNL A   1      46.104  26.131  26.969  1.00  0.00    -0.248 NA
ATOM     31  C   UNL A   1      46.613  23.900  26.484  1.00  0.00     0.031 C 
ATOM     32  C   UNL A   1      49.094  29.413  27.049  1.00  0.00     0.029 A 
ATOM     33  C   UNL A   1      48.181  28.373  27.021  1.00  0.00     0.049 A 
ATOM     34  H   UNL A   1      46.098  28.420  27.359  1.00  0.00     0.167 HD
ATOM     35  C   UNL A   1      47.470  26.012  26.751  1.00  0.00     0.074 A 
ATOM     36  C   UNL A   1      47.733  24.609  26.495  1.00  0.00     0.031 C 
ATOM     37  C   UNL A   1      48.420  26.979  26.749  1.00  0.00     0.031 A 
BRANCH  24  38
ATOM     38  C   UNL A   1      46.302  32.628  28.094  1.00  0.00    -0.014 A 
ATOM     39  C   UNL A   1      46.663  33.110  29.366  1.00  0.00     0.010 A 
ATOM     40  C   UNL A   1      46.300  33.515  27.002  1.00  0.00     0.010 A 
ATOM     41  C   UNL A   1      46.989  34.458  29.545  1.00  0.00     0.020 A 
ATOM     42  C   UNL A   1      46.649  34.859  27.173  1.00  0.00     0.020 A 
ATOM     43  C   UNL A   1      46.979  35.325  28.447  1.00  0.00     0.054 A 
BRANCH  43  44
ATOM     44  S   UNL A   1      47.442  37.061  28.705  1.00  0.00     0.124 S 
ATOM     45  O   UNL A   1      46.762  37.720  27.592  1.00  0.00    -0.237 OA
ATOM     46  O   UNL A   1      46.897  37.346  30.029  1.00  0.00    -0.237 OA
ATOM     47  O   UNL A   1      48.900  37.047  28.623  1.00  0.00    -0.744 OA
ENDBRANCH  43  44
ENDBRANCH  24  38
BRANCH  25  48
ATOM     48  C   UNL A   1      43.816  23.044  26.715  1.00  0.00    -0.014 A 
ATOM     49  C   UNL A   1      42.992  22.365  27.629  1.00  0.00     0.010 A 
ATOM     50  C   UNL A   1      44.269  22.367  25.568  1.00  0.00     0.010 A 
ATOM     51  C   UNL A   1      42.644  21.029  27.407  1.00  0.00     0.020 A 
ATOM     52  C   UNL A   1      43.898  21.044  25.326  1.00  0.00     0.020 A 
ATOM     53  C   UNL A   1      43.099  20.377  26.257  1.00  0.00     0.054 A 
BRANCH  53  54
ATOM     54  S   UNL A   1      42.597  18.660  25.955  1.00  0.00     0.124 S 
ATOM     55  O   UNL A   1      41.179  18.811  25.646  1.00  0.00    -0.237 OA
ATOM     56  O   UNL A   1      43.451  18.270  24.836  1.00  0.00    -0.237 OA
ATOM     57  O   UNL A   1      42.897  17.992  27.218  1.00  0.00    -0.744 OA
ENDBRANCH  53  54
ENDBRANCH  25  48
BRANCH  37  58
ATOM     58  C   UNL A   1      49.829  26.539  26.461  1.00  0.00    -0.014 A 
ATOM     59  C   UNL A   1      50.670  26.087  27.494  1.00  0.00     0.010 A 
ATOM     60  C   UNL A   1      50.318  26.577  25.144  1.00  0.00     0.010 A 
ATOM     61  C   UNL A   1      51.991  25.726  27.222  1.00  0.00     0.020 A 
ATOM     62  C   UNL A   1      51.631  26.192  24.863  1.00  0.00     0.020 A 
ATOM     63  C   UNL A   1      52.466  25.790  25.908  1.00  0.00     0.054 A 
BRANCH  63  64
ATOM     64  S   UNL A   1      54.183  25.314  25.575  1.00  0.00     0.124 S 
ATOM     65  O   UNL A   1      54.891  25.930  26.692  1.00  0.00    -0.237 OA
ATOM     66  O   UNL A   1      54.124  23.854  25.597  1.00  0.00    -0.237 OA
ATOM     67  O   UNL A   1      54.456  25.899  24.263  1.00  0.00    -0.744 OA
ENDBRANCH  63  64
ENDBRANCH  37  58
ENDBRANCH  11  12
ENDBRANCH   4   6
ENDBRANCH   1   2
BRANCH   1  68
ATOM     68  C   UNL A   1      34.298  28.910  27.160  1.00  0.00     0.042 C 
BRANCH  68  69
ATOM     69  C   UNL A   1      33.329  29.505  26.151  1.00  0.00     0.118 C 
BRANCH  69  70
ATOM     70  N   UNL A   1      33.825  29.435  24.782  1.00  0.00    -0.352 N 
ATOM     71  C   UNL A   1      33.287  28.840  23.667  1.00  0.00     0.251 C 
ATOM     72  H   UNL A   1      34.686  29.888  24.632  1.00  0.00     0.163 HD
ATOM     73  O   UNL A   1      33.898  28.875  22.603  1.00  0.00    -0.269 OA
BRANCH  71  74
ATOM     74  C   UNL A   1      31.951  28.204  23.740  1.00  0.00     0.047 A 
ATOM     75  C   UNL A   1      30.836  28.994  23.410  1.00  0.00     0.016 A 
ATOM     76  C   UNL A   1      31.796  26.836  24.049  1.00  0.00    -0.004 A 
ATOM     77  C   UNL A   1      29.549  28.464  23.472  1.00  0.00     0.021 A 
ATOM     78  C   UNL A   1      30.482  26.324  24.101  1.00  0.00     0.030 A 
ATOM     79  C   UNL A   1      29.377  27.132  23.827  1.00  0.00     0.041 A 
ATOM     80  Cl  UNL A   1      27.792  26.469  23.904  1.00  0.00    -0.084 Cl
BRANCH  76  81
ATOM     81  C   UNL A   1      32.917  25.908  24.283  1.00  0.00    -0.018 A 
ATOM     82  C   UNL A   1      33.440  25.162  23.212  1.00  0.00     0.009 A 
ATOM     83  C   UNL A   1      33.468  25.710  25.557  1.00  0.00     0.009 A 
ATOM     84  C   UNL A   1      34.477  24.245  23.406  1.00  0.00     0.014 A 
ATOM     85  C   UNL A   1      34.509  24.792  25.754  1.00  0.00     0.014 A 
ATOM     86  C   UNL A   1      35.022  24.048  24.682  1.00  0.00     0.056 A 
BRANCH  86  87
ATOM     87  C   UNL A   1      36.132  23.045  24.872  1.00  0.00     0.416 C 
ATOM     88  F   UNL A   1      36.380  22.794  26.189  1.00  0.00    -0.166 F 
ATOM     89  F   UNL A   1      35.847  21.834  24.316  1.00  0.00    -0.166 F 
ATOM     90  F   UNL A   1      37.323  23.431  24.338  1.00  0.00    -0.166 F 
ENDBRANCH  86  87
ENDBRANCH  76  81
ENDBRANCH  71  74
ENDBRANCH  69  70
ENDBRANCH  68  69
ENDBRANCH   1  68
TORSDOF 15
ENDMDL
MODEL 2
REMARK VINA RESULT:     -12.2      3.789      9.398
REMARK SMILES O=C(NCCCNC(=O)c1ccc(Cl)cc1-c1ccc(C(F)(F)F)cc1)c1ccc(-c2c3nc(c(-c4ccc(S(=O)(=O)[O-])cc4)c4ccc([nH]4)c(-c4ccc(S(=O)(=O)[O-])cc4)c4nc(c(-c5ccc(S(=O)(=O)[O-])cc5)c5ccc2[nH]5)C=C4)C=C3)cc1
REMARK SMILES IDX 4 1 3 2 1 3 2 4 27 6 28 7 86 8 29 9 85 10 30 11 31 12 32 13
REMARK SMILES IDX 79 14 33 15 84 16 78 17 80 18 34 19 83 20 77 21 76 22 35 24
REMARK SMILES IDX 65 25 46 26 64 27 47 28 50 29 63 30 81 31 48 32 49 33 62 35
REMARK SMILES IDX 82 36 51 37 36 38 37 39 45 40 38 41 44 42 39 43 40 44 41 45
REMARK SMILES IDX 42 46 43 47 66 48 67 49 75 50 68 51 74 52 69 53 70 54 71 55
REMARK SMILES IDX 72 56 73 57 52 58 53 59 61 60 54 61 60 62 55 63 56 64 57 65
REMARK SMILES IDX 58 66 59 67 5 68 6 69 7 70 8 71 9 73 10 74 11 75 16 76 12 77
REMARK SMILES IDX 15 78 13 79 14 80 17 81 18 82 26 83 19 84 25 85 20 86 21 87
REMARK SMILES IDX 22 88 23 89 24 90
REMARK H PARENT 3 5 80 23 50 34 7 72
REMARK Flexibility Score: inf
ROOT
ATOM      1  C   UNL A   1      34.206  28.450  25.439  1.00  0.00     0.118 C 
ENDROOT
BRANCH   1   2
ATOM      2  N   UNL A   1      33.650  29.548  26.221  1.00  0.00    -0.352 N 
ATOM      3  O   UNL A   1      33.445  31.027  27.904  1.00  0.00    -0.269 OA
ATOM      4  C   UNL A   1      34.160  30.227  27.304  1.00  0.00     0.251 C 
ATOM      5  H   UNL A   1      32.762  29.856  25.926  1.00  0.00     0.163 HD
BRANCH   4   6
ATOM      6  C   UNL A   1      35.545  29.981  27.768  1.00  0.00     0.039 A 
ATOM      7  C   UNL A   1      36.627  30.178  26.913  1.00  0.00     0.014 A 
ATOM      8  C   UNL A   1      35.771  29.561  29.083  1.00  0.00     0.014 A 
ATOM      9  C   UNL A   1      37.895  29.765  27.297  1.00  0.00     0.010 A 
ATOM     10  C   UNL A   1      37.072  29.262  29.511  1.00  0.00     0.010 A 
ATOM     11  C   UNL A   1      38.142  29.320  28.607  1.00  0.00    -0.014 A 
BRANCH  11  12
ATOM     12  C   UNL A   1      39.543  28.999  28.990  1.00  0.00     0.031 A 
ATOM     13  C   UNL A   1      40.178  27.679  28.644  1.00  0.00     0.074 A 
ATOM     14  C   UNL A   1      40.276  29.964  29.585  1.00  0.00     0.049 A 
ATOM     15  N   UNL A   1      41.420  27.300  28.810  1.00  0.00    -0.248 NA
ATOM     16  C   UNL A   1      39.316  26.648  28.043  1.00  0.00     0.031 C 
ATOM     17  C   UNL A   1      39.765  31.277  29.994  1.00  0.00     0.029 A 
ATOM     18  N   UNL A   1      41.609  30.016  29.902  1.00  0.00    -0.354 N 
ATOM     19  C   UNL A   1      41.490  25.990  28.349  1.00  0.00     0.074 A 
ATOM     20  C   UNL A   1      40.155  25.627  27.921  1.00  0.00     0.031 C 
ATOM     21  C   UNL A   1      40.783  32.031  30.428  1.00  0.00     0.029 A 
ATOM     22  C   UNL A   1      42.005  31.237  30.398  1.00  0.00     0.049 A 
ATOM     23  H   UNL A   1      42.222  29.255  29.788  1.00  0.00     0.167 HD
ATOM     24  C   UNL A   1      42.566  25.169  28.281  1.00  0.00     0.031 A 
ATOM     25  C   UNL A   1      43.214  31.676  30.793  1.00  0.00     0.031 A 
ATOM     26  C   UNL A   1      43.893  25.534  28.708  1.00  0.00     0.049 A 
ATOM     27  C   UNL A   1      44.389  30.748  30.697  1.00  0.00     0.074 A 
ATOM     28  C   UNL A   1      45.048  24.770  28.680  1.00  0.00     0.029 A 
ATOM     29  N   UNL A   1      44.246  26.766  29.238  1.00  0.00    -0.354 N 
ATOM     30  N   UNL A   1      44.428  29.517  30.246  1.00  0.00    -0.248 NA
ATOM     31  C   UNL A   1      45.680  31.268  31.161  1.00  0.00     0.031 C 
ATOM     32  C   UNL A   1      46.090  25.528  29.227  1.00  0.00     0.029 A 
ATOM     33  C   UNL A   1      45.596  26.780  29.550  1.00  0.00     0.049 A 
ATOM     34  H   UNL A   1      43.627  27.520  29.373  1.00  0.00     0.167 HD
ATOM     35  C   UNL A   1      45.749  29.112  30.379  1.00  0.00     0.074 A 
ATOM     36  C   UNL A   1      46.484  30.244  30.911  1.00  0.00     0.031 C 
ATOM     37  C   UNL A   1      46.304  27.908  30.097  1.00  0.00     0.031 A 
BRANCH  24  38
ATOM     38  C   UNL A   1      42.356  23.782  27.732  1.00  0.00    -0.014 A 
ATOM     39  C   UNL A   1      42.537  23.510  26.363  1.00  0.00     0.010 A 
ATOM     40  C   UNL A   1      42.036  22.723  28.602  1.00  0.00     0.010 A 
ATOM     41  C   UNL A   1      42.375  22.211  25.872  1.00  0.00     0.020 A 
ATOM     42  C   UNL A   1      41.896  21.419  28.118  1.00  0.00     0.020 A 
ATOM     43  C   UNL A   1      42.054  21.173  26.752  1.00  0.00     0.054 A 
BRANCH  43  44
ATOM     44  S   UNL A   1      41.884  19.491  26.091  1.00  0.00     0.124 S 
ATOM     45  O   UNL A   1      40.450  19.417  25.827  1.00  0.00    -0.237 OA
ATOM     46  O   UNL A   1      42.739  19.523  24.908  1.00  0.00    -0.237 OA
ATOM     47  O   UNL A   1      42.362  18.641  27.178  1.00  0.00    -0.744 OA
ENDBRANCH  43  44
ENDBRANCH  24  38
BRANCH  25  48
ATOM     48  C   UNL A   1      43.357  33.051  31.339  1.00  0.00    -0.014 A 
ATOM     49  C   UNL A   1      43.186  33.307  32.711  1.00  0.00     0.010 A 
ATOM     50  C   UNL A   1      43.692  34.114  30.481  1.00  0.00     0.010 A 
ATOM     51  C   UNL A   1      43.330  34.606  33.209  1.00  0.00     0.020 A 
ATOM     52  C   UNL A   1      43.868  35.405  30.979  1.00  0.00     0.020 A 
ATOM     53  C   UNL A   1      43.671  35.647  32.339  1.00  0.00     0.054 A 
BRANCH  53  54
ATOM     54  S   UNL A   1      43.906  37.317  33.007  1.00  0.00     0.124 S 
ATOM     55  O   UNL A   1      42.781  37.434  33.928  1.00  0.00    -0.237 OA
ATOM     56  O   UNL A   1      45.226  37.230  33.626  1.00  0.00    -0.237 OA
ATOM     57  O   UNL A   1      43.839  38.168  31.822  1.00  0.00    -0.744 OA
ENDBRANCH  53  54
ENDBRANCH  25  48
BRANCH  37  58
ATOM     58  C   UNL A   1      47.777  27.765  30.363  1.00  0.00    -0.014 A 
ATOM     59  C   UNL A   1      48.723  28.068  29.367  1.00  0.00     0.010 A 
ATOM     60  C   UNL A   1      48.221  27.326  31.622  1.00  0.00     0.010 A 
ATOM     61  C   UNL A   1      50.087  27.886  29.610  1.00  0.00     0.020 A 
ATOM     62  C   UNL A   1      49.585  27.167  31.878  1.00  0.00     0.020 A 
ATOM     63  C   UNL A   1      50.509  27.427  30.862  1.00  0.00     0.054 A 
BRANCH  63  64
ATOM     64  S   UNL A   1      52.283  27.202  31.159  1.00  0.00     0.124 S 
ATOM     65  O   UNL A   1      52.464  27.878  32.440  1.00  0.00    -0.237 OA
ATOM     66  O   UNL A   1      52.424  25.748  31.190  1.00  0.00    -0.237 OA
ATOM     67  O   UNL A   1      52.910  27.858  30.013  1.00  0.00    -0.744 OA
ENDBRANCH  63  64
ENDBRANCH  37  58
ENDBRANCH  11  12
ENDBRANCH   4   6
ENDBRANCH   1   2
BRANCH   1  68
ATOM     68  C   UNL A   1      33.936  28.575  23.947  1.00  0.00     0.042 C 
BRANCH  68  69
ATOM     69  C   UNL A   1      34.160  27.293  23.162  1.00  0.00     0.118 C 
BRANCH  69  70
ATOM     70  N   UNL A   1      33.208  27.123  22.072  1.00  0.00    -0.352 N 
ATOM     71  C   UNL A   1      32.040  26.401  22.012  1.00  0.00     0.251 C 
ATOM     72  H   UNL A   1      33.438  27.603  21.245  1.00  0.00     0.163 HD
ATOM     73  O   UNL A   1      31.398  26.369  20.966  1.00  0.00    -0.269 OA
BRANCH  71  74
ATOM     74  C   UNL A   1      31.537  25.705  23.219  1.00  0.00     0.047 A 
ATOM     75  C   UNL A   1      32.141  24.483  23.564  1.00  0.00     0.016 A 
ATOM     76  C   UNL A   1      30.547  26.275  24.046  1.00  0.00    -0.004 A 
ATOM     77  C   UNL A   1      31.709  23.768  24.678  1.00  0.00     0.021 A 
ATOM     78  C   UNL A   1      30.129  25.531  25.170  1.00  0.00     0.030 A 
ATOM     79  C   UNL A   1      30.696  24.292  25.472  1.00  0.00     0.041 A 
ATOM     80  Cl  UNL A   1      30.155  23.417  26.850  1.00  0.00    -0.084 Cl
BRANCH  76  81
ATOM     81  C   UNL A   1      29.952  27.606  23.828  1.00  0.00    -0.018 A 
ATOM     82  C   UNL A   1      28.709  27.719  23.183  1.00  0.00     0.009 A 
ATOM     83  C   UNL A   1      30.605  28.785  24.214  1.00  0.00     0.009 A 
ATOM     84  C   UNL A   1      28.136  28.968  22.927  1.00  0.00     0.014 A 
ATOM     85  C   UNL A   1      30.032  30.039  23.960  1.00  0.00     0.014 A 
ATOM     86  C   UNL A   1      28.794  30.143  23.311  1.00  0.00     0.056 A 
BRANCH  86  87
ATOM     87  C   UNL A   1      28.164  31.482  23.015  1.00  0.00     0.416 C 
ATOM     88  F   UNL A   1      27.164  31.787  23.890  1.00  0.00    -0.166 F 
ATOM     89  F   UNL A   1      29.053  32.511  23.101  1.00  0.00    -0.166 F 
ATOM     90  F   UNL A   1      27.610  31.570  21.774  1.00  0.00    -0.166 F 
ENDBRANCH  86  87
ENDBRANCH  76  81
ENDBRANCH  71  74
ENDBRANCH  69  70
ENDBRANCH  68  69
ENDBRANCH   1  68
TORSDOF 15
ENDMDL
MODEL 3
REMARK VINA RESULT:     -12.2      6.992     12.245
REMARK SMILES O=C(NCCCNC(=O)c1ccc(Cl)cc1-c1ccc(C(F)(F)F)cc1)c1ccc(-c2c3nc(c(-c4ccc(S(=O)(=O)[O-])cc4)c4ccc([nH]4)c(-c4ccc(S(=O)(=O)[O-])cc4)c4nc(c(-c5ccc(S(=O)(=O)[O-])cc5)c5ccc2[nH]5)C=C4)C=C3)cc1
REMARK SMILES IDX 4 1 3 2 1 3 2 4 27 6 28 7 86 8 29 9 85 10 30 11 31 12 32 13
REMARK SMILES IDX 79 14 33 15 84 16 78 17 80 18 34 19 83 20 77 21 76 22 35 24
REMARK SMILES IDX 65 25 46 26 64 27 47 28 50 29 63 30 81 31 48 32 49 33 62 35
REMARK SMILES IDX 82 36 51 37 36 38 37 39 45 40 38 41 44 42 39 43 40 44 41 45
REMARK SMILES IDX 42 46 43 47 66 48 67 49 75 50 68 51 74 52 69 53 70 54 71 55
REMARK SMILES IDX 72 56 73 57 52 58 53 59 61 60 54 61 60 62 55 63 56 64 57 65
REMARK SMILES IDX 58 66 59 67 5 68 6 69 7 70 8 71 9 73 10 74 11 75 16 76 12 77
REMARK SMILES IDX 15 78 13 79 14 80 17 81 18 82 26 83 19 84 25 85 20 86 21 87
REMARK SMILES IDX 22 88 23 89 24 90
REMARK H PARENT 3 5 80 23 50 34 7 72
REMARK Flexibility Score: inf
ROOT
ATOM      1  C   UNL A   1      38.859  23.908  26.649  1.00  0.00     0.118 C 
ENDROOT
BRANCH   1   2
ATOM      2  N   UNL A   1      40.049  24.390  25.957  1.00  0.00    -0.352 N 
ATOM      3  O   UNL A   1      41.702  25.797  25.365  1.00  0.00    -0.269 OA
ATOM      4  C   UNL A   1      40.824  25.506  26.176  1.00  0.00     0.251 C 
ATOM      5  H   UNL A   1      40.347  23.824  25.208  1.00  0.00     0.163 HD
BRANCH   4   6
ATOM      6  C   UNL A   1      40.591  26.370  27.355  1.00  0.00     0.039 A 
ATOM      7  C   UNL A   1      41.172  27.633  27.439  1.00  0.00     0.014 A 
ATOM      8  C   UNL A   1      39.764  25.921  28.391  1.00  0.00     0.014 A 
ATOM      9  C   UNL A   1      41.100  28.350  28.625  1.00  0.00     0.010 A 
ATOM     10  C   UNL A   1      39.590  26.703  29.540  1.00  0.00     0.010 A 
ATOM     11  C   UNL A   1      40.292  27.908  29.686  1.00  0.00    -0.014 A 
BRANCH  11  12
ATOM     12  C   UNL A   1      40.167  28.777  30.887  1.00  0.00     0.031 A 
ATOM     13  C   UNL A   1      41.116  28.666  32.049  1.00  0.00     0.074 A 
ATOM     14  C   UNL A   1      39.226  29.745  30.876  1.00  0.00     0.049 A 
ATOM     15  N   UNL A   1      41.203  29.428  33.111  1.00  0.00    -0.248 NA
ATOM     16  C   UNL A   1      42.088  27.560  32.029  1.00  0.00     0.031 C 
ATOM     17  C   UNL A   1      38.230  29.937  29.816  1.00  0.00     0.029 A 
ATOM     18  N   UNL A   1      38.982  30.774  31.747  1.00  0.00    -0.354 N 
ATOM     19  C   UNL A   1      42.224  28.892  33.889  1.00  0.00     0.074 A 
ATOM     20  C   UNL A   1      42.710  27.721  33.191  1.00  0.00     0.031 C 
ATOM     21  C   UNL A   1      37.542  31.060  30.056  1.00  0.00     0.029 A 
ATOM     22  C   UNL A   1      37.993  31.630  31.318  1.00  0.00     0.049 A 
ATOM     23  H   UNL A   1      39.465  30.890  32.597  1.00  0.00     0.167 HD
ATOM     24  C   UNL A   1      42.714  29.339  35.070  1.00  0.00     0.031 A 
ATOM     25  C   UNL A   1      37.496  32.749  31.877  1.00  0.00     0.031 A 
ATOM     26  C   UNL A   1      42.228  30.505  35.763  1.00  0.00     0.049 A 
ATOM     27  C   UNL A   1      38.067  33.225  33.180  1.00  0.00     0.074 A 
ATOM     28  C   UNL A   1      42.662  31.037  36.966  1.00  0.00     0.029 A 
ATOM     29  N   UNL A   1      41.203  31.324  35.314  1.00  0.00    -0.354 N 
ATOM     30  N   UNL A   1      39.040  32.705  33.888  1.00  0.00    -0.248 NA
ATOM     31  C   UNL A   1      37.473  34.437  33.756  1.00  0.00     0.031 C 
ATOM     32  C   UNL A   1      41.874  32.155  37.262  1.00  0.00     0.029 A 
ATOM     33  C   UNL A   1      40.983  32.349  36.220  1.00  0.00     0.049 A 
ATOM     34  H   UNL A   1      40.704  31.196  34.475  1.00  0.00     0.167 HD
ATOM     35  C   UNL A   1      39.172  33.525  35.001  1.00  0.00     0.074 A 
ATOM     36  C   UNL A   1      38.208  34.598  34.847  1.00  0.00     0.031 C 
ATOM     37  C   UNL A   1      40.006  33.395  36.061  1.00  0.00     0.031 A 
BRANCH  24  38
ATOM     38  C   UNL A   1      43.837  28.557  35.704  1.00  0.00    -0.014 A 
ATOM     39  C   UNL A   1      43.570  27.501  36.595  1.00  0.00     0.010 A 
ATOM     40  C   UNL A   1      45.171  28.838  35.357  1.00  0.00     0.010 A 
ATOM     41  C   UNL A   1      44.619  26.759  37.147  1.00  0.00     0.020 A 
ATOM     42  C   UNL A   1      46.221  28.084  35.889  1.00  0.00     0.020 A 
ATOM     43  C   UNL A   1      45.939  27.057  36.792  1.00  0.00     0.054 A 
BRANCH  43  44
ATOM     44  S   UNL A   1      47.278  26.054  37.498  1.00  0.00     0.124 S 
ATOM     45  O   UNL A   1      48.463  26.710  36.951  1.00  0.00    -0.237 OA
ATOM     46  O   UNL A   1      47.078  26.217  38.935  1.00  0.00    -0.237 OA
ATOM     47  O   UNL A   1      47.015  24.713  36.983  1.00  0.00    -0.744 OA
ENDBRANCH  43  44
ENDBRANCH  24  38
BRANCH  25  48
ATOM     48  C   UNL A   1      36.379  33.471  31.211  1.00  0.00    -0.014 A 
ATOM     49  C   UNL A   1      35.182  33.742  31.895  1.00  0.00     0.010 A 
ATOM     50  C   UNL A   1      36.525  33.914  29.884  1.00  0.00     0.010 A 
ATOM     51  C   UNL A   1      34.144  34.428  31.256  1.00  0.00     0.020 A 
ATOM     52  C   UNL A   1      35.505  34.626  29.253  1.00  0.00     0.020 A 
ATOM     53  C   UNL A   1      34.313  34.865  29.938  1.00  0.00     0.054 A 
BRANCH  53  54
ATOM     54  S   UNL A   1      32.979  35.799  29.138  1.00  0.00     0.124 S 
ATOM     55  O   UNL A   1      33.716  36.868  28.474  1.00  0.00    -0.237 OA
ATOM     56  O   UNL A   1      32.376  34.802  28.256  1.00  0.00    -0.237 OA
ATOM     57  O   UNL A   1      32.138  36.216  30.257  1.00  0.00    -0.744 OA
ENDBRANCH  53  54
ENDBRANCH  25  48
BRANCH  37  58
ATOM     58  C   UNL A   1      39.906  34.447  37.131  1.00  0.00    -0.014 A 
ATOM     59  C   UNL A   1      40.609  35.660  37.021  1.00  0.00     0.010 A 
ATOM     60  C   UNL A   1      39.097  34.221  38.259  1.00  0.00     0.010 A 
ATOM     61  C   UNL A   1      40.545  36.609  38.043  1.00  0.00     0.020 A 
ATOM     62  C   UNL A   1      39.010  35.179  39.272  1.00  0.00     0.020 A 
ATOM     63  C   UNL A   1      39.752  36.358  39.168  1.00  0.00     0.054 A 
BRANCH  63  64
ATOM     64  S   UNL A   1      39.679  37.604  40.483  1.00  0.00     0.124 S 
ATOM     65  O   UNL A   1      41.088  37.946  40.654  1.00  0.00    -0.237 OA
ATOM     66  O   UNL A   1      38.846  38.649  39.892  1.00  0.00    -0.237 OA
ATOM     67  O   UNL A   1      39.069  36.889  41.602  1.00  0.00    -0.744 OA
ENDBRANCH  63  64
ENDBRANCH  37  58
ENDBRANCH  11  12
ENDBRANCH   4   6
ENDBRANCH   1   2
BRANCH   1  68
ATOM     68  C   UNL A   1      38.034  22.934  25.823  1.00  0.00     0.042 C 
BRANCH  68  69
ATOM     69  C   UNL A   1      36.569  23.317  25.685  1.00  0.00     0.118 C 
BRANCH  69  70
ATOM     70  N   UNL A   1      35.763  22.885  26.820  1.00  0.00    -0.352 N 
ATOM     71  C   UNL A   1      34.501  22.343  26.863  1.00  0.00     0.251 C 
ATOM     72  H   UNL A   1      36.191  23.001  27.698  1.00  0.00     0.163 HD
ATOM     73  O   UNL A   1      33.989  22.078  27.946  1.00  0.00    -0.269 OA
BRANCH  71  74
ATOM     74  C   UNL A   1      33.785  22.035  25.603  1.00  0.00     0.047 A 
ATOM     75  C   UNL A   1      33.822  20.706  25.143  1.00  0.00     0.016 A 
ATOM     76  C   UNL A   1      33.024  23.008  24.924  1.00  0.00    -0.004 A 
ATOM     77  C   UNL A   1      33.183  20.348  23.958  1.00  0.00     0.021 A 
ATOM     78  C   UNL A   1      32.384  22.619  23.728  1.00  0.00     0.030 A 
ATOM     79  C   UNL A   1      32.473  21.310  23.250  1.00  0.00     0.041 A 
ATOM     80  Cl  UNL A   1      31.680  20.878  21.787  1.00  0.00    -0.084 Cl
BRANCH  76  81
ATOM     81  C   UNL A   1      32.828  24.389  25.403  1.00  0.00    -0.018 A 
ATOM     82  C   UNL A   1      31.703  24.703  26.184  1.00  0.00     0.009 A 
ATOM     83  C   UNL A   1      33.716  25.424  25.077  1.00  0.00     0.009 A 
ATOM     84  C   UNL A   1      31.467  26.009  26.622  1.00  0.00     0.014 A 
ATOM     85  C   UNL A   1      33.482  26.734  25.517  1.00  0.00     0.014 A 
ATOM     86  C   UNL A   1      32.354  27.041  26.291  1.00  0.00     0.056 A 
BRANCH  86  87
ATOM     87  C   UNL A   1      32.075  28.446  26.764  1.00  0.00     0.416 C 
ATOM     88  F   UNL A   1      31.304  29.144  25.882  1.00  0.00    -0.166 F 
ATOM     89  F   UNL A   1      31.399  28.477  27.947  1.00  0.00    -0.166 F 
ATOM     90  F   UNL A   1      33.194  29.197  26.953  1.00  0.00    -0.166 F 
ENDBRANCH  86  87
ENDBRANCH  76  81
ENDBRANCH  71  74
ENDBRANCH  69  70
ENDBRANCH  68  69
ENDBRANCH   1  68
TORSDOF 15
ENDMDL
