MODEL 1
REMARK VINA RESULT:     -12.5      0.000      0.000
REMARK SMILES Cc1ccc(S(=O)(=O)n2cc(C(=O)C(=O)NCC(=O)NCCCNC(=O)c3ccc(-c4c5nc(c(-c6ccc(S(=O)(=O)[O-])cc6)c6ccc([nH]6)c(-c6ccc(S(=O)(=O)[O-])cc6)c6nc(c(-c7ccc(S(=O)(=O)[O-])cc7)c7ccc4[nH]7)C=C6)C=C5)cc3)c3ccccc32)cc1
REMARK SMILES IDX 21 1 20 2 18 3 19 4 17 6 16 7 14 8 15 9 12 11 13 12 11 13
REMARK SMILES IDX 9 14 10 15 92 16 87 17 91 18 88 19 90 20 89 21 6 22 7 23
REMARK SMILES IDX 8 24 5 25 1 26 2 27 3 28 94 29 4 30 93 31 22 32 23 33 24 34
REMARK SMILES IDX 25 35 26 37 27 38 28 39 86 40 29 41 85 42 30 43 31 44 32 45
REMARK SMILES IDX 79 46 33 47 84 48 78 49 80 50 34 51 83 52 77 53 76 54 35 56
REMARK SMILES IDX 65 57 46 58 64 59 47 60 50 61 63 62 81 63 48 64 49 65 62 67
REMARK SMILES IDX 82 68 51 69 36 70 37 71 45 72 38 73 44 74 39 75 40 76 41 77
REMARK SMILES IDX 42 78 43 79 66 80 67 81 75 82 68 83 74 84 69 85 70 86 71 87
REMARK SMILES IDX 72 88 73 89 52 90 53 91 61 92 54 93 60 94 55 95 56 96 57 97
REMARK SMILES IDX 58 98 59 99
REMARK H PARENT 20 5 16 10 24 36 80 55 50 66
REMARK Flexibility Score: inf
ROOT
ATOM      1  C   UNL A   1      37.941  22.287  25.436  1.00  0.00     0.117 C 
ENDROOT
BRANCH   1   2
ATOM      2  N   UNL A   1      37.680  20.906  25.053  1.00  0.00    -0.355 N 
ATOM      3  C   UNL A   1      36.490  20.234  25.038  1.00  0.00     0.239 C 
ATOM      4  O   UNL A   1      36.461  19.062  24.657  1.00  0.00    -0.273 OA
ATOM      5  H   UNL A   1      38.466  20.387  24.765  1.00  0.00     0.163 HD
BRANCH   3   6
ATOM      6  C   UNL A   1      35.206  20.964  25.441  1.00  0.00     0.216 C 
BRANCH   6   7
ATOM      7  N   UNL A   1      34.109  20.054  25.752  1.00  0.00    -0.340 N 
ATOM      8  C   UNL A   1      32.879  19.887  25.152  1.00  0.00     0.292 C 
ATOM      9  O   UNL A   1      32.128  19.015  25.577  1.00  0.00    -0.265 OA
ATOM     10  H   UNL A   1      34.274  19.461  26.519  1.00  0.00     0.164 HD
BRANCH   8  11
ATOM     11  C   UNL A   1      32.447  20.773  23.956  1.00  0.00     0.252 C 
ATOM     12  O   UNL A   1      32.137  20.213  22.908  1.00  0.00    -0.283 OA
BRANCH  11  13
ATOM     13  C   UNL A   1      32.353  22.238  24.067  1.00  0.00     0.054 A 
ATOM     14  N   UNL A   1      31.903  24.301  24.806  1.00  0.00    -0.240 N 
ATOM     15  C   UNL A   1      31.931  22.975  25.161  1.00  0.00     0.117 A 
ATOM     16  C   UNL A   1      32.331  24.479  23.508  1.00  0.00     0.065 A 
ATOM     17  C   UNL A   1      32.627  23.197  23.024  1.00  0.00     0.012 A 
ATOM     18  C   UNL A   1      32.455  25.627  22.702  1.00  0.00     0.028 A 
ATOM     19  C   UNL A   1      33.093  23.077  21.695  1.00  0.00     0.011 A 
ATOM     20  C   UNL A   1      32.888  25.468  21.384  1.00  0.00     0.002 A 
ATOM     21  C   UNL A   1      33.213  24.212  20.887  1.00  0.00     0.001 A 
BRANCH  14  22
ATOM     22  S   UNL A   1      31.255  25.529  25.795  1.00  0.00     0.268 S 
ATOM     23  O   UNL A   1      32.389  26.192  26.395  1.00  0.00    -0.201 OA
ATOM     24  O   UNL A   1      30.214  24.895  26.592  1.00  0.00    -0.201 OA
BRANCH  22  25
ATOM     25  C   UNL A   1      30.441  26.716  24.752  1.00  0.00     0.088 A 
ATOM     26  C   UNL A   1      28.126  29.506  22.435  1.00  0.00     0.044 C 
ATOM     27  C   UNL A   1      28.947  28.530  23.224  1.00  0.00    -0.051 A 
ATOM     28  C   UNL A   1      28.445  27.251  23.490  1.00  0.00     0.005 A 
ATOM     29  C   UNL A   1      30.216  28.879  23.705  1.00  0.00     0.005 A 
ATOM     30  C   UNL A   1      29.184  26.349  24.255  1.00  0.00     0.022 A 
ATOM     31  C   UNL A   1      30.970  27.973  24.457  1.00  0.00     0.022 A 
ENDBRANCH  22  25
ENDBRANCH  14  22
ENDBRANCH  11  13
ENDBRANCH   8  11
ENDBRANCH   6   7
ENDBRANCH   3   6
ENDBRANCH   1   2
BRANCH   1  32
ATOM     32  C   UNL A   1      39.270  22.418  26.164  1.00  0.00     0.042 C 
BRANCH  32  33
ATOM     33  C   UNL A   1      39.402  23.742  26.895  1.00  0.00     0.118 C 
BRANCH  33  34
ATOM     34  N   UNL A   1      40.282  24.689  26.219  1.00  0.00    -0.352 N 
ATOM     35  C   UNL A   1      40.489  26.021  26.550  1.00  0.00     0.251 C 
ATOM     36  H   UNL A   1      40.785  24.346  25.445  1.00  0.00     0.163 HD
ATOM     37  O   UNL A   1      40.834  26.872  25.741  1.00  0.00    -0.269 OA
BRANCH  35  38
ATOM     38  C   UNL A   1      40.470  26.335  27.990  1.00  0.00     0.039 A 
ATOM     39  C   UNL A   1      39.211  26.514  28.579  1.00  0.00     0.014 A 
ATOM     40  C   UNL A   1      41.625  26.841  28.570  1.00  0.00     0.014 A 
ATOM     41  C   UNL A   1      39.076  27.414  29.623  1.00  0.00     0.010 A 
ATOM     42  C   UNL A   1      41.474  27.849  29.482  1.00  0.00     0.010 A 
ATOM     43  C   UNL A   1      40.196  28.151  29.972  1.00  0.00    -0.014 A 
BRANCH  43  44
ATOM     44  C   UNL A   1      40.211  29.205  30.954  1.00  0.00     0.031 A 
ATOM     45  C   UNL A   1      39.453  30.413  30.604  1.00  0.00     0.074 A 
ATOM     46  C   UNL A   1      40.677  28.925  32.189  1.00  0.00     0.049 A 
ATOM     47  N   UNL A   1      39.538  31.519  31.244  1.00  0.00    -0.248 NA
ATOM     48  C   UNL A   1      38.560  30.492  29.443  1.00  0.00     0.031 C 
ATOM     49  C   UNL A   1      40.413  29.612  33.445  1.00  0.00     0.029 A 
ATOM     50  N   UNL A   1      41.685  28.019  32.505  1.00  0.00    -0.354 N 
ATOM     51  C   UNL A   1      38.467  32.283  30.844  1.00  0.00     0.074 A 
ATOM     52  C   UNL A   1      38.002  31.692  29.620  1.00  0.00     0.031 C 
ATOM     53  C   UNL A   1      41.383  29.294  34.325  1.00  0.00     0.029 A 
ATOM     54  C   UNL A   1      42.396  28.546  33.596  1.00  0.00     0.049 A 
ATOM     55  H   UNL A   1      41.867  27.166  32.048  1.00  0.00     0.167 HD
ATOM     56  C   UNL A   1      37.996  33.213  31.717  1.00  0.00     0.031 A 
ATOM     57  C   UNL A   1      43.682  28.979  33.395  1.00  0.00     0.031 A 
ATOM     58  C   UNL A   1      38.891  33.323  32.871  1.00  0.00     0.049 A 
ATOM     59  C   UNL A   1      43.831  30.491  33.507  1.00  0.00     0.074 A 
ATOM     60  C   UNL A   1      38.825  32.897  34.185  1.00  0.00     0.029 A 
ATOM     61  N   UNL A   1      40.222  33.624  32.630  1.00  0.00    -0.354 N 
ATOM     62  N   UNL A   1      42.829  31.329  33.553  1.00  0.00    -0.248 NA
ATOM     63  C   UNL A   1      45.116  31.184  33.545  1.00  0.00     0.031 C 
ATOM     64  C   UNL A   1      40.152  32.917  34.717  1.00  0.00     0.029 A 
ATOM     65  C   UNL A   1      41.007  33.397  33.740  1.00  0.00     0.049 A 
ATOM     66  H   UNL A   1      40.565  33.959  31.771  1.00  0.00     0.167 HD
ATOM     67  C   UNL A   1      43.285  32.620  33.606  1.00  0.00     0.074 A 
ATOM     68  C   UNL A   1      44.732  32.475  33.572  1.00  0.00     0.031 C 
ATOM     69  C   UNL A   1      42.433  33.692  33.652  1.00  0.00     0.031 A 
BRANCH  56  70
ATOM     70  C   UNL A   1      36.636  33.860  31.657  1.00  0.00    -0.014 A 
ATOM     71  C   UNL A   1      35.879  33.712  30.478  1.00  0.00     0.010 A 
ATOM     72  C   UNL A   1      36.078  34.684  32.656  1.00  0.00     0.010 A 
ATOM     73  C   UNL A   1      34.660  34.375  30.288  1.00  0.00     0.020 A 
ATOM     74  C   UNL A   1      34.849  35.340  32.489  1.00  0.00     0.020 A 
ATOM     75  C   UNL A   1      34.153  35.192  31.295  1.00  0.00     0.054 A 
BRANCH  75  76
ATOM     76  S   UNL A   1      32.589  36.060  31.020  1.00  0.00     0.124 S 
ATOM     77  O   UNL A   1      32.948  37.446  31.311  1.00  0.00    -0.237 OA
ATOM     78  O   UNL A   1      32.305  35.760  29.619  1.00  0.00    -0.237 OA
ATOM     79  O   UNL A   1      31.676  35.443  31.981  1.00  0.00    -0.744 OA
ENDBRANCH  75  76
ENDBRANCH  56  70
BRANCH  57  80
ATOM     80  C   UNL A   1      44.427  28.084  32.443  1.00  0.00    -0.014 A 
ATOM     81  C   UNL A   1      44.746  28.621  31.172  1.00  0.00     0.010 A 
ATOM     82  C   UNL A   1      45.204  27.015  32.928  1.00  0.00     0.010 A 
ATOM     83  C   UNL A   1      45.921  28.250  30.509  1.00  0.00     0.020 A 
ATOM     84  C   UNL A   1      46.375  26.627  32.251  1.00  0.00     0.020 A 
ATOM     85  C   UNL A   1      46.762  27.301  31.089  1.00  0.00     0.054 A 
BRANCH  85  86
ATOM     86  S   UNL A   1      48.440  27.115  30.403  1.00  0.00     0.124 S 
ATOM     87  O   UNL A   1      49.215  28.040  31.222  1.00  0.00    -0.237 OA
ATOM     88  O   UNL A   1      48.720  25.693  30.629  1.00  0.00    -0.237 OA
ATOM     89  O   UNL A   1      48.280  27.499  29.006  1.00  0.00    -0.744 OA
ENDBRANCH  85  86
ENDBRANCH  57  80
BRANCH  69  90
ATOM     90  C   UNL A   1      42.836  35.152  33.580  1.00  0.00    -0.014 A 
ATOM     91  C   UNL A   1      43.671  35.692  32.596  1.00  0.00     0.010 A 
ATOM     92  C   UNL A   1      42.421  36.039  34.608  1.00  0.00     0.010 A 
ATOM     93  C   UNL A   1      44.000  37.058  32.594  1.00  0.00     0.020 A 
ATOM     94  C   UNL A   1      42.754  37.391  34.631  1.00  0.00     0.020 A 
ATOM     95  C   UNL A   1      43.530  37.900  33.606  1.00  0.00     0.054 A 
BRANCH  95  96
ATOM     96  S   UNL A   1      43.982  39.648  33.595  1.00  0.00     0.124 S 
ATOM     97  O   UNL A   1      44.475  39.852  34.955  1.00  0.00    -0.237 OA
ATOM     98  O   UNL A   1      44.996  39.692  32.545  1.00  0.00    -0.237 OA
ATOM     99  O   UNL A   1      42.731  40.334  33.281  1.00  0.00    -0.744 OA
ENDBRANCH  95  96
ENDBRANCH  69  90
ENDBRANCH  43  44
ENDBRANCH  35  38
ENDBRANCH  33  34
ENDBRANCH  32  33
ENDBRANCH   1  32
TORSDOF 18
ENDMDL
MODEL 2
REMARK VINA RESULT:     -12.3      3.895      9.869
REMARK SMILES Cc1ccc(S(=O)(=O)n2cc(C(=O)C(=O)NCC(=O)NCCCNC(=O)c3ccc(-c4c5nc(c(-c6ccc(S(=O)(=O)[O-])cc6)c6ccc([nH]6)c(-c6ccc(S(=O)(=O)[O-])cc6)c6nc(c(-c7ccc(S(=O)(=O)[O-])cc7)c7ccc4[nH]7)C=C6)C=C5)cc3)c3ccccc32)cc1
REMARK SMILES IDX 21 1 20 2 18 3 19 4 17 6 16 7 14 8 15 9 12 11 13 12 11 13
REMARK SMILES IDX 9 14 10 15 92 16 87 17 91 18 88 19 90 20 89 21 6 22 7 23
REMARK SMILES IDX 8 24 5 25 1 26 2 27 3 28 94 29 4 30 93 31 22 32 23 33 24 34
REMARK SMILES IDX 25 35 26 37 27 38 28 39 86 40 29 41 85 42 30 43 31 44 32 45
REMARK SMILES IDX 79 46 33 47 84 48 78 49 80 50 34 51 83 52 77 53 76 54 35 56
REMARK SMILES IDX 65 57 46 58 64 59 47 60 50 61 63 62 81 63 48 64 49 65 62 67
REMARK SMILES IDX 82 68 51 69 36 70 37 71 45 72 38 73 44 74 39 75 40 76 41 77
REMARK SMILES IDX 42 78 43 79 66 80 67 81 75 82 68 83 74 84 69 85 70 86 71 87
REMARK SMILES IDX 72 88 73 89 52 90 53 91 61 92 54 93 60 94 55 95 56 96 57 97
REMARK SMILES IDX 58 98 59 99
REMARK H PARENT 20 5 16 10 24 36 80 55 50 66
REMARK Flexibility Score: inf
ROOT
ATOM      1  C   UNL A   1      33.040  34.985  29.886  1.00  0.00     0.117 C 
ENDROOT
BRANCH   1   2
ATOM      2  N   UNL A   1      34.145  34.855  28.947  1.00  0.00    -0.355 N 
ATOM      3  C   UNL A   1      34.534  33.757  28.232  1.00  0.00     0.239 C 
ATOM      4  O   UNL A   1      35.491  33.846  27.460  1.00  0.00    -0.273 OA
ATOM      5  H   UNL A   1      34.683  35.668  28.807  1.00  0.00     0.163 HD
BRANCH   3   6
ATOM      6  C   UNL A   1      33.742  32.454  28.360  1.00  0.00     0.216 C 
BRANCH   6   7
ATOM      7  N   UNL A   1      34.549  31.269  28.088  1.00  0.00    -0.340 N 
ATOM      8  C   UNL A   1      34.256  30.121  27.382  1.00  0.00     0.292 C 
ATOM      9  O   UNL A   1      35.126  29.267  27.257  1.00  0.00    -0.265 OA
ATOM     10  H   UNL A   1      35.454  31.293  28.473  1.00  0.00     0.164 HD
BRANCH   8  11
ATOM     11  C   UNL A   1      32.858  29.909  26.748  1.00  0.00     0.252 C 
ATOM     12  O   UNL A   1      32.024  30.800  26.881  1.00  0.00    -0.283 OA
BRANCH  11  13
ATOM     13  C   UNL A   1      32.535  28.706  25.961  1.00  0.00     0.054 A 
ATOM     14  N   UNL A   1      31.817  26.676  25.358  1.00  0.00    -0.240 N 
ATOM     15  C   UNL A   1      31.788  27.612  26.362  1.00  0.00     0.117 A 
ATOM     16  C   UNL A   1      32.537  27.129  24.274  1.00  0.00     0.065 A 
ATOM     17  C   UNL A   1      32.993  28.408  24.625  1.00  0.00     0.012 A 
ATOM     18  C   UNL A   1      32.862  26.535  23.039  1.00  0.00     0.028 A 
ATOM     19  C   UNL A   1      33.775  29.118  23.686  1.00  0.00     0.011 A 
ATOM     20  C   UNL A   1      33.662  27.254  22.148  1.00  0.00     0.002 A 
ATOM     21  C   UNL A   1      34.106  28.532  22.460  1.00  0.00     0.001 A 
BRANCH  14  22
ATOM     22  S   UNL A   1      31.188  25.100  25.519  1.00  0.00     0.268 S 
ATOM     23  O   UNL A   1      30.375  24.877  24.347  1.00  0.00    -0.201 OA
ATOM     24  O   UNL A   1      30.644  25.021  26.869  1.00  0.00    -0.201 OA
BRANCH  22  25
ATOM     25  C   UNL A   1      32.540  23.948  25.451  1.00  0.00     0.088 A 
ATOM     26  C   UNL A   1      35.787  21.183  24.880  1.00  0.00     0.044 C 
ATOM     27  C   UNL A   1      34.650  22.136  25.099  1.00  0.00    -0.051 A 
ATOM     28  C   UNL A   1      33.477  22.007  24.347  1.00  0.00     0.005 A 
ATOM     29  C   UNL A   1      34.742  23.161  26.050  1.00  0.00     0.005 A 
ATOM     30  C   UNL A   1      32.428  22.912  24.516  1.00  0.00     0.022 A 
ATOM     31  C   UNL A   1      33.687  24.060  26.239  1.00  0.00     0.022 A 
ENDBRANCH  22  25
ENDBRANCH  14  22
ENDBRANCH  11  13
ENDBRANCH   8  11
ENDBRANCH   6   7
ENDBRANCH   3   6
ENDBRANCH   1   2
BRANCH   1  32
ATOM     32  C   UNL A   1      32.987  36.379  30.491  1.00  0.00     0.042 C 
BRANCH  32  33
ATOM     33  C   UNL A   1      33.548  36.421  31.901  1.00  0.00     0.118 C 
BRANCH  33  34
ATOM     34  N   UNL A   1      33.091  35.315  32.737  1.00  0.00    -0.352 N 
ATOM     35  C   UNL A   1      33.795  34.162  33.057  1.00  0.00     0.251 C 
ATOM     36  H   UNL A   1      32.185  35.397  33.115  1.00  0.00     0.163 HD
ATOM     37  O   UNL A   1      33.257  33.100  33.340  1.00  0.00    -0.269 OA
BRANCH  35  38
ATOM     38  C   UNL A   1      35.247  34.328  33.243  1.00  0.00     0.039 A 
ATOM     39  C   UNL A   1      35.986  34.716  32.116  1.00  0.00     0.014 A 
ATOM     40  C   UNL A   1      35.848  33.712  34.331  1.00  0.00     0.014 A 
ATOM     41  C   UNL A   1      37.286  34.262  31.973  1.00  0.00     0.010 A 
ATOM     42  C   UNL A   1      37.065  33.125  34.122  1.00  0.00     0.010 A 
ATOM     43  C   UNL A   1      37.757  33.375  32.929  1.00  0.00    -0.014 A 
BRANCH  43  44
ATOM     44  C   UNL A   1      39.039  32.720  32.878  1.00  0.00     0.031 A 
ATOM     45  C   UNL A   1      39.023  31.322  32.431  1.00  0.00     0.074 A 
ATOM     46  C   UNL A   1      40.150  33.477  32.986  1.00  0.00     0.049 A 
ATOM     47  N   UNL A   1      40.021  30.527  32.539  1.00  0.00    -0.248 NA
ATOM     48  C   UNL A   1      37.835  30.674  31.864  1.00  0.00     0.031 C 
ATOM     49  C   UNL A   1      41.506  33.181  32.546  1.00  0.00     0.029 A 
ATOM     50  N   UNL A   1      40.285  34.645  33.730  1.00  0.00    -0.354 N 
ATOM     51  C   UNL A   1      39.748  29.448  31.731  1.00  0.00     0.074 A 
ATOM     52  C   UNL A   1      38.334  29.496  31.481  1.00  0.00     0.031 C 
ATOM     53  C   UNL A   1      42.363  33.978  33.214  1.00  0.00     0.029 A 
ATOM     54  C   UNL A   1      41.594  34.672  34.237  1.00  0.00     0.049 A 
ATOM     55  H   UNL A   1      39.590  35.327  33.876  1.00  0.00     0.167 HD
ATOM     56  C   UNL A   1      40.804  28.760  31.223  1.00  0.00     0.031 A 
ATOM     57  C   UNL A   1      41.782  34.511  35.586  1.00  0.00     0.031 A 
ATOM     58  C   UNL A   1      42.053  29.232  31.823  1.00  0.00     0.049 A 
ATOM     59  C   UNL A   1      42.451  33.190  35.946  1.00  0.00     0.074 A 
ATOM     60  C   UNL A   1      43.096  30.024  31.379  1.00  0.00     0.029 A 
ATOM     61  N   UNL A   1      42.163  29.190  33.204  1.00  0.00    -0.354 N 
ATOM     62  N   UNL A   1      42.625  32.201  35.111  1.00  0.00    -0.248 NA
ATOM     63  C   UNL A   1      42.950  32.865  37.280  1.00  0.00     0.031 C 
ATOM     64  C   UNL A   1      43.815  30.483  32.526  1.00  0.00     0.029 A 
ATOM     65  C   UNL A   1      43.232  29.933  33.655  1.00  0.00     0.049 A 
ATOM     66  H   UNL A   1      41.552  28.690  33.791  1.00  0.00     0.167 HD
ATOM     67  C   UNL A   1      43.213  31.136  35.743  1.00  0.00     0.074 A 
ATOM     68  C   UNL A   1      43.373  31.596  37.114  1.00  0.00     0.031 C 
ATOM     69  C   UNL A   1      43.496  29.966  35.089  1.00  0.00     0.031 A 
BRANCH  56  70
ATOM     70  C   UNL A   1      40.753  27.828  30.038  1.00  0.00    -0.014 A 
ATOM     71  C   UNL A   1      41.953  27.226  29.612  1.00  0.00     0.010 A 
ATOM     72  C   UNL A   1      39.612  27.567  29.253  1.00  0.00     0.010 A 
ATOM     73  C   UNL A   1      42.022  26.442  28.453  1.00  0.00     0.020 A 
ATOM     74  C   UNL A   1      39.661  26.768  28.099  1.00  0.00     0.020 A 
ATOM     75  C   UNL A   1      40.873  26.222  27.698  1.00  0.00     0.054 A 
BRANCH  75  76
ATOM     76  S   UNL A   1      40.989  25.228  26.190  1.00  0.00     0.124 S 
ATOM     77  O   UNL A   1      42.096  24.325  26.498  1.00  0.00    -0.237 OA
ATOM     78  O   UNL A   1      39.668  24.609  26.119  1.00  0.00    -0.237 OA
ATOM     79  O   UNL A   1      41.267  26.213  25.146  1.00  0.00    -0.744 OA
ENDBRANCH  75  76
ENDBRANCH  56  70
BRANCH  57  80
ATOM     80  C   UNL A   1      40.711  35.206  36.382  1.00  0.00    -0.014 A 
ATOM     81  C   UNL A   1      39.725  34.389  36.986  1.00  0.00     0.010 A 
ATOM     82  C   UNL A   1      40.944  36.483  36.928  1.00  0.00     0.010 A 
ATOM     83  C   UNL A   1      39.148  34.744  38.211  1.00  0.00     0.020 A 
ATOM     84  C   UNL A   1      40.348  36.849  38.149  1.00  0.00     0.020 A 
ATOM     85  C   UNL A   1      39.517  35.944  38.817  1.00  0.00     0.054 A 
BRANCH  85  86
ATOM     86  S   UNL A   1      39.044  36.203  40.557  1.00  0.00     0.124 S 
ATOM     87  O   UNL A   1      38.283  34.994  40.855  1.00  0.00    -0.237 OA
ATOM     88  O   UNL A   1      40.345  36.305  41.228  1.00  0.00    -0.237 OA
ATOM     89  O   UNL A   1      38.269  37.437  40.519  1.00  0.00    -0.744 OA
ENDBRANCH  85  86
ENDBRANCH  57  80
BRANCH  69  90
ATOM     90  C   UNL A   1      44.021  28.695  35.727  1.00  0.00    -0.014 A 
ATOM     91  C   UNL A   1      45.261  28.117  35.430  1.00  0.00     0.010 A 
ATOM     92  C   UNL A   1      43.193  27.976  36.630  1.00  0.00     0.010 A 
ATOM     93  C   UNL A   1      45.680  26.935  36.064  1.00  0.00     0.020 A 
ATOM     94  C   UNL A   1      43.587  26.794  37.252  1.00  0.00     0.020 A 
ATOM     95  C   UNL A   1      44.844  26.288  36.979  1.00  0.00     0.054 A 
BRANCH  95  96
ATOM     96  S   UNL A   1      45.396  24.760  37.768  1.00  0.00     0.124 S 
ATOM     97  O   UNL A   1      44.935  23.741  36.828  1.00  0.00    -0.237 OA
ATOM     98  O   UNL A   1      46.842  24.955  37.826  1.00  0.00    -0.237 OA
ATOM     99  O   UNL A   1      44.715  24.764  39.060  1.00  0.00    -0.744 OA
ENDBRANCH  95  96
ENDBRANCH  69  90
ENDBRANCH  43  44
ENDBRANCH  35  38
ENDBRANCH  33  34
ENDBRANCH  32  33
ENDBRANCH   1  32
TORSDOF 18
ENDMDL
MODEL 3
REMARK VINA RESULT:     -12.2      3.856      8.199
REMARK SMILES Cc1ccc(S(=O)(=O)n2cc(C(=O)C(=O)NCC(=O)NCCCNC(=O)c3ccc(-c4c5nc(c(-c6ccc(S(=O)(=O)[O-])cc6)c6ccc([nH]6)c(-c6ccc(S(=O)(=O)[O-])cc6)c6nc(c(-c7ccc(S(=O)(=O)[O-])cc7)c7ccc4[nH]7)C=C6)C=C5)cc3)c3ccccc32)cc1
REMARK SMILES IDX 21 1 20 2 18 3 19 4 17 6 16 7 14 8 15 9 12 11 13 12 11 13
REMARK SMILES IDX 9 14 10 15 92 16 87 17 91 18 88 19 90 20 89 21 6 22 7 23
REMARK SMILES IDX 8 24 5 25 1 26 2 27 3 28 94 29 4 30 93 31 22 32 23 33 24 34
REMARK SMILES IDX 25 35 26 37 27 38 28 39 86 40 29 41 85 42 30 43 31 44 32 45
REMARK SMILES IDX 79 46 33 47 84 48 78 49 80 50 34 51 83 52 77 53 76 54 35 56
REMARK SMILES IDX 65 57 46 58 64 59 47 60 50 61 63 62 81 63 48 64 49 65 62 67
REMARK SMILES IDX 82 68 51 69 36 70 37 71 45 72 38 73 44 74 39 75 40 76 41 77
REMARK SMILES IDX 42 78 43 79 66 80 67 81 75 82 68 83 74 84 69 85 70 86 71 87
REMARK SMILES IDX 72 88 73 89 52 90 53 91 61 92 54 93 60 94 55 95 56 96 57 97
REMARK SMILES IDX 58 98 59 99
REMARK H PARENT 20 5 16 10 24 36 80 55 50 66
REMARK Flexibility Score: inf
ROOT
ATOM      1  C   UNL A   1      37.766  23.060  26.081  1.00  0.00     0.117 C 
ENDROOT
BRANCH   1   2
ATOM      2  N   UNL A   1      37.682  21.726  25.504  1.00  0.00    -0.355 N 
ATOM      3  C   UNL A   1      36.576  20.947  25.310  1.00  0.00     0.239 C 
ATOM      4  O   UNL A   1      36.700  19.841  24.779  1.00  0.00    -0.273 OA
ATOM      5  H   UNL A   1      38.537  21.332  25.213  1.00  0.00     0.163 HD
BRANCH   3   6
ATOM      6  C   UNL A   1      35.197  21.483  25.703  1.00  0.00     0.216 C 
BRANCH   6   7
ATOM      7  N   UNL A   1      34.236  20.424  25.990  1.00  0.00    -0.340 N 
ATOM      8  C   UNL A   1      33.080  20.055  25.335  1.00  0.00     0.292 C 
ATOM      9  O   UNL A   1      32.449  19.089  25.751  1.00  0.00    -0.265 OA
ATOM     10  H   UNL A   1      34.447  19.883  26.784  1.00  0.00     0.164 HD
BRANCH   8  11
ATOM     11  C   UNL A   1      32.584  20.833  24.090  1.00  0.00     0.252 C 
ATOM     12  O   UNL A   1      32.368  20.196  23.062  1.00  0.00    -0.283 OA
BRANCH  11  13
ATOM     13  C   UNL A   1      32.321  22.281  24.132  1.00  0.00     0.054 A 
ATOM     14  N   UNL A   1      31.607  24.306  24.756  1.00  0.00    -0.240 N 
ATOM     15  C   UNL A   1      31.765  23.007  25.171  1.00  0.00     0.117 A 
ATOM     16  C   UNL A   1      32.078  24.482  23.473  1.00  0.00     0.065 A 
ATOM     17  C   UNL A   1      32.540  23.223  23.060  1.00  0.00     0.012 A 
ATOM     18  C   UNL A   1      32.115  25.604  22.623  1.00  0.00     0.028 A 
ATOM     19  C   UNL A   1      33.083  23.106  21.761  1.00  0.00     0.011 A 
ATOM     20  C   UNL A   1      32.630  25.443  21.335  1.00  0.00     0.002 A 
ATOM     21  C   UNL A   1      33.117  24.215  20.910  1.00  0.00     0.001 A 
BRANCH  14  22
ATOM     22  S   UNL A   1      30.777  25.491  25.658  1.00  0.00     0.268 S 
ATOM     23  O   UNL A   1      30.344  24.834  26.869  1.00  0.00    -0.201 OA
ATOM     24  O   UNL A   1      29.840  26.115  24.735  1.00  0.00    -0.201 OA
BRANCH  22  25
ATOM     25  C   UNL A   1      31.938  26.751  26.129  1.00  0.00     0.088 A 
ATOM     26  C   UNL A   1      34.581  29.793  27.639  1.00  0.00     0.044 C 
ATOM     27  C   UNL A   1      33.662  28.742  27.091  1.00  0.00    -0.051 A 
ATOM     28  C   UNL A   1      32.291  28.802  27.367  1.00  0.00     0.005 A 
ATOM     29  C   UNL A   1      34.154  27.693  26.303  1.00  0.00     0.005 A 
ATOM     30  C   UNL A   1      31.432  27.810  26.894  1.00  0.00     0.022 A 
ATOM     31  C   UNL A   1      33.296  26.705  25.810  1.00  0.00     0.022 A 
ENDBRANCH  22  25
ENDBRANCH  14  22
ENDBRANCH  11  13
ENDBRANCH   8  11
ENDBRANCH   6   7
ENDBRANCH   3   6
ENDBRANCH   1   2
BRANCH   1  32
ATOM     32  C   UNL A   1      39.161  23.346  26.617  1.00  0.00     0.042 C 
BRANCH  32  33
ATOM     33  C   UNL A   1      39.207  24.596  27.476  1.00  0.00     0.118 C 
BRANCH  33  34
ATOM     34  N   UNL A   1      39.928  25.700  26.850  1.00  0.00    -0.352 N 
ATOM     35  C   UNL A   1      40.136  26.968  27.376  1.00  0.00     0.251 C 
ATOM     36  H   UNL A   1      40.308  25.526  25.959  1.00  0.00     0.163 HD
ATOM     37  O   UNL A   1      40.312  27.964  26.687  1.00  0.00    -0.269 OA
BRANCH  35  38
ATOM     38  C   UNL A   1      40.344  27.031  28.834  1.00  0.00     0.039 A 
ATOM     39  C   UNL A   1      39.257  27.467  29.605  1.00  0.00     0.014 A 
ATOM     40  C   UNL A   1      41.645  27.079  29.314  1.00  0.00     0.014 A 
ATOM     41  C   UNL A   1      39.499  28.183  30.766  1.00  0.00     0.010 A 
ATOM     42  C   UNL A   1      41.893  27.923  30.361  1.00  0.00     0.010 A 
ATOM     43  C   UNL A   1      40.818  28.496  31.054  1.00  0.00    -0.014 A 
BRANCH  43  44
ATOM     44  C   UNL A   1      41.242  29.324  32.155  1.00  0.00     0.031 A 
ATOM     45  C   UNL A   1      41.507  28.621  33.416  1.00  0.00     0.074 A 
ATOM     46  C   UNL A   1      41.607  30.596  31.896  1.00  0.00     0.049 A 
ATOM     47  N   UNL A   1      41.671  29.210  34.541  1.00  0.00    -0.248 NA
ATOM     48  C   UNL A   1      41.554  27.159  33.525  1.00  0.00     0.031 C 
ATOM     49  C   UNL A   1      42.459  31.482  32.678  1.00  0.00     0.029 A 
ATOM     50  N   UNL A   1      41.083  31.421  30.905  1.00  0.00    -0.354 N 
ATOM     51  C   UNL A   1      42.215  28.279  35.393  1.00  0.00     0.074 A 
ATOM     52  C   UNL A   1      41.961  27.001  34.787  1.00  0.00     0.031 C 
ATOM     53  C   UNL A   1      42.217  32.755  32.307  1.00  0.00     0.029 A 
ATOM     54  C   UNL A   1      41.070  32.731  31.413  1.00  0.00     0.049 A 
ATOM     55  H   UNL A   1      40.778  31.138  30.013  1.00  0.00     0.167 HD
ATOM     56  C   UNL A   1      42.985  28.736  36.416  1.00  0.00     0.031 A 
ATOM     57  C   UNL A   1      39.861  33.316  31.691  1.00  0.00     0.031 A 
ATOM     58  C   UNL A   1      42.909  30.196  36.494  1.00  0.00     0.049 A 
ATOM     59  C   UNL A   1      39.620  33.518  33.182  1.00  0.00     0.074 A 
ATOM     60  C   UNL A   1      43.769  31.224  36.153  1.00  0.00     0.029 A 
ATOM     61  N   UNL A   1      41.657  30.772  36.634  1.00  0.00    -0.354 N 
ATOM     62  N   UNL A   1      40.356  32.992  34.125  1.00  0.00    -0.248 NA
ATOM     63  C   UNL A   1      38.517  34.302  33.731  1.00  0.00     0.031 C 
ATOM     64  C   UNL A   1      42.998  32.424  36.059  1.00  0.00     0.029 A 
ATOM     65  C   UNL A   1      41.686  32.127  36.386  1.00  0.00     0.049 A 
ATOM     66  H   UNL A   1      40.844  30.274  36.881  1.00  0.00     0.167 HD
ATOM     67  C   UNL A   1      39.860  33.319  35.359  1.00  0.00     0.074 A 
ATOM     68  C   UNL A   1      38.687  34.124  35.056  1.00  0.00     0.031 C 
ATOM     69  C   UNL A   1      40.445  32.883  36.519  1.00  0.00     0.031 A 
BRANCH  56  70
ATOM     70  C   UNL A   1      43.973  27.913  37.204  1.00  0.00    -0.014 A 
ATOM     71  C   UNL A   1      45.347  28.135  36.986  1.00  0.00     0.010 A 
ATOM     72  C   UNL A   1      43.643  26.866  38.088  1.00  0.00     0.010 A 
ATOM     73  C   UNL A   1      46.333  27.338  37.584  1.00  0.00     0.020 A 
ATOM     74  C   UNL A   1      44.619  26.071  38.709  1.00  0.00     0.020 A 
ATOM     75  C   UNL A   1      45.962  26.305  38.439  1.00  0.00     0.054 A 
BRANCH  75  76
ATOM     76  S   UNL A   1      47.250  25.271  39.179  1.00  0.00     0.124 S 
ATOM     77  O   UNL A   1      46.567  23.989  39.335  1.00  0.00    -0.237 OA
ATOM     78  O   UNL A   1      48.303  25.308  38.169  1.00  0.00    -0.237 OA
ATOM     79  O   UNL A   1      47.569  25.958  40.430  1.00  0.00    -0.744 OA
ENDBRANCH  75  76
ENDBRANCH  56  70
BRANCH  57  80
ATOM     80  C   UNL A   1      38.820  32.954  30.667  1.00  0.00    -0.014 A 
ATOM     81  C   UNL A   1      37.735  32.157  31.108  1.00  0.00     0.010 A 
ATOM     82  C   UNL A   1      38.639  33.750  29.520  1.00  0.00     0.010 A 
ATOM     83  C   UNL A   1      36.459  32.311  30.554  1.00  0.00     0.020 A 
ATOM     84  C   UNL A   1      37.360  33.888  28.950  1.00  0.00     0.020 A 
ATOM     85  C   UNL A   1      36.268  33.228  29.521  1.00  0.00     0.054 A 
BRANCH  85  86
ATOM     86  S   UNL A   1      34.558  33.674  29.080  1.00  0.00     0.124 S 
ATOM     87  O   UNL A   1      34.678  34.005  27.665  1.00  0.00    -0.237 OA
ATOM     88  O   UNL A   1      33.821  32.440  29.375  1.00  0.00    -0.237 OA
ATOM     89  O   UNL A   1      34.262  34.796  29.962  1.00  0.00    -0.744 OA
ENDBRANCH  85  86
ENDBRANCH  57  80
BRANCH  69  90
ATOM     90  C   UNL A   1      39.900  33.081  37.920  1.00  0.00    -0.014 A 
ATOM     91  C   UNL A   1      40.692  33.154  39.071  1.00  0.00     0.010 A 
ATOM     92  C   UNL A   1      38.494  33.117  38.121  1.00  0.00     0.010 A 
ATOM     93  C   UNL A   1      40.114  33.339  40.338  1.00  0.00     0.020 A 
ATOM     94  C   UNL A   1      37.906  33.282  39.372  1.00  0.00     0.020 A 
ATOM     95  C   UNL A   1      38.725  33.413  40.478  1.00  0.00     0.054 A 
BRANCH  95  96
ATOM     96  S   UNL A   1      38.003  33.632  42.118  1.00  0.00     0.124 S 
ATOM     97  O   UNL A   1      37.803  32.253  42.558  1.00  0.00    -0.237 OA
ATOM     98  O   UNL A   1      39.053  34.369  42.816  1.00  0.00    -0.237 OA
ATOM     99  O   UNL A   1      36.777  34.386  41.867  1.00  0.00    -0.744 OA
ENDBRANCH  95  96
ENDBRANCH  69  90
ENDBRANCH  43  44
ENDBRANCH  35  38
ENDBRANCH  33  34
ENDBRANCH  32  33
ENDBRANCH   1  32
TORSDOF 18
ENDMDL
