MODEL 1
REMARK VINA RESULT:      -9.9      0.000      0.000
REMARK SMILES Cc1cc(N2CCCC[C@H]2C(=O)NCCCNC(=O)c2ccc(-c3c4nc(c(-c5ccc(S(=O)(=O)[O-])cc5)c5ccc([nH]5)c(-c5ccc(S(=O)(=O)[O-])cc5)c5nc(c(-c6ccc(S(=O)(=O)[O-])cc6)c6ccc3[nH]6)C=C5)C=C4)cc2)ncc1[N+](=O)[O-]
REMARK SMILES IDX 15 1 14 2 13 3 11 4 12 5 10 7 5 8 6 9 7 10 9 11 8 12 4 13
REMARK SMILES IDX 1 14 2 15 3 16 82 17 81 18 80 19 83 20 84 21 85 22 16 23
REMARK SMILES IDX 17 24 18 25 19 27 20 28 21 29 79 30 22 31 78 32 23 33 24 34
REMARK SMILES IDX 25 35 72 36 26 37 77 38 71 39 73 40 27 41 76 42 70 43 69 44
REMARK SMILES IDX 28 46 58 47 39 48 57 49 40 50 43 51 56 52 74 53 41 54 42 55
REMARK SMILES IDX 55 57 75 58 44 59 29 60 30 61 38 62 31 63 37 64 32 65 33 66
REMARK SMILES IDX 34 67 35 68 36 69 59 70 60 71 68 72 61 73 67 74 62 75 63 76
REMARK SMILES IDX 64 77 65 78 66 79 45 80 46 81 54 82 47 83 53 84 48 85 49 86
REMARK SMILES IDX 50 87 51 88 52 89
REMARK H PARENT 13 6 17 26 73 45 43 56
REMARK Flexibility Score: inf
ROOT
ATOM      1  C   UNL A   1      34.952  32.391  29.302  1.00  0.00     0.042 C 
ENDROOT
BRANCH   1   2
ATOM      2  C   UNL A   1      34.803  33.626  30.178  1.00  0.00     0.117 C 
BRANCH   2   3
ATOM      3  N   UNL A   1      36.082  34.169  30.589  1.00  0.00    -0.354 N 
ATOM      4  C   UNL A   1      36.904  33.790  31.607  1.00  0.00     0.242 C 
ATOM      5  O   UNL A   1      37.976  34.400  31.701  1.00  0.00    -0.273 OA
ATOM      6  H   UNL A   1      36.405  34.929  30.052  1.00  0.00     0.163 HD
BRANCH   4   7
ATOM      7  C   UNL A   1      36.504  32.650  32.576  1.00  0.00     0.173 C 
ATOM      8  N   UNL A   1      37.494  32.442  33.643  1.00  0.00    -0.345 N 
ATOM      9  C   UNL A   1      37.724  33.534  34.574  1.00  0.00     0.119 C 
ATOM     10  C   UNL A   1      36.422  33.816  35.315  1.00  0.00     0.022 C 
ATOM     11  C   UNL A   1      35.158  32.969  33.269  1.00  0.00     0.035 C 
ATOM     12  C   UNL A   1      35.254  34.049  34.357  1.00  0.00     0.004 C 
BRANCH   8  13
ATOM     13  C   UNL A   1      38.435  31.446  33.565  1.00  0.00     0.129 A 
ATOM     14  C   UNL A   1      38.465  27.817  32.487  1.00  0.00     0.052 C 
ATOM     15  C   UNL A   1      38.967  29.123  33.028  1.00  0.00     0.032 A 
ATOM     16  C   UNL A   1      38.052  30.188  33.099  1.00  0.00     0.057 A 
ATOM     17  C   UNL A   1      40.260  29.373  33.495  1.00  0.00     0.290 A 
ATOM     18  C   UNL A   1      40.581  30.652  33.932  1.00  0.00     0.199 A 
ATOM     19  N   UNL A   1      39.696  31.681  33.965  1.00  0.00    -0.232 NA
BRANCH  17  20
ATOM     20  N   UNL A   1      41.296  28.355  33.592  1.00  0.00     0.064 N 
ATOM     21  O   UNL A   1      41.076  27.387  34.331  1.00  0.00    -0.258 OA
ATOM     22  O   UNL A   1      42.313  28.496  32.900  1.00  0.00    -0.258 OA
ENDBRANCH  17  20
ENDBRANCH   8  13
ENDBRANCH   4   7
ENDBRANCH   2   3
ENDBRANCH   1   2
BRANCH   1  23
ATOM     23  C   UNL A   1      34.057  32.382  28.070  1.00  0.00     0.118 C 
BRANCH  23  24
ATOM     24  N   UNL A   1      33.603  31.049  27.698  1.00  0.00    -0.352 N 
ATOM     25  C   UNL A   1      34.304  29.869  27.614  1.00  0.00     0.251 C 
ATOM     26  H   UNL A   1      32.647  30.981  27.471  1.00  0.00     0.163 HD
ATOM     27  O   UNL A   1      33.770  28.874  27.130  1.00  0.00    -0.269 OA
BRANCH  25  28
ATOM     28  C   UNL A   1      35.708  29.807  28.072  1.00  0.00     0.039 A 
ATOM     29  C   UNL A   1      35.973  29.438  29.393  1.00  0.00     0.014 A 
ATOM     30  C   UNL A   1      36.760  30.088  27.197  1.00  0.00     0.014 A 
ATOM     31  C   UNL A   1      37.294  29.253  29.807  1.00  0.00     0.010 A 
ATOM     32  C   UNL A   1      38.071  29.828  27.588  1.00  0.00     0.010 A 
ATOM     33  C   UNL A   1      38.350  29.393  28.892  1.00  0.00    -0.014 A 
BRANCH  33  34
ATOM     34  C   UNL A   1      39.748  29.051  29.259  1.00  0.00     0.031 A 
ATOM     35  C   UNL A   1      40.647  30.088  29.874  1.00  0.00     0.074 A 
ATOM     36  C   UNL A   1      40.236  27.832  28.952  1.00  0.00     0.049 A 
ATOM     37  N   UNL A   1      41.924  30.014  30.148  1.00  0.00    -0.248 NA
ATOM     38  C   UNL A   1      40.035  31.386  30.203  1.00  0.00     0.031 C 
ATOM     39  C   UNL A   1      39.478  26.750  28.317  1.00  0.00     0.029 A 
ATOM     40  N   UNL A   1      41.492  27.303  29.113  1.00  0.00    -0.354 N 
ATOM     41  C   UNL A   1      42.272  31.255  30.668  1.00  0.00     0.074 A 
ATOM     42  C   UNL A   1      41.083  32.078  30.628  1.00  0.00     0.031 C 
ATOM     43  C   UNL A   1      40.281  25.687  28.153  1.00  0.00     0.029 A 
ATOM     44  C   UNL A   1      41.619  26.023  28.625  1.00  0.00     0.049 A 
ATOM     45  H   UNL A   1      42.233  27.793  29.537  1.00  0.00     0.167 HD
ATOM     46  C   UNL A   1      43.469  31.667  31.150  1.00  0.00     0.031 A 
ATOM     47  C   UNL A   1      42.695  25.216  28.544  1.00  0.00     0.031 A 
ATOM     48  C   UNL A   1      44.650  30.846  31.190  1.00  0.00     0.049 A 
ATOM     49  C   UNL A   1      44.020  25.705  29.062  1.00  0.00     0.074 A 
ATOM     50  C   UNL A   1      45.898  31.159  31.699  1.00  0.00     0.029 A 
ATOM     51  N   UNL A   1      44.732  29.551  30.699  1.00  0.00    -0.354 N 
ATOM     52  N   UNL A   1      44.315  26.864  29.599  1.00  0.00    -0.248 NA
ATOM     53  C   UNL A   1      45.154  24.777  28.966  1.00  0.00     0.031 C 
ATOM     54  C   UNL A   1      46.749  30.071  31.474  1.00  0.00     0.029 A 
ATOM     55  C   UNL A   1      46.016  29.061  30.873  1.00  0.00     0.049 A 
ATOM     56  H   UNL A   1      43.988  29.054  30.290  1.00  0.00     0.167 HD
ATOM     57  C   UNL A   1      45.666  26.799  29.920  1.00  0.00     0.074 A 
ATOM     58  C   UNL A   1      46.124  25.478  29.538  1.00  0.00     0.031 C 
ATOM     59  C   UNL A   1      46.458  27.746  30.478  1.00  0.00     0.031 A 
BRANCH  46  60
ATOM     60  C   UNL A   1      43.560  33.076  31.674  1.00  0.00    -0.014 A 
ATOM     61  C   UNL A   1      43.317  33.360  33.030  1.00  0.00     0.010 A 
ATOM     62  C   UNL A   1      43.933  34.123  30.812  1.00  0.00     0.010 A 
ATOM     63  C   UNL A   1      43.411  34.668  33.507  1.00  0.00     0.020 A 
ATOM     64  C   UNL A   1      44.054  35.430  31.292  1.00  0.00     0.020 A 
ATOM     65  C   UNL A   1      43.776  35.697  32.635  1.00  0.00     0.054 A 
BRANCH  65  66
ATOM     66  S   UNL A   1      43.915  37.384  33.288  1.00  0.00     0.124 S 
ATOM     67  O   UNL A   1      44.113  38.163  32.068  1.00  0.00    -0.237 OA
ATOM     68  O   UNL A   1      42.629  37.576  33.953  1.00  0.00    -0.237 OA
ATOM     69  O   UNL A   1      45.071  37.317  34.179  1.00  0.00    -0.744 OA
ENDBRANCH  65  66
ENDBRANCH  46  60
BRANCH  47  70
ATOM     70  C   UNL A   1      42.567  23.865  27.932  1.00  0.00    -0.014 A 
ATOM     71  C   UNL A   1      42.812  23.675  26.560  1.00  0.00     0.010 A 
ATOM     72  C   UNL A   1      42.207  22.759  28.723  1.00  0.00     0.010 A 
ATOM     73  C   UNL A   1      42.679  22.406  25.988  1.00  0.00     0.020 A 
ATOM     74  C   UNL A   1      42.101  21.484  28.160  1.00  0.00     0.020 A 
ATOM     75  C   UNL A   1      42.325  21.319  26.792  1.00  0.00     0.054 A 
BRANCH  75  76
ATOM     76  S   UNL A   1      42.205  19.672  26.039  1.00  0.00     0.124 S 
ATOM     77  O   UNL A   1      43.146  19.778  24.928  1.00  0.00    -0.237 OA
ATOM     78  O   UNL A   1      42.612  18.793  27.133  1.00  0.00    -0.237 OA
ATOM     79  O   UNL A   1      40.797  19.572  25.662  1.00  0.00    -0.744 OA
ENDBRANCH  75  76
ENDBRANCH  47  70
BRANCH  59  80
ATOM     80  C   UNL A   1      47.898  27.386  30.727  1.00  0.00    -0.014 A 
ATOM     81  C   UNL A   1      48.266  26.590  31.826  1.00  0.00     0.010 A 
ATOM     82  C   UNL A   1      48.888  27.807  29.821  1.00  0.00     0.010 A 
ATOM     83  C   UNL A   1      49.605  26.244  32.030  1.00  0.00     0.020 A 
ATOM     84  C   UNL A   1      50.224  27.442  30.007  1.00  0.00     0.020 A 
ATOM     85  C   UNL A   1      50.576  26.673  31.119  1.00  0.00     0.054 A 
BRANCH  85  86
ATOM     86  S   UNL A   1      52.299  26.174  31.382  1.00  0.00     0.124 S 
ATOM     87  O   UNL A   1      52.145  24.871  32.022  1.00  0.00    -0.237 OA
ATOM     88  O   UNL A   1      52.837  26.147  30.024  1.00  0.00    -0.237 OA
ATOM     89  O   UNL A   1      52.839  27.229  32.238  1.00  0.00    -0.744 OA
ENDBRANCH  85  86
ENDBRANCH  59  80
ENDBRANCH  33  34
ENDBRANCH  25  28
ENDBRANCH  23  24
ENDBRANCH   1  23
TORSDOF 15
ENDMDL
MODEL 2
REMARK VINA RESULT:      -9.7      3.955      6.515
REMARK SMILES Cc1cc(N2CCCC[C@H]2C(=O)NCCCNC(=O)c2ccc(-c3c4nc(c(-c5ccc(S(=O)(=O)[O-])cc5)c5ccc([nH]5)c(-c5ccc(S(=O)(=O)[O-])cc5)c5nc(c(-c6ccc(S(=O)(=O)[O-])cc6)c6ccc3[nH]6)C=C5)C=C4)cc2)ncc1[N+](=O)[O-]
REMARK SMILES IDX 15 1 14 2 13 3 11 4 12 5 10 7 5 8 6 9 7 10 9 11 8 12 4 13
REMARK SMILES IDX 1 14 2 15 3 16 82 17 81 18 80 19 83 20 84 21 85 22 16 23
REMARK SMILES IDX 17 24 18 25 19 27 20 28 21 29 79 30 22 31 78 32 23 33 24 34
REMARK SMILES IDX 25 35 72 36 26 37 77 38 71 39 73 40 27 41 76 42 70 43 69 44
REMARK SMILES IDX 28 46 58 47 39 48 57 49 40 50 43 51 56 52 74 53 41 54 42 55
REMARK SMILES IDX 55 57 75 58 44 59 29 60 30 61 38 62 31 63 37 64 32 65 33 66
REMARK SMILES IDX 34 67 35 68 36 69 59 70 60 71 68 72 61 73 67 74 62 75 63 76
REMARK SMILES IDX 64 77 65 78 66 79 45 80 46 81 54 82 47 83 53 84 48 85 49 86
REMARK SMILES IDX 50 87 51 88 52 89
REMARK H PARENT 13 6 17 26 73 45 43 56
REMARK Flexibility Score: inf
ROOT
ATOM      1  C   UNL A   1      34.358  31.433  27.816  1.00  0.00     0.042 C 
ENDROOT
BRANCH   1   2
ATOM      2  C   UNL A   1      34.196  30.032  27.245  1.00  0.00     0.117 C 
BRANCH   2   3
ATOM      3  N   UNL A   1      32.960  29.403  27.667  1.00  0.00    -0.354 N 
ATOM      4  C   UNL A   1      32.247  28.401  27.082  1.00  0.00     0.242 C 
ATOM      5  O   UNL A   1      31.244  28.014  27.692  1.00  0.00    -0.273 OA
ATOM      6  H   UNL A   1      32.578  29.754  28.504  1.00  0.00     0.163 HD
BRANCH   4   7
ATOM      7  C   UNL A   1      32.689  27.788  25.730  1.00  0.00     0.173 C 
ATOM      8  N   UNL A   1      31.914  26.592  25.370  1.00  0.00    -0.345 N 
ATOM      9  C   UNL A   1      30.486  26.753  25.153  1.00  0.00     0.119 C 
ATOM     10  C   UNL A   1      30.283  27.703  23.977  1.00  0.00     0.022 C 
ATOM     11  C   UNL A   1      32.500  28.807  24.581  1.00  0.00     0.035 C 
ATOM     12  C   UNL A   1      31.037  29.019  24.165  1.00  0.00     0.004 C 
BRANCH   8  13
ATOM     13  C   UNL A   1      32.397  25.328  25.596  1.00  0.00     0.129 A 
ATOM     14  C   UNL A   1      35.823  23.726  25.788  1.00  0.00     0.052 C 
ATOM     15  C   UNL A   1      34.327  23.841  25.785  1.00  0.00     0.032 A 
ATOM     16  C   UNL A   1      33.778  25.121  25.590  1.00  0.00     0.057 A 
ATOM     17  C   UNL A   1      33.424  22.784  25.931  1.00  0.00     0.290 A 
ATOM     18  C   UNL A   1      32.063  23.061  25.944  1.00  0.00     0.199 A 
ATOM     19  N   UNL A   1      31.546  24.307  25.787  1.00  0.00    -0.232 NA
BRANCH  17  20
ATOM     20  N   UNL A   1      33.822  21.389  26.033  1.00  0.00     0.064 N 
ATOM     21  O   UNL A   1      34.053  20.783  24.979  1.00  0.00    -0.258 OA
ATOM     22  O   UNL A   1      33.947  20.903  27.166  1.00  0.00    -0.258 OA
ENDBRANCH  17  20
ENDBRANCH   8  13
ENDBRANCH   4   7
ENDBRANCH   2   3
ENDBRANCH   1   2
BRANCH   1  23
ATOM     23  C   UNL A   1      35.633  31.638  28.624  1.00  0.00     0.118 C 
BRANCH  23  24
ATOM     24  N   UNL A   1      35.529  31.156  29.995  1.00  0.00    -0.352 N 
ATOM     25  C   UNL A   1      36.461  30.520  30.781  1.00  0.00     0.251 C 
ATOM     26  H   UNL A   1      34.656  31.308  30.425  1.00  0.00     0.163 HD
ATOM     27  O   UNL A   1      36.128  30.052  31.866  1.00  0.00    -0.269 OA
BRANCH  25  28
ATOM     28  C   UNL A   1      37.852  30.368  30.304  1.00  0.00     0.039 A 
ATOM     29  C   UNL A   1      38.899  30.502  31.219  1.00  0.00     0.014 A 
ATOM     30  C   UNL A   1      38.123  30.070  28.966  1.00  0.00     0.014 A 
ATOM     31  C   UNL A   1      40.209  30.239  30.814  1.00  0.00     0.010 A 
ATOM     32  C   UNL A   1      39.418  29.732  28.584  1.00  0.00     0.010 A 
ATOM     33  C   UNL A   1      40.471  29.798  29.507  1.00  0.00    -0.014 A 
BRANCH  33  34
ATOM     34  C   UNL A   1      41.828  29.359  29.091  1.00  0.00     0.031 A 
ATOM     35  C   UNL A   1      42.946  30.358  28.974  1.00  0.00     0.074 A 
ATOM     36  C   UNL A   1      42.030  28.076  28.730  1.00  0.00     0.049 A 
ATOM     37  N   UNL A   1      44.158  30.188  28.513  1.00  0.00    -0.248 NA
ATOM     38  C   UNL A   1      42.656  31.734  29.411  1.00  0.00     0.031 C 
ATOM     39  C   UNL A   1      41.017  27.016  28.760  1.00  0.00     0.029 A 
ATOM     40  N   UNL A   1      43.150  27.446  28.246  1.00  0.00    -0.354 N 
ATOM     41  C   UNL A   1      44.772  31.433  28.591  1.00  0.00     0.074 A 
ATOM     42  C   UNL A   1      43.783  32.359  29.100  1.00  0.00     0.031 C 
ATOM     43  C   UNL A   1      41.564  25.871  28.324  1.00  0.00     0.029 A 
ATOM     44  C   UNL A   1      42.949  26.120  27.940  1.00  0.00     0.049 A 
ATOM     45  H   UNL A   1      44.015  27.900  28.129  1.00  0.00     0.167 HD
ATOM     46  C   UNL A   1      46.046  31.772  28.282  1.00  0.00     0.031 A 
ATOM     47  C   UNL A   1      43.777  25.210  27.391  1.00  0.00     0.031 A 
ATOM     48  C   UNL A   1      47.028  30.848  27.778  1.00  0.00     0.049 A 
ATOM     49  C   UNL A   1      45.180  25.616  27.032  1.00  0.00     0.074 A 
ATOM     50  C   UNL A   1      48.358  31.086  27.477  1.00  0.00     0.029 A 
ATOM     51  N   UNL A   1      46.788  29.512  27.496  1.00  0.00    -0.354 N 
ATOM     52  N   UNL A   1      45.755  26.787  27.164  1.00  0.00    -0.248 NA
ATOM     53  C   UNL A   1      46.044  24.578  26.454  1.00  0.00     0.031 C 
ATOM     54  C   UNL A   1      48.910  29.907  26.968  1.00  0.00     0.029 A 
ATOM     55  C   UNL A   1      47.938  28.919  27.003  1.00  0.00     0.049 A 
ATOM     56  H   UNL A   1      45.927  29.053  27.628  1.00  0.00     0.167 HD
ATOM     57  C   UNL A   1      47.056  26.622  26.700  1.00  0.00     0.074 A 
ATOM     58  C   UNL A   1      47.187  25.234  26.306  1.00  0.00     0.031 C 
ATOM     59  C   UNL A   1      48.051  27.538  26.606  1.00  0.00     0.031 A 
BRANCH  46  60
ATOM     60  C   UNL A   1      46.452  33.208  28.483  1.00  0.00    -0.014 A 
ATOM     61  C   UNL A   1      46.222  34.171  27.484  1.00  0.00     0.010 A 
ATOM     62  C   UNL A   1      47.031  33.610  29.700  1.00  0.00     0.010 A 
ATOM     63  C   UNL A   1      46.596  35.501  27.684  1.00  0.00     0.020 A 
ATOM     64  C   UNL A   1      47.382  34.946  29.914  1.00  0.00     0.020 A 
ATOM     65  C   UNL A   1      47.177  35.881  28.897  1.00  0.00     0.054 A 
BRANCH  65  66
ATOM     66  S   UNL A   1      47.629  37.621  29.138  1.00  0.00     0.124 S 
ATOM     67  O   UNL A   1      47.259  38.208  27.852  1.00  0.00    -0.237 OA
ATOM     68  O   UNL A   1      46.794  38.014  30.270  1.00  0.00    -0.237 OA
ATOM     69  O   UNL A   1      49.063  37.573  29.412  1.00  0.00    -0.744 OA
ENDBRANCH  65  66
ENDBRANCH  46  60
BRANCH  47  70
ATOM     70  C   UNL A   1      43.293  23.826  27.130  1.00  0.00    -0.014 A 
ATOM     71  C   UNL A   1      42.887  23.441  25.840  1.00  0.00     0.010 A 
ATOM     72  C   UNL A   1      43.244  22.884  28.173  1.00  0.00     0.010 A 
ATOM     73  C   UNL A   1      42.422  22.143  25.603  1.00  0.00     0.020 A 
ATOM     74  C   UNL A   1      42.807  21.578  27.934  1.00  0.00     0.020 A 
ATOM     75  C   UNL A   1      42.386  21.220  26.652  1.00  0.00     0.054 A 
BRANCH  75  76
ATOM     76  S   UNL A   1      41.825  19.527  26.313  1.00  0.00     0.124 S 
ATOM     77  O   UNL A   1      42.252  18.821  27.517  1.00  0.00    -0.237 OA
ATOM     78  O   UNL A   1      40.383  19.697  26.155  1.00  0.00    -0.237 OA
ATOM     79  O   UNL A   1      42.540  19.171  25.090  1.00  0.00    -0.744 OA
ENDBRANCH  75  76
ENDBRANCH  47  70
BRANCH  59  80
ATOM     80  C   UNL A   1      49.377  27.065  26.072  1.00  0.00    -0.014 A 
ATOM     81  C   UNL A   1      49.695  27.191  24.708  1.00  0.00     0.010 A 
ATOM     82  C   UNL A   1      50.335  26.536  26.955  1.00  0.00     0.010 A 
ATOM     83  C   UNL A   1      50.939  26.768  24.232  1.00  0.00     0.020 A 
ATOM     84  C   UNL A   1      51.590  26.138  26.487  1.00  0.00     0.020 A 
ATOM     85  C   UNL A   1      51.879  26.244  25.125  1.00  0.00     0.054 A 
BRANCH  85  86
ATOM     86  S   UNL A   1      53.502  25.746  24.490  1.00  0.00     0.124 S 
ATOM     87  O   UNL A   1      54.407  26.577  25.279  1.00  0.00    -0.237 OA
ATOM     88  O   UNL A   1      53.539  24.317  24.789  1.00  0.00    -0.237 OA
ATOM     89  O   UNL A   1      53.434  26.076  23.067  1.00  0.00    -0.744 OA
ENDBRANCH  85  86
ENDBRANCH  59  80
ENDBRANCH  33  34
ENDBRANCH  25  28
ENDBRANCH  23  24
ENDBRANCH   1  23
TORSDOF 15
ENDMDL
MODEL 3
REMARK VINA RESULT:      -9.5      3.969      7.464
REMARK SMILES Cc1cc(N2CCCC[C@H]2C(=O)NCCCNC(=O)c2ccc(-c3c4nc(c(-c5ccc(S(=O)(=O)[O-])cc5)c5ccc([nH]5)c(-c5ccc(S(=O)(=O)[O-])cc5)c5nc(c(-c6ccc(S(=O)(=O)[O-])cc6)c6ccc3[nH]6)C=C5)C=C4)cc2)ncc1[N+](=O)[O-]
REMARK SMILES IDX 15 1 14 2 13 3 11 4 12 5 10 7 5 8 6 9 7 10 9 11 8 12 4 13
REMARK SMILES IDX 1 14 2 15 3 16 82 17 81 18 80 19 83 20 84 21 85 22 16 23
REMARK SMILES IDX 17 24 18 25 19 27 20 28 21 29 79 30 22 31 78 32 23 33 24 34
REMARK SMILES IDX 25 35 72 36 26 37 77 38 71 39 73 40 27 41 76 42 70 43 69 44
REMARK SMILES IDX 28 46 58 47 39 48 57 49 40 50 43 51 56 52 74 53 41 54 42 55
REMARK SMILES IDX 55 57 75 58 44 59 29 60 30 61 38 62 31 63 37 64 32 65 33 66
REMARK SMILES IDX 34 67 35 68 36 69 59 70 60 71 68 72 61 73 67 74 62 75 63 76
REMARK SMILES IDX 64 77 65 78 66 79 45 80 46 81 54 82 47 83 53 84 48 85 49 86
REMARK SMILES IDX 50 87 51 88 52 89
REMARK H PARENT 13 6 17 26 73 45 43 56
REMARK Flexibility Score: inf
ROOT
ATOM      1  C   UNL A   1      33.906  30.145  27.128  1.00  0.00     0.042 C 
ENDROOT
BRANCH   1   2
ATOM      2  C   UNL A   1      33.071  28.901  26.862  1.00  0.00     0.117 C 
BRANCH   2   3
ATOM      3  N   UNL A   1      33.725  27.980  25.954  1.00  0.00    -0.354 N 
ATOM      4  C   UNL A   1      33.186  27.058  25.109  1.00  0.00     0.242 C 
ATOM      5  O   UNL A   1      33.983  26.435  24.397  1.00  0.00    -0.273 OA
ATOM      6  H   UNL A   1      34.709  28.028  25.947  1.00  0.00     0.163 HD
BRANCH   4   7
ATOM      7  C   UNL A   1      31.657  26.824  25.050  1.00  0.00     0.173 C 
ATOM      8  N   UNL A   1      31.095  27.087  23.717  1.00  0.00    -0.345 N 
ATOM      9  C   UNL A   1      31.550  26.255  22.616  1.00  0.00     0.119 C 
ATOM     10  C   UNL A   1      31.159  24.810  22.912  1.00  0.00     0.022 C 
ATOM     11  C   UNL A   1      31.315  25.356  25.398  1.00  0.00     0.035 C 
ATOM     12  C   UNL A   1      31.652  24.353  24.285  1.00  0.00     0.004 C 
BRANCH   8  13
ATOM     13  C   UNL A   1      30.478  28.276  23.419  1.00  0.00     0.129 A 
ATOM     14  C   UNL A   1      30.227  31.686  25.046  1.00  0.00     0.052 C 
ATOM     15  C   UNL A   1      29.988  30.583  24.058  1.00  0.00     0.032 A 
ATOM     16  C   UNL A   1      30.623  29.352  24.297  1.00  0.00     0.057 A 
ATOM     17  C   UNL A   1      29.165  30.658  22.930  1.00  0.00     0.290 A 
ATOM     18  C   UNL A   1      29.077  29.557  22.089  1.00  0.00     0.199 A 
ATOM     19  N   UNL A   1      29.722  28.382  22.314  1.00  0.00    -0.232 NA
BRANCH  17  20
ATOM     20  N   UNL A   1      28.354  31.819  22.597  1.00  0.00     0.064 N 
ATOM     21  O   UNL A   1      27.448  32.126  23.382  1.00  0.00    -0.258 OA
ATOM     22  O   UNL A   1      28.643  32.453  21.573  1.00  0.00    -0.258 OA
ENDBRANCH  17  20
ENDBRANCH   8  13
ENDBRANCH   4   7
ENDBRANCH   2   3
ENDBRANCH   1   2
BRANCH   1  23
ATOM     23  C   UNL A   1      35.226  29.876  27.839  1.00  0.00     0.118 C 
BRANCH  23  24
ATOM     24  N   UNL A   1      35.341  30.567  29.117  1.00  0.00    -0.352 N 
ATOM     25  C   UNL A   1      36.377  30.585  30.020  1.00  0.00     0.251 C 
ATOM     26  H   UNL A   1      34.556  31.102  29.374  1.00  0.00     0.163 HD
ATOM     27  O   UNL A   1      36.219  31.108  31.121  1.00  0.00    -0.269 OA
BRANCH  25  28
ATOM     28  C   UNL A   1      37.665  29.944  29.683  1.00  0.00     0.039 A 
ATOM     29  C   UNL A   1      38.112  29.979  28.360  1.00  0.00     0.014 A 
ATOM     30  C   UNL A   1      38.442  29.331  30.670  1.00  0.00     0.014 A 
ATOM     31  C   UNL A   1      39.382  29.490  28.046  1.00  0.00     0.010 A 
ATOM     32  C   UNL A   1      39.736  28.917  30.370  1.00  0.00     0.010 A 
ATOM     33  C   UNL A   1      40.225  29.006  29.059  1.00  0.00    -0.014 A 
BRANCH  33  34
ATOM     34  C   UNL A   1      41.635  28.626  28.783  1.00  0.00     0.031 A 
ATOM     35  C   UNL A   1      42.713  29.675  28.763  1.00  0.00     0.074 A 
ATOM     36  C   UNL A   1      41.928  27.351  28.459  1.00  0.00     0.049 A 
ATOM     37  N   UNL A   1      43.971  29.557  28.424  1.00  0.00    -0.248 NA
ATOM     38  C   UNL A   1      42.321  31.039  29.152  1.00  0.00     0.031 C 
ATOM     39  C   UNL A   1      40.965  26.247  28.403  1.00  0.00     0.029 A 
ATOM     40  N   UNL A   1      43.117  26.769  28.094  1.00  0.00    -0.354 N 
ATOM     41  C   UNL A   1      44.517  30.829  28.546  1.00  0.00     0.074 A 
ATOM     42  C   UNL A   1      43.443  31.713  28.945  1.00  0.00     0.031 C 
ATOM     43  C   UNL A   1      41.603  25.124  28.037  1.00  0.00     0.029 A 
ATOM     44  C   UNL A   1      43.006  25.433  27.786  1.00  0.00     0.049 A 
ATOM     45  H   UNL A   1      43.968  27.262  28.055  1.00  0.00     0.167 HD
ATOM     46  C   UNL A   1      45.799  31.224  28.357  1.00  0.00     0.031 A 
ATOM     47  C   UNL A   1      43.924  24.558  27.331  1.00  0.00     0.031 A 
ATOM     48  C   UNL A   1      46.866  30.342  27.962  1.00  0.00     0.049 A 
ATOM     49  C   UNL A   1      45.335  25.025  27.105  1.00  0.00     0.074 A 
ATOM     50  C   UNL A   1      48.206  30.638  27.789  1.00  0.00     0.029 A 
ATOM     51  N   UNL A   1      46.715  28.994  27.675  1.00  0.00    -0.354 N 
ATOM     52  N   UNL A   1      45.843  26.222  27.278  1.00  0.00    -0.248 NA
ATOM     53  C   UNL A   1      46.297  24.023  26.627  1.00  0.00     0.031 C 
ATOM     54  C   UNL A   1      48.858  29.481  27.350  1.00  0.00     0.029 A 
ATOM     55  C   UNL A   1      47.933  28.451  27.303  1.00  0.00     0.049 A 
ATOM     56  H   UNL A   1      45.867  28.497  27.729  1.00  0.00     0.167 HD
ATOM     57  C   UNL A   1      47.188  26.113  26.945  1.00  0.00     0.074 A 
ATOM     58  C   UNL A   1      47.419  24.729  26.582  1.00  0.00     0.031 C 
ATOM     59  C   UNL A   1      48.145  27.072  26.936  1.00  0.00     0.031 A 
BRANCH  46  60
ATOM     60  C   UNL A   1      46.119  32.678  28.579  1.00  0.00    -0.014 A 
ATOM     61  C   UNL A   1      46.542  33.142  29.837  1.00  0.00     0.010 A 
ATOM     62  C   UNL A   1      46.037  33.586  27.507  1.00  0.00     0.010 A 
ATOM     63  C   UNL A   1      46.842  34.492  30.030  1.00  0.00     0.020 A 
ATOM     64  C   UNL A   1      46.363  34.933  27.689  1.00  0.00     0.020 A 
ATOM     65  C   UNL A   1      46.748  35.381  28.955  1.00  0.00     0.054 A 
BRANCH  65  66
ATOM     66  S   UNL A   1      47.169  37.124  29.228  1.00  0.00     0.124 S 
ATOM     67  O   UNL A   1      45.996  37.805  28.684  1.00  0.00    -0.237 OA
ATOM     68  O   UNL A   1      47.318  37.193  30.679  1.00  0.00    -0.237 OA
ATOM     69  O   UNL A   1      48.403  37.306  28.468  1.00  0.00    -0.744 OA
ENDBRANCH  65  66
ENDBRANCH  46  60
BRANCH  47  70
ATOM     70  C   UNL A   1      43.530  23.151  27.042  1.00  0.00    -0.014 A 
ATOM     71  C   UNL A   1      42.913  22.363  28.029  1.00  0.00     0.010 A 
ATOM     72  C   UNL A   1      43.764  22.597  25.770  1.00  0.00     0.010 A 
ATOM     73  C   UNL A   1      42.556  21.039  27.755  1.00  0.00     0.020 A 
ATOM     74  C   UNL A   1      43.382  21.283  25.484  1.00  0.00     0.020 A 
ATOM     75  C   UNL A   1      42.792  20.508  26.484  1.00  0.00     0.054 A 
BRANCH  75  76
ATOM     76  S   UNL A   1      42.277  18.803  26.135  1.00  0.00     0.124 S 
ATOM     77  O   UNL A   1      43.188  18.427  25.058  1.00  0.00    -0.237 OA
ATOM     78  O   UNL A   1      42.500  18.136  27.415  1.00  0.00    -0.237 OA
ATOM     79  O   UNL A   1      40.874  18.944  25.750  1.00  0.00    -0.744 OA
ENDBRANCH  75  76
ENDBRANCH  47  70
BRANCH  59  80
ATOM     80  C   UNL A   1      49.537  26.657  26.539  1.00  0.00    -0.014 A 
ATOM     81  C   UNL A   1      50.407  26.059  27.468  1.00  0.00     0.010 A 
ATOM     82  C   UNL A   1      49.960  26.822  25.208  1.00  0.00     0.010 A 
ATOM     83  C   UNL A   1      51.688  25.658  27.078  1.00  0.00     0.020 A 
ATOM     84  C   UNL A   1      51.230  26.399  24.808  1.00  0.00     0.020 A 
ATOM     85  C   UNL A   1      52.092  25.831  25.750  1.00  0.00     0.054 A 
BRANCH  85  86
ATOM     86  S   UNL A   1      53.741  25.262  25.259  1.00  0.00     0.124 S 
ATOM     87  O   UNL A   1      53.832  25.741  23.883  1.00  0.00    -0.237 OA
ATOM     88  O   UNL A   1      54.613  25.936  26.218  1.00  0.00    -0.237 OA
ATOM     89  O   UNL A   1      53.667  23.809  25.410  1.00  0.00    -0.744 OA
ENDBRANCH  85  86
ENDBRANCH  59  80
ENDBRANCH  33  34
ENDBRANCH  25  28
ENDBRANCH  23  24
ENDBRANCH   1  23
TORSDOF 15
ENDMDL
