MODEL 1
REMARK VINA RESULT:     -11.0      0.000      0.000
REMARK SMILES O=C(NCCCNC(=O)c1ccc(-c2c3nc(c(-c4ccc(S(=O)(=O)[O-])cc4)c4ccc([nH]4)c(-c4ccc(S(=O)(=O)[O-])cc4)c4nc(c(-c5ccc(S(=O)(=O)[O-])cc5)c5ccc2[nH]5)C=C4)C=C3)cc1)c1ccc(Nc2ccnc(Cl)n2)cc1
REMARK SMILES IDX 5 1 4 2 3 3 1 4 2 5 70 7 71 8 83 9 72 10 82 11 73 12 74 13
REMARK SMILES IDX 75 15 76 16 81 17 77 18 79 19 78 20 80 21 6 22 7 23 8 24
REMARK SMILES IDX 9 26 10 27 11 28 69 29 12 30 68 31 13 32 14 33 15 34 62 35
REMARK SMILES IDX 16 36 67 37 61 38 63 39 17 40 66 41 60 42 59 43 18 45 48 46
REMARK SMILES IDX 29 47 47 48 30 49 33 50 46 51 64 52 31 53 32 54 45 56 65 57
REMARK SMILES IDX 34 58 19 59 20 60 28 61 21 62 27 63 22 64 23 65 24 66 25 67
REMARK SMILES IDX 26 68 49 69 50 70 58 71 51 72 57 73 52 74 53 75 54 76 55 77
REMARK SMILES IDX 56 78 35 79 36 80 44 81 37 82 43 83 38 84 39 85 40 86 41 87
REMARK SMILES IDX 42 88
REMARK H PARENT 3 6 74 14 7 25 63 44 33 55
REMARK Flexibility Score: inf
ROOT
ATOM      1  C   UNL A   1      32.660  28.174  25.745  1.00  0.00     0.042 C 
ENDROOT
BRANCH   1   2
ATOM      2  C   UNL A   1      32.991  28.878  24.440  1.00  0.00     0.118 C 
BRANCH   2   3
ATOM      3  N   UNL A   1      31.817  29.103  23.603  1.00  0.00    -0.352 N 
ATOM      4  O   UNL A   1      30.285  28.657  22.004  1.00  0.00    -0.269 OA
ATOM      5  C   UNL A   1      31.157  28.241  22.763  1.00  0.00     0.251 C 
ATOM      6  H   UNL A   1      31.442  30.012  23.648  1.00  0.00     0.163 HD
BRANCH   5   7
ATOM      7  C   UNL A   1      31.497  26.805  22.768  1.00  0.00     0.039 A 
ATOM      8  C   UNL A   1      32.610  26.350  22.067  1.00  0.00     0.016 A 
ATOM      9  C   UNL A   1      30.702  25.902  23.475  1.00  0.00     0.016 A 
ATOM     10  C   UNL A   1      32.839  24.984  21.949  1.00  0.00     0.027 A 
ATOM     11  C   UNL A   1      30.969  24.530  23.393  1.00  0.00     0.027 A 
ATOM     12  C   UNL A   1      32.015  24.049  22.590  1.00  0.00     0.040 A 
BRANCH  12  13
ATOM     13  N   UNL A   1      32.214  22.659  22.464  1.00  0.00    -0.340 N 
ATOM     14  H   UNL A   1      31.875  22.258  21.631  1.00  0.00     0.168 HD
BRANCH  13  15
ATOM     15  C   UNL A   1      32.825  21.768  23.356  1.00  0.00     0.135 A 
ATOM     16  C   UNL A   1      33.978  22.108  24.045  1.00  0.00     0.067 A 
ATOM     17  N   UNL A   1      32.267  20.556  23.466  1.00  0.00    -0.200 NA
ATOM     18  C   UNL A   1      34.582  21.115  24.778  1.00  0.00     0.118 A 
ATOM     19  C   UNL A   1      32.948  19.669  24.205  1.00  0.00     0.224 A 
ATOM     20  N   UNL A   1      34.094  19.872  24.868  1.00  0.00    -0.226 NA
ATOM     21  Cl  UNL A   1      32.299  18.092  24.284  1.00  0.00    -0.041 Cl
ENDBRANCH  13  15
ENDBRANCH  12  13
ENDBRANCH   5   7
ENDBRANCH   2   3
ENDBRANCH   1   2
BRANCH   1  22
ATOM     22  C   UNL A   1      33.606  28.500  26.889  1.00  0.00     0.118 C 
BRANCH  22  23
ATOM     23  N   UNL A   1      33.494  29.881  27.340  1.00  0.00    -0.352 N 
ATOM     24  C   UNL A   1      34.369  30.658  28.058  1.00  0.00     0.251 C 
ATOM     25  H   UNL A   1      32.655  30.330  27.087  1.00  0.00     0.163 HD
ATOM     26  O   UNL A   1      33.992  31.749  28.479  1.00  0.00    -0.269 OA
BRANCH  24  27
ATOM     27  C   UNL A   1      35.742  30.186  28.347  1.00  0.00     0.039 A 
ATOM     28  C   UNL A   1      36.709  30.277  27.342  1.00  0.00     0.014 A 
ATOM     29  C   UNL A   1      36.080  29.631  29.584  1.00  0.00     0.014 A 
ATOM     30  C   UNL A   1      38.021  29.870  27.600  1.00  0.00     0.010 A 
ATOM     31  C   UNL A   1      37.406  29.321  29.872  1.00  0.00     0.010 A 
ATOM     32  C   UNL A   1      38.390  29.422  28.878  1.00  0.00    -0.014 A 
BRANCH  32  33
ATOM     33  C   UNL A   1      39.794  29.042  29.187  1.00  0.00     0.031 A 
ATOM     34  C   UNL A   1      40.727  30.034  29.828  1.00  0.00     0.074 A 
ATOM     35  C   UNL A   1      40.244  27.818  28.842  1.00  0.00     0.049 A 
ATOM     36  N   UNL A   1      41.989  29.893  30.146  1.00  0.00    -0.248 NA
ATOM     37  C   UNL A   1      40.183  31.370  30.127  1.00  0.00     0.031 C 
ATOM     38  C   UNL A   1      39.455  26.783  28.168  1.00  0.00     0.029 A 
ATOM     39  N   UNL A   1      41.478  27.239  29.005  1.00  0.00    -0.354 N 
ATOM     40  C   UNL A   1      42.391  31.120  30.662  1.00  0.00     0.074 A 
ATOM     41  C   UNL A   1      41.256  32.011  30.564  1.00  0.00     0.031 C 
ATOM     42  C   UNL A   1      40.213  25.687  28.010  1.00  0.00     0.029 A 
ATOM     43  C   UNL A   1      41.552  25.952  28.526  1.00  0.00     0.049 A 
ATOM     44  H   UNL A   1      42.238  27.701  29.427  1.00  0.00     0.167 HD
ATOM     45  C   UNL A   1      43.589  31.470  31.189  1.00  0.00     0.031 A 
ATOM     46  C   UNL A   1      42.582  25.083  28.497  1.00  0.00     0.031 A 
ATOM     47  C   UNL A   1      44.712  30.577  31.295  1.00  0.00     0.049 A 
ATOM     48  C   UNL A   1      43.903  25.494  29.088  1.00  0.00     0.074 A 
ATOM     49  C   UNL A   1      45.948  30.815  31.872  1.00  0.00     0.029 A 
ATOM     50  N   UNL A   1      44.743  29.278  30.807  1.00  0.00    -0.354 N 
ATOM     51  N   UNL A   1      44.238  26.634  29.644  1.00  0.00    -0.248 NA
ATOM     52  C   UNL A   1      44.980  24.494  29.062  1.00  0.00     0.031 C 
ATOM     53  C   UNL A   1      46.746  29.684  31.677  1.00  0.00     0.029 A 
ATOM     54  C   UNL A   1      45.985  28.714  31.043  1.00  0.00     0.049 A 
ATOM     55  H   UNL A   1      43.992  28.826  30.360  1.00  0.00     0.167 HD
ATOM     56  C   UNL A   1      45.557  26.478  30.059  1.00  0.00     0.074 A 
ATOM     57  C   UNL A   1      45.949  25.130  29.706  1.00  0.00     0.031 C 
ATOM     58  C   UNL A   1      46.367  27.372  30.680  1.00  0.00     0.031 A 
BRANCH  45  59
ATOM     59  C   UNL A   1      43.749  32.885  31.684  1.00  0.00    -0.014 A 
ATOM     60  C   UNL A   1      43.397  33.247  32.998  1.00  0.00     0.010 A 
ATOM     61  C   UNL A   1      44.296  33.863  30.833  1.00  0.00     0.010 A 
ATOM     62  C   UNL A   1      43.546  34.565  33.436  1.00  0.00     0.020 A 
ATOM     63  C   UNL A   1      44.477  35.176  31.277  1.00  0.00     0.020 A 
ATOM     64  C   UNL A   1      44.084  35.523  32.571  1.00  0.00     0.054 A 
BRANCH  64  65
ATOM     65  S   UNL A   1      44.284  37.221  33.173  1.00  0.00     0.124 S 
ATOM     66  O   UNL A   1      45.687  37.233  33.580  1.00  0.00    -0.237 OA
ATOM     67  O   UNL A   1      43.966  38.020  31.993  1.00  0.00    -0.237 OA
ATOM     68  O   UNL A   1      43.320  37.319  34.266  1.00  0.00    -0.744 OA
ENDBRANCH  64  65
ENDBRANCH  45  59
BRANCH  46  69
ATOM     69  C   UNL A   1      42.395  23.733  27.897  1.00  0.00    -0.014 A 
ATOM     70  C   UNL A   1      42.701  23.500  26.544  1.00  0.00     0.010 A 
ATOM     71  C   UNL A   1      41.926  22.666  28.684  1.00  0.00     0.010 A 
ATOM     72  C   UNL A   1      42.524  22.229  25.986  1.00  0.00     0.020 A 
ATOM     73  C   UNL A   1      41.780  21.387  28.139  1.00  0.00     0.020 A 
ATOM     74  C   UNL A   1      42.070  21.179  26.789  1.00  0.00     0.054 A 
BRANCH  74  75
ATOM     75  S   UNL A   1      41.905  19.527  26.059  1.00  0.00     0.124 S 
ATOM     76  O   UNL A   1      42.828  19.600  24.931  1.00  0.00    -0.237 OA
ATOM     77  O   UNL A   1      42.314  18.656  27.157  1.00  0.00    -0.237 OA
ATOM     78  O   UNL A   1      40.489  19.450  25.705  1.00  0.00    -0.744 OA
ENDBRANCH  74  75
ENDBRANCH  46  69
BRANCH  58  79
ATOM     79  C   UNL A   1      47.753  26.911  31.051  1.00  0.00    -0.014 A 
ATOM     80  C   UNL A   1      48.008  26.255  32.269  1.00  0.00     0.010 A 
ATOM     81  C   UNL A   1      48.810  27.097  30.140  1.00  0.00     0.010 A 
ATOM     82  C   UNL A   1      49.301  25.830  32.585  1.00  0.00     0.020 A 
ATOM     83  C   UNL A   1      50.096  26.644  30.438  1.00  0.00     0.020 A 
ATOM     84  C   UNL A   1      50.338  26.028  31.667  1.00  0.00     0.054 A 
BRANCH  84  85
ATOM     85  S   UNL A   1      52.000  25.437  32.088  1.00  0.00     0.124 S 
ATOM     86  O   UNL A   1      51.788  23.998  32.215  1.00  0.00    -0.237 OA
ATOM     87  O   UNL A   1      52.790  25.857  30.934  1.00  0.00    -0.237 OA
ATOM     88  O   UNL A   1      52.310  26.133  33.335  1.00  0.00    -0.744 OA
ENDBRANCH  84  85
ENDBRANCH  58  79
ENDBRANCH  32  33
ENDBRANCH  24  27
ENDBRANCH  22  23
ENDBRANCH   1  22
TORSDOF 15
ENDMDL
MODEL 2
REMARK VINA RESULT:     -10.9      4.731     11.438
REMARK SMILES O=C(NCCCNC(=O)c1ccc(-c2c3nc(c(-c4ccc(S(=O)(=O)[O-])cc4)c4ccc([nH]4)c(-c4ccc(S(=O)(=O)[O-])cc4)c4nc(c(-c5ccc(S(=O)(=O)[O-])cc5)c5ccc2[nH]5)C=C4)C=C3)cc1)c1ccc(Nc2ccnc(Cl)n2)cc1
REMARK SMILES IDX 5 1 4 2 3 3 1 4 2 5 70 7 71 8 83 9 72 10 82 11 73 12 74 13
REMARK SMILES IDX 75 15 76 16 81 17 77 18 79 19 78 20 80 21 6 22 7 23 8 24
REMARK SMILES IDX 9 26 10 27 11 28 69 29 12 30 68 31 13 32 14 33 15 34 62 35
REMARK SMILES IDX 16 36 67 37 61 38 63 39 17 40 66 41 60 42 59 43 18 45 48 46
REMARK SMILES IDX 29 47 47 48 30 49 33 50 46 51 64 52 31 53 32 54 45 56 65 57
REMARK SMILES IDX 34 58 19 59 20 60 28 61 21 62 27 63 22 64 23 65 24 66 25 67
REMARK SMILES IDX 26 68 49 69 50 70 58 71 51 72 57 73 52 74 53 75 54 76 55 77
REMARK SMILES IDX 56 78 35 79 36 80 44 81 37 82 43 83 38 84 39 85 40 86 41 87
REMARK SMILES IDX 42 88
REMARK H PARENT 3 6 74 14 7 25 63 44 33 55
REMARK Flexibility Score: inf
ROOT
ATOM      1  C   UNL A   1      41.930  21.358  26.067  1.00  0.00     0.042 C 
ENDROOT
BRANCH   1   2
ATOM      2  C   UNL A   1      43.195  22.024  26.581  1.00  0.00     0.118 C 
BRANCH   2   3
ATOM      3  N   UNL A   1      44.412  21.368  26.113  1.00  0.00    -0.352 N 
ATOM      4  O   UNL A   1      46.484  21.215  25.225  1.00  0.00    -0.269 OA
ATOM      5  C   UNL A   1      45.623  21.909  25.761  1.00  0.00     0.251 C 
ATOM      6  H   UNL A   1      44.355  20.388  26.039  1.00  0.00     0.163 HD
BRANCH   5   7
ATOM      7  C   UNL A   1      45.896  23.335  26.025  1.00  0.00     0.039 A 
ATOM      8  C   UNL A   1      45.849  23.826  27.327  1.00  0.00     0.016 A 
ATOM      9  C   UNL A   1      46.199  24.194  24.968  1.00  0.00     0.016 A 
ATOM     10  C   UNL A   1      45.955  25.193  27.552  1.00  0.00     0.027 A 
ATOM     11  C   UNL A   1      46.355  25.565  25.210  1.00  0.00     0.027 A 
ATOM     12  C   UNL A   1      46.190  26.089  26.501  1.00  0.00     0.040 A 
BRANCH  12  13
ATOM     13  N   UNL A   1      46.277  27.481  26.704  1.00  0.00    -0.340 N 
ATOM     14  H   UNL A   1      47.190  27.849  26.723  1.00  0.00     0.168 HD
BRANCH  13  15
ATOM     15  C   UNL A   1      45.249  28.416  26.883  1.00  0.00     0.135 A 
ATOM     16  C   UNL A   1      43.976  28.199  26.381  1.00  0.00     0.067 A 
ATOM     17  N   UNL A   1      45.575  29.550  27.516  1.00  0.00    -0.200 NA
ATOM     18  C   UNL A   1      43.082  29.238  26.477  1.00  0.00     0.118 A 
ATOM     19  C   UNL A   1      44.623  30.493  27.546  1.00  0.00     0.224 A 
ATOM     20  N   UNL A   1      43.382  30.411  27.048  1.00  0.00    -0.226 NA
ATOM     21  Cl  UNL A   1      45.049  31.978  28.270  1.00  0.00    -0.041 Cl
ENDBRANCH  13  15
ENDBRANCH  12  13
ENDBRANCH   5   7
ENDBRANCH   2   3
ENDBRANCH   1   2
BRANCH   1  22
ATOM     22  C   UNL A   1      40.718  21.541  26.966  1.00  0.00     0.118 C 
BRANCH  22  23
ATOM     23  N   UNL A   1      39.491  21.782  26.219  1.00  0.00    -0.352 N 
ATOM     24  C   UNL A   1      38.682  22.891  26.168  1.00  0.00     0.251 C 
ATOM     25  H   UNL A   1      39.194  21.028  25.660  1.00  0.00     0.163 HD
ATOM     26  O   UNL A   1      37.595  22.811  25.601  1.00  0.00    -0.269 OA
BRANCH  24  27
ATOM     27  C   UNL A   1      39.095  24.162  26.804  1.00  0.00     0.039 A 
ATOM     28  C   UNL A   1      38.667  24.434  28.105  1.00  0.00     0.014 A 
ATOM     29  C   UNL A   1      39.876  25.099  26.122  1.00  0.00     0.014 A 
ATOM     30  C   UNL A   1      39.070  25.612  28.740  1.00  0.00     0.010 A 
ATOM     31  C   UNL A   1      40.361  26.221  26.789  1.00  0.00     0.010 A 
ATOM     32  C   UNL A   1      39.951  26.500  28.101  1.00  0.00    -0.014 A 
BRANCH  32  33
ATOM     33  C   UNL A   1      40.439  27.727  28.784  1.00  0.00     0.031 A 
ATOM     34  C   UNL A   1      41.823  27.768  29.376  1.00  0.00     0.074 A 
ATOM     35  C   UNL A   1      39.617  28.787  28.916  1.00  0.00     0.049 A 
ATOM     36  N   UNL A   1      42.411  28.737  30.031  1.00  0.00    -0.248 NA
ATOM     37  C   UNL A   1      42.646  26.554  29.242  1.00  0.00     0.031 C 
ATOM     38  C   UNL A   1      38.235  28.855  28.432  1.00  0.00     0.029 A 
ATOM     39  N   UNL A   1      39.822  30.011  29.502  1.00  0.00    -0.354 N 
ATOM     40  C   UNL A   1      43.658  28.246  30.400  1.00  0.00     0.074 A 
ATOM     41  C   UNL A   1      43.722  26.874  29.946  1.00  0.00     0.031 C 
ATOM     42  C   UNL A   1      37.731  30.067  28.710  1.00  0.00     0.029 A 
ATOM     43  C   UNL A   1      38.732  30.848  29.430  1.00  0.00     0.049 A 
ATOM     44  H   UNL A   1      40.670  30.267  29.934  1.00  0.00     0.167 HD
ATOM     45  C   UNL A   1      44.668  28.882  31.040  1.00  0.00     0.031 A 
ATOM     46  C   UNL A   1      38.553  32.100  29.895  1.00  0.00     0.031 A 
ATOM     47  C   UNL A   1      44.605  30.251  31.480  1.00  0.00     0.049 A 
ATOM     48  C   UNL A   1      39.689  32.787  30.603  1.00  0.00     0.074 A 
ATOM     49  C   UNL A   1      45.597  31.007  32.079  1.00  0.00     0.029 A 
ATOM     50  N   UNL A   1      43.487  31.066  31.379  1.00  0.00    -0.354 N 
ATOM     51  N   UNL A   1      40.889  32.331  30.871  1.00  0.00    -0.248 NA
ATOM     52  C   UNL A   1      39.451  34.164  31.057  1.00  0.00     0.031 C 
ATOM     53  C   UNL A   1      45.060  32.259  32.398  1.00  0.00     0.029 A 
ATOM     54  C   UNL A   1      43.755  32.308  31.931  1.00  0.00     0.049 A 
ATOM     55  H   UNL A   1      42.630  30.801  30.973  1.00  0.00     0.167 HD
ATOM     56  C   UNL A   1      41.559  33.375  31.501  1.00  0.00     0.074 A 
ATOM     57  C   UNL A   1      40.635  34.490  31.556  1.00  0.00     0.031 C 
ATOM     58  C   UNL A   1      42.826  33.408  31.986  1.00  0.00     0.031 A 
BRANCH  45  59
ATOM     59  C   UNL A   1      45.927  28.099  31.313  1.00  0.00    -0.014 A 
ATOM     60  C   UNL A   1      47.038  28.175  30.451  1.00  0.00     0.010 A 
ATOM     61  C   UNL A   1      46.016  27.303  32.469  1.00  0.00     0.010 A 
ATOM     62  C   UNL A   1      48.193  27.436  30.717  1.00  0.00     0.020 A 
ATOM     63  C   UNL A   1      47.183  26.587  32.756  1.00  0.00     0.020 A 
ATOM     64  C   UNL A   1      48.258  26.645  31.867  1.00  0.00     0.054 A 
BRANCH  64  65
ATOM     65  S   UNL A   1      49.778  25.713  32.196  1.00  0.00     0.124 S 
ATOM     66  O   UNL A   1      49.430  24.989  33.415  1.00  0.00    -0.237 OA
ATOM     67  O   UNL A   1      49.916  24.892  30.996  1.00  0.00    -0.237 OA
ATOM     68  O   UNL A   1      50.794  26.750  32.357  1.00  0.00    -0.744 OA
ENDBRANCH  64  65
ENDBRANCH  45  59
BRANCH  46  69
ATOM     69  C   UNL A   1      37.248  32.786  29.691  1.00  0.00    -0.014 A 
ATOM     70  C   UNL A   1      36.378  33.013  30.772  1.00  0.00     0.010 A 
ATOM     71  C   UNL A   1      36.875  33.236  28.410  1.00  0.00     0.010 A 
ATOM     72  C   UNL A   1      35.153  33.659  30.574  1.00  0.00     0.020 A 
ATOM     73  C   UNL A   1      35.667  33.911  28.215  1.00  0.00     0.020 A 
ATOM     74  C   UNL A   1      34.809  34.109  29.297  1.00  0.00     0.054 A 
BRANCH  74  75
ATOM     75  S   UNL A   1      33.242  34.997  29.075  1.00  0.00     0.124 S 
ATOM     76  O   UNL A   1      32.673  34.950  30.418  1.00  0.00    -0.237 OA
ATOM     77  O   UNL A   1      33.688  36.312  28.622  1.00  0.00    -0.237 OA
ATOM     78  O   UNL A   1      32.540  34.204  28.070  1.00  0.00    -0.744 OA
ENDBRANCH  74  75
ENDBRANCH  46  69
BRANCH  58  79
ATOM     79  C   UNL A   1      43.304  34.703  32.591  1.00  0.00    -0.014 A 
ATOM     80  C   UNL A   1      43.963  35.675  31.818  1.00  0.00     0.010 A 
ATOM     81  C   UNL A   1      43.045  34.968  33.949  1.00  0.00     0.010 A 
ATOM     82  C   UNL A   1      44.389  36.871  32.402  1.00  0.00     0.020 A 
ATOM     83  C   UNL A   1      43.439  36.176  34.527  1.00  0.00     0.020 A 
ATOM     84  C   UNL A   1      44.125  37.114  33.754  1.00  0.00     0.054 A 
BRANCH  84  85
ATOM     85  S   UNL A   1      44.659  38.688  34.478  1.00  0.00     0.124 S 
ATOM     86  O   UNL A   1      46.111  38.605  34.349  1.00  0.00    -0.237 OA
ATOM     87  O   UNL A   1      44.007  39.673  33.619  1.00  0.00    -0.237 OA
ATOM     88  O   UNL A   1      44.151  38.631  35.847  1.00  0.00    -0.744 OA
ENDBRANCH  84  85
ENDBRANCH  58  79
ENDBRANCH  32  33
ENDBRANCH  24  27
ENDBRANCH  22  23
ENDBRANCH   1  22
TORSDOF 15
ENDMDL
MODEL 3
REMARK VINA RESULT:     -10.8      4.669     11.257
REMARK SMILES O=C(NCCCNC(=O)c1ccc(-c2c3nc(c(-c4ccc(S(=O)(=O)[O-])cc4)c4ccc([nH]4)c(-c4ccc(S(=O)(=O)[O-])cc4)c4nc(c(-c5ccc(S(=O)(=O)[O-])cc5)c5ccc2[nH]5)C=C4)C=C3)cc1)c1ccc(Nc2ccnc(Cl)n2)cc1
REMARK SMILES IDX 5 1 4 2 3 3 1 4 2 5 70 7 71 8 83 9 72 10 82 11 73 12 74 13
REMARK SMILES IDX 75 15 76 16 81 17 77 18 79 19 78 20 80 21 6 22 7 23 8 24
REMARK SMILES IDX 9 26 10 27 11 28 69 29 12 30 68 31 13 32 14 33 15 34 62 35
REMARK SMILES IDX 16 36 67 37 61 38 63 39 17 40 66 41 60 42 59 43 18 45 48 46
REMARK SMILES IDX 29 47 47 48 30 49 33 50 46 51 64 52 31 53 32 54 45 56 65 57
REMARK SMILES IDX 34 58 19 59 20 60 28 61 21 62 27 63 22 64 23 65 24 66 25 67
REMARK SMILES IDX 26 68 49 69 50 70 58 71 51 72 57 73 52 74 53 75 54 76 55 77
REMARK SMILES IDX 56 78 35 79 36 80 44 81 37 82 43 83 38 84 39 85 40 86 41 87
REMARK SMILES IDX 42 88
REMARK H PARENT 3 6 74 14 7 25 63 44 33 55
REMARK Flexibility Score: inf
ROOT
ATOM      1  C   UNL A   1      41.140  20.077  26.871  1.00  0.00     0.042 C 
ENDROOT
BRANCH   1   2
ATOM      2  C   UNL A   1      42.617  19.962  27.208  1.00  0.00     0.118 C 
BRANCH   2   3
ATOM      3  N   UNL A   1      43.434  19.589  26.058  1.00  0.00    -0.352 N 
ATOM      4  O   UNL A   1      44.583  19.891  24.136  1.00  0.00    -0.269 OA
ATOM      5  C   UNL A   1      44.080  20.383  25.143  1.00  0.00     0.251 C 
ATOM      6  H   UNL A   1      43.538  18.621  25.917  1.00  0.00     0.163 HD
BRANCH   5   7
ATOM      7  C   UNL A   1      44.169  21.839  25.367  1.00  0.00     0.039 A 
ATOM      8  C   UNL A   1      43.122  22.670  24.980  1.00  0.00     0.016 A 
ATOM      9  C   UNL A   1      45.306  22.384  25.966  1.00  0.00     0.016 A 
ATOM     10  C   UNL A   1      43.274  24.050  25.053  1.00  0.00     0.027 A 
ATOM     11  C   UNL A   1      45.430  23.775  26.083  1.00  0.00     0.027 A 
ATOM     12  C   UNL A   1      44.433  24.628  25.585  1.00  0.00     0.040 A 
BRANCH  12  13
ATOM     13  N   UNL A   1      44.618  26.024  25.646  1.00  0.00    -0.340 N 
ATOM     14  H   UNL A   1      43.802  26.552  25.807  1.00  0.00     0.168 HD
BRANCH  13  15
ATOM     15  C   UNL A   1      45.797  26.768  25.510  1.00  0.00     0.135 A 
ATOM     16  C   UNL A   1      46.097  27.816  26.365  1.00  0.00     0.067 A 
ATOM     17  N   UNL A   1      46.592  26.447  24.480  1.00  0.00    -0.200 NA
ATOM     18  C   UNL A   1      47.199  28.578  26.057  1.00  0.00     0.118 A 
ATOM     19  C   UNL A   1      47.635  27.263  24.276  1.00  0.00     0.224 A 
ATOM     20  N   UNL A   1      47.987  28.331  25.004  1.00  0.00    -0.226 NA
ATOM     21  Cl  UNL A   1      48.609  26.922  22.916  1.00  0.00    -0.041 Cl
ENDBRANCH  13  15
ENDBRANCH  12  13
ENDBRANCH   5   7
ENDBRANCH   2   3
ENDBRANCH   1   2
BRANCH   1  22
ATOM     22  C   UNL A   1      40.551  21.459  27.100  1.00  0.00     0.118 C 
BRANCH  22  23
ATOM     23  N   UNL A   1      39.418  21.743  26.231  1.00  0.00    -0.352 N 
ATOM     24  C   UNL A   1      38.692  22.896  26.060  1.00  0.00     0.251 C 
ATOM     25  H   UNL A   1      39.125  20.985  25.675  1.00  0.00     0.163 HD
ATOM     26  O   UNL A   1      37.659  22.859  25.395  1.00  0.00    -0.269 OA
BRANCH  24  27
ATOM     27  C   UNL A   1      39.128  24.167  26.683  1.00  0.00     0.039 A 
ATOM     28  C   UNL A   1      38.728  24.446  27.992  1.00  0.00     0.014 A 
ATOM     29  C   UNL A   1      39.902  25.096  25.982  1.00  0.00     0.014 A 
ATOM     30  C   UNL A   1      39.154  25.623  28.614  1.00  0.00     0.010 A 
ATOM     31  C   UNL A   1      40.408  26.216  26.635  1.00  0.00     0.010 A 
ATOM     32  C   UNL A   1      40.028  26.502  27.954  1.00  0.00    -0.014 A 
BRANCH  32  33
ATOM     33  C   UNL A   1      40.539  27.727  28.623  1.00  0.00     0.031 A 
ATOM     34  C   UNL A   1      41.945  27.771  29.160  1.00  0.00     0.074 A 
ATOM     35  C   UNL A   1      39.719  28.784  28.793  1.00  0.00     0.049 A 
ATOM     36  N   UNL A   1      42.556  28.739  29.795  1.00  0.00    -0.248 NA
ATOM     37  C   UNL A   1      42.766  26.560  28.987  1.00  0.00     0.031 C 
ATOM     38  C   UNL A   1      38.319  28.850  28.366  1.00  0.00     0.029 A 
ATOM     39  N   UNL A   1      39.944  30.006  29.376  1.00  0.00    -0.354 N 
ATOM     40  C   UNL A   1      43.818  28.250  30.111  1.00  0.00     0.074 A 
ATOM     41  C   UNL A   1      43.868  26.880  29.649  1.00  0.00     0.031 C 
ATOM     42  C   UNL A   1      37.823  30.059  28.669  1.00  0.00     0.029 A 
ATOM     43  C   UNL A   1      38.850  30.840  29.352  1.00  0.00     0.049 A 
ATOM     44  H   UNL A   1      40.807  30.263  29.775  1.00  0.00     0.167 HD
ATOM     45  C   UNL A   1      44.851  28.886  30.713  1.00  0.00     0.031 A 
ATOM     46  C   UNL A   1      38.685  32.089  29.830  1.00  0.00     0.031 A 
ATOM     47  C   UNL A   1      44.801  30.253  31.162  1.00  0.00     0.049 A 
ATOM     48  C   UNL A   1      39.847  32.776  30.495  1.00  0.00     0.074 A 
ATOM     49  C   UNL A   1      45.814  31.010  31.725  1.00  0.00     0.029 A 
ATOM     50  N   UNL A   1      43.678  31.065  31.109  1.00  0.00    -0.354 N 
ATOM     51  N   UNL A   1      41.058  32.323  30.713  1.00  0.00    -0.248 NA
ATOM     52  C   UNL A   1      39.622  34.151  30.965  1.00  0.00     0.031 C 
ATOM     53  C   UNL A   1      45.286  32.258  32.070  1.00  0.00     0.029 A 
ATOM     54  C   UNL A   1      43.964  32.305  31.656  1.00  0.00     0.049 A 
ATOM     55  H   UNL A   1      42.806  30.799  30.737  1.00  0.00     0.167 HD
ATOM     56  C   UNL A   1      41.749  33.367  31.320  1.00  0.00     0.074 A 
ATOM     57  C   UNL A   1      40.825  34.478  31.418  1.00  0.00     0.031 C 
ATOM     58  C   UNL A   1      43.034  33.401  31.754  1.00  0.00     0.031 A 
BRANCH  45  59
ATOM     59  C   UNL A   1      46.123  28.106  30.931  1.00  0.00    -0.014 A 
ATOM     60  C   UNL A   1      46.365  27.422  32.138  1.00  0.00     0.010 A 
ATOM     61  C   UNL A   1      47.076  28.025  29.900  1.00  0.00     0.010 A 
ATOM     62  C   UNL A   1      47.553  26.711  32.324  1.00  0.00     0.020 A 
ATOM     63  C   UNL A   1      48.252  27.287  30.070  1.00  0.00     0.020 A 
ATOM     64  C   UNL A   1      48.490  26.650  31.289  1.00  0.00     0.054 A 
BRANCH  64  65
ATOM     65  S   UNL A   1      50.014  25.702  31.552  1.00  0.00     0.124 S 
ATOM     66  O   UNL A   1      50.349  25.286  30.193  1.00  0.00    -0.237 OA
ATOM     67  O   UNL A   1      50.909  26.693  32.144  1.00  0.00    -0.237 OA
ATOM     68  O   UNL A   1      49.603  24.625  32.449  1.00  0.00    -0.744 OA
ENDBRANCH  64  65
ENDBRANCH  45  59
BRANCH  46  69
ATOM     69  C   UNL A   1      37.370  32.772  29.681  1.00  0.00    -0.014 A 
ATOM     70  C   UNL A   1      36.512  32.925  30.784  1.00  0.00     0.010 A 
ATOM     71  C   UNL A   1      36.978  33.292  28.434  1.00  0.00     0.010 A 
ATOM     72  C   UNL A   1      35.278  33.568  30.639  1.00  0.00     0.020 A 
ATOM     73  C   UNL A   1      35.761  33.964  28.292  1.00  0.00     0.020 A 
ATOM     74  C   UNL A   1      34.913  34.089  29.395  1.00  0.00     0.054 A 
BRANCH  74  75
ATOM     75  S   UNL A   1      33.335  34.971  29.244  1.00  0.00     0.124 S 
ATOM     76  O   UNL A   1      33.773  36.320  28.901  1.00  0.00    -0.237 OA
ATOM     77  O   UNL A   1      32.664  34.233  28.178  1.00  0.00    -0.237 OA
ATOM     78  O   UNL A   1      32.734  34.825  30.567  1.00  0.00    -0.744 OA
ENDBRANCH  74  75
ENDBRANCH  46  69
BRANCH  58  79
ATOM     79  C   UNL A   1      43.532  34.695  32.345  1.00  0.00    -0.014 A 
ATOM     80  C   UNL A   1      44.055  35.719  31.536  1.00  0.00     0.010 A 
ATOM     81  C   UNL A   1      43.429  34.905  33.734  1.00  0.00     0.010 A 
ATOM     82  C   UNL A   1      44.502  36.913  32.109  1.00  0.00     0.020 A 
ATOM     83  C   UNL A   1      43.844  36.109  34.305  1.00  0.00     0.020 A 
ATOM     84  C   UNL A   1      44.394  37.100  33.491  1.00  0.00     0.054 A 
BRANCH  84  85
ATOM     85  S   UNL A   1      44.952  38.671  34.205  1.00  0.00     0.124 S 
ATOM     86  O   UNL A   1      45.099  38.328  35.617  1.00  0.00    -0.237 OA
ATOM     87  O   UNL A   1      46.198  38.924  33.487  1.00  0.00    -0.237 OA
ATOM     88  O   UNL A   1      43.863  39.597  33.899  1.00  0.00    -0.744 OA
ENDBRANCH  84  85
ENDBRANCH  58  79
ENDBRANCH  32  33
ENDBRANCH  24  27
ENDBRANCH  22  23
ENDBRANCH   1  22
TORSDOF 15
ENDMDL
