MODEL 1
REMARK VINA RESULT:     -12.9      0.000      0.000
REMARK SMILES CCC[C@@H]1CCc2nc3c(F)cccc3c(C(=O)NCCCNC(=O)c3ccc(-c4c5nc(c(-c6ccc(S(=O)(=O)[O-])cc6)c6ccc([nH]6)c(-c6ccc(S(=O)(=O)[O-])cc6)c6nc(c(-c7ccc(S(=O)(=O)[O-])cc7)c7ccc4[nH]7)C=C6)C=C5)cc3)c2C1
REMARK SMILES IDX 21 1 20 2 19 3 17 4 18 5 16 7 4 8 5 9 87 10 6 11 86 12 7 13
REMARK SMILES IDX 8 14 15 15 9 16 14 17 10 18 13 19 11 20 12 21 3 22 2 23 1 24
REMARK SMILES IDX 22 25 23 26 24 27 25 29 26 30 27 31 85 32 28 33 84 34 29 35
REMARK SMILES IDX 30 36 31 37 78 38 32 39 83 40 77 41 79 42 33 43 82 44 76 45
REMARK SMILES IDX 75 46 34 48 64 49 45 50 63 51 46 52 49 53 62 54 80 55 47 56
REMARK SMILES IDX 48 57 61 59 81 60 50 61 35 62 36 63 44 64 37 65 43 66 38 67
REMARK SMILES IDX 39 68 40 69 41 70 42 71 65 72 66 73 74 74 67 75 73 76 68 77
REMARK SMILES IDX 69 78 70 79 71 80 72 81 51 82 52 83 60 84 53 85 59 86 54 87
REMARK SMILES IDX 55 88 56 89 57 90 58 91
REMARK H PARENT 19 6 23 28 79 47 49 58
REMARK Flexibility Score: inf
ROOT
ATOM      1  C   UNL A   1      34.393  28.885  26.993  1.00  0.00     0.042 C 
ENDROOT
BRANCH   1   2
ATOM      2  C   UNL A   1      33.339  29.893  26.510  1.00  0.00     0.118 C 
BRANCH   2   3
ATOM      3  N   UNL A   1      33.270  29.860  25.056  1.00  0.00    -0.352 N 
ATOM      4  C   UNL A   1      33.174  28.827  24.149  1.00  0.00     0.252 C 
ATOM      5  O   UNL A   1      33.769  29.016  23.088  1.00  0.00    -0.269 OA
ATOM      6  H   UNL A   1      33.299  30.751  24.639  1.00  0.00     0.163 HD
BRANCH   4   7
ATOM      7  C   UNL A   1      32.279  27.626  24.314  1.00  0.00     0.054 A 
ATOM      8  C   UNL A   1      29.005  28.888  22.615  1.00  0.00    -0.006 C 
ATOM      9  C   UNL A   1      28.039  28.090  23.492  1.00  0.00     0.010 C 
ATOM     10  C   UNL A   1      30.354  29.032  23.330  1.00  0.00     0.042 C 
ATOM     11  C   UNL A   1      28.621  26.703  23.753  1.00  0.00     0.057 C 
ATOM     12  C   UNL A   1      30.917  27.768  23.939  1.00  0.00    -0.013 A 
ATOM     13  C   UNL A   1      30.046  26.724  24.244  1.00  0.00     0.045 A 
ATOM     14  N   UNL A   1      30.434  25.630  24.931  1.00  0.00    -0.249 NA
ATOM     15  C   UNL A   1      32.718  26.376  24.826  1.00  0.00     0.016 A 
ATOM     16  C   UNL A   1      31.735  25.451  25.218  1.00  0.00     0.107 A 
ATOM     17  C   UNL A   1      34.065  25.964  24.922  1.00  0.00     0.011 A 
ATOM     18  C   UNL A   1      32.139  24.300  25.900  1.00  0.00     0.149 A 
ATOM     19  C   UNL A   1      34.453  24.812  25.601  1.00  0.00     0.004 A 
ATOM     20  F   UNL A   1      31.216  23.434  26.354  1.00  0.00    -0.205 F 
ATOM     21  C   UNL A   1      33.477  23.992  26.134  1.00  0.00     0.041 A 
BRANCH   8  22
ATOM     22  C   UNL A   1      28.415  30.235  22.135  1.00  0.00     0.003 C 
BRANCH  22  23
ATOM     23  C   UNL A   1      28.196  31.341  23.177  1.00  0.00    -0.003 C 
ATOM     24  C   UNL A   1      28.594  32.738  22.705  1.00  0.00     0.004 C 
ENDBRANCH  22  23
ENDBRANCH   8  22
ENDBRANCH   4   7
ENDBRANCH   2   3
ENDBRANCH   1   2
BRANCH   1  25
ATOM     25  C   UNL A   1      35.685  29.533  27.474  1.00  0.00     0.118 C 
BRANCH  25  26
ATOM     26  N   UNL A   1      35.698  29.691  28.917  1.00  0.00    -0.352 N 
ATOM     27  C   UNL A   1      36.686  29.363  29.809  1.00  0.00     0.251 C 
ATOM     28  H   UNL A   1      34.885  30.087  29.308  1.00  0.00     0.163 HD
ATOM     29  O   UNL A   1      36.415  29.289  31.012  1.00  0.00    -0.269 OA
BRANCH  27  30
ATOM     30  C   UNL A   1      38.065  29.087  29.346  1.00  0.00     0.039 A 
ATOM     31  C   UNL A   1      38.957  28.440  30.206  1.00  0.00     0.014 A 
ATOM     32  C   UNL A   1      38.497  29.517  28.087  1.00  0.00     0.014 A 
ATOM     33  C   UNL A   1      40.270  28.198  29.793  1.00  0.00     0.010 A 
ATOM     34  C   UNL A   1      39.783  29.209  27.647  1.00  0.00     0.010 A 
ATOM     35  C   UNL A   1      40.689  28.574  28.508  1.00  0.00    -0.014 A 
BRANCH  35  36
ATOM     36  C   UNL A   1      42.097  28.395  28.078  1.00  0.00     0.031 A 
ATOM     37  C   UNL A   1      43.073  29.528  28.243  1.00  0.00     0.074 A 
ATOM     38  C   UNL A   1      42.498  27.234  27.528  1.00  0.00     0.049 A 
ATOM     39  N   UNL A   1      44.337  29.581  27.916  1.00  0.00    -0.248 NA
ATOM     40  C   UNL A   1      42.553  30.769  28.843  1.00  0.00     0.031 C 
ATOM     41  C   UNL A   1      41.644  26.067  27.303  1.00  0.00     0.029 A 
ATOM     42  N   UNL A   1      43.728  26.844  27.063  1.00  0.00    -0.354 N 
ATOM     43  C   UNL A   1      44.765  30.852  28.279  1.00  0.00     0.074 A 
ATOM     44  C   UNL A   1      43.612  31.562  28.783  1.00  0.00     0.031 C 
ATOM     45  C   UNL A   1      42.384  25.081  26.772  1.00  0.00     0.029 A 
ATOM     46  C   UNL A   1      43.755  25.553  26.591  1.00  0.00     0.049 A 
ATOM     47  H   UNL A   1      44.518  27.431  27.068  1.00  0.00     0.167 HD
ATOM     48  C   UNL A   1      46.012  31.373  28.231  1.00  0.00     0.031 A 
ATOM     49  C   UNL A   1      44.767  24.829  26.074  1.00  0.00     0.031 A 
ATOM     50  C   UNL A   1      47.158  30.671  27.723  1.00  0.00     0.049 A 
ATOM     51  C   UNL A   1      46.135  25.440  25.973  1.00  0.00     0.074 A 
ATOM     52  C   UNL A   1      48.467  31.109  27.638  1.00  0.00     0.029 A 
ATOM     53  N   UNL A   1      47.131  29.380  27.219  1.00  0.00    -0.354 N 
ATOM     54  N   UNL A   1      46.524  26.639  26.333  1.00  0.00    -0.248 NA
ATOM     55  C   UNL A   1      47.202  24.603  25.406  1.00  0.00     0.031 C 
ATOM     56  C   UNL A   1      49.225  30.097  27.043  1.00  0.00     0.029 A 
ATOM     57  C   UNL A   1      48.398  29.009  26.805  1.00  0.00     0.049 A 
ATOM     58  H   UNL A   1      46.330  28.810  27.164  1.00  0.00     0.167 HD
ATOM     59  C   UNL A   1      47.883  26.700  26.049  1.00  0.00     0.074 A 
ATOM     60  C   UNL A   1      48.251  25.413  25.491  1.00  0.00     0.031 C 
ATOM     61  C   UNL A   1      48.746  27.728  26.241  1.00  0.00     0.031 A 
BRANCH  48  62
ATOM     62  C   UNL A   1      46.194  32.771  28.757  1.00  0.00    -0.014 A 
ATOM     63  C   UNL A   1      46.055  33.878  27.901  1.00  0.00     0.010 A 
ATOM     64  C   UNL A   1      46.492  32.985  30.113  1.00  0.00     0.010 A 
ATOM     65  C   UNL A   1      46.253  35.174  28.382  1.00  0.00     0.020 A 
ATOM     66  C   UNL A   1      46.664  34.282  30.606  1.00  0.00     0.020 A 
ATOM     67  C   UNL A   1      46.558  35.367  29.732  1.00  0.00     0.054 A 
BRANCH  67  68
ATOM     68  S   UNL A   1      46.820  37.062  30.321  1.00  0.00     0.124 S 
ATOM     69  O   UNL A   1      45.683  37.768  29.732  1.00  0.00    -0.237 OA
ATOM     70  O   UNL A   1      46.776  36.902  31.771  1.00  0.00    -0.237 OA
ATOM     71  O   UNL A   1      48.123  37.425  29.772  1.00  0.00    -0.744 OA
ENDBRANCH  67  68
ENDBRANCH  48  62
BRANCH  49  72
ATOM     72  C   UNL A   1      44.500  23.427  25.659  1.00  0.00    -0.014 A 
ATOM     73  C   UNL A   1      44.966  22.957  24.419  1.00  0.00     0.010 A 
ATOM     74  C   UNL A   1      43.895  22.524  26.552  1.00  0.00     0.010 A 
ATOM     75  C   UNL A   1      44.864  21.602  24.094  1.00  0.00     0.020 A 
ATOM     76  C   UNL A   1      43.806  21.165  26.237  1.00  0.00     0.020 A 
ATOM     77  C   UNL A   1      44.306  20.711  25.016  1.00  0.00     0.054 A 
BRANCH  77  78
ATOM     78  S   UNL A   1      44.306  18.940  24.617  1.00  0.00     0.124 S 
ATOM     79  O   UNL A   1      45.545  18.481  25.234  1.00  0.00    -0.237 OA
ATOM     80  O   UNL A   1      43.073  18.485  25.256  1.00  0.00    -0.237 OA
ATOM     81  O   UNL A   1      44.289  18.916  23.156  1.00  0.00    -0.744 OA
ENDBRANCH  77  78
ENDBRANCH  49  72
BRANCH  61  82
ATOM     82  C   UNL A   1      50.185  27.527  25.853  1.00  0.00    -0.014 A 
ATOM     83  C   UNL A   1      51.104  26.982  26.766  1.00  0.00     0.010 A 
ATOM     84  C   UNL A   1      50.584  27.756  24.523  1.00  0.00     0.010 A 
ATOM     85  C   UNL A   1      52.399  26.663  26.350  1.00  0.00     0.020 A 
ATOM     86  C   UNL A   1      51.872  27.419  24.100  1.00  0.00     0.020 A 
ATOM     87  C   UNL A   1      52.770  26.870  25.017  1.00  0.00     0.054 A 
BRANCH  87  88
ATOM     88  S   UNL A   1      54.435  26.374  24.495  1.00  0.00     0.124 S 
ATOM     89  O   UNL A   1      54.377  26.576  23.049  1.00  0.00    -0.237 OA
ATOM     90  O   UNL A   1      55.284  27.310  25.227  1.00  0.00    -0.237 OA
ATOM     91  O   UNL A   1      54.534  24.980  24.922  1.00  0.00    -0.744 OA
ENDBRANCH  87  88
ENDBRANCH  61  82
ENDBRANCH  35  36
ENDBRANCH  27  30
ENDBRANCH  25  26
ENDBRANCH   1  25
TORSDOF 15
ENDMDL
MODEL 2
REMARK VINA RESULT:     -12.6      1.008      8.120
REMARK SMILES CCC[C@@H]1CCc2nc3c(F)cccc3c(C(=O)NCCCNC(=O)c3ccc(-c4c5nc(c(-c6ccc(S(=O)(=O)[O-])cc6)c6ccc([nH]6)c(-c6ccc(S(=O)(=O)[O-])cc6)c6nc(c(-c7ccc(S(=O)(=O)[O-])cc7)c7ccc4[nH]7)C=C6)C=C5)cc3)c2C1
REMARK SMILES IDX 21 1 20 2 19 3 17 4 18 5 16 7 4 8 5 9 87 10 6 11 86 12 7 13
REMARK SMILES IDX 8 14 15 15 9 16 14 17 10 18 13 19 11 20 12 21 3 22 2 23 1 24
REMARK SMILES IDX 22 25 23 26 24 27 25 29 26 30 27 31 85 32 28 33 84 34 29 35
REMARK SMILES IDX 30 36 31 37 78 38 32 39 83 40 77 41 79 42 33 43 82 44 76 45
REMARK SMILES IDX 75 46 34 48 64 49 45 50 63 51 46 52 49 53 62 54 80 55 47 56
REMARK SMILES IDX 48 57 61 59 81 60 50 61 35 62 36 63 44 64 37 65 43 66 38 67
REMARK SMILES IDX 39 68 40 69 41 70 42 71 65 72 66 73 74 74 67 75 73 76 68 77
REMARK SMILES IDX 69 78 70 79 71 80 72 81 51 82 52 83 60 84 53 85 59 86 54 87
REMARK SMILES IDX 55 88 56 89 57 90 58 91
REMARK H PARENT 19 6 23 28 79 47 49 58
REMARK Flexibility Score: inf
ROOT
ATOM      1  C   UNL A   1      34.287  30.820  27.254  1.00  0.00     0.042 C 
ENDROOT
BRANCH   1   2
ATOM      2  C   UNL A   1      33.538  29.580  26.742  1.00  0.00     0.118 C 
BRANCH   2   3
ATOM      3  N   UNL A   1      33.308  29.711  25.311  1.00  0.00    -0.352 N 
ATOM      4  C   UNL A   1      33.091  28.787  24.312  1.00  0.00     0.252 C 
ATOM      5  O   UNL A   1      33.568  29.089  23.217  1.00  0.00    -0.269 OA
ATOM      6  H   UNL A   1      33.309  30.643  24.994  1.00  0.00     0.163 HD
BRANCH   4   7
ATOM      7  C   UNL A   1      32.195  27.582  24.442  1.00  0.00     0.054 A 
ATOM      8  C   UNL A   1      28.987  28.827  22.612  1.00  0.00    -0.006 C 
ATOM      9  C   UNL A   1      27.990  28.025  23.451  1.00  0.00     0.010 C 
ATOM     10  C   UNL A   1      30.305  28.978  23.381  1.00  0.00     0.042 C 
ATOM     11  C   UNL A   1      28.568  26.641  23.738  1.00  0.00     0.057 C 
ATOM     12  C   UNL A   1      30.849  27.717  24.013  1.00  0.00    -0.013 A 
ATOM     13  C   UNL A   1      29.972  26.670  24.285  1.00  0.00     0.045 A 
ATOM     14  N   UNL A   1      30.337  25.578  24.989  1.00  0.00    -0.249 NA
ATOM     15  C   UNL A   1      32.620  26.335  24.973  1.00  0.00     0.016 A 
ATOM     16  C   UNL A   1      31.626  25.405  25.327  1.00  0.00     0.107 A 
ATOM     17  C   UNL A   1      33.964  25.929  25.123  1.00  0.00     0.011 A 
ATOM     18  C   UNL A   1      32.008  24.258  26.027  1.00  0.00     0.149 A 
ATOM     19  C   UNL A   1      34.330  24.780  25.819  1.00  0.00     0.004 A 
ATOM     20  F   UNL A   1      31.072  23.388  26.444  1.00  0.00    -0.205 F 
ATOM     21  C   UNL A   1      33.337  23.956  26.314  1.00  0.00     0.041 A 
BRANCH   8  22
ATOM     22  C   UNL A   1      28.410  30.170  22.107  1.00  0.00     0.003 C 
BRANCH  22  23
ATOM     23  C   UNL A   1      27.780  31.119  23.136  1.00  0.00    -0.003 C 
ATOM     24  C   UNL A   1      28.511  32.452  23.293  1.00  0.00     0.004 C 
ENDBRANCH  22  23
ENDBRANCH   8  22
ENDBRANCH   4   7
ENDBRANCH   2   3
ENDBRANCH   1   2
BRANCH   1  25
ATOM     25  C   UNL A   1      35.640  30.505  27.878  1.00  0.00     0.118 C 
BRANCH  25  26
ATOM     26  N   UNL A   1      35.534  30.315  29.314  1.00  0.00    -0.352 N 
ATOM     27  C   UNL A   1      36.445  29.763  30.177  1.00  0.00     0.251 C 
ATOM     28  H   UNL A   1      34.692  30.624  29.722  1.00  0.00     0.163 HD
ATOM     29  O   UNL A   1      36.075  29.412  31.303  1.00  0.00    -0.269 OA
BRANCH  27  30
ATOM     30  C   UNL A   1      37.856  29.576  29.773  1.00  0.00     0.039 A 
ATOM     31  C   UNL A   1      38.176  29.528  28.412  1.00  0.00     0.014 A 
ATOM     32  C   UNL A   1      38.857  29.386  30.732  1.00  0.00     0.014 A 
ATOM     33  C   UNL A   1      39.499  29.323  28.016  1.00  0.00     0.010 A 
ATOM     34  C   UNL A   1      40.187  29.257  30.337  1.00  0.00     0.010 A 
ATOM     35  C   UNL A   1      40.515  29.194  28.976  1.00  0.00    -0.014 A 
BRANCH  35  36
ATOM     36  C   UNL A   1      41.913  28.900  28.578  1.00  0.00     0.031 A 
ATOM     37  C   UNL A   1      42.296  27.497  28.195  1.00  0.00     0.074 A 
ATOM     38  C   UNL A   1      42.839  29.878  28.574  1.00  0.00     0.049 A 
ATOM     39  N   UNL A   1      43.463  27.030  27.836  1.00  0.00    -0.248 NA
ATOM     40  C   UNL A   1      41.229  26.483  28.236  1.00  0.00     0.031 C 
ATOM     41  C   UNL A   1      42.594  31.274  28.937  1.00  0.00     0.029 A 
ATOM     42  N   UNL A   1      44.171  29.844  28.248  1.00  0.00    -0.354 N 
ATOM     43  C   UNL A   1      43.268  25.675  27.599  1.00  0.00     0.074 A 
ATOM     44  C   UNL A   1      41.891  25.380  27.923  1.00  0.00     0.031 C 
ATOM     45  C   UNL A   1      43.731  31.971  28.784  1.00  0.00     0.029 A 
ATOM     46  C   UNL A   1      44.792  31.067  28.342  1.00  0.00     0.049 A 
ATOM     47  H   UNL A   1      44.639  29.023  27.974  1.00  0.00     0.167 HD
ATOM     48  C   UNL A   1      44.144  24.763  27.120  1.00  0.00     0.031 A 
ATOM     49  C   UNL A   1      46.068  31.424  28.097  1.00  0.00     0.031 A 
ATOM     50  C   UNL A   1      45.515  25.054  26.804  1.00  0.00     0.049 A 
ATOM     51  C   UNL A   1      47.046  30.389  27.620  1.00  0.00     0.074 A 
ATOM     52  C   UNL A   1      46.483  24.199  26.306  1.00  0.00     0.029 A 
ATOM     53  N   UNL A   1      46.111  26.297  26.951  1.00  0.00    -0.354 N 
ATOM     54  N   UNL A   1      46.839  29.114  27.389  1.00  0.00    -0.248 NA
ATOM     55  C   UNL A   1      48.422  30.835  27.364  1.00  0.00     0.031 C 
ATOM     56  C   UNL A   1      47.676  24.917  26.192  1.00  0.00     0.029 A 
ATOM     57  C   UNL A   1      47.439  26.231  26.569  1.00  0.00     0.049 A 
ATOM     58  H   UNL A   1      45.657  27.107  27.278  1.00  0.00     0.167 HD
ATOM     59  C   UNL A   1      48.056  28.606  26.948  1.00  0.00     0.074 A 
ATOM     60  C   UNL A   1      48.992  29.713  26.940  1.00  0.00     0.031 C 
ATOM     61  C   UNL A   1      48.362  27.339  26.578  1.00  0.00     0.031 A 
BRANCH  48  62
ATOM     62  C   UNL A   1      43.630  23.366  26.899  1.00  0.00    -0.014 A 
ATOM     63  C   UNL A   1      43.213  22.581  27.989  1.00  0.00     0.010 A 
ATOM     64  C   UNL A   1      43.550  22.837  25.600  1.00  0.00     0.010 A 
ATOM     65  C   UNL A   1      42.765  21.274  27.788  1.00  0.00     0.020 A 
ATOM     66  C   UNL A   1      43.075  21.538  25.392  1.00  0.00     0.020 A 
ATOM     67  C   UNL A   1      42.700  20.761  26.489  1.00  0.00     0.054 A 
BRANCH  67  68
ATOM     68  S   UNL A   1      42.123  19.056  26.266  1.00  0.00     0.124 S 
ATOM     69  O   UNL A   1      42.230  18.519  27.622  1.00  0.00    -0.237 OA
ATOM     70  O   UNL A   1      40.763  19.246  25.771  1.00  0.00    -0.237 OA
ATOM     71  O   UNL A   1      43.065  18.492  25.304  1.00  0.00    -0.744 OA
ENDBRANCH  67  68
ENDBRANCH  48  62
BRANCH  49  72
ATOM     72  C   UNL A   1      46.454  32.850  28.267  1.00  0.00    -0.014 A 
ATOM     73  C   UNL A   1      47.008  33.290  29.481  1.00  0.00     0.010 A 
ATOM     74  C   UNL A   1      46.388  33.739  27.179  1.00  0.00     0.010 A 
ATOM     75  C   UNL A   1      47.525  34.584  29.593  1.00  0.00     0.020 A 
ATOM     76  C   UNL A   1      46.919  35.028  27.283  1.00  0.00     0.020 A 
ATOM     77  C   UNL A   1      47.498  35.436  28.485  1.00  0.00     0.054 A 
BRANCH  77  78
ATOM     78  S   UNL A   1      48.291  37.063  28.625  1.00  0.00     0.124 S 
ATOM     79  O   UNL A   1      48.871  37.013  29.962  1.00  0.00    -0.237 OA
ATOM     80  O   UNL A   1      49.245  37.032  27.519  1.00  0.00    -0.237 OA
ATOM     81  O   UNL A   1      47.183  38.001  28.458  1.00  0.00    -0.744 OA
ENDBRANCH  77  78
ENDBRANCH  49  72
BRANCH  61  82
ATOM     82  C   UNL A   1      49.767  27.053  26.124  1.00  0.00    -0.014 A 
ATOM     83  C   UNL A   1      50.713  26.516  27.013  1.00  0.00     0.010 A 
ATOM     84  C   UNL A   1      50.098  27.193  24.763  1.00  0.00     0.010 A 
ATOM     85  C   UNL A   1      51.968  26.118  26.545  1.00  0.00     0.020 A 
ATOM     86  C   UNL A   1      51.344  26.777  24.289  1.00  0.00     0.020 A 
ATOM     87  C   UNL A   1      52.270  26.237  25.184  1.00  0.00     0.054 A 
BRANCH  87  88
ATOM     88  S   UNL A   1      53.880  25.640  24.599  1.00  0.00     0.124 S 
ATOM     89  O   UNL A   1      54.799  26.226  25.572  1.00  0.00    -0.237 OA
ATOM     90  O   UNL A   1      53.722  24.189  24.678  1.00  0.00    -0.237 OA
ATOM     91  O   UNL A   1      53.982  26.181  23.246  1.00  0.00    -0.744 OA
ENDBRANCH  87  88
ENDBRANCH  61  82
ENDBRANCH  35  36
ENDBRANCH  27  30
ENDBRANCH  25  26
ENDBRANCH   1  25
TORSDOF 15
ENDMDL
MODEL 3
REMARK VINA RESULT:     -12.5      6.042      8.047
REMARK SMILES CCC[C@@H]1CCc2nc3c(F)cccc3c(C(=O)NCCCNC(=O)c3ccc(-c4c5nc(c(-c6ccc(S(=O)(=O)[O-])cc6)c6ccc([nH]6)c(-c6ccc(S(=O)(=O)[O-])cc6)c6nc(c(-c7ccc(S(=O)(=O)[O-])cc7)c7ccc4[nH]7)C=C6)C=C5)cc3)c2C1
REMARK SMILES IDX 21 1 20 2 19 3 17 4 18 5 16 7 4 8 5 9 87 10 6 11 86 12 7 13
REMARK SMILES IDX 8 14 15 15 9 16 14 17 10 18 13 19 11 20 12 21 3 22 2 23 1 24
REMARK SMILES IDX 22 25 23 26 24 27 25 29 26 30 27 31 85 32 28 33 84 34 29 35
REMARK SMILES IDX 30 36 31 37 78 38 32 39 83 40 77 41 79 42 33 43 82 44 76 45
REMARK SMILES IDX 75 46 34 48 64 49 45 50 63 51 46 52 49 53 62 54 80 55 47 56
REMARK SMILES IDX 48 57 61 59 81 60 50 61 35 62 36 63 44 64 37 65 43 66 38 67
REMARK SMILES IDX 39 68 40 69 41 70 42 71 65 72 66 73 74 74 67 75 73 76 68 77
REMARK SMILES IDX 69 78 70 79 71 80 72 81 51 82 52 83 60 84 53 85 59 86 54 87
REMARK SMILES IDX 55 88 56 89 57 90 58 91
REMARK H PARENT 19 6 23 28 79 47 49 58
REMARK Flexibility Score: inf
ROOT
ATOM      1  C   UNL A   1      31.784  31.825  26.802  1.00  0.00     0.042 C 
ENDROOT
BRANCH   1   2
ATOM      2  C   UNL A   1      31.989  30.325  26.544  1.00  0.00     0.118 C 
BRANCH   2   3
ATOM      3  N   UNL A   1      32.388  30.123  25.158  1.00  0.00    -0.352 N 
ATOM      4  C   UNL A   1      32.686  28.994  24.428  1.00  0.00     0.252 C 
ATOM      5  O   UNL A   1      33.564  29.145  23.578  1.00  0.00    -0.269 OA
ATOM      6  H   UNL A   1      32.459  30.958  24.642  1.00  0.00     0.163 HD
BRANCH   4   7
ATOM      7  C   UNL A   1      31.908  27.704  24.492  1.00  0.00     0.054 A 
ATOM      8  C   UNL A   1      28.576  28.748  22.759  1.00  0.00    -0.006 C 
ATOM      9  C   UNL A   1      27.668  27.808  23.555  1.00  0.00     0.010 C 
ATOM     10  C   UNL A   1      29.883  28.976  23.527  1.00  0.00     0.042 C 
ATOM     11  C   UNL A   1      28.375  26.470  23.756  1.00  0.00     0.057 C 
ATOM     12  C   UNL A   1      30.550  27.737  24.080  1.00  0.00    -0.013 A 
ATOM     13  C   UNL A   1      29.777  26.598  24.295  1.00  0.00     0.045 A 
ATOM     14  N   UNL A   1      30.251  25.506  24.931  1.00  0.00    -0.249 NA
ATOM     15  C   UNL A   1      32.452  26.474  24.946  1.00  0.00     0.016 A 
ATOM     16  C   UNL A   1      31.554  25.436  25.250  1.00  0.00     0.107 A 
ATOM     17  C   UNL A   1      33.830  26.187  25.064  1.00  0.00     0.011 A 
ATOM     18  C   UNL A   1      32.050  24.290  25.879  1.00  0.00     0.149 A 
ATOM     19  C   UNL A   1      34.310  25.038  25.688  1.00  0.00     0.004 A 
ATOM     20  F   UNL A   1      31.203  23.313  26.250  1.00  0.00    -0.205 F 
ATOM     21  C   UNL A   1      33.404  24.099  26.139  1.00  0.00     0.041 A 
BRANCH   8  22
ATOM     22  C   UNL A   1      27.871  30.058  22.338  1.00  0.00     0.003 C 
BRANCH  22  23
ATOM     23  C   UNL A   1      27.675  31.148  23.401  1.00  0.00    -0.003 C 
ATOM     24  C   UNL A   1      28.940  31.940  23.729  1.00  0.00     0.004 C 
ENDBRANCH  22  23
ENDBRANCH   8  22
ENDBRANCH   4   7
ENDBRANCH   2   3
ENDBRANCH   1   2
BRANCH   1  25
ATOM     25  C   UNL A   1      33.052  32.554  27.227  1.00  0.00     0.118 C 
BRANCH  25  26
ATOM     26  N   UNL A   1      32.762  33.894  27.706  1.00  0.00    -0.352 N 
ATOM     27  C   UNL A   1      33.251  34.534  28.815  1.00  0.00     0.251 C 
ATOM     28  H   UNL A   1      32.125  34.411  27.161  1.00  0.00     0.163 HD
ATOM     29  O   UNL A   1      32.678  35.546  29.232  1.00  0.00    -0.269 OA
BRANCH  27  30
ATOM     30  C   UNL A   1      34.448  34.022  29.520  1.00  0.00     0.039 A 
ATOM     31  C   UNL A   1      35.717  34.409  29.079  1.00  0.00     0.014 A 
ATOM     32  C   UNL A   1      34.323  33.114  30.577  1.00  0.00     0.014 A 
ATOM     33  C   UNL A   1      36.856  33.911  29.717  1.00  0.00     0.010 A 
ATOM     34  C   UNL A   1      35.456  32.678  31.260  1.00  0.00     0.010 A 
ATOM     35  C   UNL A   1      36.733  33.049  30.817  1.00  0.00    -0.014 A 
BRANCH  35  36
ATOM     36  C   UNL A   1      37.928  32.450  31.460  1.00  0.00     0.031 A 
ATOM     37  C   UNL A   1      38.406  32.987  32.781  1.00  0.00     0.074 A 
ATOM     38  C   UNL A   1      38.590  31.444  30.860  1.00  0.00     0.049 A 
ATOM     39  N   UNL A   1      39.436  32.617  33.497  1.00  0.00    -0.248 NA
ATOM     40  C   UNL A   1      37.633  34.096  33.367  1.00  0.00     0.031 C 
ATOM     41  C   UNL A   1      38.232  30.845  29.574  1.00  0.00     0.029 A 
ATOM     42  N   UNL A   1      39.702  30.744  31.258  1.00  0.00    -0.354 N 
ATOM     43  C   UNL A   1      39.427  33.438  34.618  1.00  0.00     0.074 A 
ATOM     44  C   UNL A   1      38.336  34.371  34.454  1.00  0.00     0.031 C 
ATOM     45  C   UNL A   1      39.089  29.848  29.303  1.00  0.00     0.029 A 
ATOM     46  C   UNL A   1      40.073  29.755  30.379  1.00  0.00     0.049 A 
ATOM     47  H   UNL A   1      40.187  30.932  32.093  1.00  0.00     0.167 HD
ATOM     48  C   UNL A   1      40.232  33.397  35.704  1.00  0.00     0.031 A 
ATOM     49  C   UNL A   1      41.088  28.870  30.433  1.00  0.00     0.031 A 
ATOM     50  C   UNL A   1      41.321  32.475  35.865  1.00  0.00     0.049 A 
ATOM     51  C   UNL A   1      42.010  28.874  31.619  1.00  0.00     0.074 A 
ATOM     52  C   UNL A   1      42.191  32.350  36.933  1.00  0.00     0.029 A 
ATOM     53  N   UNL A   1      41.685  31.516  34.933  1.00  0.00    -0.354 N 
ATOM     54  N   UNL A   1      41.978  29.650  32.676  1.00  0.00    -0.248 NA
ATOM     55  C   UNL A   1      43.096  27.885  31.627  1.00  0.00     0.031 C 
ATOM     56  C   UNL A   1      43.109  31.341  36.627  1.00  0.00     0.029 A 
ATOM     57  C   UNL A   1      42.778  30.804  35.392  1.00  0.00     0.049 A 
ATOM     58  H   UNL A   1      41.233  31.364  34.071  1.00  0.00     0.167 HD
ATOM     59  C   UNL A   1      43.031  29.235  33.483  1.00  0.00     0.074 A 
ATOM     60  C   UNL A   1      43.678  28.137  32.793  1.00  0.00     0.031 C 
ATOM     61  C   UNL A   1      43.419  29.720  34.688  1.00  0.00     0.031 A 
BRANCH  48  62
ATOM     62  C   UNL A   1      39.945  34.380  36.808  1.00  0.00    -0.014 A 
ATOM     63  C   UNL A   1      40.511  35.668  36.780  1.00  0.00     0.010 A 
ATOM     64  C   UNL A   1      39.099  34.024  37.872  1.00  0.00     0.010 A 
ATOM     65  C   UNL A   1      40.270  36.568  37.819  1.00  0.00     0.020 A 
ATOM     66  C   UNL A   1      38.833  34.933  38.900  1.00  0.00     0.020 A 
ATOM     67  C   UNL A   1      39.432  36.194  38.874  1.00  0.00     0.054 A 
BRANCH  67  68
ATOM     68  S   UNL A   1      39.150  37.385  40.212  1.00  0.00     0.124 S 
ATOM     69  O   UNL A   1      38.525  36.550  41.236  1.00  0.00    -0.237 OA
ATOM     70  O   UNL A   1      40.502  37.844  40.515  1.00  0.00    -0.237 OA
ATOM     71  O   UNL A   1      38.271  38.384  39.611  1.00  0.00    -0.744 OA
ENDBRANCH  67  68
ENDBRANCH  48  62
BRANCH  49  72
ATOM     72  C   UNL A   1      41.234  27.886  29.328  1.00  0.00    -0.014 A 
ATOM     73  C   UNL A   1      42.247  28.050  28.367  1.00  0.00     0.010 A 
ATOM     74  C   UNL A   1      40.449  26.720  29.306  1.00  0.00     0.010 A 
ATOM     75  C   UNL A   1      42.496  27.047  27.426  1.00  0.00     0.020 A 
ATOM     76  C   UNL A   1      40.706  25.708  28.377  1.00  0.00     0.020 A 
ATOM     77  C   UNL A   1      41.739  25.871  27.453  1.00  0.00     0.054 A 
BRANCH  77  78
ATOM     78  S   UNL A   1      42.171  24.537  26.302  1.00  0.00     0.124 S 
ATOM     79  O   UNL A   1      43.338  23.939  26.941  1.00  0.00    -0.237 OA
ATOM     80  O   UNL A   1      40.957  23.724  26.309  1.00  0.00    -0.237 OA
ATOM     81  O   UNL A   1      42.436  25.238  25.046  1.00  0.00    -0.744 OA
ENDBRANCH  77  78
ENDBRANCH  49  72
BRANCH  61  82
ATOM     82  C   UNL A   1      44.599  29.077  35.364  1.00  0.00    -0.014 A 
ATOM     83  C   UNL A   1      44.426  27.960  36.198  1.00  0.00     0.010 A 
ATOM     84  C   UNL A   1      45.900  29.511  35.049  1.00  0.00     0.010 A 
ATOM     85  C   UNL A   1      45.539  27.282  36.701  1.00  0.00     0.020 A 
ATOM     86  C   UNL A   1      47.014  28.822  35.534  1.00  0.00     0.020 A 
ATOM     87  C   UNL A   1      46.826  27.709  36.354  1.00  0.00     0.054 A 
BRANCH  87  88
ATOM     88  S   UNL A   1      48.246  26.760  36.964  1.00  0.00     0.124 S 
ATOM     89  O   UNL A   1      47.641  25.469  37.285  1.00  0.00    -0.237 OA
ATOM     90  O   UNL A   1      49.142  26.763  35.809  1.00  0.00    -0.237 OA
ATOM     91  O   UNL A   1      48.713  27.529  38.115  1.00  0.00    -0.744 OA
ENDBRANCH  87  88
ENDBRANCH  61  82
ENDBRANCH  35  36
ENDBRANCH  27  30
ENDBRANCH  25  26
ENDBRANCH   1  25
TORSDOF 15
ENDMDL
