MODEL 1
REMARK VINA RESULT:     -11.3      0.000      0.000
REMARK SMILES CCN(CC)c1ccc(NS(=O)(=O)c2ccc(Cl)s2)cc1C(=O)NCCCNC(=O)c1ccc(-c2c3nc(c(-c4ccc(S(=O)(=O)[O-])cc4)c4ccc([nH]4)c(-c4ccc(S(=O)(=O)[O-])cc4)c4nc(c(-c5ccc(S(=O)(=O)[O-])cc5)c5ccc2[nH]5)C=C4)C=C3)cc1
REMARK SMILES IDX 26 1 25 2 24 3 22 4 23 5 21 7 6 8 7 9 8 10 20 11 9 12 3 13
REMARK SMILES IDX 2 14 1 15 4 16 5 17 10 18 11 20 12 21 13 22 14 23 15 24
REMARK SMILES IDX 19 25 16 26 17 27 18 28 27 29 28 30 29 31 30 33 31 34 32 35
REMARK SMILES IDX 90 36 33 37 89 38 34 39 35 40 36 41 83 42 37 43 88 44 82 45
REMARK SMILES IDX 84 46 38 47 87 48 81 49 80 50 39 52 69 53 50 54 68 55 51 56
REMARK SMILES IDX 54 57 67 58 85 59 52 60 53 61 66 63 86 64 55 65 40 66 41 67
REMARK SMILES IDX 49 68 42 69 48 70 43 71 44 72 45 73 46 74 47 75 70 76 71 77
REMARK SMILES IDX 79 78 72 79 78 80 73 81 74 82 75 83 76 84 77 85 56 86 57 87
REMARK SMILES IDX 65 88 58 89 64 90 59 91 60 92 61 93 62 94 63 95
REMARK H PARENT 24 6 10 19 28 32 84 51 54 62
REMARK Flexibility Score: inf
ROOT
ATOM      1  C   UNL A   1      38.769  22.075  25.994  1.00  0.00     0.042 C 
ENDROOT
BRANCH   1   2
ATOM      2  C   UNL A   1      37.270  22.160  25.749  1.00  0.00     0.118 C 
BRANCH   2   3
ATOM      3  N   UNL A   1      36.930  22.492  24.388  1.00  0.00    -0.352 N 
ATOM      4  C   UNL A   1      35.745  22.886  23.839  1.00  0.00     0.253 C 
ATOM      5  O   UNL A   1      35.752  23.141  22.629  1.00  0.00    -0.269 OA
ATOM      6  H   UNL A   1      37.677  22.424  23.749  1.00  0.00     0.163 HD
BRANCH   4   7
ATOM      7  C   UNL A   1      34.435  22.951  24.543  1.00  0.00     0.065 A 
ATOM      8  C   UNL A   1      33.570  21.880  24.852  1.00  0.00     0.050 A 
ATOM      9  C   UNL A   1      32.630  22.094  25.877  1.00  0.00     0.029 A 
ATOM     10  C   UNL A   1      32.433  23.342  26.462  1.00  0.00     0.029 A 
ATOM     11  C   UNL A   1      34.193  24.224  25.112  1.00  0.00     0.042 A 
ATOM     12  C   UNL A   1      33.157  24.437  26.018  1.00  0.00     0.050 A 
BRANCH   8  13
ATOM     13  N   UNL A   1      33.550  20.651  24.201  1.00  0.00    -0.371 N 
BRANCH  13  14
ATOM     14  C   UNL A   1      34.239  19.511  24.813  1.00  0.00     0.113 C 
ATOM     15  C   UNL A   1      33.843  18.194  24.161  1.00  0.00     0.027 C 
ENDBRANCH  13  14
BRANCH  13  16
ATOM     16  C   UNL A   1      32.362  20.369  23.363  1.00  0.00     0.113 C 
ATOM     17  C   UNL A   1      32.003  21.462  22.371  1.00  0.00     0.027 C 
ENDBRANCH  13  16
ENDBRANCH   8  13
BRANCH  12  18
ATOM     18  N   UNL A   1      32.852  25.791  26.350  1.00  0.00    -0.279 N 
ATOM     19  H   UNL A   1      33.261  26.180  27.156  1.00  0.00     0.180 HD
BRANCH  18  20
ATOM     20  S   UNL A   1      31.829  26.750  25.427  1.00  0.00     0.271 S 
ATOM     21  O   UNL A   1      32.182  26.574  24.036  1.00  0.00    -0.200 OA
ATOM     22  O   UNL A   1      30.483  26.509  25.904  1.00  0.00    -0.200 OA
BRANCH  20  23
ATOM     23  C   UNL A   1      32.174  28.452  25.837  1.00  0.00     0.141 A 
ATOM     24  C   UNL A   1      31.490  29.629  25.576  1.00  0.00     0.036 A 
ATOM     25  S   UNL A   1      33.564  28.737  26.799  1.00  0.00    -0.110 S 
ATOM     26  C   UNL A   1      32.059  30.748  26.254  1.00  0.00     0.034 A 
ATOM     27  C   UNL A   1      33.177  30.377  26.956  1.00  0.00     0.094 A 
ATOM     28  Cl  UNL A   1      34.154  31.391  27.937  1.00  0.00    -0.072 Cl
ENDBRANCH  20  23
ENDBRANCH  18  20
ENDBRANCH  12  18
ENDBRANCH   4   7
ENDBRANCH   2   3
ENDBRANCH   1   2
BRANCH   1  29
ATOM     29  C   UNL A   1      39.347  23.364  26.580  1.00  0.00     0.118 C 
BRANCH  29  30
ATOM     30  N   UNL A   1      40.765  23.571  26.299  1.00  0.00    -0.352 N 
ATOM     31  C   UNL A   1      41.655  24.568  26.623  1.00  0.00     0.251 C 
ATOM     32  H   UNL A   1      41.168  22.846  25.770  1.00  0.00     0.163 HD
ATOM     33  O   UNL A   1      42.790  24.523  26.151  1.00  0.00    -0.269 OA
BRANCH  31  34
ATOM     34  C   UNL A   1      41.259  25.724  27.462  1.00  0.00     0.039 A 
ATOM     35  C   UNL A   1      40.359  25.522  28.515  1.00  0.00     0.014 A 
ATOM     36  C   UNL A   1      41.762  27.001  27.241  1.00  0.00     0.014 A 
ATOM     37  C   UNL A   1      40.088  26.559  29.415  1.00  0.00     0.010 A 
ATOM     38  C   UNL A   1      41.607  27.985  28.210  1.00  0.00     0.010 A 
ATOM     39  C   UNL A   1      40.783  27.775  29.323  1.00  0.00    -0.014 A 
BRANCH  39  40
ATOM     40  C   UNL A   1      40.710  28.827  30.377  1.00  0.00     0.031 A 
ATOM     41  C   UNL A   1      41.600  28.750  31.591  1.00  0.00     0.074 A 
ATOM     42  C   UNL A   1      39.740  29.764  30.322  1.00  0.00     0.049 A 
ATOM     43  N   UNL A   1      41.514  29.404  32.722  1.00  0.00    -0.248 NA
ATOM     44  C   UNL A   1      42.693  27.764  31.552  1.00  0.00     0.031 C 
ATOM     45  C   UNL A   1      38.756  29.918  29.247  1.00  0.00     0.029 A 
ATOM     46  N   UNL A   1      39.406  30.755  31.214  1.00  0.00    -0.354 N 
ATOM     47  C   UNL A   1      42.483  28.853  33.552  1.00  0.00     0.074 A 
ATOM     48  C   UNL A   1      43.127  27.796  32.803  1.00  0.00     0.031 C 
ATOM     49  C   UNL A   1      37.953  30.957  29.524  1.00  0.00     0.029 A 
ATOM     50  C   UNL A   1      38.325  31.510  30.821  1.00  0.00     0.049 A 
ATOM     51  H   UNL A   1      39.895  30.912  32.053  1.00  0.00     0.167 HD
ATOM     52  C   UNL A   1      42.817  29.198  34.820  1.00  0.00     0.031 A 
ATOM     53  C   UNL A   1      37.685  32.521  31.439  1.00  0.00     0.031 A 
ATOM     54  C   UNL A   1      42.235  30.302  35.534  1.00  0.00     0.049 A 
ATOM     55  C   UNL A   1      38.150  32.969  32.792  1.00  0.00     0.074 A 
ATOM     56  C   UNL A   1      42.569  30.791  36.785  1.00  0.00     0.029 A 
ATOM     57  N   UNL A   1      41.215  31.105  35.050  1.00  0.00    -0.354 N 
ATOM     58  N   UNL A   1      39.091  32.455  33.547  1.00  0.00    -0.248 NA
ATOM     59  C   UNL A   1      37.474  34.136  33.374  1.00  0.00     0.031 C 
ATOM     60  C   UNL A   1      41.741  31.886  37.062  1.00  0.00     0.029 A 
ATOM     61  C   UNL A   1      40.911  32.093  35.971  1.00  0.00     0.049 A 
ATOM     62  H   UNL A   1      40.772  30.991  34.178  1.00  0.00     0.167 HD
ATOM     63  C   UNL A   1      39.128  33.244  34.689  1.00  0.00     0.074 A 
ATOM     64  C   UNL A   1      38.128  34.278  34.519  1.00  0.00     0.031 C 
ATOM     65  C   UNL A   1      39.919  33.119  35.782  1.00  0.00     0.031 A 
BRANCH  52  66
ATOM     66  C   UNL A   1      43.865  28.363  35.507  1.00  0.00    -0.014 A 
ATOM     67  C   UNL A   1      45.232  28.673  35.395  1.00  0.00     0.010 A 
ATOM     68  C   UNL A   1      43.476  27.247  36.269  1.00  0.00     0.010 A 
ATOM     69  C   UNL A   1      46.195  27.841  35.972  1.00  0.00     0.020 A 
ATOM     70  C   UNL A   1      44.435  26.428  36.872  1.00  0.00     0.020 A 
ATOM     71  C   UNL A   1      45.790  26.714  36.693  1.00  0.00     0.054 A 
BRANCH  71  72
ATOM     72  S   UNL A   1      47.056  25.632  37.413  1.00  0.00     0.124 S 
ATOM     73  O   UNL A   1      46.564  24.309  37.039  1.00  0.00    -0.237 OA
ATOM     74  O   UNL A   1      48.277  26.062  36.737  1.00  0.00    -0.237 OA
ATOM     75  O   UNL A   1      46.998  25.940  38.841  1.00  0.00    -0.744 OA
ENDBRANCH  71  72
ENDBRANCH  52  66
BRANCH  53  76
ATOM     76  C   UNL A   1      36.546  33.191  30.758  1.00  0.00    -0.014 A 
ATOM     77  C   UNL A   1      35.272  33.188  31.352  1.00  0.00     0.010 A 
ATOM     78  C   UNL A   1      36.740  33.878  29.546  1.00  0.00     0.010 A 
ATOM     79  C   UNL A   1      34.208  33.859  30.743  1.00  0.00     0.020 A 
ATOM     80  C   UNL A   1      35.681  34.567  28.946  1.00  0.00     0.020 A 
ATOM     81  C   UNL A   1      34.420  34.547  29.546  1.00  0.00     0.054 A 
BRANCH  81  82
ATOM     82  S   UNL A   1      33.048  35.485  28.815  1.00  0.00     0.124 S 
ATOM     83  O   UNL A   1      32.357  35.980  30.000  1.00  0.00    -0.237 OA
ATOM     84  O   UNL A   1      33.741  36.492  28.016  1.00  0.00    -0.237 OA
ATOM     85  O   UNL A   1      32.327  34.478  28.040  1.00  0.00    -0.744 OA
ENDBRANCH  81  82
ENDBRANCH  53  76
BRANCH  65  86
ATOM     86  C   UNL A   1      39.756  34.142  36.870  1.00  0.00    -0.014 A 
ATOM     87  C   UNL A   1      38.965  33.876  38.000  1.00  0.00     0.010 A 
ATOM     88  C   UNL A   1      40.451  35.362  36.784  1.00  0.00     0.010 A 
ATOM     89  C   UNL A   1      38.855  34.823  39.022  1.00  0.00     0.020 A 
ATOM     90  C   UNL A   1      40.357  36.303  37.811  1.00  0.00     0.020 A 
ATOM     91  C   UNL A   1      39.550  36.032  38.919  1.00  0.00     0.054 A 
BRANCH  91  92
ATOM     92  S   UNL A   1      39.439  37.226  40.280  1.00  0.00     0.124 S 
ATOM     93  O   UNL A   1      38.596  36.515  41.238  1.00  0.00    -0.237 OA
ATOM     94  O   UNL A   1      40.835  37.397  40.677  1.00  0.00    -0.237 OA
ATOM     95  O   UNL A   1      38.827  38.399  39.660  1.00  0.00    -0.744 OA
ENDBRANCH  91  92
ENDBRANCH  65  86
ENDBRANCH  39  40
ENDBRANCH  31  34
ENDBRANCH  29  30
ENDBRANCH   1  29
TORSDOF 19
ENDMDL
MODEL 2
REMARK VINA RESULT:     -11.1      1.680      8.217
REMARK SMILES CCN(CC)c1ccc(NS(=O)(=O)c2ccc(Cl)s2)cc1C(=O)NCCCNC(=O)c1ccc(-c2c3nc(c(-c4ccc(S(=O)(=O)[O-])cc4)c4ccc([nH]4)c(-c4ccc(S(=O)(=O)[O-])cc4)c4nc(c(-c5ccc(S(=O)(=O)[O-])cc5)c5ccc2[nH]5)C=C4)C=C3)cc1
REMARK SMILES IDX 26 1 25 2 24 3 22 4 23 5 21 7 6 8 7 9 8 10 20 11 9 12 3 13
REMARK SMILES IDX 2 14 1 15 4 16 5 17 10 18 11 20 12 21 13 22 14 23 15 24
REMARK SMILES IDX 19 25 16 26 17 27 18 28 27 29 28 30 29 31 30 33 31 34 32 35
REMARK SMILES IDX 90 36 33 37 89 38 34 39 35 40 36 41 83 42 37 43 88 44 82 45
REMARK SMILES IDX 84 46 38 47 87 48 81 49 80 50 39 52 69 53 50 54 68 55 51 56
REMARK SMILES IDX 54 57 67 58 85 59 52 60 53 61 66 63 86 64 55 65 40 66 41 67
REMARK SMILES IDX 49 68 42 69 48 70 43 71 44 72 45 73 46 74 47 75 70 76 71 77
REMARK SMILES IDX 79 78 72 79 78 80 73 81 74 82 75 83 76 84 77 85 56 86 57 87
REMARK SMILES IDX 65 88 58 89 64 90 59 91 60 92 61 93 62 94 63 95
REMARK H PARENT 24 6 10 19 28 32 84 51 54 62
REMARK Flexibility Score: inf
ROOT
ATOM      1  C   UNL A   1      39.194  22.070  26.147  1.00  0.00     0.042 C 
ENDROOT
BRANCH   1   2
ATOM      2  C   UNL A   1      37.712  22.214  25.836  1.00  0.00     0.118 C 
BRANCH   2   3
ATOM      3  N   UNL A   1      37.437  22.424  24.436  1.00  0.00    -0.352 N 
ATOM      4  C   UNL A   1      36.341  22.945  23.814  1.00  0.00     0.253 C 
ATOM      5  O   UNL A   1      36.393  23.038  22.583  1.00  0.00    -0.269 OA
ATOM      6  H   UNL A   1      38.161  22.146  23.829  1.00  0.00     0.163 HD
BRANCH   4   7
ATOM      7  C   UNL A   1      35.062  23.327  24.474  1.00  0.00     0.065 A 
ATOM      8  C   UNL A   1      34.005  22.476  24.860  1.00  0.00     0.050 A 
ATOM      9  C   UNL A   1      33.115  22.964  25.834  1.00  0.00     0.029 A 
ATOM     10  C   UNL A   1      33.156  24.279  26.293  1.00  0.00     0.029 A 
ATOM     11  C   UNL A   1      35.064  24.672  24.913  1.00  0.00     0.042 A 
ATOM     12  C   UNL A   1      34.081  25.166  25.767  1.00  0.00     0.050 A 
BRANCH   8  13
ATOM     13  N   UNL A   1      33.754  21.215  24.328  1.00  0.00    -0.371 N 
BRANCH  13  14
ATOM     14  C   UNL A   1      34.212  20.031  25.061  1.00  0.00     0.113 C 
ATOM     15  C   UNL A   1      33.115  18.981  25.181  1.00  0.00     0.027 C 
ENDBRANCH  13  14
BRANCH  13  16
ATOM     16  C   UNL A   1      32.538  21.082  23.494  1.00  0.00     0.113 C 
ATOM     17  C   UNL A   1      32.420  22.093  22.366  1.00  0.00     0.027 C 
ENDBRANCH  13  16
ENDBRANCH   8  13
BRANCH  12  18
ATOM     18  N   UNL A   1      34.039  26.580  25.960  1.00  0.00    -0.279 N 
ATOM     19  H   UNL A   1      34.647  26.981  26.622  1.00  0.00     0.180 HD
BRANCH  18  20
ATOM     20  S   UNL A   1      33.002  27.588  25.109  1.00  0.00     0.271 S 
ATOM     21  O   UNL A   1      31.850  27.855  25.943  1.00  0.00    -0.200 OA
ATOM     22  O   UNL A   1      33.809  28.661  24.567  1.00  0.00    -0.200 OA
BRANCH  20  23
ATOM     23  C   UNL A   1      32.413  26.680  23.690  1.00  0.00     0.141 A 
ATOM     24  C   UNL A   1      31.231  25.999  23.445  1.00  0.00     0.036 A 
ATOM     25  S   UNL A   1      33.432  26.681  22.310  1.00  0.00    -0.110 S 
ATOM     26  C   UNL A   1      31.127  25.566  22.090  1.00  0.00     0.034 A 
ATOM     27  C   UNL A   1      32.255  25.894  21.384  1.00  0.00     0.094 A 
ATOM     28  Cl  UNL A   1      32.544  25.593  19.718  1.00  0.00    -0.072 Cl
ENDBRANCH  20  23
ENDBRANCH  18  20
ENDBRANCH  12  18
ENDBRANCH   4   7
ENDBRANCH   2   3
ENDBRANCH   1   2
BRANCH   1  29
ATOM     29  C   UNL A   1      39.758  23.269  26.909  1.00  0.00     0.118 C 
BRANCH  29  30
ATOM     30  N   UNL A   1      40.300  24.325  26.058  1.00  0.00    -0.352 N 
ATOM     31  C   UNL A   1      40.712  25.614  26.301  1.00  0.00     0.251 C 
ATOM     32  H   UNL A   1      40.390  24.058  25.115  1.00  0.00     0.163 HD
ATOM     33  O   UNL A   1      41.036  26.321  25.347  1.00  0.00    -0.269 OA
BRANCH  31  34
ATOM     34  C   UNL A   1      40.707  26.189  27.667  1.00  0.00     0.039 A 
ATOM     35  C   UNL A   1      41.802  26.954  28.087  1.00  0.00     0.014 A 
ATOM     36  C   UNL A   1      39.642  26.002  28.540  1.00  0.00     0.014 A 
ATOM     37  C   UNL A   1      41.755  27.635  29.308  1.00  0.00     0.010 A 
ATOM     38  C   UNL A   1      39.533  26.787  29.682  1.00  0.00     0.010 A 
ATOM     39  C   UNL A   1      40.581  27.631  30.076  1.00  0.00    -0.014 A 
BRANCH  39  40
ATOM     40  C   UNL A   1      40.389  28.514  31.262  1.00  0.00     0.031 A 
ATOM     41  C   UNL A   1      39.328  29.586  31.249  1.00  0.00     0.074 A 
ATOM     42  C   UNL A   1      41.265  28.459  32.287  1.00  0.00     0.049 A 
ATOM     43  N   UNL A   1      39.174  30.606  32.055  1.00  0.00    -0.248 NA
ATOM     44  C   UNL A   1      38.350  29.539  30.150  1.00  0.00     0.031 C 
ATOM     45  C   UNL A   1      42.389  27.526  32.405  1.00  0.00     0.029 A 
ATOM     46  N   UNL A   1      41.362  29.230  33.421  1.00  0.00    -0.354 N 
ATOM     47  C   UNL A   1      38.140  31.362  31.514  1.00  0.00     0.074 A 
ATOM     48  C   UNL A   1      37.722  30.695  30.300  1.00  0.00     0.031 C 
ATOM     49  C   UNL A   1      43.039  27.756  33.557  1.00  0.00     0.029 A 
ATOM     50  C   UNL A   1      42.417  28.888  34.233  1.00  0.00     0.049 A 
ATOM     51  H   UNL A   1      40.734  29.958  33.632  1.00  0.00     0.167 HD
ATOM     52  C   UNL A   1      37.580  32.502  31.987  1.00  0.00     0.031 A 
ATOM     53  C   UNL A   1      42.856  29.432  35.384  1.00  0.00     0.031 A 
ATOM     54  C   UNL A   1      37.938  33.118  33.236  1.00  0.00     0.049 A 
ATOM     55  C   UNL A   1      42.144  30.622  35.955  1.00  0.00     0.074 A 
ATOM     56  C   UNL A   1      37.367  34.220  33.848  1.00  0.00     0.029 A 
ATOM     57  N   UNL A   1      38.944  32.670  34.077  1.00  0.00    -0.354 N 
ATOM     58  N   UNL A   1      41.147  31.303  35.444  1.00  0.00    -0.248 NA
ATOM     59  C   UNL A   1      42.610  31.113  37.258  1.00  0.00     0.031 C 
ATOM     60  C   UNL A   1      38.037  34.446  35.056  1.00  0.00     0.029 A 
ATOM     61  C   UNL A   1      39.006  33.467  35.207  1.00  0.00     0.049 A 
ATOM     62  H   UNL A   1      39.528  31.899  33.897  1.00  0.00     0.167 HD
ATOM     63  C   UNL A   1      40.857  32.296  36.370  1.00  0.00     0.074 A 
ATOM     64  C   UNL A   1      41.772  32.117  37.479  1.00  0.00     0.031 C 
ATOM     65  C   UNL A   1      39.918  33.270  36.304  1.00  0.00     0.031 A 
BRANCH  52  66
ATOM     66  C   UNL A   1      36.517  33.149  31.139  1.00  0.00    -0.014 A 
ATOM     67  C   UNL A   1      36.854  33.938  30.025  1.00  0.00     0.010 A 
ATOM     68  C   UNL A   1      35.161  32.972  31.467  1.00  0.00     0.010 A 
ATOM     69  C   UNL A   1      35.859  34.597  29.298  1.00  0.00     0.020 A 
ATOM     70  C   UNL A   1      34.160  33.607  30.726  1.00  0.00     0.020 A 
ATOM     71  C   UNL A   1      34.519  34.440  29.664  1.00  0.00     0.054 A 
BRANCH  71  72
ATOM     72  S   UNL A   1      33.244  35.323  28.723  1.00  0.00     0.124 S 
ATOM     73  O   UNL A   1      32.515  36.011  29.785  1.00  0.00    -0.237 OA
ATOM     74  O   UNL A   1      34.026  36.184  27.839  1.00  0.00    -0.237 OA
ATOM     75  O   UNL A   1      32.509  34.253  28.053  1.00  0.00    -0.744 OA
ENDBRANCH  71  72
ENDBRANCH  52  66
BRANCH  53  76
ATOM     76  C   UNL A   1      44.023  28.829  36.081  1.00  0.00    -0.014 A 
ATOM     77  C   UNL A   1      45.310  29.358  35.884  1.00  0.00     0.010 A 
ATOM     78  C   UNL A   1      43.847  27.764  36.982  1.00  0.00     0.010 A 
ATOM     79  C   UNL A   1      46.404  28.830  36.574  1.00  0.00     0.020 A 
ATOM     80  C   UNL A   1      44.937  27.247  37.689  1.00  0.00     0.020 A 
ATOM     81  C   UNL A   1      46.211  27.779  37.475  1.00  0.00     0.054 A 
BRANCH  81  82
ATOM     82  S   UNL A   1      47.628  27.164  38.427  1.00  0.00     0.124 S 
ATOM     83  O   UNL A   1      48.596  28.241  38.257  1.00  0.00    -0.237 OA
ATOM     84  O   UNL A   1      47.071  27.016  39.769  1.00  0.00    -0.237 OA
ATOM     85  O   UNL A   1      47.961  25.906  37.761  1.00  0.00    -0.744 OA
ENDBRANCH  81  82
ENDBRANCH  53  76
BRANCH  65  86
ATOM     86  C   UNL A   1      39.812  34.204  37.476  1.00  0.00    -0.014 A 
ATOM     87  C   UNL A   1      39.000  33.890  38.579  1.00  0.00     0.010 A 
ATOM     88  C   UNL A   1      40.581  35.381  37.497  1.00  0.00     0.010 A 
ATOM     89  C   UNL A   1      38.942  34.750  39.679  1.00  0.00     0.020 A 
ATOM     90  C   UNL A   1      40.540  36.234  38.602  1.00  0.00     0.020 A 
ATOM     91  C   UNL A   1      39.711  35.918  39.682  1.00  0.00     0.054 A 
BRANCH  91  92
ATOM     92  S   UNL A   1      39.666  36.994  41.141  1.00  0.00     0.124 S 
ATOM     93  O   UNL A   1      38.904  38.139  40.650  1.00  0.00    -0.237 OA
ATOM     94  O   UNL A   1      38.987  36.165  42.134  1.00  0.00    -0.237 OA
ATOM     95  O   UNL A   1      41.077  37.256  41.419  1.00  0.00    -0.744 OA
ENDBRANCH  91  92
ENDBRANCH  65  86
ENDBRANCH  39  40
ENDBRANCH  31  34
ENDBRANCH  29  30
ENDBRANCH   1  29
TORSDOF 19
ENDMDL
MODEL 3
REMARK VINA RESULT:     -10.7      4.959      6.441
REMARK SMILES CCN(CC)c1ccc(NS(=O)(=O)c2ccc(Cl)s2)cc1C(=O)NCCCNC(=O)c1ccc(-c2c3nc(c(-c4ccc(S(=O)(=O)[O-])cc4)c4ccc([nH]4)c(-c4ccc(S(=O)(=O)[O-])cc4)c4nc(c(-c5ccc(S(=O)(=O)[O-])cc5)c5ccc2[nH]5)C=C4)C=C3)cc1
REMARK SMILES IDX 26 1 25 2 24 3 22 4 23 5 21 7 6 8 7 9 8 10 20 11 9 12 3 13
REMARK SMILES IDX 2 14 1 15 4 16 5 17 10 18 11 20 12 21 13 22 14 23 15 24
REMARK SMILES IDX 19 25 16 26 17 27 18 28 27 29 28 30 29 31 30 33 31 34 32 35
REMARK SMILES IDX 90 36 33 37 89 38 34 39 35 40 36 41 83 42 37 43 88 44 82 45
REMARK SMILES IDX 84 46 38 47 87 48 81 49 80 50 39 52 69 53 50 54 68 55 51 56
REMARK SMILES IDX 54 57 67 58 85 59 52 60 53 61 66 63 86 64 55 65 40 66 41 67
REMARK SMILES IDX 49 68 42 69 48 70 43 71 44 72 45 73 46 74 47 75 70 76 71 77
REMARK SMILES IDX 79 78 72 79 78 80 73 81 74 82 75 83 76 84 77 85 56 86 57 87
REMARK SMILES IDX 65 88 58 89 64 90 59 91 60 92 61 93 62 94 63 95
REMARK H PARENT 24 6 10 19 28 32 84 51 54 62
REMARK Flexibility Score: inf
ROOT
ATOM      1  C   UNL A   1      36.065  22.093  26.066  1.00  0.00     0.042 C 
ENDROOT
BRANCH   1   2
ATOM      2  C   UNL A   1      35.322  23.372  26.419  1.00  0.00     0.118 C 
BRANCH   2   3
ATOM      3  N   UNL A   1      34.146  23.148  27.224  1.00  0.00    -0.352 N 
ATOM      4  C   UNL A   1      32.822  23.251  26.911  1.00  0.00     0.253 C 
ATOM      5  O   UNL A   1      32.018  22.962  27.803  1.00  0.00    -0.269 OA
ATOM      6  H   UNL A   1      34.329  22.875  28.152  1.00  0.00     0.163 HD
BRANCH   4   7
ATOM      7  C   UNL A   1      32.266  23.761  25.628  1.00  0.00     0.065 A 
ATOM      8  C   UNL A   1      32.141  23.066  24.406  1.00  0.00     0.050 A 
ATOM      9  C   UNL A   1      31.213  23.569  23.476  1.00  0.00     0.029 A 
ATOM     10  C   UNL A   1      30.556  24.784  23.658  1.00  0.00     0.029 A 
ATOM     11  C   UNL A   1      31.627  25.015  25.779  1.00  0.00     0.042 A 
ATOM     12  C   UNL A   1      30.828  25.557  24.776  1.00  0.00     0.050 A 
BRANCH   8  13
ATOM     13  N   UNL A   1      32.886  21.951  24.039  1.00  0.00    -0.371 N 
BRANCH  13  14
ATOM     14  C   UNL A   1      32.221  20.646  23.956  1.00  0.00     0.113 C 
ATOM     15  C   UNL A   1      32.621  19.734  25.107  1.00  0.00     0.027 C 
ENDBRANCH  13  14
BRANCH  13  16
ATOM     16  C   UNL A   1      34.037  22.195  23.140  1.00  0.00     0.113 C 
ATOM     17  C   UNL A   1      34.484  23.644  23.049  1.00  0.00     0.027 C 
ENDBRANCH  13  16
ENDBRANCH   8  13
BRANCH  12  18
ATOM     18  N   UNL A   1      30.425  26.918  24.929  1.00  0.00    -0.279 N 
ATOM     19  H   UNL A   1      29.582  27.107  25.401  1.00  0.00     0.180 HD
BRANCH  18  20
ATOM     20  S   UNL A   1      31.324  28.208  24.343  1.00  0.00     0.271 S 
ATOM     21  O   UNL A   1      32.141  27.728  23.251  1.00  0.00    -0.200 OA
ATOM     22  O   UNL A   1      30.408  29.316  24.174  1.00  0.00    -0.200 OA
BRANCH  20  23
ATOM     23  C   UNL A   1      32.441  28.717  25.639  1.00  0.00     0.141 A 
ATOM     24  C   UNL A   1      33.511  28.081  26.249  1.00  0.00     0.036 A 
ATOM     25  S   UNL A   1      32.247  30.316  26.226  1.00  0.00    -0.110 S 
ATOM     26  C   UNL A   1      34.228  28.948  27.125  1.00  0.00     0.034 A 
ATOM     27  C   UNL A   1      33.640  30.185  27.179  1.00  0.00     0.094 A 
ATOM     28  Cl  UNL A   1      34.185  31.541  28.080  1.00  0.00    -0.072 Cl
ENDBRANCH  20  23
ENDBRANCH  18  20
ENDBRANCH  12  18
ENDBRANCH   4   7
ENDBRANCH   2   3
ENDBRANCH   1   2
BRANCH   1  29
ATOM     29  C   UNL A   1      37.337  22.352  25.257  1.00  0.00     0.118 C 
BRANCH  29  30
ATOM     30  N   UNL A   1      38.470  21.509  25.626  1.00  0.00    -0.352 N 
ATOM     31  C   UNL A   1      39.649  21.751  26.291  1.00  0.00     0.251 C 
ATOM     32  H   UNL A   1      38.368  20.572  25.341  1.00  0.00     0.163 HD
ATOM     33  O   UNL A   1      40.480  20.846  26.368  1.00  0.00    -0.269 OA
BRANCH  31  34
ATOM     34  C   UNL A   1      39.970  23.086  26.848  1.00  0.00     0.039 A 
ATOM     35  C   UNL A   1      40.908  23.183  27.882  1.00  0.00     0.014 A 
ATOM     36  C   UNL A   1      39.374  24.247  26.367  1.00  0.00     0.014 A 
ATOM     37  C   UNL A   1      41.342  24.440  28.319  1.00  0.00     0.010 A 
ATOM     38  C   UNL A   1      39.905  25.488  26.697  1.00  0.00     0.010 A 
ATOM     39  C   UNL A   1      40.912  25.604  27.666  1.00  0.00    -0.014 A 
BRANCH  39  40
ATOM     40  C   UNL A   1      41.507  26.945  27.930  1.00  0.00     0.031 A 
ATOM     41  C   UNL A   1      42.969  27.196  27.657  1.00  0.00     0.074 A 
ATOM     42  C   UNL A   1      40.778  27.891  28.559  1.00  0.00     0.049 A 
ATOM     43  N   UNL A   1      43.725  28.188  28.052  1.00  0.00    -0.248 NA
ATOM     44  C   UNL A   1      43.687  26.164  26.891  1.00  0.00     0.031 C 
ATOM     45  C   UNL A   1      39.373  27.766  28.955  1.00  0.00     0.029 A 
ATOM     46  N   UNL A   1      41.131  29.143  29.002  1.00  0.00    -0.354 N 
ATOM     47  C   UNL A   1      45.017  27.859  27.656  1.00  0.00     0.074 A 
ATOM     48  C   UNL A   1      44.943  26.566  27.012  1.00  0.00     0.031 C 
ATOM     49  C   UNL A   1      38.976  28.902  29.550  1.00  0.00     0.029 A 
ATOM     50  C   UNL A   1      40.110  29.815  29.631  1.00  0.00     0.049 A 
ATOM     51  H   UNL A   1      42.030  29.523  28.878  1.00  0.00     0.167 HD
ATOM     52  C   UNL A   1      46.162  28.571  27.804  1.00  0.00     0.031 A 
ATOM     53  C   UNL A   1      40.085  31.022  30.228  1.00  0.00     0.031 A 
ATOM     54  C   UNL A   1      46.222  29.892  28.369  1.00  0.00     0.049 A 
ATOM     55  C   UNL A   1      41.336  31.847  30.272  1.00  0.00     0.074 A 
ATOM     56  C   UNL A   1      47.315  30.733  28.478  1.00  0.00     0.029 A 
ATOM     57  N   UNL A   1      45.137  30.575  28.896  1.00  0.00    -0.354 N 
ATOM     58  N   UNL A   1      42.541  31.532  29.863  1.00  0.00    -0.248 NA
ATOM     59  C   UNL A   1      41.224  33.192  30.852  1.00  0.00     0.031 C 
ATOM     60  C   UNL A   1      46.893  31.923  29.084  1.00  0.00     0.029 A 
ATOM     61  C   UNL A   1      45.531  31.831  29.325  1.00  0.00     0.049 A 
ATOM     62  H   UNL A   1      44.221  30.220  28.956  1.00  0.00     0.167 HD
ATOM     63  C   UNL A   1      43.329  32.644  30.123  1.00  0.00     0.074 A 
ATOM     64  C   UNL A   1      42.462  33.646  30.711  1.00  0.00     0.031 C 
ATOM     65  C   UNL A   1      44.654  32.817  29.899  1.00  0.00     0.031 A 
BRANCH  52  66
ATOM     66  C   UNL A   1      47.439  27.922  27.343  1.00  0.00    -0.014 A 
ATOM     67  C   UNL A   1      48.227  27.157  28.222  1.00  0.00     0.010 A 
ATOM     68  C   UNL A   1      47.863  28.088  26.011  1.00  0.00     0.010 A 
ATOM     69  C   UNL A   1      49.451  26.631  27.798  1.00  0.00     0.020 A 
ATOM     70  C   UNL A   1      49.072  27.539  25.576  1.00  0.00     0.020 A 
ATOM     71  C   UNL A   1      49.872  26.839  26.482  1.00  0.00     0.054 A 
BRANCH  71  72
ATOM     72  S   UNL A   1      51.475  26.169  25.958  1.00  0.00     0.124 S 
ATOM     73  O   UNL A   1      51.420  24.812  26.498  1.00  0.00    -0.237 OA
ATOM     74  O   UNL A   1      51.412  26.267  24.503  1.00  0.00    -0.237 OA
ATOM     75  O   UNL A   1      52.443  27.057  26.598  1.00  0.00    -0.744 OA
ENDBRANCH  71  72
ENDBRANCH  52  66
BRANCH  53  76
ATOM     76  C   UNL A   1      38.812  31.525  30.809  1.00  0.00    -0.014 A 
ATOM     77  C   UNL A   1      38.553  31.362  32.181  1.00  0.00     0.010 A 
ATOM     78  C   UNL A   1      37.883  32.214  30.010  1.00  0.00     0.010 A 
ATOM     79  C   UNL A   1      37.383  31.877  32.745  1.00  0.00     0.020 A 
ATOM     80  C   UNL A   1      36.721  32.747  30.576  1.00  0.00     0.020 A 
ATOM     81  C   UNL A   1      36.475  32.569  31.940  1.00  0.00     0.054 A 
BRANCH  81  82
ATOM     82  S   UNL A   1      35.004  33.306  32.705  1.00  0.00     0.124 S 
ATOM     83  O   UNL A   1      35.124  34.704  32.306  1.00  0.00    -0.237 OA
ATOM     84  O   UNL A   1      33.913  32.560  32.082  1.00  0.00    -0.237 OA
ATOM     85  O   UNL A   1      35.194  33.038  34.129  1.00  0.00    -0.744 OA
ENDBRANCH  81  82
ENDBRANCH  53  76
BRANCH  65  86
ATOM     86  C   UNL A   1      45.245  34.150  30.264  1.00  0.00    -0.014 A 
ATOM     87  C   UNL A   1      45.826  34.362  31.525  1.00  0.00     0.010 A 
ATOM     88  C   UNL A   1      45.268  35.182  29.309  1.00  0.00     0.010 A 
ATOM     89  C   UNL A   1      46.406  35.595  31.835  1.00  0.00     0.020 A 
ATOM     90  C   UNL A   1      45.863  36.409  29.609  1.00  0.00     0.020 A 
ATOM     91  C   UNL A   1      46.418  36.612  30.875  1.00  0.00     0.054 A 
BRANCH  91  92
ATOM     92  S   UNL A   1      47.225  38.186  31.276  1.00  0.00     0.124 S 
ATOM     93  O   UNL A   1      46.105  38.982  31.773  1.00  0.00    -0.237 OA
ATOM     94  O   UNL A   1      48.214  37.799  32.278  1.00  0.00    -0.237 OA
ATOM     95  O   UNL A   1      47.781  38.623  29.997  1.00  0.00    -0.744 OA
ENDBRANCH  91  92
ENDBRANCH  65  86
ENDBRANCH  39  40
ENDBRANCH  31  34
ENDBRANCH  29  30
ENDBRANCH   1  29
TORSDOF 19
ENDMDL
