MODEL 1
REMARK VINA RESULT:     -10.9      0.000      0.000
REMARK SMILES CC1(C)[C@H]2CC[C@]1(C)C(=O)N(CC(=O)NCCCNC(=O)c1ccc(-c3c4nc(c(-c5ccc(S(=O)(=O)[O-])cc5)c5ccc([nH]5)c(-c5ccc(S(=O)(=O)[O-])cc5)c5nc(c(-c6ccc(S(=O)(=O)[O-])cc6)c6ccc3[nH]6)C=C5)C=C4)cc1)C2=O
REMARK SMILES IDX 18 1 17 2 16 3 15 4 13 5 14 6 12 8 11 9 1 10 2 11 4 12 7 13
REMARK SMILES IDX 3 14 5 15 82 16 6 17 9 18 8 19 83 20 10 21 19 22 20 23 21 25
REMARK SMILES IDX 22 26 23 27 81 28 24 29 80 30 25 31 26 32 27 33 74 34 28 35
REMARK SMILES IDX 79 36 73 37 75 38 29 39 78 40 72 41 71 42 30 44 60 45 41 46
REMARK SMILES IDX 59 47 42 48 45 49 58 50 76 51 43 52 44 53 57 55 77 56 46 57
REMARK SMILES IDX 31 58 32 59 40 60 33 61 39 62 34 63 35 64 36 65 37 66 38 67
REMARK SMILES IDX 61 68 62 69 70 70 63 71 69 72 64 73 65 74 66 75 67 76 68 77
REMARK SMILES IDX 47 78 48 79 56 80 49 81 55 82 50 83 51 84 52 85 53 86 54 87
REMARK H PARENT 15 7 19 24 75 43 45 54
REMARK Flexibility Score: inf
ROOT
ATOM      1  C   UNL A   1      36.648  23.742  25.182  1.00  0.00     0.118 C 
ENDROOT
BRANCH   1   2
ATOM      2  C   UNL A   1      35.969  23.524  23.833  1.00  0.00     0.042 C 
BRANCH   2   3
ATOM      3  C   UNL A   1      34.533  23.033  23.895  1.00  0.00     0.117 C 
BRANCH   3   4
ATOM      4  N   UNL A   1      33.656  23.722  22.972  1.00  0.00    -0.354 N 
ATOM      5  C   UNL A   1      32.639  24.592  23.212  1.00  0.00     0.240 C 
ATOM      6  O   UNL A   1      32.210  25.239  22.253  1.00  0.00    -0.273 OA
ATOM      7  H   UNL A   1      33.823  23.532  22.021  1.00  0.00     0.163 HD
BRANCH   5   8
ATOM      8  C   UNL A   1      32.093  24.818  24.623  1.00  0.00     0.228 C 
BRANCH   8   9
ATOM      9  N   UNL A   1      32.056  26.182  25.156  1.00  0.00    -0.272 N 
ATOM     10  C   UNL A   1      31.492  28.212  27.628  1.00  0.00     0.013 C 
ATOM     11  C   UNL A   1      31.974  28.827  26.310  1.00  0.00    -0.010 C 
ATOM     12  C   UNL A   1      31.098  28.462  25.096  1.00  0.00     0.086 C 
ATOM     13  C   UNL A   1      33.313  28.252  25.775  1.00  0.00     0.053 C 
ATOM     14  C   UNL A   1      31.980  30.369  26.504  1.00  0.00     0.013 C 
ATOM     15  C   UNL A   1      31.906  28.977  23.897  1.00  0.00     0.015 C 
ATOM     16  C   UNL A   1      30.937  26.962  24.887  1.00  0.00     0.233 C 
ATOM     17  C   UNL A   1      33.370  28.765  24.308  1.00  0.00     0.018 C 
ATOM     18  C   UNL A   1      33.237  26.703  25.688  1.00  0.00     0.236 C 
ATOM     19  C   UNL A   1      34.564  28.670  26.550  1.00  0.00     0.022 C 
ATOM     20  O   UNL A   1      29.894  26.520  24.415  1.00  0.00    -0.274 OA
ATOM     21  O   UNL A   1      34.190  25.990  26.001  1.00  0.00    -0.274 OA
ENDBRANCH   8   9
ENDBRANCH   5   8
ENDBRANCH   3   4
ENDBRANCH   2   3
ENDBRANCH   1   2
BRANCH   1  22
ATOM     22  N   UNL A   1      37.667  22.746  25.468  1.00  0.00    -0.352 N 
ATOM     23  C   UNL A   1      38.882  22.872  26.095  1.00  0.00     0.251 C 
ATOM     24  H   UNL A   1      37.452  21.835  25.164  1.00  0.00     0.163 HD
ATOM     25  O   UNL A   1      39.664  21.921  26.067  1.00  0.00    -0.269 OA
BRANCH  23  26
ATOM     26  C   UNL A   1      39.275  24.125  26.783  1.00  0.00     0.039 A 
ATOM     27  C   UNL A   1      40.036  25.064  26.078  1.00  0.00     0.014 A 
ATOM     28  C   UNL A   1      38.964  24.360  28.126  1.00  0.00     0.014 A 
ATOM     29  C   UNL A   1      40.446  26.248  26.702  1.00  0.00     0.010 A 
ATOM     30  C   UNL A   1      39.308  25.574  28.724  1.00  0.00     0.010 A 
ATOM     31  C   UNL A   1      40.069  26.524  28.025  1.00  0.00    -0.014 A 
BRANCH  31  32
ATOM     32  C   UNL A   1      40.495  27.780  28.699  1.00  0.00     0.031 A 
ATOM     33  C   UNL A   1      41.887  27.906  29.263  1.00  0.00     0.074 A 
ATOM     34  C   UNL A   1      39.625  28.802  28.836  1.00  0.00     0.049 A 
ATOM     35  N   UNL A   1      42.432  28.910  29.904  1.00  0.00    -0.248 NA
ATOM     36  C   UNL A   1      42.777  26.744  29.103  1.00  0.00     0.031 C 
ATOM     37  C   UNL A   1      38.240  28.805  28.361  1.00  0.00     0.029 A 
ATOM     38  N   UNL A   1      39.781  30.038  29.411  1.00  0.00    -0.354 N 
ATOM     39  C   UNL A   1      43.717  28.495  30.237  1.00  0.00     0.074 A 
ATOM     40  C   UNL A   1      43.851  27.131  29.775  1.00  0.00     0.031 C 
ATOM     41  C   UNL A   1      37.685  29.997  28.634  1.00  0.00     0.029 A 
ATOM     42  C   UNL A   1      38.659  30.830  29.335  1.00  0.00     0.049 A 
ATOM     43  H   UNL A   1      40.617  30.331  29.841  1.00  0.00     0.167 HD
ATOM     44  C   UNL A   1      44.706  29.188  30.853  1.00  0.00     0.031 A 
ATOM     45  C   UNL A   1      38.436  32.084  29.773  1.00  0.00     0.031 A 
ATOM     46  C   UNL A   1      44.580  30.548  31.305  1.00  0.00     0.049 A 
ATOM     47  C   UNL A   1      39.545  32.834  30.460  1.00  0.00     0.074 A 
ATOM     48  C   UNL A   1      45.537  31.350  31.904  1.00  0.00     0.029 A 
ATOM     49  N   UNL A   1      43.426  31.311  31.206  1.00  0.00    -0.354 N 
ATOM     50  N   UNL A   1      40.767  32.438  30.727  1.00  0.00    -0.248 NA
ATOM     51  C   UNL A   1      39.247  34.205  30.894  1.00  0.00     0.031 C 
ATOM     52  C   UNL A   1      44.949  32.584  32.206  1.00  0.00     0.029 A 
ATOM     53  C   UNL A   1      43.642  32.569  31.746  1.00  0.00     0.049 A 
ATOM     54  H   UNL A   1      42.578  31.004  30.811  1.00  0.00     0.167 HD
ATOM     55  C   UNL A   1      41.393  33.524  31.329  1.00  0.00     0.074 A 
ATOM     56  C   UNL A   1      40.418  34.594  31.380  1.00  0.00     0.031 C 
ATOM     57  C   UNL A   1      42.664  33.626  31.792  1.00  0.00     0.031 A 
BRANCH  44  58
ATOM     58  C   UNL A   1      46.014  28.473  31.077  1.00  0.00    -0.014 A 
ATOM     59  C   UNL A   1      47.043  28.525  30.119  1.00  0.00     0.010 A 
ATOM     60  C   UNL A   1      46.223  27.748  32.264  1.00  0.00     0.010 A 
ATOM     61  C   UNL A   1      48.233  27.820  30.318  1.00  0.00     0.020 A 
ATOM     62  C   UNL A   1      47.424  27.067  32.481  1.00  0.00     0.020 A 
ATOM     63  C   UNL A   1      48.413  27.088  31.495  1.00  0.00     0.054 A 
BRANCH  63  64
ATOM     64  S   UNL A   1      49.964  26.177  31.725  1.00  0.00     0.124 S 
ATOM     65  O   UNL A   1      50.270  25.755  30.360  1.00  0.00    -0.237 OA
ATOM     66  O   UNL A   1      50.854  27.192  32.283  1.00  0.00    -0.237 OA
ATOM     67  O   UNL A   1      49.601  25.100  32.643  1.00  0.00    -0.744 OA
ENDBRANCH  63  64
ENDBRANCH  44  58
BRANCH  45  68
ATOM     68  C   UNL A   1      37.114  32.725  29.540  1.00  0.00    -0.014 A 
ATOM     69  C   UNL A   1      36.119  32.688  30.533  1.00  0.00     0.010 A 
ATOM     70  C   UNL A   1      36.848  33.394  28.331  1.00  0.00     0.010 A 
ATOM     71  C   UNL A   1      34.880  33.297  30.319  1.00  0.00     0.020 A 
ATOM     72  C   UNL A   1      35.618  34.024  28.123  1.00  0.00     0.020 A 
ATOM     73  C   UNL A   1      34.638  33.964  29.115  1.00  0.00     0.054 A 
BRANCH  73  74
ATOM     74  S   UNL A   1      33.044  34.799  28.883  1.00  0.00     0.124 S 
ATOM     75  O   UNL A   1      33.456  36.103  28.373  1.00  0.00    -0.237 OA
ATOM     76  O   UNL A   1      32.367  33.929  27.926  1.00  0.00    -0.237 OA
ATOM     77  O   UNL A   1      32.465  34.806  30.226  1.00  0.00    -0.744 OA
ENDBRANCH  73  74
ENDBRANCH  45  68
BRANCH  57  78
ATOM     78  C   UNL A   1      43.089  34.955  32.358  1.00  0.00    -0.014 A 
ATOM     79  C   UNL A   1      43.754  35.908  31.568  1.00  0.00     0.010 A 
ATOM     80  C   UNL A   1      42.781  35.266  33.696  1.00  0.00     0.010 A 
ATOM     81  C   UNL A   1      44.135  37.137  32.115  1.00  0.00     0.020 A 
ATOM     82  C   UNL A   1      43.137  36.504  34.238  1.00  0.00     0.020 A 
ATOM     83  C   UNL A   1      43.827  37.426  33.449  1.00  0.00     0.054 A 
BRANCH  83  84
ATOM     84  S   UNL A   1      44.303  39.039  34.128  1.00  0.00     0.124 S 
ATOM     85  O   UNL A   1      45.380  39.442  33.227  1.00  0.00    -0.237 OA
ATOM     86  O   UNL A   1      43.069  39.813  34.015  1.00  0.00    -0.237 OA
ATOM     87  O   UNL A   1      44.716  38.731  35.495  1.00  0.00    -0.744 OA
ENDBRANCH  83  84
ENDBRANCH  57  78
ENDBRANCH  31  32
ENDBRANCH  23  26
ENDBRANCH   1  22
TORSDOF 14
ENDMDL
MODEL 2
REMARK VINA RESULT:     -10.9      2.498      9.310
REMARK SMILES CC1(C)[C@H]2CC[C@]1(C)C(=O)N(CC(=O)NCCCNC(=O)c1ccc(-c3c4nc(c(-c5ccc(S(=O)(=O)[O-])cc5)c5ccc([nH]5)c(-c5ccc(S(=O)(=O)[O-])cc5)c5nc(c(-c6ccc(S(=O)(=O)[O-])cc6)c6ccc3[nH]6)C=C5)C=C4)cc1)C2=O
REMARK SMILES IDX 18 1 17 2 16 3 15 4 13 5 14 6 12 8 11 9 1 10 2 11 4 12 7 13
REMARK SMILES IDX 3 14 5 15 82 16 6 17 9 18 8 19 83 20 10 21 19 22 20 23 21 25
REMARK SMILES IDX 22 26 23 27 81 28 24 29 80 30 25 31 26 32 27 33 74 34 28 35
REMARK SMILES IDX 79 36 73 37 75 38 29 39 78 40 72 41 71 42 30 44 60 45 41 46
REMARK SMILES IDX 59 47 42 48 45 49 58 50 76 51 43 52 44 53 57 55 77 56 46 57
REMARK SMILES IDX 31 58 32 59 40 60 33 61 39 62 34 63 35 64 36 65 37 66 38 67
REMARK SMILES IDX 61 68 62 69 70 70 63 71 69 72 64 73 65 74 66 75 67 76 68 77
REMARK SMILES IDX 47 78 48 79 56 80 49 81 55 82 50 83 51 84 52 85 53 86 54 87
REMARK H PARENT 15 7 19 24 75 43 45 54
REMARK Flexibility Score: inf
ROOT
ATOM      1  C   UNL A   1      33.596  28.348  26.598  1.00  0.00     0.118 C 
ENDROOT
BRANCH   1   2
ATOM      2  C   UNL A   1      32.419  27.437  26.933  1.00  0.00     0.042 C 
BRANCH   2   3
ATOM      3  C   UNL A   1      31.623  26.932  25.742  1.00  0.00     0.117 C 
BRANCH   3   4
ATOM      4  N   UNL A   1      31.117  25.588  25.925  1.00  0.00    -0.354 N 
ATOM      5  C   UNL A   1      31.498  24.420  25.342  1.00  0.00     0.240 C 
ATOM      6  O   UNL A   1      31.088  23.374  25.851  1.00  0.00    -0.273 OA
ATOM      7  H   UNL A   1      30.382  25.507  26.575  1.00  0.00     0.163 HD
BRANCH   5   8
ATOM      8  C   UNL A   1      32.456  24.395  24.149  1.00  0.00     0.228 C 
BRANCH   8   9
ATOM      9  N   UNL A   1      33.690  23.612  24.251  1.00  0.00    -0.272 N 
ATOM     10  C   UNL A   1      36.594  22.787  23.052  1.00  0.00     0.013 C 
ATOM     11  C   UNL A   1      36.167  22.134  24.370  1.00  0.00    -0.010 C 
ATOM     12  C   UNL A   1      34.811  21.407  24.293  1.00  0.00     0.086 C 
ATOM     13  C   UNL A   1      35.800  23.131  25.502  1.00  0.00     0.053 C 
ATOM     14  C   UNL A   1      37.281  21.120  24.757  1.00  0.00     0.013 C 
ATOM     15  C   UNL A   1      34.500  21.063  25.757  1.00  0.00     0.015 C 
ATOM     16  C   UNL A   1      33.668  22.293  23.813  1.00  0.00     0.233 C 
ATOM     17  C   UNL A   1      35.080  22.240  26.554  1.00  0.00     0.018 C 
ATOM     18  C   UNL A   1      34.739  24.148  24.999  1.00  0.00     0.236 C 
ATOM     19  C   UNL A   1      36.980  23.875  26.130  1.00  0.00     0.022 C 
ATOM     20  O   UNL A   1      32.752  21.804  23.159  1.00  0.00    -0.274 OA
ATOM     21  O   UNL A   1      34.787  25.339  25.308  1.00  0.00    -0.274 OA
ENDBRANCH   8   9
ENDBRANCH   5   8
ENDBRANCH   3   4
ENDBRANCH   2   3
ENDBRANCH   1   2
BRANCH   1  22
ATOM     22  N   UNL A   1      33.416  29.705  27.086  1.00  0.00    -0.352 N 
ATOM     23  C   UNL A   1      34.254  30.503  27.825  1.00  0.00     0.251 C 
ATOM     24  H   UNL A   1      32.555  30.119  26.849  1.00  0.00     0.163 HD
ATOM     25  O   UNL A   1      33.816  31.561  28.279  1.00  0.00    -0.269 OA
BRANCH  23  26
ATOM     26  C   UNL A   1      35.657  30.112  28.101  1.00  0.00     0.039 A 
ATOM     27  C   UNL A   1      35.983  29.651  29.382  1.00  0.00     0.014 A 
ATOM     28  C   UNL A   1      36.666  30.252  27.143  1.00  0.00     0.014 A 
ATOM     29  C   UNL A   1      37.301  29.295  29.687  1.00  0.00     0.010 A 
ATOM     30  C   UNL A   1      37.965  29.825  27.424  1.00  0.00     0.010 A 
ATOM     31  C   UNL A   1      38.302  29.359  28.705  1.00  0.00    -0.014 A 
BRANCH  31  32
ATOM     32  C   UNL A   1      39.708  28.980  29.014  1.00  0.00     0.031 A 
ATOM     33  C   UNL A   1      40.630  29.964  29.687  1.00  0.00     0.074 A 
ATOM     34  C   UNL A   1      40.171  27.763  28.665  1.00  0.00     0.049 A 
ATOM     35  N   UNL A   1      41.890  29.825  30.014  1.00  0.00    -0.248 NA
ATOM     36  C   UNL A   1      40.068  31.284  30.017  1.00  0.00     0.031 C 
ATOM     37  C   UNL A   1      39.396  26.723  27.984  1.00  0.00     0.029 A 
ATOM     38  N   UNL A   1      41.408  27.193  28.838  1.00  0.00    -0.354 N 
ATOM     39  C   UNL A   1      42.274  31.041  30.572  1.00  0.00     0.074 A 
ATOM     40  C   UNL A   1      41.129  31.921  30.488  1.00  0.00     0.031 C 
ATOM     41  C   UNL A   1      40.164  25.633  27.830  1.00  0.00     0.029 A 
ATOM     42  C   UNL A   1      41.495  25.905  28.365  1.00  0.00     0.049 A 
ATOM     43  H   UNL A   1      42.164  27.663  29.260  1.00  0.00     0.167 HD
ATOM     44  C   UNL A   1      43.462  31.391  31.122  1.00  0.00     0.031 A 
ATOM     45  C   UNL A   1      42.526  25.037  28.363  1.00  0.00     0.031 A 
ATOM     46  C   UNL A   1      44.600  30.516  31.216  1.00  0.00     0.049 A 
ATOM     47  C   UNL A   1      43.838  25.448  28.973  1.00  0.00     0.074 A 
ATOM     48  C   UNL A   1      45.835  30.764  31.791  1.00  0.00     0.029 A 
ATOM     49  N   UNL A   1      44.643  29.219  30.725  1.00  0.00    -0.354 N 
ATOM     50  N   UNL A   1      44.167  26.588  29.533  1.00  0.00    -0.248 NA
ATOM     51  C   UNL A   1      44.916  24.449  28.961  1.00  0.00     0.031 C 
ATOM     52  C   UNL A   1      46.639  29.633  31.610  1.00  0.00     0.029 A 
ATOM     53  C   UNL A   1      45.887  28.661  30.970  1.00  0.00     0.049 A 
ATOM     54  H   UNL A   1      43.900  28.763  30.268  1.00  0.00     0.167 HD
ATOM     55  C   UNL A   1      45.478  26.430  29.970  1.00  0.00     0.074 A 
ATOM     56  C   UNL A   1      45.878  25.083  29.617  1.00  0.00     0.031 C 
ATOM     57  C   UNL A   1      46.275  27.320  30.612  1.00  0.00     0.031 A 
BRANCH  44  58
ATOM     58  C   UNL A   1      43.587  32.794  31.660  1.00  0.00    -0.014 A 
ATOM     59  C   UNL A   1      44.020  33.850  30.839  1.00  0.00     0.010 A 
ATOM     60  C   UNL A   1      43.256  33.063  33.001  1.00  0.00     0.010 A 
ATOM     61  C   UNL A   1      44.177  35.137  31.362  1.00  0.00     0.020 A 
ATOM     62  C   UNL A   1      43.381  34.355  33.520  1.00  0.00     0.020 A 
ATOM     63  C   UNL A   1      43.864  35.379  32.702  1.00  0.00     0.054 A 
BRANCH  63  64
ATOM     64  S   UNL A   1      44.080  37.057  33.357  1.00  0.00     0.124 S 
ATOM     65  O   UNL A   1      42.824  37.263  34.074  1.00  0.00    -0.237 OA
ATOM     66  O   UNL A   1      45.268  36.926  34.196  1.00  0.00    -0.237 OA
ATOM     67  O   UNL A   1      44.255  37.876  32.159  1.00  0.00    -0.744 OA
ENDBRANCH  63  64
ENDBRANCH  44  58
BRANCH  45  68
ATOM     68  C   UNL A   1      42.344  23.674  27.796  1.00  0.00    -0.014 A 
ATOM     69  C   UNL A   1      42.831  23.366  26.513  1.00  0.00     0.010 A 
ATOM     70  C   UNL A   1      41.699  22.670  28.541  1.00  0.00     0.010 A 
ATOM     71  C   UNL A   1      42.668  22.084  25.981  1.00  0.00     0.020 A 
ATOM     72  C   UNL A   1      41.556  21.380  28.022  1.00  0.00     0.020 A 
ATOM     73  C   UNL A   1      42.033  21.097  26.741  1.00  0.00     0.054 A 
BRANCH  73  74
ATOM     74  S   UNL A   1      41.887  19.424  26.055  1.00  0.00     0.124 S 
ATOM     75  O   UNL A   1      42.448  18.607  27.126  1.00  0.00    -0.237 OA
ATOM     76  O   UNL A   1      40.449  19.293  25.844  1.00  0.00    -0.237 OA
ATOM     77  O   UNL A   1      42.686  19.487  24.831  1.00  0.00    -0.744 OA
ENDBRANCH  73  74
ENDBRANCH  45  68
BRANCH  57  78
ATOM     78  C   UNL A   1      47.650  26.853  31.014  1.00  0.00    -0.014 A 
ATOM     79  C   UNL A   1      48.777  27.134  30.223  1.00  0.00     0.010 A 
ATOM     80  C   UNL A   1      47.816  26.156  32.225  1.00  0.00     0.010 A 
ATOM     81  C   UNL A   1      50.044  26.694  30.619  1.00  0.00     0.020 A 
ATOM     82  C   UNL A   1      49.084  25.739  32.637  1.00  0.00     0.020 A 
ATOM     83  C   UNL A   1      50.189  25.995  31.823  1.00  0.00     0.054 A 
BRANCH  83  84
ATOM     84  S   UNL A   1      51.846  25.463  32.332  1.00  0.00     0.124 S 
ATOM     85  O   UNL A   1      51.680  24.015  32.437  1.00  0.00    -0.237 OA
ATOM     86  O   UNL A   1      52.686  25.920  31.227  1.00  0.00    -0.237 OA
ATOM     87  O   UNL A   1      52.060  26.159  33.599  1.00  0.00    -0.744 OA
ENDBRANCH  83  84
ENDBRANCH  57  78
ENDBRANCH  31  32
ENDBRANCH  23  26
ENDBRANCH   1  22
TORSDOF 14
ENDMDL
MODEL 3
REMARK VINA RESULT:     -10.7      3.216      6.599
REMARK SMILES CC1(C)[C@H]2CC[C@]1(C)C(=O)N(CC(=O)NCCCNC(=O)c1ccc(-c3c4nc(c(-c5ccc(S(=O)(=O)[O-])cc5)c5ccc([nH]5)c(-c5ccc(S(=O)(=O)[O-])cc5)c5nc(c(-c6ccc(S(=O)(=O)[O-])cc6)c6ccc3[nH]6)C=C5)C=C4)cc1)C2=O
REMARK SMILES IDX 18 1 17 2 16 3 15 4 13 5 14 6 12 8 11 9 1 10 2 11 4 12 7 13
REMARK SMILES IDX 3 14 5 15 82 16 6 17 9 18 8 19 83 20 10 21 19 22 20 23 21 25
REMARK SMILES IDX 22 26 23 27 81 28 24 29 80 30 25 31 26 32 27 33 74 34 28 35
REMARK SMILES IDX 79 36 73 37 75 38 29 39 78 40 72 41 71 42 30 44 60 45 41 46
REMARK SMILES IDX 59 47 42 48 45 49 58 50 76 51 43 52 44 53 57 55 77 56 46 57
REMARK SMILES IDX 31 58 32 59 40 60 33 61 39 62 34 63 35 64 36 65 37 66 38 67
REMARK SMILES IDX 61 68 62 69 70 70 63 71 69 72 64 73 65 74 66 75 67 76 68 77
REMARK SMILES IDX 47 78 48 79 56 80 49 81 55 82 50 83 51 84 52 85 53 86 54 87
REMARK H PARENT 15 7 19 24 75 43 45 54
REMARK Flexibility Score: inf
ROOT
ATOM      1  C   UNL A   1      40.491  21.438  27.082  1.00  0.00     0.118 C 
ENDROOT
BRANCH   1   2
ATOM      2  C   UNL A   1      41.348  20.333  26.475  1.00  0.00     0.042 C 
BRANCH   2   3
ATOM      3  C   UNL A   1      42.647  20.789  25.833  1.00  0.00     0.117 C 
BRANCH   3   4
ATOM      4  N   UNL A   1      42.617  22.176  25.416  1.00  0.00    -0.354 N 
ATOM      5  C   UNL A   1      43.626  23.081  25.308  1.00  0.00     0.240 C 
ATOM      6  O   UNL A   1      43.388  24.122  24.689  1.00  0.00    -0.273 OA
ATOM      7  H   UNL A   1      41.726  22.516  25.171  1.00  0.00     0.163 HD
BRANCH   5   8
ATOM      8  C   UNL A   1      45.022  22.796  25.864  1.00  0.00     0.228 C 
BRANCH   8   9
ATOM      9  N   UNL A   1      45.919  23.923  26.132  1.00  0.00    -0.272 N 
ATOM     10  C   UNL A   1      48.816  25.032  27.097  1.00  0.00     0.013 C 
ATOM     11  C   UNL A   1      47.773  26.069  26.667  1.00  0.00    -0.010 C 
ATOM     12  C   UNL A   1      46.439  25.964  27.430  1.00  0.00     0.086 C 
ATOM     13  C   UNL A   1      47.207  25.868  25.235  1.00  0.00     0.053 C 
ATOM     14  C   UNL A   1      48.402  27.471  26.907  1.00  0.00     0.013 C 
ATOM     15  C   UNL A   1      45.509  26.917  26.667  1.00  0.00     0.015 C 
ATOM     16  C   UNL A   1      45.795  24.585  27.348  1.00  0.00     0.233 C 
ATOM     17  C   UNL A   1      45.958  26.796  25.204  1.00  0.00     0.018 C 
ATOM     18  C   UNL A   1      46.672  24.419  25.068  1.00  0.00     0.236 C 
ATOM     19  C   UNL A   1      48.168  26.206  24.095  1.00  0.00     0.022 C 
ATOM     20  O   UNL A   1      45.133  24.165  28.292  1.00  0.00    -0.274 OA
ATOM     21  O   UNL A   1      46.844  23.783  24.028  1.00  0.00    -0.274 OA
ENDBRANCH   8   9
ENDBRANCH   5   8
ENDBRANCH   3   4
ENDBRANCH   2   3
ENDBRANCH   1   2
BRANCH   1  22
ATOM     22  N   UNL A   1      39.384  21.829  26.226  1.00  0.00    -0.352 N 
ATOM     23  C   UNL A   1      38.720  23.026  26.121  1.00  0.00     0.251 C 
ATOM     24  H   UNL A   1      39.058  21.122  25.624  1.00  0.00     0.163 HD
ATOM     25  O   UNL A   1      37.688  23.075  25.449  1.00  0.00    -0.269 OA
BRANCH  23  26
ATOM     26  C   UNL A   1      39.204  24.246  26.809  1.00  0.00     0.039 A 
ATOM     27  C   UNL A   1      38.786  24.483  28.124  1.00  0.00     0.014 A 
ATOM     28  C   UNL A   1      40.007  25.191  26.162  1.00  0.00     0.014 A 
ATOM     29  C   UNL A   1      39.203  25.636  28.798  1.00  0.00     0.010 A 
ATOM     30  C   UNL A   1      40.485  26.302  26.861  1.00  0.00     0.010 A 
ATOM     31  C   UNL A   1      40.074  26.547  28.180  1.00  0.00    -0.014 A 
BRANCH  31  32
ATOM     32  C   UNL A   1      40.528  27.776  28.886  1.00  0.00     0.031 A 
ATOM     33  C   UNL A   1      41.919  27.852  29.462  1.00  0.00     0.074 A 
ATOM     34  C   UNL A   1      39.684  28.816  29.040  1.00  0.00     0.049 A 
ATOM     35  N   UNL A   1      42.485  28.826  30.130  1.00  0.00    -0.248 NA
ATOM     36  C   UNL A   1      42.779  26.671  29.281  1.00  0.00     0.031 C 
ATOM     37  C   UNL A   1      38.302  28.866  28.557  1.00  0.00     0.029 A 
ATOM     38  N   UNL A   1      39.867  30.035  29.646  1.00  0.00    -0.354 N 
ATOM     39  C   UNL A   1      43.756  28.370  30.462  1.00  0.00     0.074 A 
ATOM     40  C   UNL A   1      43.858  27.015  29.969  1.00  0.00     0.031 C 
ATOM     41  C   UNL A   1      37.777  30.065  28.854  1.00  0.00     0.029 A 
ATOM     42  C   UNL A   1      38.766  30.857  29.580  1.00  0.00     0.049 A 
ATOM     43  H   UNL A   1      40.708  30.296  30.088  1.00  0.00     0.167 HD
ATOM     44  C   UNL A   1      44.758  29.024  31.100  1.00  0.00     0.031 A 
ATOM     45  C   UNL A   1      38.573  32.105  30.046  1.00  0.00     0.031 A 
ATOM     46  C   UNL A   1      44.665  30.376  31.583  1.00  0.00     0.049 A 
ATOM     47  C   UNL A   1      39.696  32.810  30.758  1.00  0.00     0.074 A 
ATOM     48  C   UNL A   1      45.637  31.138  32.206  1.00  0.00     0.029 A 
ATOM     49  N   UNL A   1      43.531  31.171  31.494  1.00  0.00    -0.354 N 
ATOM     50  N   UNL A   1      40.905  32.377  31.023  1.00  0.00    -0.248 NA
ATOM     51  C   UNL A   1      39.430  34.179  31.222  1.00  0.00     0.031 C 
ATOM     52  C   UNL A   1      45.079  32.380  32.533  1.00  0.00     0.029 A 
ATOM     53  C   UNL A   1      43.775  32.409  32.064  1.00  0.00     0.049 A 
ATOM     54  H   UNL A   1      42.679  30.895  31.086  1.00  0.00     0.167 HD
ATOM     55  C   UNL A   1      41.555  33.432  31.655  1.00  0.00     0.074 A 
ATOM     56  C   UNL A   1      40.607  34.526  31.724  1.00  0.00     0.031 C 
ATOM     57  C   UNL A   1      42.824  33.490  32.128  1.00  0.00     0.031 A 
BRANCH  44  58
ATOM     58  C   UNL A   1      46.045  28.270  31.316  1.00  0.00    -0.014 A 
ATOM     59  C   UNL A   1      47.073  28.297  30.355  1.00  0.00     0.010 A 
ATOM     60  C   UNL A   1      46.238  27.534  32.499  1.00  0.00     0.010 A 
ATOM     61  C   UNL A   1      48.242  27.556  30.546  1.00  0.00     0.020 A 
ATOM     62  C   UNL A   1      47.419  26.816  32.708  1.00  0.00     0.020 A 
ATOM     63  C   UNL A   1      48.404  26.813  31.719  1.00  0.00     0.054 A 
BRANCH  63  64
ATOM     64  S   UNL A   1      49.930  25.857  31.939  1.00  0.00     0.124 S 
ATOM     65  O   UNL A   1      50.014  25.130  30.675  1.00  0.00    -0.237 OA
ATOM     66  O   UNL A   1      50.937  26.897  32.134  1.00  0.00    -0.237 OA
ATOM     67  O   UNL A   1      49.655  25.033  33.114  1.00  0.00    -0.744 OA
ENDBRANCH  63  64
ENDBRANCH  44  58
BRANCH  45  68
ATOM     68  C   UNL A   1      37.270  32.786  29.819  1.00  0.00    -0.014 A 
ATOM     69  C   UNL A   1      36.294  32.813  30.832  1.00  0.00     0.010 A 
ATOM     70  C   UNL A   1      37.003  33.429  28.596  1.00  0.00     0.010 A 
ATOM     71  C   UNL A   1      35.072  33.458  30.623  1.00  0.00     0.020 A 
ATOM     72  C   UNL A   1      35.792  34.096  28.393  1.00  0.00     0.020 A 
ATOM     73  C   UNL A   1      34.830  34.099  29.405  1.00  0.00     0.054 A 
BRANCH  73  74
ATOM     74  S   UNL A   1      33.262  34.983  29.179  1.00  0.00     0.124 S 
ATOM     75  O   UNL A   1      32.590  34.158  28.180  1.00  0.00    -0.237 OA
ATOM     76  O   UNL A   1      32.685  34.952  30.520  1.00  0.00    -0.237 OA
ATOM     77  O   UNL A   1      33.681  36.307  28.720  1.00  0.00    -0.744 OA
ENDBRANCH  73  74
ENDBRANCH  45  68
BRANCH  57  78
ATOM     78  C   UNL A   1      43.280  34.795  32.728  1.00  0.00    -0.014 A 
ATOM     79  C   UNL A   1      43.774  35.836  31.925  1.00  0.00     0.010 A 
ATOM     80  C   UNL A   1      43.173  34.990  34.117  1.00  0.00     0.010 A 
ATOM     81  C   UNL A   1      44.187  37.039  32.505  1.00  0.00     0.020 A 
ATOM     82  C   UNL A   1      43.559  36.202  34.697  1.00  0.00     0.020 A 
ATOM     83  C   UNL A   1      44.080  37.214  33.888  1.00  0.00     0.054 A 
BRANCH  83  84
ATOM     84  S   UNL A   1      44.592  38.795  34.615  1.00  0.00     0.124 S 
ATOM     85  O   UNL A   1      45.904  38.998  34.005  1.00  0.00    -0.237 OA
ATOM     86  O   UNL A   1      43.544  39.709  34.168  1.00  0.00    -0.237 OA
ATOM     87  O   UNL A   1      44.607  38.527  36.051  1.00  0.00    -0.744 OA
ENDBRANCH  83  84
ENDBRANCH  57  78
ENDBRANCH  31  32
ENDBRANCH  23  26
ENDBRANCH   1  22
TORSDOF 14
ENDMDL
