MODEL 1
REMARK VINA RESULT:     -12.0      0.000      0.000
REMARK SMILES O=C(NCCCNC(=O)c1ccc(-c2c3nc(c(-c4ccc(S(=O)(=O)[O-])cc4)c4ccc([nH]4)c(-c4ccc(S(=O)(=O)[O-])cc4)c4nc(c(-c5ccc(S(=O)(=O)[O-])cc5)c5ccc2[nH]5)C=C4)C=C3)cc1)C1=Cc2cc(OC(F)(F)F)ccc2O[C@@H]1C(F)(F)F
REMARK SMILES IDX 5 1 4 2 3 3 1 4 2 5 70 7 71 8 84 9 72 10 83 11 73 12 82 13
REMARK SMILES IDX 74 14 81 15 80 16 85 17 86 18 87 19 88 20 75 21 76 22 77 23
REMARK SMILES IDX 78 24 79 25 6 26 7 27 8 28 9 30 10 31 11 32 69 33 12 34
REMARK SMILES IDX 68 35 13 36 14 37 15 38 62 39 16 40 67 41 61 42 63 43 17 44
REMARK SMILES IDX 66 45 60 46 59 47 18 49 48 50 29 51 47 52 30 53 33 54 46 55
REMARK SMILES IDX 64 56 31 57 32 58 45 60 65 61 34 62 19 63 20 64 28 65 21 66
REMARK SMILES IDX 27 67 22 68 23 69 24 70 25 71 26 72 49 73 50 74 58 75 51 76
REMARK SMILES IDX 57 77 52 78 53 79 54 80 55 81 56 82 35 83 36 84 44 85 37 86
REMARK SMILES IDX 43 87 38 88 39 89 40 90 41 91 42 92
REMARK H PARENT 3 6 7 29 63 48 33 59
REMARK Flexibility Score: inf
ROOT
ATOM      1  C   UNL A   1      33.127  27.883  26.661  1.00  0.00     0.042 C 
ENDROOT
BRANCH   1   2
ATOM      2  C   UNL A   1      31.630  27.907  26.379  1.00  0.00     0.118 C 
BRANCH   2   3
ATOM      3  N   UNL A   1      30.927  26.725  26.886  1.00  0.00    -0.352 N 
ATOM      4  O   UNL A   1      30.048  24.634  26.804  1.00  0.00    -0.270 OA
ATOM      5  C   UNL A   1      30.406  25.645  26.215  1.00  0.00     0.251 C 
ATOM      6  H   UNL A   1      30.809  26.700  27.863  1.00  0.00     0.163 HD
BRANCH   5   7
ATOM      7  C   UNL A   1      30.364  25.728  24.746  1.00  0.00     0.067 C 
ATOM      8  C   UNL A   1      29.286  26.308  24.203  1.00  0.00     0.025 C 
ATOM      9  C   UNL A   1      31.658  25.550  24.015  1.00  0.00     0.314 C 
ATOM     10  C   UNL A   1      29.633  27.327  23.206  1.00  0.00     0.021 A 
ATOM     11  O   UNL A   1      32.003  26.695  23.197  1.00  0.00    -0.475 OA
ATOM     12  C   UNL A   1      28.685  28.326  22.955  1.00  0.00     0.058 A 
ATOM     13  C   UNL A   1      30.980  27.552  22.876  1.00  0.00     0.128 A 
ATOM     14  C   UNL A   1      29.090  29.590  22.520  1.00  0.00     0.130 A 
ATOM     15  C   UNL A   1      31.374  28.794  22.384  1.00  0.00     0.051 A 
ATOM     16  C   UNL A   1      30.438  29.823  22.244  1.00  0.00     0.050 A 
BRANCH   9  17
ATOM     17  C   UNL A   1      31.649  24.264  23.176  1.00  0.00     0.429 C 
ATOM     18  F   UNL A   1      30.407  23.718  23.138  1.00  0.00    -0.167 F 
ATOM     19  F   UNL A   1      32.008  24.493  21.891  1.00  0.00    -0.167 F 
ATOM     20  F   UNL A   1      32.485  23.318  23.665  1.00  0.00    -0.167 F 
ENDBRANCH   9  17
BRANCH  14  21
ATOM     21  O   UNL A   1      28.080  30.506  22.449  1.00  0.00    -0.406 OA
BRANCH  21  22
ATOM     22  C   UNL A   1      28.084  31.562  23.398  1.00  0.00     0.573 C 
ATOM     23  F   UNL A   1      26.921  31.600  24.082  1.00  0.00    -0.132 F 
ATOM     24  F   UNL A   1      29.115  31.435  24.260  1.00  0.00    -0.132 F 
ATOM     25  F   UNL A   1      28.227  32.732  22.742  1.00  0.00    -0.132 F 
ENDBRANCH  21  22
ENDBRANCH  14  21
ENDBRANCH   5   7
ENDBRANCH   2   3
ENDBRANCH   1   2
BRANCH   1  26
ATOM     26  C   UNL A   1      33.840  29.123  26.130  1.00  0.00     0.118 C 
BRANCH  26  27
ATOM     27  N   UNL A   1      33.686  30.309  26.965  1.00  0.00    -0.352 N 
ATOM     28  C   UNL A   1      34.529  30.845  27.924  1.00  0.00     0.251 C 
ATOM     29  H   UNL A   1      32.848  30.808  26.825  1.00  0.00     0.163 HD
ATOM     30  O   UNL A   1      34.174  31.820  28.561  1.00  0.00    -0.269 OA
BRANCH  28  31
ATOM     31  C   UNL A   1      35.841  30.205  28.200  1.00  0.00     0.039 A 
ATOM     32  C   UNL A   1      36.848  30.266  27.231  1.00  0.00     0.014 A 
ATOM     33  C   UNL A   1      36.095  29.578  29.418  1.00  0.00     0.014 A 
ATOM     34  C   UNL A   1      38.132  29.797  27.531  1.00  0.00     0.010 A 
ATOM     35  C   UNL A   1      37.398  29.237  29.761  1.00  0.00     0.010 A 
ATOM     36  C   UNL A   1      38.434  29.332  28.821  1.00  0.00    -0.014 A 
BRANCH  36  37
ATOM     37  C   UNL A   1      39.808  28.923  29.224  1.00  0.00     0.031 A 
ATOM     38  C   UNL A   1      40.700  29.907  29.941  1.00  0.00     0.074 A 
ATOM     39  C   UNL A   1      40.294  27.720  28.855  1.00  0.00     0.049 A 
ATOM     40  N   UNL A   1      41.972  29.813  30.230  1.00  0.00    -0.248 NA
ATOM     41  C   UNL A   1      40.092  31.189  30.337  1.00  0.00     0.031 C 
ATOM     42  C   UNL A   1      39.563  26.696  28.104  1.00  0.00     0.029 A 
ATOM     43  N   UNL A   1      41.532  27.157  29.053  1.00  0.00    -0.354 N 
ATOM     44  C   UNL A   1      42.324  31.037  30.791  1.00  0.00     0.074 A 
ATOM     45  C   UNL A   1      41.148  31.877  30.744  1.00  0.00     0.031 C 
ATOM     46  C   UNL A   1      40.349  25.619  27.941  1.00  0.00     0.029 A 
ATOM     47  C   UNL A   1      41.655  25.890  28.530  1.00  0.00     0.049 A 
ATOM     48  H   UNL A   1      42.262  27.617  29.526  1.00  0.00     0.167 HD
ATOM     49  C   UNL A   1      43.507  31.422  31.325  1.00  0.00     0.031 A 
ATOM     50  C   UNL A   1      42.703  25.043  28.522  1.00  0.00     0.031 A 
ATOM     51  C   UNL A   1      44.654  30.563  31.427  1.00  0.00     0.049 A 
ATOM     52  C   UNL A   1      43.991  25.469  29.172  1.00  0.00     0.074 A 
ATOM     53  C   UNL A   1      45.875  30.824  32.024  1.00  0.00     0.029 A 
ATOM     54  N   UNL A   1      44.716  29.268  30.938  1.00  0.00    -0.354 N 
ATOM     55  N   UNL A   1      44.286  26.612  29.744  1.00  0.00    -0.248 NA
ATOM     56  C   UNL A   1      45.083  24.486  29.187  1.00  0.00     0.031 C 
ATOM     57  C   UNL A   1      46.687  29.696  31.865  1.00  0.00     0.029 A 
ATOM     58  C   UNL A   1      45.954  28.717  31.212  1.00  0.00     0.049 A 
ATOM     59  H   UNL A   1      43.985  28.808  30.463  1.00  0.00     0.167 HD
ATOM     60  C   UNL A   1      45.588  26.476  30.212  1.00  0.00     0.074 A 
ATOM     61  C   UNL A   1      46.017  25.136  29.869  1.00  0.00     0.031 C 
ATOM     62  C   UNL A   1      46.358  27.378  30.869  1.00  0.00     0.031 A 
BRANCH  49  63
ATOM     63  C   UNL A   1      43.607  32.830  31.853  1.00  0.00    -0.014 A 
ATOM     64  C   UNL A   1      43.212  33.143  33.167  1.00  0.00     0.010 A 
ATOM     65  C   UNL A   1      44.114  33.853  31.031  1.00  0.00     0.010 A 
ATOM     66  C   UNL A   1      43.269  34.461  33.630  1.00  0.00     0.020 A 
ATOM     67  C   UNL A   1      44.204  35.167  31.501  1.00  0.00     0.020 A 
ATOM     68  C   UNL A   1      43.759  35.465  32.791  1.00  0.00     0.054 A 
BRANCH  68  69
ATOM     69  S   UNL A   1      43.830  37.164  33.421  1.00  0.00     0.124 S 
ATOM     70  O   UNL A   1      45.120  37.176  34.108  1.00  0.00    -0.237 OA
ATOM     71  O   UNL A   1      43.763  37.963  32.200  1.00  0.00    -0.237 OA
ATOM     72  O   UNL A   1      42.661  37.261  34.291  1.00  0.00    -0.744 OA
ENDBRANCH  68  69
ENDBRANCH  49  63
BRANCH  50  73
ATOM     73  C   UNL A   1      42.565  23.692  27.910  1.00  0.00    -0.014 A 
ATOM     74  C   UNL A   1      42.134  22.603  28.688  1.00  0.00     0.010 A 
ATOM     75  C   UNL A   1      42.848  23.488  26.548  1.00  0.00     0.010 A 
ATOM     76  C   UNL A   1      42.005  21.331  28.121  1.00  0.00     0.020 A 
ATOM     77  C   UNL A   1      42.694  22.223  25.970  1.00  0.00     0.020 A 
ATOM     78  C   UNL A   1      42.285  21.150  26.764  1.00  0.00     0.054 A 
BRANCH  78  79
ATOM     79  S   UNL A   1      42.061  19.501  26.037  1.00  0.00     0.124 S 
ATOM     80  O   UNL A   1      40.617  19.452  25.838  1.00  0.00    -0.237 OA
ATOM     81  O   UNL A   1      42.866  19.580  24.820  1.00  0.00    -0.237 OA
ATOM     82  O   UNL A   1      42.585  18.603  27.064  1.00  0.00    -0.744 OA
ENDBRANCH  78  79
ENDBRANCH  50  73
BRANCH  62  83
ATOM     83  C   UNL A   1      47.729  26.933  31.298  1.00  0.00    -0.014 A 
ATOM     84  C   UNL A   1      48.861  27.201  30.510  1.00  0.00     0.010 A 
ATOM     85  C   UNL A   1      47.889  26.293  32.541  1.00  0.00     0.010 A 
ATOM     86  C   UNL A   1      50.130  26.807  30.945  1.00  0.00     0.020 A 
ATOM     87  C   UNL A   1      49.158  25.922  32.990  1.00  0.00     0.020 A 
ATOM     88  C   UNL A   1      50.270  26.170  32.182  1.00  0.00     0.054 A 
BRANCH  88  89
ATOM     89  S   UNL A   1      51.931  25.712  32.746  1.00  0.00     0.124 S 
ATOM     90  O   UNL A   1      52.524  25.166  31.528  1.00  0.00    -0.237 OA
ATOM     91  O   UNL A   1      52.481  26.989  33.196  1.00  0.00    -0.237 OA
ATOM     92  O   UNL A   1      51.681  24.741  33.808  1.00  0.00    -0.744 OA
ENDBRANCH  88  89
ENDBRANCH  62  83
ENDBRANCH  36  37
ENDBRANCH  28  31
ENDBRANCH  26  27
ENDBRANCH   1  26
TORSDOF 16
ENDMDL
MODEL 2
REMARK VINA RESULT:     -11.8      2.157      2.592
REMARK SMILES O=C(NCCCNC(=O)c1ccc(-c2c3nc(c(-c4ccc(S(=O)(=O)[O-])cc4)c4ccc([nH]4)c(-c4ccc(S(=O)(=O)[O-])cc4)c4nc(c(-c5ccc(S(=O)(=O)[O-])cc5)c5ccc2[nH]5)C=C4)C=C3)cc1)C1=Cc2cc(OC(F)(F)F)ccc2O[C@@H]1C(F)(F)F
REMARK SMILES IDX 5 1 4 2 3 3 1 4 2 5 70 7 71 8 84 9 72 10 83 11 73 12 82 13
REMARK SMILES IDX 74 14 81 15 80 16 85 17 86 18 87 19 88 20 75 21 76 22 77 23
REMARK SMILES IDX 78 24 79 25 6 26 7 27 8 28 9 30 10 31 11 32 69 33 12 34
REMARK SMILES IDX 68 35 13 36 14 37 15 38 62 39 16 40 67 41 61 42 63 43 17 44
REMARK SMILES IDX 66 45 60 46 59 47 18 49 48 50 29 51 47 52 30 53 33 54 46 55
REMARK SMILES IDX 64 56 31 57 32 58 45 60 65 61 34 62 19 63 20 64 28 65 21 66
REMARK SMILES IDX 27 67 22 68 23 69 24 70 25 71 26 72 49 73 50 74 58 75 51 76
REMARK SMILES IDX 57 77 52 78 53 79 54 80 55 81 56 82 35 83 36 84 44 85 37 86
REMARK SMILES IDX 43 87 38 88 39 89 40 90 41 91 42 92
REMARK H PARENT 3 6 7 29 63 48 33 59
REMARK Flexibility Score: inf
ROOT
ATOM      1  C   UNL A   1      33.211  27.905  26.585  1.00  0.00     0.042 C 
ENDROOT
BRANCH   1   2
ATOM      2  C   UNL A   1      31.698  27.936  26.405  1.00  0.00     0.118 C 
BRANCH   2   3
ATOM      3  N   UNL A   1      31.030  26.735  26.914  1.00  0.00    -0.352 N 
ATOM      4  O   UNL A   1      30.202  24.624  26.833  1.00  0.00    -0.270 OA
ATOM      5  C   UNL A   1      30.530  25.645  26.244  1.00  0.00     0.251 C 
ATOM      6  H   UNL A   1      30.921  26.705  27.892  1.00  0.00     0.163 HD
BRANCH   5   7
ATOM      7  C   UNL A   1      30.472  25.732  24.775  1.00  0.00     0.067 C 
ATOM      8  C   UNL A   1      29.371  26.275  24.244  1.00  0.00     0.025 C 
ATOM      9  C   UNL A   1      31.766  25.602  24.034  1.00  0.00     0.314 C 
ATOM     10  C   UNL A   1      29.673  27.309  23.247  1.00  0.00     0.021 A 
ATOM     11  O   UNL A   1      32.064  26.762  23.217  1.00  0.00    -0.475 OA
ATOM     12  C   UNL A   1      28.689  28.275  23.009  1.00  0.00     0.058 A 
ATOM     13  C   UNL A   1      31.008  27.583  22.908  1.00  0.00     0.128 A 
ATOM     14  C   UNL A   1      29.045  29.555  22.575  1.00  0.00     0.130 A 
ATOM     15  C   UNL A   1      31.355  28.840  22.417  1.00  0.00     0.051 A 
ATOM     16  C   UNL A   1      30.382  29.835  22.289  1.00  0.00     0.050 A 
BRANCH   9  17
ATOM     17  C   UNL A   1      31.795  24.319  23.190  1.00  0.00     0.429 C 
ATOM     18  F   UNL A   1      32.105  24.595  21.897  1.00  0.00    -0.167 F 
ATOM     19  F   UNL A   1      32.728  23.442  23.630  1.00  0.00    -0.167 F 
ATOM     20  F   UNL A   1      30.606  23.673  23.186  1.00  0.00    -0.167 F 
ENDBRANCH   9  17
BRANCH  14  21
ATOM     21  O   UNL A   1      28.003  30.434  22.516  1.00  0.00    -0.406 OA
BRANCH  21  22
ATOM     22  C   UNL A   1      28.025  31.539  23.407  1.00  0.00     0.573 C 
ATOM     23  F   UNL A   1      26.814  31.729  23.970  1.00  0.00    -0.132 F 
ATOM     24  F   UNL A   1      28.953  31.364  24.372  1.00  0.00    -0.132 F 
ATOM     25  F   UNL A   1      28.348  32.649  22.711  1.00  0.00    -0.132 F 
ENDBRANCH  21  22
ENDBRANCH  14  21
ENDBRANCH   5   7
ENDBRANCH   2   3
ENDBRANCH   1   2
BRANCH   1  26
ATOM     26  C   UNL A   1      33.902  29.091  25.921  1.00  0.00     0.118 C 
BRANCH  26  27
ATOM     27  N   UNL A   1      33.664  30.371  26.578  1.00  0.00    -0.352 N 
ATOM     28  C   UNL A   1      34.388  31.023  27.562  1.00  0.00     0.251 C 
ATOM     29  H   UNL A   1      32.857  30.848  26.273  1.00  0.00     0.163 HD
ATOM     30  O   UNL A   1      33.971  32.068  28.024  1.00  0.00    -0.269 OA
BRANCH  28  31
ATOM     31  C   UNL A   1      35.646  30.423  28.076  1.00  0.00     0.039 A 
ATOM     32  C   UNL A   1      36.872  30.869  27.573  1.00  0.00     0.014 A 
ATOM     33  C   UNL A   1      35.625  29.452  29.075  1.00  0.00     0.014 A 
ATOM     34  C   UNL A   1      38.066  30.420  28.147  1.00  0.00     0.010 A 
ATOM     35  C   UNL A   1      36.801  29.111  29.732  1.00  0.00     0.010 A 
ATOM     36  C   UNL A   1      38.040  29.582  29.274  1.00  0.00    -0.014 A 
BRANCH  36  37
ATOM     37  C   UNL A   1      39.277  29.163  29.989  1.00  0.00     0.031 A 
ATOM     38  C   UNL A   1      39.713  29.908  31.227  1.00  0.00     0.074 A 
ATOM     39  C   UNL A   1      40.065  28.196  29.475  1.00  0.00     0.049 A 
ATOM     40  N   UNL A   1      40.831  29.815  31.899  1.00  0.00    -0.248 NA
ATOM     41  C   UNL A   1      38.788  30.931  31.747  1.00  0.00     0.031 C 
ATOM     42  C   UNL A   1      39.797  27.436  28.250  1.00  0.00     0.029 A 
ATOM     43  N   UNL A   1      41.264  27.691  29.915  1.00  0.00    -0.354 N 
ATOM     44  C   UNL A   1      40.765  30.798  32.881  1.00  0.00     0.074 A 
ATOM     45  C   UNL A   1      39.525  31.515  32.678  1.00  0.00     0.031 C 
ATOM     46  C   UNL A   1      40.779  26.539  28.060  1.00  0.00     0.029 A 
ATOM     47  C   UNL A   1      41.771  26.690  29.119  1.00  0.00     0.049 A 
ATOM     48  H   UNL A   1      41.718  28.016  30.726  1.00  0.00     0.167 HD
ATOM     49  C   UNL A   1      41.637  31.065  33.881  1.00  0.00     0.031 A 
ATOM     50  C   UNL A   1      42.908  25.975  29.226  1.00  0.00     0.031 A 
ATOM     51  C   UNL A   1      42.836  30.309  34.118  1.00  0.00     0.049 A 
ATOM     52  C   UNL A   1      43.836  26.248  30.377  1.00  0.00     0.074 A 
ATOM     53  C   UNL A   1      43.748  30.442  35.150  1.00  0.00     0.029 A 
ATOM     54  N   UNL A   1      43.280  29.266  33.321  1.00  0.00    -0.354 N 
ATOM     55  N   UNL A   1      43.729  27.148  31.326  1.00  0.00    -0.248 NA
ATOM     56  C   UNL A   1      45.033  25.402  30.481  1.00  0.00     0.031 C 
ATOM     57  C   UNL A   1      44.762  29.497  34.959  1.00  0.00     0.029 A 
ATOM     58  C   UNL A   1      44.455  28.747  33.834  1.00  0.00     0.049 A 
ATOM     59  H   UNL A   1      42.826  28.941  32.510  1.00  0.00     0.167 HD
ATOM     60  C   UNL A   1      44.828  26.957  32.155  1.00  0.00     0.074 A 
ATOM     61  C   UNL A   1      45.580  25.849  31.604  1.00  0.00     0.031 C 
ATOM     62  C   UNL A   1      45.182  27.637  33.274  1.00  0.00     0.031 A 
BRANCH  49  63
ATOM     63  C   UNL A   1      41.312  32.214  34.801  1.00  0.00    -0.014 A 
ATOM     64  C   UNL A   1      40.468  32.038  35.913  1.00  0.00     0.010 A 
ATOM     65  C   UNL A   1      41.866  33.484  34.560  1.00  0.00     0.010 A 
ATOM     66  C   UNL A   1      40.139  33.120  36.733  1.00  0.00     0.020 A 
ATOM     67  C   UNL A   1      41.567  34.563  35.397  1.00  0.00     0.020 A 
ATOM     68  C   UNL A   1      40.687  34.378  36.466  1.00  0.00     0.054 A 
BRANCH  68  69
ATOM     69  S   UNL A   1      40.250  35.763  37.551  1.00  0.00     0.124 S 
ATOM     70  O   UNL A   1      41.548  36.117  38.123  1.00  0.00    -0.237 OA
ATOM     71  O   UNL A   1      39.689  36.738  36.620  1.00  0.00    -0.237 OA
ATOM     72  O   UNL A   1      39.295  35.181  38.490  1.00  0.00    -0.744 OA
ENDBRANCH  68  69
ENDBRANCH  49  63
BRANCH  50  73
ATOM     73  C   UNL A   1      43.213  24.906  28.235  1.00  0.00    -0.014 A 
ATOM     74  C   UNL A   1      42.768  23.589  28.454  1.00  0.00     0.010 A 
ATOM     75  C   UNL A   1      43.934  25.197  27.063  1.00  0.00     0.010 A 
ATOM     76  C   UNL A   1      43.054  22.580  27.530  1.00  0.00     0.020 A 
ATOM     77  C   UNL A   1      44.198  24.195  26.122  1.00  0.00     0.020 A 
ATOM     78  C   UNL A   1      43.767  22.890  26.368  1.00  0.00     0.054 A 
BRANCH  78  79
ATOM     79  S   UNL A   1      44.080  21.575  25.157  1.00  0.00     0.124 S 
ATOM     80  O   UNL A   1      43.021  20.620  25.465  1.00  0.00    -0.237 OA
ATOM     81  O   UNL A   1      43.947  22.278  23.884  1.00  0.00    -0.237 OA
ATOM     82  O   UNL A   1      45.436  21.134  25.478  1.00  0.00    -0.744 OA
ENDBRANCH  78  79
ENDBRANCH  50  73
BRANCH  62  83
ATOM     83  C   UNL A   1      46.416  27.175  34.001  1.00  0.00    -0.014 A 
ATOM     84  C   UNL A   1      47.677  27.723  33.716  1.00  0.00     0.010 A 
ATOM     85  C   UNL A   1      46.293  26.222  35.029  1.00  0.00     0.010 A 
ATOM     86  C   UNL A   1      48.804  27.303  34.428  1.00  0.00     0.020 A 
ATOM     87  C   UNL A   1      47.413  25.819  35.760  1.00  0.00     0.020 A 
ATOM     88  C   UNL A   1      48.665  26.352  35.445  1.00  0.00     0.054 A 
BRANCH  88  89
ATOM     89  S   UNL A   1      50.133  25.858  36.387  1.00  0.00     0.124 S 
ATOM     90  O   UNL A   1      50.233  24.437  36.067  1.00  0.00    -0.237 OA
ATOM     91  O   UNL A   1      51.179  26.706  35.820  1.00  0.00    -0.237 OA
ATOM     92  O   UNL A   1      49.775  26.163  37.770  1.00  0.00    -0.744 OA
ENDBRANCH  88  89
ENDBRANCH  62  83
ENDBRANCH  36  37
ENDBRANCH  28  31
ENDBRANCH  26  27
ENDBRANCH   1  26
TORSDOF 16
ENDMDL
MODEL 3
REMARK VINA RESULT:     -11.7      2.366      4.663
REMARK SMILES O=C(NCCCNC(=O)c1ccc(-c2c3nc(c(-c4ccc(S(=O)(=O)[O-])cc4)c4ccc([nH]4)c(-c4ccc(S(=O)(=O)[O-])cc4)c4nc(c(-c5ccc(S(=O)(=O)[O-])cc5)c5ccc2[nH]5)C=C4)C=C3)cc1)C1=Cc2cc(OC(F)(F)F)ccc2O[C@@H]1C(F)(F)F
REMARK SMILES IDX 5 1 4 2 3 3 1 4 2 5 70 7 71 8 84 9 72 10 83 11 73 12 82 13
REMARK SMILES IDX 74 14 81 15 80 16 85 17 86 18 87 19 88 20 75 21 76 22 77 23
REMARK SMILES IDX 78 24 79 25 6 26 7 27 8 28 9 30 10 31 11 32 69 33 12 34
REMARK SMILES IDX 68 35 13 36 14 37 15 38 62 39 16 40 67 41 61 42 63 43 17 44
REMARK SMILES IDX 66 45 60 46 59 47 18 49 48 50 29 51 47 52 30 53 33 54 46 55
REMARK SMILES IDX 64 56 31 57 32 58 45 60 65 61 34 62 19 63 20 64 28 65 21 66
REMARK SMILES IDX 27 67 22 68 23 69 24 70 25 71 26 72 49 73 50 74 58 75 51 76
REMARK SMILES IDX 57 77 52 78 53 79 54 80 55 81 56 82 35 83 36 84 44 85 37 86
REMARK SMILES IDX 43 87 38 88 39 89 40 90 41 91 42 92
REMARK H PARENT 3 6 7 29 63 48 33 59
REMARK Flexibility Score: inf
ROOT
ATOM      1  C   UNL A   1      32.477  27.885  27.053  1.00  0.00     0.042 C 
ENDROOT
BRANCH   1   2
ATOM      2  C   UNL A   1      32.737  26.485  26.510  1.00  0.00     0.118 C 
BRANCH   2   3
ATOM      3  N   UNL A   1      31.582  25.592  26.634  1.00  0.00    -0.352 N 
ATOM      4  O   UNL A   1      30.433  23.642  26.468  1.00  0.00    -0.270 OA
ATOM      5  C   UNL A   1      31.353  24.353  26.087  1.00  0.00     0.251 C 
ATOM      6  H   UNL A   1      30.852  25.936  27.199  1.00  0.00     0.163 HD
BRANCH   5   7
ATOM      7  C   UNL A   1      32.309  23.885  25.069  1.00  0.00     0.067 C 
ATOM      8  C   UNL A   1      33.147  22.906  25.431  1.00  0.00     0.025 C 
ATOM      9  C   UNL A   1      32.007  24.226  23.643  1.00  0.00     0.314 C 
ATOM     10  C   UNL A   1      33.184  21.805  24.462  1.00  0.00     0.021 A 
ATOM     11  O   UNL A   1      31.880  23.053  22.801  1.00  0.00    -0.475 OA
ATOM     12  C   UNL A   1      33.586  20.550  24.934  1.00  0.00     0.058 A 
ATOM     13  C   UNL A   1      32.432  21.891  23.278  1.00  0.00     0.128 A 
ATOM     14  C   UNL A   1      33.123  19.383  24.321  1.00  0.00     0.130 A 
ATOM     15  C   UNL A   1      32.022  20.727  22.632  1.00  0.00     0.051 A 
ATOM     16  C   UNL A   1      32.333  19.477  23.174  1.00  0.00     0.050 A 
BRANCH   9  17
ATOM     17  C   UNL A   1      33.053  25.196  23.072  1.00  0.00     0.429 C 
ATOM     18  F   UNL A   1      33.217  25.002  21.739  1.00  0.00    -0.167 F 
ATOM     19  F   UNL A   1      32.686  26.489  23.231  1.00  0.00    -0.167 F 
ATOM     20  F   UNL A   1      34.268  25.049  23.650  1.00  0.00    -0.167 F 
ENDBRANCH   9  17
BRANCH  14  21
ATOM     21  O   UNL A   1      33.481  18.234  24.965  1.00  0.00    -0.406 OA
BRANCH  21  22
ATOM     22  C   UNL A   1      34.420  17.386  24.321  1.00  0.00     0.573 C 
ATOM     23  F   UNL A   1      34.325  17.493  22.979  1.00  0.00    -0.132 F 
ATOM     24  F   UNL A   1      35.679  17.672  24.714  1.00  0.00    -0.132 F 
ATOM     25  F   UNL A   1      34.153  16.108  24.664  1.00  0.00    -0.132 F 
ENDBRANCH  21  22
ENDBRANCH  14  21
ENDBRANCH   5   7
ENDBRANCH   2   3
ENDBRANCH   1   2
BRANCH   1  26
ATOM     26  C   UNL A   1      33.598  28.861  26.710  1.00  0.00     0.118 C 
BRANCH  26  27
ATOM     27  N   UNL A   1      33.541  30.123  27.438  1.00  0.00    -0.352 N 
ATOM     28  C   UNL A   1      34.494  30.748  28.224  1.00  0.00     0.251 C 
ATOM     29  H   UNL A   1      32.687  30.608  27.360  1.00  0.00     0.163 HD
ATOM     30  O   UNL A   1      34.214  31.781  28.804  1.00  0.00    -0.269 OA
BRANCH  28  31
ATOM     31  C   UNL A   1      35.837  30.135  28.389  1.00  0.00     0.039 A 
ATOM     32  C   UNL A   1      36.758  30.212  27.339  1.00  0.00     0.014 A 
ATOM     33  C   UNL A   1      36.206  29.517  29.583  1.00  0.00     0.014 A 
ATOM     34  C   UNL A   1      38.071  29.769  27.530  1.00  0.00     0.010 A 
ATOM     35  C   UNL A   1      37.539  29.203  29.815  1.00  0.00     0.010 A 
ATOM     36  C   UNL A   1      38.491  29.315  28.791  1.00  0.00    -0.014 A 
BRANCH  36  37
ATOM     37  C   UNL A   1      39.901  28.935  29.076  1.00  0.00     0.031 A 
ATOM     38  C   UNL A   1      40.848  29.957  29.657  1.00  0.00     0.074 A 
ATOM     39  C   UNL A   1      40.363  27.719  28.717  1.00  0.00     0.049 A 
ATOM     40  N   UNL A   1      42.143  29.885  29.825  1.00  0.00    -0.248 NA
ATOM     41  C   UNL A   1      40.267  31.252  30.052  1.00  0.00     0.031 C 
ATOM     42  C   UNL A   1      39.575  26.656  28.088  1.00  0.00     0.029 A 
ATOM     43  N   UNL A   1      41.620  27.174  28.820  1.00  0.00    -0.354 N 
ATOM     44  C   UNL A   1      42.533  31.136  30.293  1.00  0.00     0.074 A 
ATOM     45  C   UNL A   1      41.349  31.964  30.323  1.00  0.00     0.031 C 
ATOM     46  C   UNL A   1      40.353  25.578  27.899  1.00  0.00     0.029 A 
ATOM     47  C   UNL A   1      41.707  25.885  28.346  1.00  0.00     0.049 A 
ATOM     48  H   UNL A   1      42.388  27.660  29.198  1.00  0.00     0.167 HD
ATOM     49  C   UNL A   1      43.758  31.553  30.692  1.00  0.00     0.031 A 
ATOM     50  C   UNL A   1      42.758  25.045  28.275  1.00  0.00     0.031 A 
ATOM     51  C   UNL A   1      44.920  30.708  30.722  1.00  0.00     0.049 A 
ATOM     52  C   UNL A   1      44.098  25.509  28.776  1.00  0.00     0.074 A 
ATOM     53  C   UNL A   1      46.189  31.005  31.184  1.00  0.00     0.029 A 
ATOM     54  N   UNL A   1      44.948  29.392  30.288  1.00  0.00    -0.354 N 
ATOM     55  N   UNL A   1      44.434  26.680  29.264  1.00  0.00    -0.248 NA
ATOM     56  C   UNL A   1      45.198  24.536  28.730  1.00  0.00     0.031 C 
ATOM     57  C   UNL A   1      46.995  29.876  30.999  1.00  0.00     0.029 A 
ATOM     58  C   UNL A   1      46.213  28.863  30.466  1.00  0.00     0.049 A 
ATOM     59  H   UNL A   1      44.180  28.905  29.908  1.00  0.00     0.167 HD
ATOM     60  C   UNL A   1      45.777  26.574  29.610  1.00  0.00     0.074 A 
ATOM     61  C   UNL A   1      46.186  25.223  29.287  1.00  0.00     0.031 C 
ATOM     62  C   UNL A   1      46.596  27.511  30.147  1.00  0.00     0.031 A 
BRANCH  49  63
ATOM     63  C   UNL A   1      43.893  32.985  31.143  1.00  0.00    -0.014 A 
ATOM     64  C   UNL A   1      44.285  33.996  30.246  1.00  0.00     0.010 A 
ATOM     65  C   UNL A   1      43.611  33.329  32.478  1.00  0.00     0.010 A 
ATOM     66  C   UNL A   1      44.449  35.311  30.687  1.00  0.00     0.020 A 
ATOM     67  C   UNL A   1      43.741  34.651  32.916  1.00  0.00     0.020 A 
ATOM     68  C   UNL A   1      44.181  35.629  32.021  1.00  0.00     0.054 A 
BRANCH  68  69
ATOM     69  S   UNL A   1      44.393  37.346  32.564  1.00  0.00     0.124 S 
ATOM     70  O   UNL A   1      44.039  38.089  31.356  1.00  0.00    -0.237 OA
ATOM     71  O   UNL A   1      43.443  37.455  33.668  1.00  0.00    -0.237 OA
ATOM     72  O   UNL A   1      45.800  37.418  32.948  1.00  0.00    -0.744 OA
ENDBRANCH  68  69
ENDBRANCH  49  63
BRANCH  50  73
ATOM     73  C   UNL A   1      42.577  23.667  27.741  1.00  0.00    -0.014 A 
ATOM     74  C   UNL A   1      42.778  23.404  26.374  1.00  0.00     0.010 A 
ATOM     75  C   UNL A   1      42.220  22.607  28.594  1.00  0.00     0.010 A 
ATOM     76  C   UNL A   1      42.606  22.114  25.865  1.00  0.00     0.020 A 
ATOM     77  C   UNL A   1      42.074  21.308  28.093  1.00  0.00     0.020 A 
ATOM     78  C   UNL A   1      42.257  21.073  26.729  1.00  0.00     0.054 A 
BRANCH  78  79
ATOM     79  S   UNL A   1      42.091  19.395  26.056  1.00  0.00     0.124 S 
ATOM     80  O   UNL A   1      42.557  18.574  27.169  1.00  0.00    -0.237 OA
ATOM     81  O   UNL A   1      40.662  19.311  25.763  1.00  0.00    -0.237 OA
ATOM     82  O   UNL A   1      42.960  19.413  24.881  1.00  0.00    -0.744 OA
ENDBRANCH  78  79
ENDBRANCH  50  73
BRANCH  62  83
ATOM     83  C   UNL A   1      48.008  27.096  30.460  1.00  0.00    -0.014 A 
ATOM     84  C   UNL A   1      49.052  27.317  29.547  1.00  0.00     0.010 A 
ATOM     85  C   UNL A   1      48.298  26.535  31.717  1.00  0.00     0.010 A 
ATOM     86  C   UNL A   1      50.361  26.953  29.873  1.00  0.00     0.020 A 
ATOM     87  C   UNL A   1      49.609  26.195  32.057  1.00  0.00     0.020 A 
ATOM     88  C   UNL A   1      50.631  26.393  31.126  1.00  0.00     0.054 A 
BRANCH  88  89
ATOM     89  S   UNL A   1      52.345  25.974  31.546  1.00  0.00     0.124 S 
ATOM     90  O   UNL A   1      52.214  24.596  32.010  1.00  0.00    -0.237 OA
ATOM     91  O   UNL A   1      53.038  26.146  30.272  1.00  0.00    -0.237 OA
ATOM     92  O   UNL A   1      52.697  26.949  32.576  1.00  0.00    -0.744 OA
ENDBRANCH  88  89
ENDBRANCH  62  83
ENDBRANCH  36  37
ENDBRANCH  28  31
ENDBRANCH  26  27
ENDBRANCH   1  26
TORSDOF 16
ENDMDL
