MODEL 1
REMARK VINA RESULT:     -10.9      0.000      0.000
REMARK SMILES O=C(C[C@H](NC(=O)OCc1ccccc1)c1ccc(Cl)cc1)NCCCNC(=O)c1ccc(-c2c3nc(c(-c4ccc(S(=O)(=O)[O-])cc4)c4ccc([nH]4)c(-c4ccc(S(=O)(=O)[O-])cc4)c4nc(c(-c5ccc(S(=O)(=O)[O-])cc5)c5ccc2[nH]5)C=C4)C=C3)cc1
REMARK SMILES IDX 24 1 23 2 1 3 2 4 3 6 4 7 16 8 17 9 22 10 18 11 21 12 19 13
REMARK SMILES IDX 20 14 5 15 6 16 7 18 8 19 9 20 10 21 11 22 15 23 12 24 14 25
REMARK SMILES IDX 13 26 25 27 26 28 27 29 28 30 29 32 30 33 31 34 89 35 32 36
REMARK SMILES IDX 88 37 33 38 34 39 35 40 82 41 36 42 87 43 81 44 83 45 37 46
REMARK SMILES IDX 86 47 80 48 79 49 38 51 68 52 49 53 67 54 50 55 53 56 66 57
REMARK SMILES IDX 84 58 51 59 52 60 65 62 85 63 54 64 39 65 40 66 48 67 41 68
REMARK SMILES IDX 47 69 42 70 43 71 44 72 45 73 46 74 69 75 70 76 78 77 71 78
REMARK SMILES IDX 77 79 72 80 73 81 74 82 75 83 76 84 55 85 56 86 64 87 57 88
REMARK SMILES IDX 63 89 58 90 59 91 60 92 61 93 62 94
REMARK H PARENT 23 5 5 17 27 31 83 50 53 61
REMARK Flexibility Score: inf
ROOT
ATOM      1  C   UNL A   1      32.300  30.009  26.962  1.00  0.00     0.117 C 
ENDROOT
BRANCH   1   2
ATOM      2  N   UNL A   1      32.690  29.410  25.700  1.00  0.00    -0.356 N 
ATOM      3  O   UNL A   1      34.350  28.076  26.570  1.00  0.00    -0.275 OA
ATOM      4  C   UNL A   1      33.636  28.407  25.630  1.00  0.00     0.222 C 
ATOM      5  H   UNL A   1      32.268  29.728  24.869  1.00  0.00     0.163 HD
BRANCH   4   6
ATOM      6  C   UNL A   1      33.677  27.689  24.295  1.00  0.00     0.130 C 
BRANCH   6   7
ATOM      7  C   UNL A   1      32.991  26.308  24.383  1.00  0.00     0.125 C 
BRANCH   7   8
ATOM      8  C   UNL A   1      33.988  25.153  24.381  1.00  0.00    -0.025 A 
ATOM      9  C   UNL A   1      34.044  24.299  23.263  1.00  0.00     0.007 A 
ATOM     10  C   UNL A   1      34.882  24.915  25.439  1.00  0.00     0.007 A 
ATOM     11  C   UNL A   1      34.979  23.264  23.193  1.00  0.00     0.021 A 
ATOM     12  C   UNL A   1      35.817  23.876  25.370  1.00  0.00     0.021 A 
ATOM     13  C   UNL A   1      35.864  23.058  24.245  1.00  0.00     0.041 A 
ATOM     14  Cl  UNL A   1      37.020  21.786  24.158  1.00  0.00    -0.084 Cl
ENDBRANCH   7   8
BRANCH   7  15
ATOM     15  N   UNL A   1      32.104  26.302  25.539  1.00  0.00    -0.314 N 
ATOM     16  C   UNL A   1      30.969  25.585  25.728  1.00  0.00     0.407 C 
ATOM     17  H   UNL A   1      32.363  26.897  26.280  1.00  0.00     0.167 HD
ATOM     18  O   UNL A   1      30.193  25.898  26.621  1.00  0.00    -0.225 OA
BRANCH  16  19
ATOM     19  O   UNL A   1      30.851  24.520  24.904  1.00  0.00    -0.445 OA
BRANCH  19  20
ATOM     20  C   UNL A   1      30.534  23.278  25.554  1.00  0.00     0.270 C 
BRANCH  20  21
ATOM     21  C   UNL A   1      31.779  22.568  26.044  1.00  0.00    -0.011 A 
ATOM     22  C   UNL A   1      32.353  22.882  27.286  1.00  0.00     0.007 A 
ATOM     23  C   UNL A   1      32.357  21.538  25.288  1.00  0.00     0.007 A 
ATOM     24  C   UNL A   1      33.486  22.211  27.748  1.00  0.00     0.000 A 
ATOM     25  C   UNL A   1      33.486  20.858  25.756  1.00  0.00     0.000 A 
ATOM     26  C   UNL A   1      34.052  21.198  26.983  1.00  0.00     0.000 A 
ENDBRANCH  20  21
ENDBRANCH  19  20
ENDBRANCH  16  19
ENDBRANCH   7  15
ENDBRANCH   6   7
ENDBRANCH   4   6
ENDBRANCH   1   2
BRANCH   1  27
ATOM     27  C   UNL A   1      32.057  31.508  26.862  1.00  0.00     0.042 C 
BRANCH  27  28
ATOM     28  C   UNL A   1      33.126  32.376  27.519  1.00  0.00     0.118 C 
BRANCH  28  29
ATOM     29  N   UNL A   1      32.711  33.757  27.729  1.00  0.00    -0.352 N 
ATOM     30  C   UNL A   1      33.219  34.691  28.603  1.00  0.00     0.251 C 
ATOM     31  H   UNL A   1      31.963  34.063  27.168  1.00  0.00     0.163 HD
ATOM     32  O   UNL A   1      32.669  35.782  28.720  1.00  0.00    -0.269 OA
BRANCH  30  33
ATOM     33  C   UNL A   1      34.399  34.362  29.434  1.00  0.00     0.039 A 
ATOM     34  C   UNL A   1      34.201  33.829  30.710  1.00  0.00     0.014 A 
ATOM     35  C   UNL A   1      35.696  34.543  28.943  1.00  0.00     0.014 A 
ATOM     36  C   UNL A   1      35.297  33.387  31.457  1.00  0.00     0.010 A 
ATOM     37  C   UNL A   1      36.780  34.041  29.659  1.00  0.00     0.010 A 
ATOM     38  C   UNL A   1      36.592  33.442  30.916  1.00  0.00    -0.014 A 
BRANCH  38  39
ATOM     39  C   UNL A   1      37.762  32.858  31.623  1.00  0.00     0.031 A 
ATOM     40  C   UNL A   1      38.440  31.631  31.077  1.00  0.00     0.074 A 
ATOM     41  C   UNL A   1      38.154  33.371  32.807  1.00  0.00     0.049 A 
ATOM     42  N   UNL A   1      39.380  30.899  31.617  1.00  0.00    -0.248 NA
ATOM     43  C   UNL A   1      37.984  31.151  29.762  1.00  0.00     0.031 C 
ATOM     44  C   UNL A   1      37.565  34.541  33.463  1.00  0.00     0.029 A 
ATOM     45  N   UNL A   1      39.131  32.960  33.681  1.00  0.00    -0.354 N 
ATOM     46  C   UNL A   1      39.610  29.859  30.724  1.00  0.00     0.074 A 
ATOM     47  C   UNL A   1      38.686  30.036  29.624  1.00  0.00     0.031 C 
ATOM     48  C   UNL A   1      38.199  34.761  34.626  1.00  0.00     0.029 A 
ATOM     49  C   UNL A   1      39.206  33.724  34.824  1.00  0.00     0.049 A 
ATOM     50  H   UNL A   1      39.723  32.193  33.507  1.00  0.00     0.167 HD
ATOM     51  C   UNL A   1      40.516  28.855  30.806  1.00  0.00     0.031 A 
ATOM     52  C   UNL A   1      39.983  33.595  35.918  1.00  0.00     0.031 A 
ATOM     53  C   UNL A   1      41.443  28.687  31.892  1.00  0.00     0.049 A 
ATOM     54  C   UNL A   1      40.971  32.463  35.994  1.00  0.00     0.074 A 
ATOM     55  C   UNL A   1      42.432  27.730  32.039  1.00  0.00     0.029 A 
ATOM     56  N   UNL A   1      41.500  29.495  33.018  1.00  0.00    -0.354 N 
ATOM     57  N   UNL A   1      41.204  31.517  35.117  1.00  0.00    -0.248 NA
ATOM     58  C   UNL A   1      41.802  32.384  37.204  1.00  0.00     0.031 C 
ATOM     59  C   UNL A   1      43.057  27.931  33.274  1.00  0.00     0.029 A 
ATOM     60  C   UNL A   1      42.494  29.047  33.871  1.00  0.00     0.049 A 
ATOM     61  H   UNL A   1      40.919  30.273  33.186  1.00  0.00     0.167 HD
ATOM     62  C   UNL A   1      42.232  30.750  35.654  1.00  0.00     0.074 A 
ATOM     63  C   UNL A   1      42.577  31.342  36.929  1.00  0.00     0.031 C 
ATOM     64  C   UNL A   1      42.837  29.655  35.133  1.00  0.00     0.031 A 
BRANCH  51  65
ATOM     65  C   UNL A   1      40.538  27.847  29.688  1.00  0.00    -0.014 A 
ATOM     66  C   UNL A   1      39.580  26.820  29.617  1.00  0.00     0.010 A 
ATOM     67  C   UNL A   1      41.506  27.951  28.672  1.00  0.00     0.010 A 
ATOM     68  C   UNL A   1      39.617  25.888  28.576  1.00  0.00     0.020 A 
ATOM     69  C   UNL A   1      41.529  27.040  27.613  1.00  0.00     0.020 A 
ATOM     70  C   UNL A   1      40.595  26.001  27.582  1.00  0.00     0.054 A 
BRANCH  70  71
ATOM     71  S   UNL A   1      40.610  24.789  26.234  1.00  0.00     0.124 S 
ATOM     72  O   UNL A   1      41.117  25.586  25.120  1.00  0.00    -0.237 OA
ATOM     73  O   UNL A   1      41.518  23.761  26.736  1.00  0.00    -0.237 OA
ATOM     74  O   UNL A   1      39.212  24.379  26.120  1.00  0.00    -0.744 OA
ENDBRANCH  70  71
ENDBRANCH  51  65
BRANCH  52  75
ATOM     75  C   UNL A   1      39.859  34.572  37.035  1.00  0.00    -0.014 A 
ATOM     76  C   UNL A   1      40.635  35.744  37.043  1.00  0.00     0.010 A 
ATOM     77  C   UNL A   1      38.953  34.345  38.086  1.00  0.00     0.010 A 
ATOM     78  C   UNL A   1      40.519  36.663  38.090  1.00  0.00     0.020 A 
ATOM     79  C   UNL A   1      38.816  35.274  39.122  1.00  0.00     0.020 A 
ATOM     80  C   UNL A   1      39.608  36.423  39.122  1.00  0.00     0.054 A 
BRANCH  80  81
ATOM     81  S   UNL A   1      39.434  37.656  40.442  1.00  0.00     0.124 S 
ATOM     82  O   UNL A   1      38.228  38.369  40.033  1.00  0.00    -0.237 OA
ATOM     83  O   UNL A   1      39.304  36.824  41.637  1.00  0.00    -0.237 OA
ATOM     84  O   UNL A   1      40.676  38.421  40.359  1.00  0.00    -0.744 OA
ENDBRANCH  80  81
ENDBRANCH  52  75
BRANCH  64  85
ATOM     85  C   UNL A   1      43.970  29.043  35.910  1.00  0.00    -0.014 A 
ATOM     86  C   UNL A   1      43.754  27.978  36.801  1.00  0.00     0.010 A 
ATOM     87  C   UNL A   1      45.285  29.487  35.675  1.00  0.00     0.010 A 
ATOM     88  C   UNL A   1      44.834  27.373  37.451  1.00  0.00     0.020 A 
ATOM     89  C   UNL A   1      46.368  28.869  36.305  1.00  0.00     0.020 A 
ATOM     90  C   UNL A   1      46.134  27.820  37.196  1.00  0.00     0.054 A 
BRANCH  90  91
ATOM     91  S   UNL A   1      47.524  26.968  37.992  1.00  0.00     0.124 S 
ATOM     92  O   UNL A   1      47.057  25.584  38.021  1.00  0.00    -0.237 OA
ATOM     93  O   UNL A   1      48.632  27.237  37.078  1.00  0.00    -0.237 OA
ATOM     94  O   UNL A   1      47.628  27.617  39.297  1.00  0.00    -0.744 OA
ENDBRANCH  90  91
ENDBRANCH  64  85
ENDBRANCH  38  39
ENDBRANCH  30  33
ENDBRANCH  28  29
ENDBRANCH  27  28
ENDBRANCH   1  27
TORSDOF 19
ENDMDL
MODEL 2
REMARK VINA RESULT:     -10.7      6.485     10.567
REMARK SMILES O=C(C[C@H](NC(=O)OCc1ccccc1)c1ccc(Cl)cc1)NCCCNC(=O)c1ccc(-c2c3nc(c(-c4ccc(S(=O)(=O)[O-])cc4)c4ccc([nH]4)c(-c4ccc(S(=O)(=O)[O-])cc4)c4nc(c(-c5ccc(S(=O)(=O)[O-])cc5)c5ccc2[nH]5)C=C4)C=C3)cc1
REMARK SMILES IDX 24 1 23 2 1 3 2 4 3 6 4 7 16 8 17 9 22 10 18 11 21 12 19 13
REMARK SMILES IDX 20 14 5 15 6 16 7 18 8 19 9 20 10 21 11 22 15 23 12 24 14 25
REMARK SMILES IDX 13 26 25 27 26 28 27 29 28 30 29 32 30 33 31 34 89 35 32 36
REMARK SMILES IDX 88 37 33 38 34 39 35 40 82 41 36 42 87 43 81 44 83 45 37 46
REMARK SMILES IDX 86 47 80 48 79 49 38 51 68 52 49 53 67 54 50 55 53 56 66 57
REMARK SMILES IDX 84 58 51 59 52 60 65 62 85 63 54 64 39 65 40 66 48 67 41 68
REMARK SMILES IDX 47 69 42 70 43 71 44 72 45 73 46 74 69 75 70 76 78 77 71 78
REMARK SMILES IDX 77 79 72 80 73 81 74 82 75 83 76 84 55 85 56 86 64 87 57 88
REMARK SMILES IDX 63 89 58 90 59 91 60 92 61 93 62 94
REMARK H PARENT 23 5 5 17 27 31 83 50 53 61
REMARK Flexibility Score: inf
ROOT
ATOM      1  C   UNL A   1      37.355  21.361  24.753  1.00  0.00     0.117 C 
ENDROOT
BRANCH   1   2
ATOM      2  N   UNL A   1      36.235  21.719  25.603  1.00  0.00    -0.356 N 
ATOM      3  O   UNL A   1      36.701  23.972  25.676  1.00  0.00    -0.275 OA
ATOM      4  C   UNL A   1      35.950  23.033  25.917  1.00  0.00     0.222 C 
ATOM      5  H   UNL A   1      35.662  21.005  25.966  1.00  0.00     0.163 HD
BRANCH   4   6
ATOM      6  C   UNL A   1      34.579  23.237  26.532  1.00  0.00     0.130 C 
BRANCH   6   7
ATOM      7  C   UNL A   1      33.598  23.863  25.517  1.00  0.00     0.125 C 
BRANCH   7   8
ATOM      8  C   UNL A   1      33.173  25.277  25.903  1.00  0.00    -0.025 A 
ATOM      9  C   UNL A   1      34.129  26.309  25.884  1.00  0.00     0.007 A 
ATOM     10  C   UNL A   1      31.852  25.607  26.251  1.00  0.00     0.007 A 
ATOM     11  C   UNL A   1      33.774  27.628  26.174  1.00  0.00     0.021 A 
ATOM     12  C   UNL A   1      31.495  26.928  26.545  1.00  0.00     0.021 A 
ATOM     13  C   UNL A   1      32.457  27.934  26.500  1.00  0.00     0.041 A 
ATOM     14  Cl  UNL A   1      32.015  29.559  26.852  1.00  0.00    -0.084 Cl
ENDBRANCH   7   8
BRANCH   7  15
ATOM     15  N   UNL A   1      34.190  23.782  24.188  1.00  0.00    -0.314 N 
ATOM     16  C   UNL A   1      33.563  23.749  22.986  1.00  0.00     0.407 C 
ATOM     17  H   UNL A   1      35.174  23.746  24.159  1.00  0.00     0.167 HD
ATOM     18  O   UNL A   1      34.179  23.398  21.989  1.00  0.00    -0.225 OA
BRANCH  16  19
ATOM     19  O   UNL A   1      32.285  24.186  23.024  1.00  0.00    -0.445 OA
BRANCH  19  20
ATOM     20  C   UNL A   1      31.922  25.104  21.979  1.00  0.00     0.270 C 
BRANCH  20  21
ATOM     21  C   UNL A   1      32.232  26.537  22.360  1.00  0.00    -0.011 A 
ATOM     22  C   UNL A   1      33.526  27.062  22.218  1.00  0.00     0.007 A 
ATOM     23  C   UNL A   1      31.216  27.390  22.813  1.00  0.00     0.007 A 
ATOM     24  C   UNL A   1      33.806  28.389  22.546  1.00  0.00     0.000 A 
ATOM     25  C   UNL A   1      31.494  28.723  23.131  1.00  0.00     0.000 A 
ATOM     26  C   UNL A   1      32.790  29.220  23.003  1.00  0.00     0.000 A 
ENDBRANCH  20  21
ENDBRANCH  19  20
ENDBRANCH  16  19
ENDBRANCH   7  15
ENDBRANCH   6   7
ENDBRANCH   4   6
ENDBRANCH   1   2
BRANCH   1  27
ATOM     27  C   UNL A   1      38.138  20.164  25.273  1.00  0.00     0.042 C 
BRANCH  27  28
ATOM     28  C   UNL A   1      39.439  20.510  25.990  1.00  0.00     0.118 C 
BRANCH  28  29
ATOM     29  N   UNL A   1      40.386  19.404  26.051  1.00  0.00    -0.352 N 
ATOM     30  C   UNL A   1      41.757  19.443  26.179  1.00  0.00     0.251 C 
ATOM     31  H   UNL A   1      39.991  18.506  25.991  1.00  0.00     0.163 HD
ATOM     32  O   UNL A   1      42.408  18.406  26.104  1.00  0.00    -0.269 OA
BRANCH  30  33
ATOM     33  C   UNL A   1      42.446  20.740  26.361  1.00  0.00     0.039 A 
ATOM     34  C   UNL A   1      42.916  21.421  25.234  1.00  0.00     0.014 A 
ATOM     35  C   UNL A   1      42.597  21.303  27.631  1.00  0.00     0.014 A 
ATOM     36  C   UNL A   1      43.449  22.706  25.370  1.00  0.00     0.010 A 
ATOM     37  C   UNL A   1      43.065  22.609  27.757  1.00  0.00     0.010 A 
ATOM     38  C   UNL A   1      43.480  23.332  26.626  1.00  0.00    -0.014 A 
BRANCH  38  39
ATOM     39  C   UNL A   1      43.911  24.745  26.788  1.00  0.00     0.031 A 
ATOM     40  C   UNL A   1      45.361  25.116  26.630  1.00  0.00     0.074 A 
ATOM     41  C   UNL A   1      43.017  25.679  27.171  1.00  0.00     0.049 A 
ATOM     42  N   UNL A   1      45.949  26.261  26.865  1.00  0.00    -0.248 NA
ATOM     43  C   UNL A   1      46.271  24.055  26.172  1.00  0.00     0.031 C 
ATOM     44  C   UNL A   1      41.586  25.447  27.386  1.00  0.00     0.029 A 
ATOM     45  N   UNL A   1      43.184  27.009  27.469  1.00  0.00    -0.354 N 
ATOM     46  C   UNL A   1      47.299  26.052  26.610  1.00  0.00     0.074 A 
ATOM     47  C   UNL A   1      47.448  24.662  26.236  1.00  0.00     0.031 C 
ATOM     48  C   UNL A   1      41.005  26.596  27.767  1.00  0.00     0.029 A 
ATOM     49  C   UNL A   1      42.026  27.635  27.872  1.00  0.00     0.049 A 
ATOM     50  H   UNL A   1      44.049  27.473  27.401  1.00  0.00     0.167 HD
ATOM     51  C   UNL A   1      48.322  26.939  26.669  1.00  0.00     0.031 A 
ATOM     52  C   UNL A   1      41.809  28.896  28.295  1.00  0.00     0.031 A 
ATOM     53  C   UNL A   1      48.172  28.324  27.027  1.00  0.00     0.049 A 
ATOM     54  C   UNL A   1      42.962  29.859  28.368  1.00  0.00     0.074 A 
ATOM     55  C   UNL A   1      49.141  29.312  27.066  1.00  0.00     0.029 A 
ATOM     56  N   UNL A   1      46.979  28.920  27.406  1.00  0.00    -0.354 N 
ATOM     57  N   UNL A   1      44.223  29.653  28.078  1.00  0.00    -0.248 NA
ATOM     58  C   UNL A   1      42.661  31.226  28.821  1.00  0.00     0.031 C 
ATOM     59  C   UNL A   1      48.543  30.495  27.511  1.00  0.00     0.029 A 
ATOM     60  C   UNL A   1      47.191  30.257  27.697  1.00  0.00     0.049 A 
ATOM     61  H   UNL A   1      46.109  28.462  27.459  1.00  0.00     0.167 HD
ATOM     62  C   UNL A   1      44.861  30.873  28.281  1.00  0.00     0.074 A 
ATOM     63  C   UNL A   1      43.848  31.810  28.716  1.00  0.00     0.031 C 
ATOM     64  C   UNL A   1      46.170  31.184  28.117  1.00  0.00     0.031 A 
BRANCH  51  65
ATOM     65  C   UNL A   1      49.702  26.431  26.349  1.00  0.00    -0.014 A 
ATOM     66  C   UNL A   1      50.444  25.701  27.295  1.00  0.00     0.010 A 
ATOM     67  C   UNL A   1      50.249  26.651  25.072  1.00  0.00     0.010 A 
ATOM     68  C   UNL A   1      51.726  25.239  26.985  1.00  0.00     0.020 A 
ATOM     69  C   UNL A   1      51.519  26.167  24.748  1.00  0.00     0.020 A 
ATOM     70  C   UNL A   1      52.258  25.480  25.715  1.00  0.00     0.054 A 
BRANCH  70  71
ATOM     71  S   UNL A   1      53.918  24.856  25.334  1.00  0.00     0.124 S 
ATOM     72  O   UNL A   1      54.642  25.159  26.565  1.00  0.00    -0.237 OA
ATOM     73  O   UNL A   1      53.678  23.438  25.078  1.00  0.00    -0.237 OA
ATOM     74  O   UNL A   1      54.322  25.637  24.166  1.00  0.00    -0.744 OA
ENDBRANCH  70  71
ENDBRANCH  51  65
BRANCH  52  75
ATOM     75  C   UNL A   1      40.435  29.323  28.682  1.00  0.00    -0.014 A 
ATOM     76  C   UNL A   1      39.415  29.389  27.718  1.00  0.00     0.010 A 
ATOM     77  C   UNL A   1      40.138  29.648  30.017  1.00  0.00     0.010 A 
ATOM     78  C   UNL A   1      38.124  29.788  28.080  1.00  0.00     0.020 A 
ATOM     79  C   UNL A   1      38.843  30.023  30.388  1.00  0.00     0.020 A 
ATOM     80  C   UNL A   1      37.847  30.101  29.414  1.00  0.00     0.054 A 
BRANCH  80  81
ATOM     81  S   UNL A   1      36.152  30.563  29.871  1.00  0.00     0.124 S 
ATOM     82  O   UNL A   1      36.281  31.999  30.097  1.00  0.00    -0.237 OA
ATOM     83  O   UNL A   1      35.388  30.175  28.687  1.00  0.00    -0.237 OA
ATOM     84  O   UNL A   1      35.890  29.761  31.063  1.00  0.00    -0.744 OA
ENDBRANCH  80  81
ENDBRANCH  52  75
BRANCH  64  85
ATOM     85  C   UNL A   1      46.586  32.609  28.359  1.00  0.00    -0.014 A 
ATOM     86  C   UNL A   1      47.037  33.034  29.621  1.00  0.00     0.010 A 
ATOM     87  C   UNL A   1      46.609  33.514  27.281  1.00  0.00     0.010 A 
ATOM     88  C   UNL A   1      47.495  34.342  29.802  1.00  0.00     0.020 A 
ATOM     89  C   UNL A   1      47.087  34.815  27.454  1.00  0.00     0.020 A 
ATOM     90  C   UNL A   1      47.521  35.223  28.716  1.00  0.00     0.054 A 
BRANCH  90  91
ATOM     91  S   UNL A   1      48.192  36.891  28.959  1.00  0.00     0.124 S 
ATOM     92  O   UNL A   1      48.574  36.864  30.368  1.00  0.00    -0.237 OA
ATOM     93  O   UNL A   1      49.302  36.933  28.008  1.00  0.00    -0.237 OA
ATOM     94  O   UNL A   1      47.069  37.768  28.634  1.00  0.00    -0.744 OA
ENDBRANCH  90  91
ENDBRANCH  64  85
ENDBRANCH  38  39
ENDBRANCH  30  33
ENDBRANCH  28  29
ENDBRANCH  27  28
ENDBRANCH   1  27
TORSDOF 19
ENDMDL
MODEL 3
REMARK VINA RESULT:     -10.7      3.672      8.403
REMARK SMILES O=C(C[C@H](NC(=O)OCc1ccccc1)c1ccc(Cl)cc1)NCCCNC(=O)c1ccc(-c2c3nc(c(-c4ccc(S(=O)(=O)[O-])cc4)c4ccc([nH]4)c(-c4ccc(S(=O)(=O)[O-])cc4)c4nc(c(-c5ccc(S(=O)(=O)[O-])cc5)c5ccc2[nH]5)C=C4)C=C3)cc1
REMARK SMILES IDX 24 1 23 2 1 3 2 4 3 6 4 7 16 8 17 9 22 10 18 11 21 12 19 13
REMARK SMILES IDX 20 14 5 15 6 16 7 18 8 19 9 20 10 21 11 22 15 23 12 24 14 25
REMARK SMILES IDX 13 26 25 27 26 28 27 29 28 30 29 32 30 33 31 34 89 35 32 36
REMARK SMILES IDX 88 37 33 38 34 39 35 40 82 41 36 42 87 43 81 44 83 45 37 46
REMARK SMILES IDX 86 47 80 48 79 49 38 51 68 52 49 53 67 54 50 55 53 56 66 57
REMARK SMILES IDX 84 58 51 59 52 60 65 62 85 63 54 64 39 65 40 66 48 67 41 68
REMARK SMILES IDX 47 69 42 70 43 71 44 72 45 73 46 74 69 75 70 76 78 77 71 78
REMARK SMILES IDX 77 79 72 80 73 81 74 82 75 83 76 84 55 85 56 86 64 87 57 88
REMARK SMILES IDX 63 89 58 90 59 91 60 92 61 93 62 94
REMARK H PARENT 23 5 5 17 27 31 83 50 53 61
REMARK Flexibility Score: inf
ROOT
ATOM      1  C   UNL A   1      34.732  22.863  24.013  1.00  0.00     0.117 C 
ENDROOT
BRANCH   1   2
ATOM      2  N   UNL A   1      33.847  23.762  23.298  1.00  0.00    -0.356 N 
ATOM      3  O   UNL A   1      31.899  22.664  23.843  1.00  0.00    -0.275 OA
ATOM      4  C   UNL A   1      32.473  23.632  23.357  1.00  0.00     0.222 C 
ATOM      5  H   UNL A   1      34.236  24.487  22.756  1.00  0.00     0.163 HD
BRANCH   4   6
ATOM      6  C   UNL A   1      31.716  24.835  22.826  1.00  0.00     0.130 C 
BRANCH   6   7
ATOM      7  C   UNL A   1      31.370  25.823  23.961  1.00  0.00     0.125 C 
BRANCH   7   8
ATOM      8  C   UNL A   1      30.524  26.998  23.483  1.00  0.00    -0.025 A 
ATOM      9  C   UNL A   1      31.163  28.108  22.897  1.00  0.00     0.007 A 
ATOM     10  C   UNL A   1      29.121  27.015  23.571  1.00  0.00     0.007 A 
ATOM     11  C   UNL A   1      30.425  29.182  22.392  1.00  0.00     0.021 A 
ATOM     12  C   UNL A   1      28.382  28.092  23.069  1.00  0.00     0.021 A 
ATOM     13  C   UNL A   1      29.037  29.168  22.478  1.00  0.00     0.041 A 
ATOM     14  Cl  UNL A   1      28.127  30.487  21.852  1.00  0.00    -0.084 Cl
ENDBRANCH   7   8
BRANCH   7  15
ATOM     15  N   UNL A   1      30.757  25.079  25.054  1.00  0.00    -0.314 N 
ATOM     16  C   UNL A   1      31.140  25.020  26.354  1.00  0.00     0.407 C 
ATOM     17  H   UNL A   1      29.960  24.550  24.819  1.00  0.00     0.167 HD
ATOM     18  O   UNL A   1      30.697  24.139  27.079  1.00  0.00    -0.225 OA
BRANCH  16  19
ATOM     19  O   UNL A   1      31.960  26.026  26.729  1.00  0.00    -0.445 OA
BRANCH  19  20
ATOM     20  C   UNL A   1      31.340  27.319  26.818  1.00  0.00     0.270 C 
BRANCH  20  21
ATOM     21  C   UNL A   1      32.365  28.423  26.978  1.00  0.00    -0.011 A 
ATOM     22  C   UNL A   1      33.740  28.154  26.890  1.00  0.00     0.007 A 
ATOM     23  C   UNL A   1      31.960  29.752  27.162  1.00  0.00     0.007 A 
ATOM     24  C   UNL A   1      34.684  29.175  27.012  1.00  0.00     0.000 A 
ATOM     25  C   UNL A   1      32.906  30.776  27.274  1.00  0.00     0.000 A 
ATOM     26  C   UNL A   1      34.266  30.487  27.204  1.00  0.00     0.000 A 
ENDBRANCH  20  21
ENDBRANCH  19  20
ENDBRANCH  16  19
ENDBRANCH   7  15
ENDBRANCH   6   7
ENDBRANCH   4   6
ENDBRANCH   1   2
BRANCH   1  27
ATOM     27  C   UNL A   1      36.134  23.426  24.195  1.00  0.00     0.042 C 
BRANCH  27  28
ATOM     28  C   UNL A   1      36.684  23.335  25.615  1.00  0.00     0.118 C 
BRANCH  28  29
ATOM     29  N   UNL A   1      37.880  22.512  25.729  1.00  0.00    -0.352 N 
ATOM     30  C   UNL A   1      39.117  22.845  26.234  1.00  0.00     0.251 C 
ATOM     31  H   UNL A   1      37.791  21.590  25.397  1.00  0.00     0.163 HD
ATOM     32  O   UNL A   1      40.047  22.048  26.150  1.00  0.00    -0.269 OA
BRANCH  30  33
ATOM     33  C   UNL A   1      39.335  24.179  26.836  1.00  0.00     0.039 A 
ATOM     34  C   UNL A   1      38.873  24.420  28.132  1.00  0.00     0.014 A 
ATOM     35  C   UNL A   1      40.025  25.177  26.142  1.00  0.00     0.014 A 
ATOM     36  C   UNL A   1      39.184  25.626  28.769  1.00  0.00     0.010 A 
ATOM     37  C   UNL A   1      40.392  26.348  26.800  1.00  0.00     0.010 A 
ATOM     38  C   UNL A   1      39.991  26.579  28.127  1.00  0.00    -0.014 A 
BRANCH  38  39
ATOM     39  C   UNL A   1      40.455  27.808  28.822  1.00  0.00     0.031 A 
ATOM     40  C   UNL A   1      41.799  27.833  29.497  1.00  0.00     0.074 A 
ATOM     41  C   UNL A   1      39.630  28.870  28.929  1.00  0.00     0.049 A 
ATOM     42  N   UNL A   1      42.319  28.755  30.265  1.00  0.00    -0.248 NA
ATOM     43  C   UNL A   1      42.660  26.655  29.303  1.00  0.00     0.031 C 
ATOM     44  C   UNL A   1      38.290  28.966  28.345  1.00  0.00     0.029 A 
ATOM     45  N   UNL A   1      39.790  30.065  29.587  1.00  0.00    -0.354 N 
ATOM     46  C   UNL A   1      43.554  28.261  30.667  1.00  0.00     0.074 A 
ATOM     47  C   UNL A   1      43.690  26.942  30.087  1.00  0.00     0.031 C 
ATOM     48  C   UNL A   1      37.757  30.158  28.659  1.00  0.00     0.029 A 
ATOM     49  C   UNL A   1      38.693  30.892  29.505  1.00  0.00     0.049 A 
ATOM     50  H   UNL A   1      40.611  30.308  30.071  1.00  0.00     0.167 HD
ATOM     51  C   UNL A   1      44.496  28.855  31.440  1.00  0.00     0.031 A 
ATOM     52  C   UNL A   1      38.456  32.096  30.061  1.00  0.00     0.031 A 
ATOM     53  C   UNL A   1      44.367  30.171  32.005  1.00  0.00     0.049 A 
ATOM     54  C   UNL A   1      39.509  32.730  30.928  1.00  0.00     0.074 A 
ATOM     55  C   UNL A   1      45.288  30.877  32.758  1.00  0.00     0.029 A 
ATOM     56  N   UNL A   1      43.249  30.982  31.878  1.00  0.00    -0.354 N 
ATOM     57  N   UNL A   1      40.690  32.264  31.258  1.00  0.00    -0.248 NA
ATOM     58  C   UNL A   1      39.201  34.052  31.493  1.00  0.00     0.031 C 
ATOM     59  C   UNL A   1      44.711  32.097  33.126  1.00  0.00     0.029 A 
ATOM     60  C   UNL A   1      43.451  32.173  32.554  1.00  0.00     0.049 A 
ATOM     61  H   UNL A   1      42.433  30.746  31.380  1.00  0.00     0.167 HD
ATOM     62  C   UNL A   1      41.278  33.251  32.042  1.00  0.00     0.074 A 
ATOM     63  C   UNL A   1      40.326  34.338  32.135  1.00  0.00     0.031 C 
ATOM     64  C   UNL A   1      42.500  33.254  32.628  1.00  0.00     0.031 A 
BRANCH  51  65
ATOM     65  C   UNL A   1      45.750  28.075  31.730  1.00  0.00    -0.014 A 
ATOM     66  C   UNL A   1      46.822  28.059  30.818  1.00  0.00     0.010 A 
ATOM     67  C   UNL A   1      45.877  27.381  32.947  1.00  0.00     0.010 A 
ATOM     68  C   UNL A   1      47.978  27.326  31.099  1.00  0.00     0.020 A 
ATOM     69  C   UNL A   1      47.042  26.670  33.244  1.00  0.00     0.020 A 
ATOM     70  C   UNL A   1      48.079  26.632  32.309  1.00  0.00     0.054 A 
BRANCH  70  71
ATOM     71  S   UNL A   1      49.597  25.702  32.655  1.00  0.00     0.124 S 
ATOM     72  O   UNL A   1      49.093  24.593  33.459  1.00  0.00    -0.237 OA
ATOM     73  O   UNL A   1      50.068  25.346  31.318  1.00  0.00    -0.237 OA
ATOM     74  O   UNL A   1      50.435  26.660  33.372  1.00  0.00    -0.744 OA
ENDBRANCH  70  71
ENDBRANCH  51  65
BRANCH  52  75
ATOM     75  C   UNL A   1      37.161  32.787  29.810  1.00  0.00    -0.014 A 
ATOM     76  C   UNL A   1      36.156  32.791  30.793  1.00  0.00     0.010 A 
ATOM     77  C   UNL A   1      36.932  33.458  28.595  1.00  0.00     0.010 A 
ATOM     78  C   UNL A   1      34.940  33.440  30.559  1.00  0.00     0.020 A 
ATOM     79  C   UNL A   1      35.727  34.130  28.368  1.00  0.00     0.020 A 
ATOM     80  C   UNL A   1      34.734  34.107  29.348  1.00  0.00     0.054 A 
BRANCH  80  81
ATOM     81  S   UNL A   1      33.170  34.990  29.089  1.00  0.00     0.124 S 
ATOM     82  O   UNL A   1      32.564  34.928  30.415  1.00  0.00    -0.237 OA
ATOM     83  O   UNL A   1      33.620  36.311  28.659  1.00  0.00    -0.237 OA
ATOM     84  O   UNL A   1      32.501  34.202  28.056  1.00  0.00    -0.744 OA
ENDBRANCH  80  81
ENDBRANCH  52  75
BRANCH  64  85
ATOM     85  C   UNL A   1      42.910  34.487  33.386  1.00  0.00    -0.014 A 
ATOM     86  C   UNL A   1      42.681  34.605  34.768  1.00  0.00     0.010 A 
ATOM     87  C   UNL A   1      43.618  35.504  32.718  1.00  0.00     0.010 A 
ATOM     88  C   UNL A   1      43.143  35.724  35.466  1.00  0.00     0.020 A 
ATOM     89  C   UNL A   1      44.100  36.612  33.417  1.00  0.00     0.020 A 
ATOM     90  C   UNL A   1      43.853  36.719  34.787  1.00  0.00     0.054 A 
BRANCH  90  91
ATOM     91  S   UNL A   1      44.510  38.124  35.729  1.00  0.00     0.124 S 
ATOM     92  O   UNL A   1      43.965  37.877  37.062  1.00  0.00    -0.237 OA
ATOM     93  O   UNL A   1      45.955  37.950  35.600  1.00  0.00    -0.237 OA
ATOM     94  O   UNL A   1      43.965  39.290  35.038  1.00  0.00    -0.744 OA
ENDBRANCH  90  91
ENDBRANCH  64  85
ENDBRANCH  38  39
ENDBRANCH  30  33
ENDBRANCH  28  29
ENDBRANCH  27  28
ENDBRANCH   1  27
TORSDOF 19
ENDMDL
