MODEL 1
REMARK VINA RESULT:     -12.7      0.000      0.000
REMARK SMILES Cc1ccc([C@@H](C)Nc2ccc(N)cc2C(=O)NCCCNC(=O)c2ccc(-c3c4nc(c(-c5ccc(S(=O)(=O)[O-])cc5)c5ccc([nH]5)c(-c5ccc(S(=O)(=O)[O-])cc5)c5nc(c(-c6ccc(S(=O)(=O)[O-])cc6)c6ccc3[nH]6)C=C5)C=C4)cc2)cc1F
REMARK SMILES IDX 20 1 19 2 18 3 16 4 17 5 15 7 9 8 10 9 11 10 14 11 12 12
REMARK SMILES IDX 8 13 6 15 7 16 5 17 1 18 2 19 3 20 86 21 4 22 85 23 87 24
REMARK SMILES IDX 13 25 21 28 22 29 23 30 24 32 25 33 26 34 84 35 27 36 83 37
REMARK SMILES IDX 28 38 29 39 30 40 77 41 31 42 82 43 76 44 78 45 32 46 81 47
REMARK SMILES IDX 75 48 74 49 33 51 63 52 44 53 62 54 45 55 48 56 61 57 79 58
REMARK SMILES IDX 46 59 47 60 60 62 80 63 49 64 34 65 35 66 43 67 36 68 42 69
REMARK SMILES IDX 37 70 38 71 39 72 40 73 41 74 64 75 65 76 73 77 66 78 72 79
REMARK SMILES IDX 67 80 68 81 69 82 70 83 71 84 50 85 51 86 59 87 52 88 58 89
REMARK SMILES IDX 53 90 54 91 55 92 56 93 57 94
REMARK H PARENT 18 6 8 14 13 26 13 27 22 31 78 50 48 61
REMARK Flexibility Score: inf
ROOT
ATOM      1  C   UNL A   1      37.678  21.494  24.986  1.00  0.00     0.042 C 
ENDROOT
BRANCH   1   2
ATOM      2  C   UNL A   1      37.033  23.049  24.526  1.00  0.00     0.118 C 
BRANCH   2   3
ATOM      3  N   UNL A   1      35.997  23.750  25.271  1.00  0.00    -0.352 N 
ATOM      4  C   UNL A   1      34.735  23.335  25.620  1.00  0.00     0.253 C 
ATOM      5  O   UNL A   1      34.090  23.963  26.457  1.00  0.00    -0.269 OA
ATOM      6  H   UNL A   1      36.237  24.657  25.570  1.00  0.00     0.163 HD
BRANCH   4   7
ATOM      7  C   UNL A   1      34.090  22.261  24.842  1.00  0.00     0.065 A 
ATOM      8  C   UNL A   1      33.358  22.445  23.662  1.00  0.00     0.048 A 
ATOM      9  C   UNL A   1      32.356  21.481  23.437  1.00  0.00     0.028 A 
ATOM     10  C   UNL A   1      32.191  20.349  24.258  1.00  0.00     0.027 A 
ATOM     11  C   UNL A   1      34.017  21.062  25.586  1.00  0.00     0.041 A 
ATOM     12  C   UNL A   1      33.087  20.081  25.282  1.00  0.00     0.032 A 
BRANCH   8  13
ATOM     13  N   UNL A   1      33.499  23.443  22.714  1.00  0.00    -0.378 N 
ATOM     14  H   UNL A   1      34.353  23.406  22.226  1.00  0.00     0.161 HD
BRANCH  13  15
ATOM     15  C   UNL A   1      32.626  24.547  22.290  1.00  0.00     0.106 C 
ATOM     16  C   UNL A   1      32.875  25.058  20.884  1.00  0.00     0.036 C 
BRANCH  15  17
ATOM     17  C   UNL A   1      32.440  25.537  23.424  1.00  0.00    -0.023 A 
ATOM     18  C   UNL A   1      31.543  28.117  27.745  1.00  0.00     0.047 C 
ATOM     19  C   UNL A   1      31.789  27.475  26.421  1.00  0.00    -0.015 A 
ATOM     20  C   UNL A   1      30.498  26.468  25.695  1.00  0.00     0.007 A 
ATOM     21  C   UNL A   1      33.412  27.548  25.619  1.00  0.00     0.126 A 
ATOM     22  C   UNL A   1      30.821  25.474  24.222  1.00  0.00     0.006 A 
ATOM     23  C   UNL A   1      33.739  26.602  24.115  1.00  0.00     0.045 A 
ATOM     24  F   UNL A   1      34.390  28.277  26.168  1.00  0.00    -0.207 F 
ENDBRANCH  15  17
ENDBRANCH  13  15
ENDBRANCH   8  13
BRANCH  12  25
ATOM     25  N   UNL A   1      32.943  18.977  26.105  1.00  0.00    -0.399 N 
ATOM     26  H   UNL A   1      32.074  18.517  26.164  1.00  0.00     0.156 HD
ATOM     27  H   UNL A   1      33.708  18.652  26.632  1.00  0.00     0.156 HD
ENDBRANCH  12  25
ENDBRANCH   4   7
ENDBRANCH   2   3
ENDBRANCH   1   2
BRANCH   1  28
ATOM     28  C   UNL A   1      39.338  20.690  26.154  1.00  0.00     0.118 C 
BRANCH  28  29
ATOM     29  N   UNL A   1      40.417  19.541  25.943  1.00  0.00    -0.352 N 
ATOM     30  C   UNL A   1      41.780  19.544  26.191  1.00  0.00     0.251 C 
ATOM     31  H   UNL A   1      40.062  18.698  25.579  1.00  0.00     0.163 HD
ATOM     32  O   UNL A   1      42.419  18.497  26.131  1.00  0.00    -0.269 OA
BRANCH  30  33
ATOM     33  C   UNL A   1      42.489  20.819  26.456  1.00  0.00     0.039 A 
ATOM     34  C   UNL A   1      42.961  21.565  25.373  1.00  0.00     0.014 A 
ATOM     35  C   UNL A   1      42.628  21.320  27.750  1.00  0.00     0.014 A 
ATOM     36  C   UNL A   1      43.467  22.856  25.575  1.00  0.00     0.010 A 
ATOM     37  C   UNL A   1      43.019  22.647  27.934  1.00  0.00     0.010 A 
ATOM     38  C   UNL A   1      43.448  23.440  26.851  1.00  0.00    -0.014 A 
BRANCH  38  39
ATOM     39  C   UNL A   1      43.882  24.851  27.099  1.00  0.00     0.031 A 
ATOM     40  C   UNL A   1      45.345  25.210  26.956  1.00  0.00     0.074 A 
ATOM     41  C   UNL A   1      43.013  25.792  27.536  1.00  0.00     0.049 A 
ATOM     42  N   UNL A   1      45.954  26.334  27.235  1.00  0.00    -0.248 NA
ATOM     43  C   UNL A   1      46.244  24.152  26.462  1.00  0.00     0.031 C 
ATOM     44  C   UNL A   1      41.574  25.606  27.747  1.00  0.00     0.029 A 
ATOM     45  N   UNL A   1      43.222  27.101  27.914  1.00  0.00    -0.354 N 
ATOM     46  C   UNL A   1      47.299  26.111  26.958  1.00  0.00     0.074 A 
ATOM     47  C   UNL A   1      47.432  24.719  26.592  1.00  0.00     0.031 C 
ATOM     48  C   UNL A   1      41.042  26.735  28.242  1.00  0.00     0.029 A 
ATOM     49  C   UNL A   1      42.092  27.737  28.384  1.00  0.00     0.049 A 
ATOM     50  H   UNL A   1      44.100  27.542  27.854  1.00  0.00     0.167 HD
ATOM     51  C   UNL A   1      48.330  26.989  26.946  1.00  0.00     0.031 A 
ATOM     52  C   UNL A   1      41.912  28.984  28.868  1.00  0.00     0.031 A 
ATOM     53  C   UNL A   1      48.202  28.382  27.273  1.00  0.00     0.049 A 
ATOM     54  C   UNL A   1      43.075  29.941  28.878  1.00  0.00     0.074 A 
ATOM     55  C   UNL A   1      49.170  29.370  27.224  1.00  0.00     0.029 A 
ATOM     56  N   UNL A   1      47.032  28.987  27.703  1.00  0.00    -0.354 N 
ATOM     57  N   UNL A   1      44.319  29.728  28.518  1.00  0.00    -0.248 NA
ATOM     58  C   UNL A   1      42.803  31.318  29.315  1.00  0.00     0.031 C 
ATOM     59  C   UNL A   1      48.597  30.562  27.675  1.00  0.00     0.029 A 
ATOM     60  C   UNL A   1      47.257  30.331  27.942  1.00  0.00     0.049 A 
ATOM     61  H   UNL A   1      46.168  28.528  27.820  1.00  0.00     0.167 HD
ATOM     62  C   UNL A   1      44.962  30.956  28.639  1.00  0.00     0.074 A 
ATOM     63  C   UNL A   1      43.971  31.906  29.097  1.00  0.00     0.031 C 
ATOM     64  C   UNL A   1      46.257  31.270  28.385  1.00  0.00     0.031 A 
BRANCH  51  65
ATOM     65  C   UNL A   1      49.680  26.468  26.525  1.00  0.00    -0.014 A 
ATOM     66  C   UNL A   1      50.555  25.894  27.467  1.00  0.00     0.010 A 
ATOM     67  C   UNL A   1      50.072  26.523  25.176  1.00  0.00     0.010 A 
ATOM     68  C   UNL A   1      51.812  25.429  27.079  1.00  0.00     0.020 A 
ATOM     69  C   UNL A   1      51.317  26.025  24.776  1.00  0.00     0.020 A 
ATOM     70  C   UNL A   1      52.185  25.497  25.734  1.00  0.00     0.054 A 
BRANCH  70  71
ATOM     71  S   UNL A   1      53.812  24.856  25.256  1.00  0.00     0.124 S 
ATOM     72  O   UNL A   1      53.539  23.430  25.098  1.00  0.00    -0.237 OA
ATOM     73  O   UNL A   1      54.089  25.581  24.018  1.00  0.00    -0.237 OA
ATOM     74  O   UNL A   1      54.669  25.205  26.385  1.00  0.00    -0.744 OA
ENDBRANCH  70  71
ENDBRANCH  51  65
BRANCH  52  75
ATOM     75  C   UNL A   1      40.567  29.425  29.345  1.00  0.00    -0.014 A 
ATOM     76  C   UNL A   1      39.569  29.806  28.430  1.00  0.00     0.010 A 
ATOM     77  C   UNL A   1      40.283  29.489  30.723  1.00  0.00     0.010 A 
ATOM     78  C   UNL A   1      38.330  30.275  28.879  1.00  0.00     0.020 A 
ATOM     79  C   UNL A   1      39.035  29.929  31.176  1.00  0.00     0.020 A 
ATOM     80  C   UNL A   1      38.070  30.334  30.251  1.00  0.00     0.054 A 
BRANCH  80  81
ATOM     81  S   UNL A   1      36.444  30.919  30.807  1.00  0.00     0.124 S 
ATOM     82  O   UNL A   1      36.067  29.896  31.777  1.00  0.00    -0.237 OA
ATOM     83  O   UNL A   1      36.759  32.234  31.363  1.00  0.00    -0.237 OA
ATOM     84  O   UNL A   1      35.651  30.944  29.581  1.00  0.00    -0.744 OA
ENDBRANCH  80  81
ENDBRANCH  52  75
BRANCH  64  85
ATOM     85  C   UNL A   1      46.675  32.708  28.543  1.00  0.00    -0.014 A 
ATOM     86  C   UNL A   1      46.580  33.621  27.479  1.00  0.00     0.010 A 
ATOM     87  C   UNL A   1      47.100  33.165  29.805  1.00  0.00     0.010 A 
ATOM     88  C   UNL A   1      46.931  34.960  27.666  1.00  0.00     0.020 A 
ATOM     89  C   UNL A   1      47.420  34.510  30.004  1.00  0.00     0.020 A 
ATOM     90  C   UNL A   1      47.345  35.397  28.928  1.00  0.00     0.054 A 
BRANCH  90  91
ATOM     91  S   UNL A   1      47.740  37.151  29.156  1.00  0.00     0.124 S 
ATOM     92  O   UNL A   1      47.478  37.339  30.580  1.00  0.00    -0.237 OA
ATOM     93  O   UNL A   1      49.145  37.217  28.761  1.00  0.00    -0.237 OA
ATOM     94  O   UNL A   1      46.813  37.836  28.257  1.00  0.00    -0.744 OA
ENDBRANCH  90  91
ENDBRANCH  64  85
ENDBRANCH  38  39
ENDBRANCH  30  33
ENDBRANCH  28  29
ENDBRANCH   1  28
TORSDOF 17
ENDMDL
MODEL 2
REMARK VINA RESULT:     -12.6      0.559      8.164
REMARK SMILES Cc1ccc([C@@H](C)Nc2ccc(N)cc2C(=O)NCCCNC(=O)c2ccc(-c3c4nc(c(-c5ccc(S(=O)(=O)[O-])cc5)c5ccc([nH]5)c(-c5ccc(S(=O)(=O)[O-])cc5)c5nc(c(-c6ccc(S(=O)(=O)[O-])cc6)c6ccc3[nH]6)C=C5)C=C4)cc2)cc1F
REMARK SMILES IDX 20 1 19 2 18 3 16 4 17 5 15 7 9 8 10 9 11 10 14 11 12 12
REMARK SMILES IDX 8 13 6 15 7 16 5 17 1 18 2 19 3 20 86 21 4 22 85 23 87 24
REMARK SMILES IDX 13 25 21 28 22 29 23 30 24 32 25 33 26 34 84 35 27 36 83 37
REMARK SMILES IDX 28 38 29 39 30 40 77 41 31 42 82 43 76 44 78 45 32 46 81 47
REMARK SMILES IDX 75 48 74 49 33 51 63 52 44 53 62 54 45 55 48 56 61 57 79 58
REMARK SMILES IDX 46 59 47 60 60 62 80 63 49 64 34 65 35 66 43 67 36 68 42 69
REMARK SMILES IDX 37 70 38 71 39 72 40 73 41 74 64 75 65 76 73 77 66 78 72 79
REMARK SMILES IDX 67 80 68 81 69 82 70 83 71 84 50 85 51 86 59 87 52 88 58 89
REMARK SMILES IDX 53 90 54 91 55 92 56 93 57 94
REMARK H PARENT 18 6 8 14 13 26 13 27 22 31 78 50 48 61
REMARK Flexibility Score: inf
ROOT
ATOM      1  C   UNL A   1      37.554  21.787  25.067  1.00  0.00     0.042 C 
ENDROOT
BRANCH   1   2
ATOM      2  C   UNL A   1      36.845  23.344  24.725  1.00  0.00     0.118 C 
BRANCH   2   3
ATOM      3  N   UNL A   1      35.728  23.908  25.470  1.00  0.00    -0.352 N 
ATOM      4  C   UNL A   1      34.514  23.349  25.785  1.00  0.00     0.253 C 
ATOM      5  O   UNL A   1      33.792  23.880  26.627  1.00  0.00    -0.269 OA
ATOM      6  H   UNL A   1      35.864  24.826  25.797  1.00  0.00     0.163 HD
BRANCH   4   7
ATOM      7  C   UNL A   1      34.001  22.234  24.968  1.00  0.00     0.065 A 
ATOM      8  C   UNL A   1      33.359  22.367  23.730  1.00  0.00     0.048 A 
ATOM      9  C   UNL A   1      32.439  21.342  23.434  1.00  0.00     0.028 A 
ATOM     10  C   UNL A   1      32.276  20.207  24.250  1.00  0.00     0.027 A 
ATOM     11  C   UNL A   1      33.939  21.037  25.715  1.00  0.00     0.041 A 
ATOM     12  C   UNL A   1      33.099  19.999  25.346  1.00  0.00     0.032 A 
BRANCH   8  13
ATOM     13  N   UNL A   1      33.517  23.367  22.787  1.00  0.00    -0.378 N 
ATOM     14  H   UNL A   1      34.388  23.344  22.330  1.00  0.00     0.161 HD
BRANCH  13  15
ATOM     15  C   UNL A   1      32.641  24.456  22.332  1.00  0.00     0.106 C 
ATOM     16  C   UNL A   1      32.905  24.944  20.920  1.00  0.00     0.036 C 
BRANCH  15  17
ATOM     17  C   UNL A   1      32.430  25.465  23.445  1.00  0.00    -0.023 A 
ATOM     18  C   UNL A   1      31.583  28.102  27.741  1.00  0.00     0.047 C 
ATOM     19  C   UNL A   1      31.797  27.439  26.422  1.00  0.00    -0.015 A 
ATOM     20  C   UNL A   1      30.579  26.262  25.838  1.00  0.00     0.007 A 
ATOM     21  C   UNL A   1      33.332  27.662  25.486  1.00  0.00     0.126 A 
ATOM     22  C   UNL A   1      30.898  25.252  24.377  1.00  0.00     0.006 A 
ATOM     23  C   UNL A   1      33.647  26.698  23.990  1.00  0.00     0.045 A 
ATOM     24  F   UNL A   1      34.258  28.520  25.928  1.00  0.00    -0.207 F 
ENDBRANCH  15  17
ENDBRANCH  13  15
ENDBRANCH   8  13
BRANCH  12  25
ATOM     25  N   UNL A   1      32.955  18.892  26.166  1.00  0.00    -0.399 N 
ATOM     26  H   UNL A   1      33.335  18.900  27.074  1.00  0.00     0.156 HD
ATOM     27  H   UNL A   1      32.474  18.098  25.840  1.00  0.00     0.156 HD
ENDBRANCH  12  25
ENDBRANCH   4   7
ENDBRANCH   2   3
ENDBRANCH   1   2
BRANCH   1  28
ATOM     28  C   UNL A   1      39.295  20.972  26.102  1.00  0.00     0.118 C 
BRANCH  28  29
ATOM     29  N   UNL A   1      40.265  19.732  25.879  1.00  0.00    -0.352 N 
ATOM     30  C   UNL A   1      41.620  19.604  26.139  1.00  0.00     0.251 C 
ATOM     31  H   UNL A   1      39.838  18.932  25.496  1.00  0.00     0.163 HD
ATOM     32  O   UNL A   1      42.161  18.504  26.065  1.00  0.00    -0.269 OA
BRANCH  30  33
ATOM     33  C   UNL A   1      42.441  20.804  26.435  1.00  0.00     0.039 A 
ATOM     34  C   UNL A   1      42.984  21.527  25.370  1.00  0.00     0.014 A 
ATOM     35  C   UNL A   1      42.618  21.261  27.740  1.00  0.00     0.014 A 
ATOM     36  C   UNL A   1      43.605  22.762  25.604  1.00  0.00     0.010 A 
ATOM     37  C   UNL A   1      43.128  22.542  27.955  1.00  0.00     0.010 A 
ATOM     38  C   UNL A   1      43.632  23.317  26.892  1.00  0.00    -0.014 A 
BRANCH  38  39
ATOM     39  C   UNL A   1      44.191  24.677  27.173  1.00  0.00     0.031 A 
ATOM     40  C   UNL A   1      43.251  25.796  27.561  1.00  0.00     0.074 A 
ATOM     41  C   UNL A   1      45.505  24.951  27.000  1.00  0.00     0.049 A 
ATOM     42  N   UNL A   1      43.503  27.069  27.733  1.00  0.00    -0.248 NA
ATOM     43  C   UNL A   1      41.834  25.439  27.752  1.00  0.00     0.031 C 
ATOM     44  C   UNL A   1      46.542  23.992  26.608  1.00  0.00     0.029 A 
ATOM     45  N   UNL A   1      46.196  26.138  27.104  1.00  0.00    -0.354 N 
ATOM     46  C   UNL A   1      42.280  27.656  28.042  1.00  0.00     0.074 A 
ATOM     47  C   UNL A   1      41.274  26.625  27.929  1.00  0.00     0.031 C 
ATOM     48  C   UNL A   1      47.717  24.627  26.474  1.00  0.00     0.029 A 
ATOM     49  C   UNL A   1      47.531  26.042  26.774  1.00  0.00     0.049 A 
ATOM     50  H   UNL A   1      45.774  26.981  27.389  1.00  0.00     0.167 HD
ATOM     51  C   UNL A   1      42.012  28.922  28.441  1.00  0.00     0.031 A 
ATOM     52  C   UNL A   1      48.502  26.978  26.722  1.00  0.00     0.031 A 
ATOM     53  C   UNL A   1      43.009  29.945  28.590  1.00  0.00     0.049 A 
ATOM     54  C   UNL A   1      48.183  28.389  27.141  1.00  0.00     0.074 A 
ATOM     55  C   UNL A   1      42.852  31.238  29.057  1.00  0.00     0.029 A 
ATOM     56  N   UNL A   1      44.352  29.789  28.284  1.00  0.00    -0.354 N 
ATOM     57  N   UNL A   1      47.033  28.895  27.521  1.00  0.00    -0.248 NA
ATOM     58  C   UNL A   1      49.298  29.347  27.168  1.00  0.00     0.031 C 
ATOM     59  C   UNL A   1      44.091  31.881  28.982  1.00  0.00     0.029 A 
ATOM     60  C   UNL A   1      45.032  30.968  28.531  1.00  0.00     0.049 A 
ATOM     61  H   UNL A   1      44.761  28.961  27.941  1.00  0.00     0.167 HD
ATOM     62  C   UNL A   1      47.300  30.213  27.878  1.00  0.00     0.074 A 
ATOM     63  C   UNL A   1      48.717  30.424  27.677  1.00  0.00     0.031 C 
ATOM     64  C   UNL A   1      46.447  31.161  28.340  1.00  0.00     0.031 A 
BRANCH  51  65
ATOM     65  C   UNL A   1      40.582  29.253  28.785  1.00  0.00    -0.014 A 
ATOM     66  C   UNL A   1      39.638  29.501  27.770  1.00  0.00     0.010 A 
ATOM     67  C   UNL A   1      40.165  29.289  30.127  1.00  0.00     0.010 A 
ATOM     68  C   UNL A   1      38.319  29.826  28.091  1.00  0.00     0.020 A 
ATOM     69  C   UNL A   1      38.836  29.579  30.451  1.00  0.00     0.020 A 
ATOM     70  C   UNL A   1      37.926  29.862  29.431  1.00  0.00     0.054 A 
BRANCH  70  71
ATOM     71  S   UNL A   1      36.198  30.255  29.813  1.00  0.00     0.124 S 
ATOM     72  O   UNL A   1      35.490  29.604  28.713  1.00  0.00    -0.237 OA
ATOM     73  O   UNL A   1      36.014  29.642  31.126  1.00  0.00    -0.237 OA
ATOM     74  O   UNL A   1      36.163  31.715  29.799  1.00  0.00    -0.744 OA
ENDBRANCH  70  71
ENDBRANCH  51  65
BRANCH  52  75
ATOM     75  C   UNL A   1      49.887  26.611  26.300  1.00  0.00    -0.014 A 
ATOM     76  C   UNL A   1      50.810  26.098  27.229  1.00  0.00     0.010 A 
ATOM     77  C   UNL A   1      50.300  26.795  24.967  1.00  0.00     0.010 A 
ATOM     78  C   UNL A   1      52.124  25.810  26.846  1.00  0.00     0.020 A 
ATOM     79  C   UNL A   1      51.605  26.480  24.572  1.00  0.00     0.020 A 
ATOM     80  C   UNL A   1      52.514  26.003  25.519  1.00  0.00     0.054 A 
BRANCH  80  81
ATOM     81  S   UNL A   1      54.217  25.594  25.040  1.00  0.00     0.124 S 
ATOM     82  O   UNL A   1      54.298  26.150  23.694  1.00  0.00    -0.237 OA
ATOM     83  O   UNL A   1      55.003  26.286  26.060  1.00  0.00    -0.237 OA
ATOM     84  O   UNL A   1      54.255  24.136  25.121  1.00  0.00    -0.744 OA
ENDBRANCH  80  81
ENDBRANCH  52  75
BRANCH  64  85
ATOM     85  C   UNL A   1      47.023  32.501  28.712  1.00  0.00    -0.014 A 
ATOM     86  C   UNL A   1      47.082  33.557  27.787  1.00  0.00     0.010 A 
ATOM     87  C   UNL A   1      47.443  32.725  30.038  1.00  0.00     0.010 A 
ATOM     88  C   UNL A   1      47.579  34.805  28.171  1.00  0.00     0.020 A 
ATOM     89  C   UNL A   1      47.909  33.981  30.434  1.00  0.00     0.020 A 
ATOM     90  C   UNL A   1      47.986  35.010  29.493  1.00  0.00     0.054 A 
BRANCH  90  91
ATOM     91  S   UNL A   1      48.573  36.655  29.978  1.00  0.00     0.124 S 
ATOM     92  O   UNL A   1      48.166  37.471  28.838  1.00  0.00    -0.237 OA
ATOM     93  O   UNL A   1      47.843  36.901  31.220  1.00  0.00    -0.237 OA
ATOM     94  O   UNL A   1      50.015  36.478  30.135  1.00  0.00    -0.744 OA
ENDBRANCH  90  91
ENDBRANCH  64  85
ENDBRANCH  38  39
ENDBRANCH  30  33
ENDBRANCH  28  29
ENDBRANCH   1  28
TORSDOF 17
ENDMDL
MODEL 3
REMARK VINA RESULT:     -12.6      3.826      5.621
REMARK SMILES Cc1ccc([C@@H](C)Nc2ccc(N)cc2C(=O)NCCCNC(=O)c2ccc(-c3c4nc(c(-c5ccc(S(=O)(=O)[O-])cc5)c5ccc([nH]5)c(-c5ccc(S(=O)(=O)[O-])cc5)c5nc(c(-c6ccc(S(=O)(=O)[O-])cc6)c6ccc3[nH]6)C=C5)C=C4)cc2)cc1F
REMARK SMILES IDX 20 1 19 2 18 3 16 4 17 5 15 7 9 8 10 9 11 10 14 11 12 12
REMARK SMILES IDX 8 13 6 15 7 16 5 17 1 18 2 19 3 20 86 21 4 22 85 23 87 24
REMARK SMILES IDX 13 25 21 28 22 29 23 30 24 32 25 33 26 34 84 35 27 36 83 37
REMARK SMILES IDX 28 38 29 39 30 40 77 41 31 42 82 43 76 44 78 45 32 46 81 47
REMARK SMILES IDX 75 48 74 49 33 51 63 52 44 53 62 54 45 55 48 56 61 57 79 58
REMARK SMILES IDX 46 59 47 60 60 62 80 63 49 64 34 65 35 66 43 67 36 68 42 69
REMARK SMILES IDX 37 70 38 71 39 72 40 73 41 74 64 75 65 76 73 77 66 78 72 79
REMARK SMILES IDX 67 80 68 81 69 82 70 83 71 84 50 85 51 86 59 87 52 88 58 89
REMARK SMILES IDX 53 90 54 91 55 92 56 93 57 94
REMARK H PARENT 18 6 8 14 13 26 13 27 22 31 78 50 48 61
REMARK Flexibility Score: inf
ROOT
ATOM      1  C   UNL A   1      35.403  23.831  23.849  1.00  0.00     0.042 C 
ENDROOT
BRANCH   1   2
ATOM      2  C   UNL A   1      34.053  24.902  23.575  1.00  0.00     0.118 C 
BRANCH   2   3
ATOM      3  N   UNL A   1      34.021  25.916  22.531  1.00  0.00    -0.352 N 
ATOM      4  C   UNL A   1      33.741  27.257  22.620  1.00  0.00     0.253 C 
ATOM      5  O   UNL A   1      33.999  28.004  21.678  1.00  0.00    -0.269 OA
ATOM      6  H   UNL A   1      34.233  25.592  21.625  1.00  0.00     0.163 HD
BRANCH   4   7
ATOM      7  C   UNL A   1      32.949  27.753  23.762  1.00  0.00     0.065 A 
ATOM      8  C   UNL A   1      31.554  27.875  23.786  1.00  0.00     0.048 A 
ATOM      9  C   UNL A   1      31.069  28.887  24.638  1.00  0.00     0.028 A 
ATOM     10  C   UNL A   1      31.906  29.625  25.495  1.00  0.00     0.027 A 
ATOM     11  C   UNL A   1      33.772  28.394  24.715  1.00  0.00     0.041 A 
ATOM     12  C   UNL A   1      33.253  29.314  25.612  1.00  0.00     0.032 A 
BRANCH   8  13
ATOM     13  N   UNL A   1      30.618  27.135  23.085  1.00  0.00    -0.378 N 
ATOM     14  H   UNL A   1      30.595  27.339  22.122  1.00  0.00     0.161 HD
BRANCH  13  15
ATOM     15  C   UNL A   1      29.652  26.105  23.494  1.00  0.00     0.106 C 
ATOM     16  C   UNL A   1      28.352  26.636  24.067  1.00  0.00     0.036 C 
BRANCH  15  17
ATOM     17  C   UNL A   1      30.364  24.960  24.188  1.00  0.00    -0.023 A 
ATOM     18  C   UNL A   1      33.393  21.182  25.827  1.00  0.00     0.047 C 
ATOM     19  C   UNL A   1      32.413  22.230  25.416  1.00  0.00    -0.015 A 
ATOM     20  C   UNL A   1      31.748  22.188  23.753  1.00  0.00     0.007 A 
ATOM     21  C   UNL A   1      32.018  23.633  26.493  1.00  0.00     0.126 A 
ATOM     22  C   UNL A   1      30.754  23.556  23.122  1.00  0.00     0.006 A 
ATOM     23  C   UNL A   1      30.981  24.987  25.897  1.00  0.00     0.045 A 
ATOM     24  F   UNL A   1      32.531  23.685  27.727  1.00  0.00    -0.207 F 
ENDBRANCH  15  17
ENDBRANCH  13  15
ENDBRANCH   8  13
BRANCH  12  25
ATOM     25  N   UNL A   1      34.096  30.028  26.445  1.00  0.00    -0.399 N 
ATOM     26  H   UNL A   1      34.086  29.861  27.416  1.00  0.00     0.156 HD
ATOM     27  H   UNL A   1      34.705  30.704  26.069  1.00  0.00     0.156 HD
ENDBRANCH  12  25
ENDBRANCH   4   7
ENDBRANCH   2   3
ENDBRANCH   1   2
BRANCH   1  28
ATOM     28  C   UNL A   1      36.616  23.119  25.519  1.00  0.00     0.118 C 
BRANCH  28  29
ATOM     29  N   UNL A   1      37.984  22.321  25.664  1.00  0.00    -0.352 N 
ATOM     30  C   UNL A   1      39.139  22.652  26.354  1.00  0.00     0.251 C 
ATOM     31  H   UNL A   1      38.015  21.459  25.190  1.00  0.00     0.163 HD
ATOM     32  O   UNL A   1      40.031  21.821  26.495  1.00  0.00    -0.269 OA
BRANCH  30  33
ATOM     33  C   UNL A   1      39.337  24.032  26.861  1.00  0.00     0.039 A 
ATOM     34  C   UNL A   1      38.938  24.333  28.165  1.00  0.00     0.014 A 
ATOM     35  C   UNL A   1      39.975  25.005  26.093  1.00  0.00     0.014 A 
ATOM     36  C   UNL A   1      39.277  25.568  28.736  1.00  0.00     0.010 A 
ATOM     37  C   UNL A   1      40.414  26.181  26.702  1.00  0.00     0.010 A 
ATOM     38  C   UNL A   1      40.073  26.486  28.034  1.00  0.00    -0.014 A 
BRANCH  38  39
ATOM     39  C   UNL A   1      40.546  27.771  28.639  1.00  0.00     0.031 A 
ATOM     40  C   UNL A   1      41.936  27.841  29.233  1.00  0.00     0.074 A 
ATOM     41  C   UNL A   1      39.728  28.844  28.750  1.00  0.00     0.049 A 
ATOM     42  N   UNL A   1      42.502  28.809  29.907  1.00  0.00    -0.248 NA
ATOM     43  C   UNL A   1      42.789  26.650  29.070  1.00  0.00     0.031 C 
ATOM     44  C   UNL A   1      38.353  28.936  28.251  1.00  0.00     0.029 A 
ATOM     45  N   UNL A   1      39.929  30.067  29.352  1.00  0.00    -0.354 N 
ATOM     46  C   UNL A   1      43.765  28.338  30.251  1.00  0.00     0.074 A 
ATOM     47  C   UNL A   1      43.843  26.966  29.805  1.00  0.00     0.031 C 
ATOM     48  C   UNL A   1      37.828  30.124  28.592  1.00  0.00     0.029 A 
ATOM     49  C   UNL A   1      38.823  30.891  29.331  1.00  0.00     0.049 A 
ATOM     50  H   UNL A   1      40.785  30.330  29.761  1.00  0.00     0.167 HD
ATOM     51  C   UNL A   1      44.798  28.995  30.830  1.00  0.00     0.031 A 
ATOM     52  C   UNL A   1      38.627  32.126  29.840  1.00  0.00     0.031 A 
ATOM     53  C   UNL A   1      44.743  30.370  31.245  1.00  0.00     0.049 A 
ATOM     54  C   UNL A   1      39.776  32.833  30.510  1.00  0.00     0.074 A 
ATOM     55  C   UNL A   1      45.755  31.148  31.777  1.00  0.00     0.029 A 
ATOM     56  N   UNL A   1      43.617  31.173  31.166  1.00  0.00    -0.354 N 
ATOM     57  N   UNL A   1      40.992  32.397  30.736  1.00  0.00    -0.248 NA
ATOM     58  C   UNL A   1      39.541  34.215  30.953  1.00  0.00     0.031 C 
ATOM     59  C   UNL A   1      45.226  32.409  32.070  1.00  0.00     0.029 A 
ATOM     60  C   UNL A   1      43.903  32.434  31.658  1.00  0.00     0.049 A 
ATOM     61  H   UNL A   1      42.743  30.889  30.811  1.00  0.00     0.167 HD
ATOM     62  C   UNL A   1      41.679  33.467  31.301  1.00  0.00     0.074 A 
ATOM     63  C   UNL A   1      40.747  34.571  31.376  1.00  0.00     0.031 C 
ATOM     64  C   UNL A   1      42.969  33.530  31.714  1.00  0.00     0.031 A 
BRANCH  51  65
ATOM     65  C   UNL A   1      46.089  28.239  31.010  1.00  0.00    -0.014 A 
ATOM     66  C   UNL A   1      47.099  28.298  30.030  1.00  0.00     0.010 A 
ATOM     67  C   UNL A   1      46.314  27.487  32.177  1.00  0.00     0.010 A 
ATOM     68  C   UNL A   1      48.286  27.581  30.190  1.00  0.00     0.020 A 
ATOM     69  C   UNL A   1      47.517  26.797  32.357  1.00  0.00     0.020 A 
ATOM     70  C   UNL A   1      48.488  26.836  31.354  1.00  0.00     0.054 A 
BRANCH  70  71
ATOM     71  S   UNL A   1      50.054  25.943  31.546  1.00  0.00     0.124 S 
ATOM     72  O   UNL A   1      50.084  25.124  30.336  1.00  0.00    -0.237 OA
ATOM     73  O   UNL A   1      51.034  27.025  31.594  1.00  0.00    -0.237 OA
ATOM     74  O   UNL A   1      49.883  25.204  32.793  1.00  0.00    -0.744 OA
ENDBRANCH  70  71
ENDBRANCH  51  65
BRANCH  52  75
ATOM     75  C   UNL A   1      37.302  32.801  29.701  1.00  0.00    -0.014 A 
ATOM     76  C   UNL A   1      36.943  33.440  28.501  1.00  0.00     0.010 A 
ATOM     77  C   UNL A   1      36.398  32.830  30.780  1.00  0.00     0.010 A 
ATOM     78  C   UNL A   1      35.727  34.122  28.391  1.00  0.00     0.020 A 
ATOM     79  C   UNL A   1      35.167  33.486  30.665  1.00  0.00     0.020 A 
ATOM     80  C   UNL A   1      34.846  34.141  29.474  1.00  0.00     0.054 A 
BRANCH  80  81
ATOM     81  S   UNL A   1      33.261  35.009  29.297  1.00  0.00     0.124 S 
ATOM     82  O   UNL A   1      32.576  34.194  28.300  1.00  0.00    -0.237 OA
ATOM     83  O   UNL A   1      32.716  34.945  30.651  1.00  0.00    -0.237 OA
ATOM     84  O   UNL A   1      33.650  36.346  28.854  1.00  0.00    -0.744 OA
ENDBRANCH  80  81
ENDBRANCH  52  75
BRANCH  64  85
ATOM     85  C   UNL A   1      43.474  34.849  32.236  1.00  0.00    -0.014 A 
ATOM     86  C   UNL A   1      44.032  35.813  31.379  1.00  0.00     0.010 A 
ATOM     87  C   UNL A   1      43.318  35.153  33.603  1.00  0.00     0.010 A 
ATOM     88  C   UNL A   1      44.452  37.046  31.883  1.00  0.00     0.020 A 
ATOM     89  C   UNL A   1      43.705  36.398  34.103  1.00  0.00     0.020 A 
ATOM     90  C   UNL A   1      44.282  37.332  33.241  1.00  0.00     0.054 A 
BRANCH  90  91
ATOM     91  S   UNL A   1      44.782  38.963  33.857  1.00  0.00     0.124 S 
ATOM     92  O   UNL A   1      43.783  39.216  34.891  1.00  0.00    -0.237 OA
ATOM     93  O   UNL A   1      46.139  38.719  34.340  1.00  0.00    -0.237 OA
ATOM     94  O   UNL A   1      44.691  39.823  32.679  1.00  0.00    -0.744 OA
ENDBRANCH  90  91
ENDBRANCH  64  85
ENDBRANCH  38  39
ENDBRANCH  30  33
ENDBRANCH  28  29
ENDBRANCH   1  28
TORSDOF 17
ENDMDL
