MODEL 1
REMARK VINA RESULT:     -12.8      0.000      0.000
REMARK SMILES O=C(NCCCNC(=O)[C@H](c1c[nH]c2cc(F)ccc12)[NH+]1CC[NH+](CC(=O)N2CCOCC2)CC1)c1ccc(-c2c3nc(c(-c4ccc(S(=O)(=O)[O-])cc4)c4ccc([nH]4)c(-c4ccc(S(=O)(=O)[O-])cc4)c4nc(c(-c5ccc(S(=O)(=O)[O-])cc5)c5ccc2[nH]5)C=C4)C=C3)cc1
REMARK SMILES IDX 5 1 4 2 3 3 1 4 2 5 36 7 37 8 95 9 38 10 94 11 39 12 40 13
REMARK SMILES IDX 41 14 88 15 42 16 93 17 87 18 89 19 43 20 92 21 86 22 85 23
REMARK SMILES IDX 44 25 74 26 55 27 73 28 56 29 59 30 72 31 90 32 57 33 58 34
REMARK SMILES IDX 71 36 91 37 60 38 45 39 46 40 54 41 47 42 53 43 48 44 49 45
REMARK SMILES IDX 50 46 51 47 52 48 75 49 76 50 84 51 77 52 83 53 78 54 79 55
REMARK SMILES IDX 80 56 81 57 82 58 61 59 62 60 70 61 63 62 69 63 64 64 65 65
REMARK SMILES IDX 66 66 67 67 68 68 6 69 7 70 8 71 9 73 10 74 21 75 22 76
REMARK SMILES IDX 35 77 23 79 34 80 24 81 25 83 26 84 27 85 28 86 29 87 33 88
REMARK SMILES IDX 30 89 32 90 31 91 11 92 12 93 20 94 13 95 14 96 19 97 15 99
REMARK SMILES IDX 18 100 16 101 17 102
REMARK H PARENT 3 6 89 24 59 35 7 72 21 78 24 82 13 98
REMARK Flexibility Score: inf
ROOT
ATOM      1  C   UNL A   1      36.604  23.251  23.815  1.00  0.00     0.042 C 
ENDROOT
BRANCH   1   2
ATOM      2  C   UNL A   1      37.138  23.560  25.194  1.00  0.00     0.118 C 
BRANCH   2   3
ATOM      3  N   UNL A   1      38.165  22.593  25.582  1.00  0.00    -0.352 N 
ATOM      4  O   UNL A   1      40.272  21.974  26.092  1.00  0.00    -0.269 OA
ATOM      5  C   UNL A   1      39.394  22.835  26.128  1.00  0.00     0.251 C 
ATOM      6  H   UNL A   1      37.942  21.647  25.431  1.00  0.00     0.163 HD
BRANCH   5   7
ATOM      7  C   UNL A   1      39.621  24.132  26.778  1.00  0.00     0.039 A 
ATOM      8  C   UNL A   1      39.170  24.312  28.090  1.00  0.00     0.014 A 
ATOM      9  C   UNL A   1      40.291  25.149  26.101  1.00  0.00     0.014 A 
ATOM     10  C   UNL A   1      39.273  25.550  28.687  1.00  0.00     0.010 A 
ATOM     11  C   UNL A   1      40.517  26.356  26.756  1.00  0.00     0.010 A 
ATOM     12  C   UNL A   1      40.017  26.552  28.054  1.00  0.00    -0.014 A 
BRANCH  12  13
ATOM     13  C   UNL A   1      40.423  27.716  28.862  1.00  0.00     0.031 A 
ATOM     14  C   UNL A   1      39.492  28.860  29.089  1.00  0.00     0.074 A 
ATOM     15  C   UNL A   1      41.669  27.695  29.378  1.00  0.00     0.049 A 
ATOM     16  N   UNL A   1      39.719  29.972  29.735  1.00  0.00    -0.248 NA
ATOM     17  C   UNL A   1      38.139  28.760  28.515  1.00  0.00     0.031 C 
ATOM     18  C   UNL A   1      42.642  26.608  29.194  1.00  0.00     0.029 A 
ATOM     19  N   UNL A   1      42.333  28.594  30.164  1.00  0.00    -0.354 N 
ATOM     20  C   UNL A   1      38.557  30.720  29.617  1.00  0.00     0.074 A 
ATOM     21  C   UNL A   1      37.622  29.939  28.839  1.00  0.00     0.031 C 
ATOM     22  C   UNL A   1      43.757  26.887  29.879  1.00  0.00     0.029 A 
ATOM     23  C   UNL A   1      43.619  28.209  30.464  1.00  0.00     0.049 A 
ATOM     24  H   UNL A   1      41.932  29.434  30.483  1.00  0.00     0.167 HD
ATOM     25  C   UNL A   1      38.315  31.955  30.113  1.00  0.00     0.031 A 
ATOM     26  C   UNL A   1      44.603  28.874  31.095  1.00  0.00     0.031 A 
ATOM     27  C   UNL A   1      39.272  32.701  30.890  1.00  0.00     0.049 A 
ATOM     28  C   UNL A   1      44.309  30.257  31.591  1.00  0.00     0.074 A 
ATOM     29  C   UNL A   1      39.108  33.934  31.494  1.00  0.00     0.029 A 
ATOM     30  N   UNL A   1      40.572  32.293  31.154  1.00  0.00    -0.354 N 
ATOM     31  N   UNL A   1      43.179  30.922  31.536  1.00  0.00    -0.248 NA
ATOM     32  C   UNL A   1      45.416  30.985  32.219  1.00  0.00     0.031 C 
ATOM     33  C   UNL A   1      40.331  34.306  32.057  1.00  0.00     0.029 A 
ATOM     34  C   UNL A   1      41.238  33.276  31.866  1.00  0.00     0.049 A 
ATOM     35  H   UNL A   1      40.963  31.433  30.876  1.00  0.00     0.167 HD
ATOM     36  C   UNL A   1      43.439  32.149  32.129  1.00  0.00     0.074 A 
ATOM     37  C   UNL A   1      44.821  32.116  32.567  1.00  0.00     0.031 C 
ATOM     38  C   UNL A   1      42.615  33.213  32.287  1.00  0.00     0.031 A 
BRANCH  25  39
ATOM     39  C   UNL A   1      36.996  32.606  29.804  1.00  0.00    -0.014 A 
ATOM     40  C   UNL A   1      35.896  32.489  30.671  1.00  0.00     0.010 A 
ATOM     41  C   UNL A   1      36.893  33.442  28.676  1.00  0.00     0.010 A 
ATOM     42  C   UNL A   1      34.717  33.195  30.414  1.00  0.00     0.020 A 
ATOM     43  C   UNL A   1      35.725  34.167  28.428  1.00  0.00     0.020 A 
ATOM     44  C   UNL A   1      34.642  34.036  29.299  1.00  0.00     0.054 A 
BRANCH  44  45
ATOM     45  S   UNL A   1      33.129  35.002  29.039  1.00  0.00     0.124 S 
ATOM     46  O   UNL A   1      32.426  34.200  28.041  1.00  0.00    -0.237 OA
ATOM     47  O   UNL A   1      32.528  35.015  30.370  1.00  0.00    -0.237 OA
ATOM     48  O   UNL A   1      33.617  36.296  28.566  1.00  0.00    -0.744 OA
ENDBRANCH  44  45
ENDBRANCH  25  39
BRANCH  26  49
ATOM     49  C   UNL A   1      45.959  28.272  31.209  1.00  0.00    -0.014 A 
ATOM     50  C   UNL A   1      46.927  28.479  30.214  1.00  0.00     0.010 A 
ATOM     51  C   UNL A   1      46.285  27.479  32.327  1.00  0.00     0.010 A 
ATOM     52  C   UNL A   1      48.182  27.871  30.313  1.00  0.00     0.020 A 
ATOM     53  C   UNL A   1      47.550  26.902  32.450  1.00  0.00     0.020 A 
ATOM     54  C   UNL A   1      48.482  27.083  31.429  1.00  0.00     0.054 A 
BRANCH  54  55
ATOM     55  S   UNL A   1      50.115  26.302  31.535  1.00  0.00     0.124 S 
ATOM     56  O   UNL A   1      49.773  24.942  31.940  1.00  0.00    -0.237 OA
ATOM     57  O   UNL A   1      50.625  26.450  30.175  1.00  0.00    -0.237 OA
ATOM     58  O   UNL A   1      50.811  27.100  32.543  1.00  0.00    -0.744 OA
ENDBRANCH  54  55
ENDBRANCH  26  49
BRANCH  38  59
ATOM     59  C   UNL A   1      43.189  34.421  32.969  1.00  0.00    -0.014 A 
ATOM     60  C   UNL A   1      43.898  35.392  32.240  1.00  0.00     0.010 A 
ATOM     61  C   UNL A   1      42.958  34.619  34.342  1.00  0.00     0.010 A 
ATOM     62  C   UNL A   1      44.382  36.533  32.877  1.00  0.00     0.020 A 
ATOM     63  C   UNL A   1      43.413  35.776  34.976  1.00  0.00     0.020 A 
ATOM     64  C   UNL A   1      44.130  36.722  34.241  1.00  0.00     0.054 A 
BRANCH  64  65
ATOM     65  S   UNL A   1      44.708  38.249  35.025  1.00  0.00     0.124 S 
ATOM     66  O   UNL A   1      44.623  37.914  36.444  1.00  0.00    -0.237 OA
ATOM     67  O   UNL A   1      46.061  38.389  34.491  1.00  0.00    -0.237 OA
ATOM     68  O   UNL A   1      43.755  39.258  34.566  1.00  0.00    -0.744 OA
ENDBRANCH  64  65
ENDBRANCH  38  59
ENDBRANCH  12  13
ENDBRANCH   5   7
ENDBRANCH   2   3
ENDBRANCH   1   2
BRANCH   1  69
ATOM     69  C   UNL A   1      35.193  22.713  23.895  1.00  0.00     0.118 C 
BRANCH  69  70
ATOM     70  N   UNL A   1      34.494  23.191  25.049  1.00  0.00    -0.351 N 
ATOM     71  C   UNL A   1      33.158  23.310  25.242  1.00  0.00     0.283 C 
ATOM     72  H   UNL A   1      35.061  23.471  25.803  1.00  0.00     0.163 HD
ATOM     73  O   UNL A   1      32.827  23.762  26.350  1.00  0.00    -0.268 OA
BRANCH  71  74
ATOM     74  C   UNL A   1      32.083  22.954  24.192  1.00  0.00     0.308 C 
BRANCH  74  75
ATOM     75  N   UNL A   1      31.582  24.111  23.416  1.00  0.00    -0.312 N 
ATOM     76  C   UNL A   1      30.359  24.823  23.803  1.00  0.00     0.325 C 
ATOM     77  C   UNL A   1      32.647  25.056  23.056  1.00  0.00     0.325 C 
ATOM     78  H   UNL A   1      31.237  23.594  22.607  1.00  0.00     0.349 HD
ATOM     79  C   UNL A   1      30.522  26.066  24.708  1.00  0.00     0.325 C 
ATOM     80  C   UNL A   1      32.768  26.349  23.890  1.00  0.00     0.325 C 
ATOM     81  N   UNL A   1      31.520  27.022  24.236  1.00  0.00    -0.318 N 
ATOM     82  H   UNL A   1      31.752  27.622  25.028  1.00  0.00     0.348 HD
BRANCH  81  83
ATOM     83  C   UNL A   1      31.038  28.067  23.319  1.00  0.00     0.364 C 
BRANCH  83  84
ATOM     84  C   UNL A   1      30.536  29.382  23.935  1.00  0.00     0.277 C 
ATOM     85  O   UNL A   1      31.071  29.813  24.963  1.00  0.00    -0.268 OA
ATOM     86  N   UNL A   1      29.546  30.104  23.288  1.00  0.00    -0.333 N 
ATOM     87  C   UNL A   1      28.551  29.553  22.374  1.00  0.00     0.148 C 
ATOM     88  C   UNL A   1      29.197  31.437  23.793  1.00  0.00     0.148 C 
ATOM     89  C   UNL A   1      28.112  30.539  21.297  1.00  0.00     0.181 C 
ATOM     90  C   UNL A   1      28.755  32.359  22.650  1.00  0.00     0.181 C 
ATOM     91  O   UNL A   1      27.689  31.775  21.884  1.00  0.00    -0.378 OA
ENDBRANCH  83  84
ENDBRANCH  81  83
ENDBRANCH  74  75
BRANCH  74  92
ATOM     92  C   UNL A   1      32.170  21.650  23.439  1.00  0.00     0.044 A 
ATOM     93  C   UNL A   1      32.000  21.350  22.097  1.00  0.00     0.094 A 
ATOM     94  C   UNL A   1      32.412  20.382  24.086  1.00  0.00     0.009 A 
ATOM     95  N   UNL A   1      32.035  19.991  21.932  1.00  0.00    -0.361 N 
ATOM     96  C   UNL A   1      32.261  19.377  23.133  1.00  0.00     0.049 A 
ATOM     97  C   UNL A   1      32.697  20.008  25.420  1.00  0.00     0.014 A 
ATOM     98  H   UNL A   1      31.915  19.524  21.074  1.00  0.00     0.166 HD
ATOM     99  C   UNL A   1      32.331  18.018  23.450  1.00  0.00     0.065 A 
ATOM    100  C   UNL A   1      32.778  18.655  25.754  1.00  0.00     0.040 A 
ATOM    101  C   UNL A   1      32.585  17.687  24.778  1.00  0.00     0.125 A 
ATOM    102  F   UNL A   1      32.644  16.395  25.126  1.00  0.00    -0.207 F 
ENDBRANCH  74  92
ENDBRANCH  71  74
ENDBRANCH  69  70
ENDBRANCH   1  69
TORSDOF 17
ENDMDL
MODEL 2
REMARK VINA RESULT:     -12.4      3.804      5.023
REMARK SMILES O=C(NCCCNC(=O)[C@H](c1c[nH]c2cc(F)ccc12)[NH+]1CC[NH+](CC(=O)N2CCOCC2)CC1)c1ccc(-c2c3nc(c(-c4ccc(S(=O)(=O)[O-])cc4)c4ccc([nH]4)c(-c4ccc(S(=O)(=O)[O-])cc4)c4nc(c(-c5ccc(S(=O)(=O)[O-])cc5)c5ccc2[nH]5)C=C4)C=C3)cc1
REMARK SMILES IDX 5 1 4 2 3 3 1 4 2 5 36 7 37 8 95 9 38 10 94 11 39 12 40 13
REMARK SMILES IDX 41 14 88 15 42 16 93 17 87 18 89 19 43 20 92 21 86 22 85 23
REMARK SMILES IDX 44 25 74 26 55 27 73 28 56 29 59 30 72 31 90 32 57 33 58 34
REMARK SMILES IDX 71 36 91 37 60 38 45 39 46 40 54 41 47 42 53 43 48 44 49 45
REMARK SMILES IDX 50 46 51 47 52 48 75 49 76 50 84 51 77 52 83 53 78 54 79 55
REMARK SMILES IDX 80 56 81 57 82 58 61 59 62 60 70 61 63 62 69 63 64 64 65 65
REMARK SMILES IDX 66 66 67 67 68 68 6 69 7 70 8 71 9 73 10 74 21 75 22 76
REMARK SMILES IDX 35 77 23 79 34 80 24 81 25 83 26 84 27 85 28 86 29 87 33 88
REMARK SMILES IDX 30 89 32 90 31 91 11 92 12 93 20 94 13 95 14 96 19 97 15 99
REMARK SMILES IDX 18 100 16 101 17 102
REMARK H PARENT 3 6 89 24 59 35 7 72 21 78 24 82 13 98
REMARK Flexibility Score: inf
ROOT
ATOM      1  C   UNL A   1      37.941  20.931  25.072  1.00  0.00     0.042 C 
ENDROOT
BRANCH   1   2
ATOM      2  C   UNL A   1      39.096  21.186  26.012  1.00  0.00     0.118 C 
BRANCH   2   3
ATOM      3  N   UNL A   1      39.990  20.029  26.061  1.00  0.00    -0.352 N 
ATOM      4  O   UNL A   1      41.962  18.981  25.749  1.00  0.00    -0.269 OA
ATOM      5  C   UNL A   1      41.357  20.012  26.038  1.00  0.00     0.251 C 
ATOM      6  H   UNL A   1      39.552  19.150  26.118  1.00  0.00     0.163 HD
BRANCH   5   7
ATOM      7  C   UNL A   1      42.071  21.245  26.395  1.00  0.00     0.039 A 
ATOM      8  C   UNL A   1      42.391  22.153  25.380  1.00  0.00     0.014 A 
ATOM      9  C   UNL A   1      42.401  21.505  27.724  1.00  0.00     0.014 A 
ATOM     10  C   UNL A   1      43.154  23.263  25.668  1.00  0.00     0.010 A 
ATOM     11  C   UNL A   1      43.051  22.696  28.033  1.00  0.00     0.010 A 
ATOM     12  C   UNL A   1      43.417  23.581  27.006  1.00  0.00    -0.014 A 
BRANCH  12  13
ATOM     13  C   UNL A   1      43.898  24.942  27.303  1.00  0.00     0.031 A 
ATOM     14  C   UNL A   1      42.983  25.978  27.866  1.00  0.00     0.074 A 
ATOM     15  C   UNL A   1      45.196  25.200  27.040  1.00  0.00     0.049 A 
ATOM     16  N   UNL A   1      43.246  27.228  28.135  1.00  0.00    -0.248 NA
ATOM     17  C   UNL A   1      41.595  25.575  28.154  1.00  0.00     0.031 C 
ATOM     18  C   UNL A   1      46.154  24.234  26.484  1.00  0.00     0.029 A 
ATOM     19  N   UNL A   1      45.940  26.334  27.210  1.00  0.00    -0.354 N 
ATOM     20  C   UNL A   1      42.054  27.773  28.589  1.00  0.00     0.074 A 
ATOM     21  C   UNL A   1      41.063  26.720  28.563  1.00  0.00     0.031 C 
ATOM     22  C   UNL A   1      47.362  24.805  26.397  1.00  0.00     0.029 A 
ATOM     23  C   UNL A   1      47.243  26.197  26.792  1.00  0.00     0.049 A 
ATOM     24  H   UNL A   1      45.579  27.166  27.591  1.00  0.00     0.167 HD
ATOM     25  C   UNL A   1      41.823  29.048  28.980  1.00  0.00     0.031 A 
ATOM     26  C   UNL A   1      48.224  27.110  26.685  1.00  0.00     0.031 A 
ATOM     27  C   UNL A   1      42.839  30.069  28.998  1.00  0.00     0.049 A 
ATOM     28  C   UNL A   1      47.916  28.521  27.086  1.00  0.00     0.074 A 
ATOM     29  C   UNL A   1      42.729  31.377  29.434  1.00  0.00     0.029 A 
ATOM     30  N   UNL A   1      44.141  29.904  28.545  1.00  0.00    -0.354 N 
ATOM     31  N   UNL A   1      46.803  29.005  27.585  1.00  0.00    -0.248 NA
ATOM     32  C   UNL A   1      48.983  29.510  26.900  1.00  0.00     0.031 C 
ATOM     33  C   UNL A   1      43.941  32.023  29.175  1.00  0.00     0.029 A 
ATOM     34  C   UNL A   1      44.829  31.101  28.642  1.00  0.00     0.049 A 
ATOM     35  H   UNL A   1      44.519  29.061  28.206  1.00  0.00     0.167 HD
ATOM     36  C   UNL A   1      47.039  30.358  27.778  1.00  0.00     0.074 A 
ATOM     37  C   UNL A   1      48.410  30.605  27.378  1.00  0.00     0.031 C 
ATOM     38  C   UNL A   1      46.194  31.315  28.233  1.00  0.00     0.031 A 
BRANCH  25  39
ATOM     39  C   UNL A   1      40.426  29.436  29.376  1.00  0.00    -0.014 A 
ATOM     40  C   UNL A   1      40.072  29.641  30.720  1.00  0.00     0.010 A 
ATOM     41  C   UNL A   1      39.479  29.705  28.370  1.00  0.00     0.010 A 
ATOM     42  C   UNL A   1      38.796  30.107  31.051  1.00  0.00     0.020 A 
ATOM     43  C   UNL A   1      38.211  30.192  28.694  1.00  0.00     0.020 A 
ATOM     44  C   UNL A   1      37.877  30.389  30.035  1.00  0.00     0.054 A 
BRANCH  44  45
ATOM     45  S   UNL A   1      36.259  31.071  30.490  1.00  0.00     0.124 S 
ATOM     46  O   UNL A   1      35.534  31.001  29.224  1.00  0.00    -0.237 OA
ATOM     47  O   UNL A   1      35.804  30.146  31.525  1.00  0.00    -0.237 OA
ATOM     48  O   UNL A   1      36.567  32.421  30.957  1.00  0.00    -0.744 OA
ENDBRANCH  44  45
ENDBRANCH  25  39
BRANCH  26  49
ATOM     49  C   UNL A   1      49.539  26.730  26.101  1.00  0.00    -0.014 A 
ATOM     50  C   UNL A   1      50.524  26.107  26.883  1.00  0.00     0.010 A 
ATOM     51  C   UNL A   1      49.810  26.999  24.745  1.00  0.00     0.010 A 
ATOM     52  C   UNL A   1      51.771  25.797  26.331  1.00  0.00     0.020 A 
ATOM     53  C   UNL A   1      51.039  26.655  24.179  1.00  0.00     0.020 A 
ATOM     54  C   UNL A   1      52.020  26.078  24.984  1.00  0.00     0.054 A 
BRANCH  54  55
ATOM     55  S   UNL A   1      53.645  25.668  24.291  1.00  0.00     0.124 S 
ATOM     56  O   UNL A   1      53.444  25.942  22.871  1.00  0.00    -0.237 OA
ATOM     57  O   UNL A   1      54.530  26.591  24.995  1.00  0.00    -0.237 OA
ATOM     58  O   UNL A   1      53.821  24.260  24.640  1.00  0.00    -0.744 OA
ENDBRANCH  54  55
ENDBRANCH  26  49
BRANCH  38  59
ATOM     59  C   UNL A   1      46.738  32.711  28.329  1.00  0.00    -0.014 A 
ATOM     60  C   UNL A   1      47.427  33.138  29.477  1.00  0.00     0.010 A 
ATOM     61  C   UNL A   1      46.616  33.580  27.230  1.00  0.00     0.010 A 
ATOM     62  C   UNL A   1      47.970  34.421  29.532  1.00  0.00     0.020 A 
ATOM     63  C   UNL A   1      47.188  34.853  27.269  1.00  0.00     0.020 A 
ATOM     64  C   UNL A   1      47.854  35.269  28.424  1.00  0.00     0.054 A 
BRANCH  64  65
ATOM     65  S   UNL A   1      48.634  36.902  28.497  1.00  0.00     0.124 S 
ATOM     66  O   UNL A   1      48.576  37.204  29.924  1.00  0.00    -0.237 OA
ATOM     67  O   UNL A   1      49.969  36.642  27.962  1.00  0.00    -0.237 OA
ATOM     68  O   UNL A   1      47.780  37.733  27.650  1.00  0.00    -0.744 OA
ENDBRANCH  64  65
ENDBRANCH  38  59
ENDBRANCH  12  13
ENDBRANCH   5   7
ENDBRANCH   2   3
ENDBRANCH   1   2
BRANCH   1  69
ATOM     69  C   UNL A   1      36.798  21.880  25.358  1.00  0.00     0.118 C 
BRANCH  69  70
ATOM     70  N   UNL A   1      36.444  22.664  24.214  1.00  0.00    -0.351 N 
ATOM     71  C   UNL A   1      35.214  22.910  23.702  1.00  0.00     0.283 C 
ATOM     72  H   UNL A   1      37.197  23.081  23.735  1.00  0.00     0.163 HD
ATOM     73  O   UNL A   1      35.201  23.630  22.690  1.00  0.00    -0.268 OA
BRANCH  71  74
ATOM     74  C   UNL A   1      33.895  22.344  24.273  1.00  0.00     0.308 C 
BRANCH  74  75
ATOM     75  N   UNL A   1      33.010  23.361  24.886  1.00  0.00    -0.312 N 
ATOM     76  C   UNL A   1      33.537  24.397  25.781  1.00  0.00     0.325 C 
ATOM     77  C   UNL A   1      32.053  23.930  23.929  1.00  0.00     0.325 C 
ATOM     78  H   UNL A   1      32.556  22.752  25.568  1.00  0.00     0.349 HD
ATOM     79  C   UNL A   1      33.914  25.754  25.143  1.00  0.00     0.325 C 
ATOM     80  C   UNL A   1      32.366  25.326  23.351  1.00  0.00     0.325 C 
ATOM     81  N   UNL A   1      32.876  26.322  24.287  1.00  0.00    -0.318 N 
ATOM     82  H   UNL A   1      33.326  27.030  23.706  1.00  0.00     0.348 HD
BRANCH  81  83
ATOM     83  C   UNL A   1      31.892  27.194  24.949  1.00  0.00     0.364 C 
BRANCH  83  84
ATOM     84  C   UNL A   1      30.418  27.044  24.544  1.00  0.00     0.277 C 
ATOM     85  O   UNL A   1      29.695  26.257  25.166  1.00  0.00    -0.268 OA
ATOM     86  N   UNL A   1      29.900  27.847  23.540  1.00  0.00    -0.333 N 
ATOM     87  C   UNL A   1      30.668  28.461  22.462  1.00  0.00     0.148 C 
ATOM     88  C   UNL A   1      28.457  27.814  23.280  1.00  0.00     0.148 C 
ATOM     89  C   UNL A   1      30.085  29.787  21.987  1.00  0.00     0.181 C 
ATOM     90  C   UNL A   1      27.955  29.181  22.795  1.00  0.00     0.181 C 
ATOM     91  O   UNL A   1      28.699  29.642  21.656  1.00  0.00    -0.378 OA
ENDBRANCH  83  84
ENDBRANCH  81  83
ENDBRANCH  74  75
BRANCH  74  92
ATOM     92  C   UNL A   1      33.196  21.209  23.567  1.00  0.00     0.044 A 
ATOM     93  C   UNL A   1      32.166  21.197  22.641  1.00  0.00     0.094 A 
ATOM     94  C   UNL A   1      33.492  19.820  23.826  1.00  0.00     0.009 A 
ATOM     95  N   UNL A   1      31.780  19.904  22.412  1.00  0.00    -0.361 N 
ATOM     96  C   UNL A   1      32.558  19.045  23.141  1.00  0.00     0.049 A 
ATOM     97  C   UNL A   1      34.450  19.161  24.631  1.00  0.00     0.014 A 
ATOM     98  H   UNL A   1      31.051  19.631  21.810  1.00  0.00     0.166 HD
ATOM     99  C   UNL A   1      32.499  17.654  23.254  1.00  0.00     0.065 A 
ATOM    100  C   UNL A   1      34.412  17.771  24.751  1.00  0.00     0.040 A 
ATOM    101  C   UNL A   1      33.441  17.044  24.078  1.00  0.00     0.125 A 
ATOM    102  F   UNL A   1      33.408  15.713  24.227  1.00  0.00    -0.207 F 
ENDBRANCH  74  92
ENDBRANCH  71  74
ENDBRANCH  69  70
ENDBRANCH   1  69
TORSDOF 17
ENDMDL
MODEL 3
REMARK VINA RESULT:     -12.1      0.562      7.794
REMARK SMILES O=C(NCCCNC(=O)[C@H](c1c[nH]c2cc(F)ccc12)[NH+]1CC[NH+](CC(=O)N2CCOCC2)CC1)c1ccc(-c2c3nc(c(-c4ccc(S(=O)(=O)[O-])cc4)c4ccc([nH]4)c(-c4ccc(S(=O)(=O)[O-])cc4)c4nc(c(-c5ccc(S(=O)(=O)[O-])cc5)c5ccc2[nH]5)C=C4)C=C3)cc1
REMARK SMILES IDX 5 1 4 2 3 3 1 4 2 5 36 7 37 8 95 9 38 10 94 11 39 12 40 13
REMARK SMILES IDX 41 14 88 15 42 16 93 17 87 18 89 19 43 20 92 21 86 22 85 23
REMARK SMILES IDX 44 25 74 26 55 27 73 28 56 29 59 30 72 31 90 32 57 33 58 34
REMARK SMILES IDX 71 36 91 37 60 38 45 39 46 40 54 41 47 42 53 43 48 44 49 45
REMARK SMILES IDX 50 46 51 47 52 48 75 49 76 50 84 51 77 52 83 53 78 54 79 55
REMARK SMILES IDX 80 56 81 57 82 58 61 59 62 60 70 61 63 62 69 63 64 64 65 65
REMARK SMILES IDX 66 66 67 67 68 68 6 69 7 70 8 71 9 73 10 74 21 75 22 76
REMARK SMILES IDX 35 77 23 79 34 80 24 81 25 83 26 84 27 85 28 86 29 87 33 88
REMARK SMILES IDX 30 89 32 90 31 91 11 92 12 93 20 94 13 95 14 96 19 97 15 99
REMARK SMILES IDX 18 100 16 101 17 102
REMARK H PARENT 3 6 89 24 59 35 7 72 21 78 24 82 13 98
REMARK Flexibility Score: inf
ROOT
ATOM      1  C   UNL A   1      36.339  23.304  23.995  1.00  0.00     0.042 C 
ENDROOT
BRANCH   1   2
ATOM      2  C   UNL A   1      36.781  23.644  25.399  1.00  0.00     0.118 C 
BRANCH   2   3
ATOM      3  N   UNL A   1      37.653  22.599  25.936  1.00  0.00    -0.352 N 
ATOM      4  O   UNL A   1      39.641  21.760  26.587  1.00  0.00    -0.269 OA
ATOM      5  C   UNL A   1      38.895  22.733  26.489  1.00  0.00     0.251 C 
ATOM      6  H   UNL A   1      37.299  21.681  25.894  1.00  0.00     0.163 HD
BRANCH   5   7
ATOM      7  C   UNL A   1      39.294  24.056  26.985  1.00  0.00     0.039 A 
ATOM      8  C   UNL A   1      38.962  24.409  28.297  1.00  0.00     0.014 A 
ATOM      9  C   UNL A   1      40.008  24.927  26.164  1.00  0.00     0.014 A 
ATOM     10  C   UNL A   1      39.227  25.682  28.753  1.00  0.00     0.010 A 
ATOM     11  C   UNL A   1      40.398  26.162  26.673  1.00  0.00     0.010 A 
ATOM     12  C   UNL A   1      40.017  26.535  27.972  1.00  0.00    -0.014 A 
BRANCH  12  13
ATOM     13  C   UNL A   1      40.593  27.723  28.627  1.00  0.00     0.031 A 
ATOM     14  C   UNL A   1      41.999  27.723  29.129  1.00  0.00     0.074 A 
ATOM     15  C   UNL A   1      39.789  28.799  28.751  1.00  0.00     0.049 A 
ATOM     16  N   UNL A   1      42.629  28.672  29.766  1.00  0.00    -0.248 NA
ATOM     17  C   UNL A   1      42.801  26.508  28.903  1.00  0.00     0.031 C 
ATOM     18  C   UNL A   1      38.396  28.872  28.287  1.00  0.00     0.029 A 
ATOM     19  N   UNL A   1      40.016  30.036  29.288  1.00  0.00    -0.354 N 
ATOM     20  C   UNL A   1      43.888  28.162  30.050  1.00  0.00     0.074 A 
ATOM     21  C   UNL A   1      43.936  26.819  29.516  1.00  0.00     0.031 C 
ATOM     22  C   UNL A   1      37.911  30.097  28.523  1.00  0.00     0.029 A 
ATOM     23  C   UNL A   1      38.916  30.860  29.242  1.00  0.00     0.049 A 
ATOM     24  H   UNL A   1      40.881  30.309  29.670  1.00  0.00     0.167 HD
ATOM     25  C   UNL A   1      44.898  28.774  30.711  1.00  0.00     0.031 A 
ATOM     26  C   UNL A   1      38.718  32.079  29.773  1.00  0.00     0.031 A 
ATOM     27  C   UNL A   1      44.813  30.117  31.224  1.00  0.00     0.049 A 
ATOM     28  C   UNL A   1      39.846  32.703  30.536  1.00  0.00     0.074 A 
ATOM     29  C   UNL A   1      45.798  30.855  31.854  1.00  0.00     0.029 A 
ATOM     30  N   UNL A   1      43.677  30.914  31.183  1.00  0.00    -0.354 N 
ATOM     31  N   UNL A   1      41.057  32.238  30.732  1.00  0.00    -0.248 NA
ATOM     32  C   UNL A   1      39.585  34.005  31.158  1.00  0.00     0.031 C 
ATOM     33  C   UNL A   1      45.236  32.068  32.262  1.00  0.00     0.029 A 
ATOM     34  C   UNL A   1      43.922  32.116  31.825  1.00  0.00     0.049 A 
ATOM     35  H   UNL A   1      42.824  30.661  30.761  1.00  0.00     0.167 HD
ATOM     36  C   UNL A   1      41.705  33.195  31.498  1.00  0.00     0.074 A 
ATOM     37  C   UNL A   1      40.764  34.279  31.696  1.00  0.00     0.031 C 
ATOM     38  C   UNL A   1      42.962  33.175  32.006  1.00  0.00     0.031 A 
BRANCH  25  39
ATOM     39  C   UNL A   1      46.162  28.000  30.964  1.00  0.00    -0.014 A 
ATOM     40  C   UNL A   1      46.320  27.203  32.110  1.00  0.00     0.010 A 
ATOM     41  C   UNL A   1      47.165  27.988  29.977  1.00  0.00     0.010 A 
ATOM     42  C   UNL A   1      47.461  26.409  32.264  1.00  0.00     0.020 A 
ATOM     43  C   UNL A   1      48.295  27.179  30.116  1.00  0.00     0.020 A 
ATOM     44  C   UNL A   1      48.437  26.395  31.263  1.00  0.00     0.054 A 
BRANCH  44  45
ATOM     45  S   UNL A   1      49.864  25.292  31.453  1.00  0.00     0.124 S 
ATOM     46  O   UNL A   1      50.917  26.226  31.845  1.00  0.00    -0.237 OA
ATOM     47  O   UNL A   1      49.418  24.375  32.500  1.00  0.00    -0.237 OA
ATOM     48  O   UNL A   1      50.023  24.694  30.130  1.00  0.00    -0.744 OA
ENDBRANCH  44  45
ENDBRANCH  25  39
BRANCH  26  49
ATOM     49  C   UNL A   1      37.385  32.731  29.671  1.00  0.00    -0.014 A 
ATOM     50  C   UNL A   1      37.177  33.820  28.810  1.00  0.00     0.010 A 
ATOM     51  C   UNL A   1      36.309  32.259  30.449  1.00  0.00     0.010 A 
ATOM     52  C   UNL A   1      35.930  34.451  28.758  1.00  0.00     0.020 A 
ATOM     53  C   UNL A   1      35.052  32.860  30.371  1.00  0.00     0.020 A 
ATOM     54  C   UNL A   1      34.878  33.969  29.543  1.00  0.00     0.054 A 
BRANCH  54  55
ATOM     55  S   UNL A   1      33.271  34.804  29.461  1.00  0.00     0.124 S 
ATOM     56  O   UNL A   1      32.458  33.823  28.749  1.00  0.00    -0.237 OA
ATOM     57  O   UNL A   1      32.942  34.996  30.871  1.00  0.00    -0.237 OA
ATOM     58  O   UNL A   1      33.561  36.032  28.724  1.00  0.00    -0.744 OA
ENDBRANCH  54  55
ENDBRANCH  26  49
BRANCH  38  59
ATOM     59  C   UNL A   1      43.387  34.367  32.814  1.00  0.00    -0.014 A 
ATOM     60  C   UNL A   1      43.934  35.502  32.190  1.00  0.00     0.010 A 
ATOM     61  C   UNL A   1      43.173  34.377  34.204  1.00  0.00     0.010 A 
ATOM     62  C   UNL A   1      44.277  36.621  32.947  1.00  0.00     0.020 A 
ATOM     63  C   UNL A   1      43.485  35.508  34.959  1.00  0.00     0.020 A 
ATOM     64  C   UNL A   1      44.044  36.621  34.326  1.00  0.00     0.054 A 
BRANCH  64  65
ATOM     65  S   UNL A   1      44.432  38.116  35.272  1.00  0.00     0.124 S 
ATOM     66  O   UNL A   1      43.826  37.823  36.568  1.00  0.00    -0.237 OA
ATOM     67  O   UNL A   1      45.893  38.136  35.250  1.00  0.00    -0.237 OA
ATOM     68  O   UNL A   1      43.788  39.185  34.511  1.00  0.00    -0.744 OA
ENDBRANCH  64  65
ENDBRANCH  38  59
ENDBRANCH  12  13
ENDBRANCH   5   7
ENDBRANCH   2   3
ENDBRANCH   1   2
BRANCH   1  69
ATOM     69  C   UNL A   1      34.861  23.574  23.819  1.00  0.00     0.118 C 
BRANCH  69  70
ATOM     70  N   UNL A   1      34.201  23.820  25.064  1.00  0.00    -0.351 N 
ATOM     71  C   UNL A   1      32.884  23.711  25.362  1.00  0.00     0.283 C 
ATOM     72  H   UNL A   1      34.783  24.107  25.804  1.00  0.00     0.163 HD
ATOM     73  O   UNL A   1      32.586  23.992  26.534  1.00  0.00    -0.268 OA
BRANCH  71  74
ATOM     74  C   UNL A   1      31.786  23.299  24.356  1.00  0.00     0.308 C 
BRANCH  74  75
ATOM     75  N   UNL A   1      31.118  24.437  23.684  1.00  0.00    -0.312 N 
ATOM     76  C   UNL A   1      30.285  25.386  24.428  1.00  0.00     0.325 C 
ATOM     77  C   UNL A   1      32.003  25.139  22.745  1.00  0.00     0.325 C 
ATOM     78  H   UNL A   1      30.394  23.904  23.202  1.00  0.00     0.349 HD
ATOM     79  C   UNL A   1      30.971  26.671  24.947  1.00  0.00     0.325 C 
ATOM     80  C   UNL A   1      32.625  26.472  23.211  1.00  0.00     0.325 C 
ATOM     81  N   UNL A   1      31.748  27.384  23.937  1.00  0.00    -0.318 N 
ATOM     82  H   UNL A   1      32.374  28.016  24.437  1.00  0.00     0.348 HD
BRANCH  81  83
ATOM     83  C   UNL A   1      31.021  28.393  23.149  1.00  0.00     0.364 C 
BRANCH  83  84
ATOM     84  C   UNL A   1      30.489  29.629  23.891  1.00  0.00     0.277 C 
ATOM     85  O   UNL A   1      30.989  29.948  24.976  1.00  0.00    -0.268 OA
ATOM     86  N   UNL A   1      29.512  30.414  23.297  1.00  0.00    -0.333 N 
ATOM     87  C   UNL A   1      28.550  29.961  22.298  1.00  0.00     0.148 C 
ATOM     88  C   UNL A   1      29.136  31.680  23.935  1.00  0.00     0.148 C 
ATOM     89  C   UNL A   1      28.135  31.057  21.323  1.00  0.00     0.181 C 
ATOM     90  C   UNL A   1      28.720  32.720  22.887  1.00  0.00     0.181 C 
ATOM     91  O   UNL A   1      27.683  32.218  22.029  1.00  0.00    -0.378 OA
ENDBRANCH  83  84
ENDBRANCH  81  83
ENDBRANCH  74  75
BRANCH  74  92
ATOM     92  C   UNL A   1      31.961  22.056  23.520  1.00  0.00     0.044 A 
ATOM     93  C   UNL A   1      31.763  21.821  22.169  1.00  0.00     0.094 A 
ATOM     94  C   UNL A   1      32.343  20.780  24.078  1.00  0.00     0.009 A 
ATOM     95  N   UNL A   1      31.914  20.483  21.918  1.00  0.00    -0.361 N 
ATOM     96  C   UNL A   1      32.245  19.823  23.070  1.00  0.00     0.049 A 
ATOM     97  C   UNL A   1      32.716  20.355  25.374  1.00  0.00     0.014 A 
ATOM     98  H   UNL A   1      31.802  20.059  21.037  1.00  0.00     0.166 HD
ATOM     99  C   UNL A   1      32.452  18.460  23.297  1.00  0.00     0.065 A 
ATOM    100  C   UNL A   1      32.934  18.999  25.619  1.00  0.00     0.040 A 
ATOM    101  C   UNL A   1      32.790  18.077  24.592  1.00  0.00     0.125 A 
ATOM    102  F   UNL A   1      32.980  16.777  24.856  1.00  0.00    -0.207 F 
ENDBRANCH  74  92
ENDBRANCH  71  74
ENDBRANCH  69  70
ENDBRANCH   1  69
TORSDOF 17
ENDMDL
