MODEL 1
REMARK VINA RESULT:     -13.1      0.000      0.000
REMARK SMILES O=C(NCCCNC(=O)c1sccc1S(=O)(=O)Nc1ccc(-c2nc3ccccc3n2C(F)F)cc1)c1ccc(-c2c3nc(c(-c4ccc(S(=O)(=O)[O-])cc4)c4ccc([nH]4)c(-c4ccc(S(=O)(=O)[O-])cc4)c4nc(c(-c5ccc(S(=O)(=O)[O-])cc5)c5ccc2[nH]5)C=C4)C=C3)cc1
REMARK SMILES IDX 6 1 5 2 4 3 3 4 1 5 2 6 37 8 38 9 96 10 39 11 95 12 40 13
REMARK SMILES IDX 41 14 42 15 89 16 43 17 94 18 88 19 90 20 44 21 93 22 87 23
REMARK SMILES IDX 86 24 45 26 75 27 56 28 74 29 57 30 60 31 73 32 91 33 58 34
REMARK SMILES IDX 59 35 72 37 92 38 61 39 46 40 47 41 55 42 48 43 54 44 49 45
REMARK SMILES IDX 50 46 51 47 52 48 53 49 76 50 77 51 85 52 78 53 84 54 79 55
REMARK SMILES IDX 80 56 81 57 82 58 83 59 62 60 63 61 71 62 64 63 70 64 65 65
REMARK SMILES IDX 66 66 67 67 68 68 69 69 7 70 8 71 9 73 10 74 11 75 14 76
REMARK SMILES IDX 12 77 13 78 15 79 16 80 17 81 18 82 19 84 20 85 36 86 21 87
REMARK SMILES IDX 35 88 22 89 23 90 24 91 31 92 25 93 30 94 26 95 29 96 27 97
REMARK SMILES IDX 28 98 32 99 33 100 34 101
REMARK H PARENT 3 7 90 25 60 36 7 72 18 83
REMARK Flexibility Score: inf
ROOT
ATOM      1  C   UNL A   1      32.200  27.317  26.727  1.00  0.00     0.118 C 
ENDROOT
BRANCH   1   2
ATOM      2  C   UNL A   1      32.138  28.791  27.097  1.00  0.00     0.042 C 
BRANCH   2   3
ATOM      3  C   UNL A   1      33.408  29.604  26.804  1.00  0.00     0.118 C 
BRANCH   3   4
ATOM      4  N   UNL A   1      33.479  30.941  27.361  1.00  0.00    -0.352 N 
ATOM      5  O   UNL A   1      34.255  32.930  27.935  1.00  0.00    -0.269 OA
ATOM      6  C   UNL A   1      34.500  31.726  27.827  1.00  0.00     0.251 C 
ATOM      7  H   UNL A   1      32.600  31.382  27.416  1.00  0.00     0.163 HD
BRANCH   6   8
ATOM      8  C   UNL A   1      35.816  31.208  28.277  1.00  0.00     0.039 A 
ATOM      9  C   UNL A   1      36.829  31.995  28.818  1.00  0.00     0.014 A 
ATOM     10  C   UNL A   1      36.064  29.839  28.063  1.00  0.00     0.014 A 
ATOM     11  C   UNL A   1      38.103  31.483  28.985  1.00  0.00     0.010 A 
ATOM     12  C   UNL A   1      37.328  29.303  28.284  1.00  0.00     0.010 A 
ATOM     13  C   UNL A   1      38.358  30.145  28.693  1.00  0.00    -0.014 A 
BRANCH  13  14
ATOM     14  C   UNL A   1      39.706  29.668  28.974  1.00  0.00     0.031 A 
ATOM     15  C   UNL A   1      40.096  29.710  30.410  1.00  0.00     0.074 A 
ATOM     16  C   UNL A   1      40.524  29.138  28.050  1.00  0.00     0.049 A 
ATOM     17  N   UNL A   1      41.036  30.398  30.972  1.00  0.00    -0.248 NA
ATOM     18  C   UNL A   1      39.243  28.970  31.353  1.00  0.00     0.031 C 
ATOM     19  C   UNL A   1      40.195  28.746  26.679  1.00  0.00     0.029 A 
ATOM     20  N   UNL A   1      41.812  28.717  28.200  1.00  0.00    -0.354 N 
ATOM     21  C   UNL A   1      41.022  30.032  32.317  1.00  0.00     0.074 A 
ATOM     22  C   UNL A   1      39.812  29.274  32.517  1.00  0.00     0.031 C 
ATOM     23  C   UNL A   1      41.168  27.932  26.213  1.00  0.00     0.029 A 
ATOM     24  C   UNL A   1      42.235  27.858  27.198  1.00  0.00     0.049 A 
ATOM     25  H   UNL A   1      42.386  28.997  28.949  1.00  0.00     0.167 HD
ATOM     26  C   UNL A   1      42.104  30.187  33.129  1.00  0.00     0.031 A 
ATOM     27  C   UNL A   1      43.335  27.068  27.228  1.00  0.00     0.031 A 
ATOM     28  C   UNL A   1      43.075  31.095  32.581  1.00  0.00     0.049 A 
ATOM     29  C   UNL A   1      44.261  27.608  28.251  1.00  0.00     0.074 A 
ATOM     30  C   UNL A   1      43.077  32.426  32.214  1.00  0.00     0.029 A 
ATOM     31  N   UNL A   1      44.208  30.548  32.029  1.00  0.00    -0.354 N 
ATOM     32  N   UNL A   1      44.882  28.749  28.140  1.00  0.00    -0.248 NA
ATOM     33  C   UNL A   1      44.217  27.056  29.597  1.00  0.00     0.031 C 
ATOM     34  C   UNL A   1      43.958  32.503  31.096  1.00  0.00     0.029 A 
ATOM     35  C   UNL A   1      44.462  31.222  30.864  1.00  0.00     0.049 A 
ATOM     36  H   UNL A   1      44.741  29.809  32.402  1.00  0.00     0.167 HD
ATOM     37  C   UNL A   1      44.946  29.252  29.431  1.00  0.00     0.074 A 
ATOM     38  C   UNL A   1      44.629  28.118  30.293  1.00  0.00     0.031 C 
ATOM     39  C   UNL A   1      44.981  30.598  29.665  1.00  0.00     0.031 A 
BRANCH  26  40
ATOM     40  C   UNL A   1      42.466  29.204  34.222  1.00  0.00    -0.014 A 
ATOM     41  C   UNL A   1      42.649  27.847  33.882  1.00  0.00     0.010 A 
ATOM     42  C   UNL A   1      42.325  29.504  35.593  1.00  0.00     0.010 A 
ATOM     43  C   UNL A   1      42.574  26.838  34.852  1.00  0.00     0.020 A 
ATOM     44  C   UNL A   1      42.300  28.511  36.573  1.00  0.00     0.020 A 
ATOM     45  C   UNL A   1      42.370  27.180  36.189  1.00  0.00     0.054 A 
BRANCH  45  46
ATOM     46  S   UNL A   1      42.093  25.874  37.410  1.00  0.00     0.124 S 
ATOM     47  O   UNL A   1      42.521  24.689  36.675  1.00  0.00    -0.237 OA
ATOM     48  O   UNL A   1      42.958  26.289  38.511  1.00  0.00    -0.237 OA
ATOM     49  O   UNL A   1      40.661  25.963  37.683  1.00  0.00    -0.744 OA
ENDBRANCH  45  46
ENDBRANCH  26  40
BRANCH  27  50
ATOM     50  C   UNL A   1      43.468  25.707  26.654  1.00  0.00    -0.014 A 
ATOM     51  C   UNL A   1      42.876  25.378  25.422  1.00  0.00     0.010 A 
ATOM     52  C   UNL A   1      44.403  24.800  27.196  1.00  0.00     0.010 A 
ATOM     53  C   UNL A   1      43.245  24.209  24.734  1.00  0.00     0.020 A 
ATOM     54  C   UNL A   1      44.764  23.628  26.525  1.00  0.00     0.020 A 
ATOM     55  C   UNL A   1      44.200  23.350  25.284  1.00  0.00     0.054 A 
BRANCH  55  56
ATOM     56  S   UNL A   1      44.798  21.934  24.316  1.00  0.00     0.124 S 
ATOM     57  O   UNL A   1      46.244  22.026  24.493  1.00  0.00    -0.237 OA
ATOM     58  O   UNL A   1      44.150  20.804  24.974  1.00  0.00    -0.237 OA
ATOM     59  O   UNL A   1      44.319  22.216  22.964  1.00  0.00    -0.744 OA
ENDBRANCH  55  56
ENDBRANCH  27  50
BRANCH  39  60
ATOM     60  C   UNL A   1      45.303  31.523  28.517  1.00  0.00    -0.014 A 
ATOM     61  C   UNL A   1      44.382  31.848  27.503  1.00  0.00     0.010 A 
ATOM     62  C   UNL A   1      46.529  32.211  28.556  1.00  0.00     0.010 A 
ATOM     63  C   UNL A   1      44.690  32.821  26.542  1.00  0.00     0.020 A 
ATOM     64  C   UNL A   1      46.835  33.195  27.613  1.00  0.00     0.020 A 
ATOM     65  C   UNL A   1      45.916  33.491  26.605  1.00  0.00     0.054 A 
BRANCH  65  66
ATOM     66  S   UNL A   1      46.275  34.800  25.402  1.00  0.00     0.124 S 
ATOM     67  O   UNL A   1      45.947  36.013  26.145  1.00  0.00    -0.237 OA
ATOM     68  O   UNL A   1      47.694  34.600  25.117  1.00  0.00    -0.237 OA
ATOM     69  O   UNL A   1      45.381  34.499  24.283  1.00  0.00    -0.744 OA
ENDBRANCH  65  66
ENDBRANCH  39  60
ENDBRANCH  13  14
ENDBRANCH   6   8
ENDBRANCH   3   4
ENDBRANCH   2   3
ENDBRANCH   1   2
BRANCH   1  70
ATOM     70  N   UNL A   1      30.887  26.713  26.690  1.00  0.00    -0.351 N 
ATOM     71  C   UNL A   1      30.262  26.012  25.700  1.00  0.00     0.262 C 
ATOM     72  H   UNL A   1      30.357  26.826  27.512  1.00  0.00     0.163 HD
ATOM     73  O   UNL A   1      29.070  25.760  25.896  1.00  0.00    -0.268 OA
BRANCH  71  74
ATOM     74  C   UNL A   1      30.951  25.672  24.477  1.00  0.00     0.112 A 
ATOM     75  S   UNL A   1      30.669  26.790  23.180  1.00  0.00    -0.137 S 
ATOM     76  C   UNL A   1      31.741  24.615  24.051  1.00  0.00     0.111 A 
ATOM     77  C   UNL A   1      31.656  25.926  22.102  1.00  0.00     0.067 A 
ATOM     78  C   UNL A   1      32.176  24.799  22.688  1.00  0.00     0.035 A 
BRANCH  76  79
ATOM     79  S   UNL A   1      32.218  23.152  24.862  1.00  0.00     0.263 S 
ATOM     80  O   UNL A   1      33.035  23.634  25.950  1.00  0.00    -0.201 OA
ATOM     81  O   UNL A   1      30.943  22.508  25.120  1.00  0.00    -0.201 OA
BRANCH  79  82
ATOM     82  N   UNL A   1      33.101  22.035  24.015  1.00  0.00    -0.280 N 
ATOM     83  H   UNL A   1      32.618  21.501  23.344  1.00  0.00     0.180 HD
BRANCH  82  84
ATOM     84  C   UNL A   1      34.479  21.778  24.163  1.00  0.00     0.049 A 
ATOM     85  C   UNL A   1      35.347  22.676  23.538  1.00  0.00     0.027 A 
ATOM     86  C   UNL A   1      34.992  20.793  24.990  1.00  0.00     0.027 A 
ATOM     87  C   UNL A   1      36.691  22.748  23.918  1.00  0.00     0.014 A 
ATOM     88  C   UNL A   1      36.336  20.860  25.360  1.00  0.00     0.014 A 
ATOM     89  C   UNL A   1      37.179  21.893  24.904  1.00  0.00     0.018 A 
BRANCH  89  90
ATOM     90  C   UNL A   1      38.494  22.017  25.551  1.00  0.00     0.145 A 
ATOM     91  N   UNL A   1      39.316  20.984  25.660  1.00  0.00    -0.228 NA
ATOM     92  N   UNL A   1      38.998  23.085  26.277  1.00  0.00    -0.266 N 
ATOM     93  C   UNL A   1      40.277  21.337  26.557  1.00  0.00     0.089 A 
ATOM     94  C   UNL A   1      40.117  22.653  26.969  1.00  0.00     0.074 A 
ATOM     95  C   UNL A   1      41.315  20.556  27.082  1.00  0.00     0.030 A 
ATOM     96  C   UNL A   1      40.976  23.248  27.905  1.00  0.00     0.029 A 
ATOM     97  C   UNL A   1      42.175  21.128  28.023  1.00  0.00     0.002 A 
ATOM     98  C   UNL A   1      42.006  22.453  28.426  1.00  0.00     0.002 A 
BRANCH  92  99
ATOM     99  C   UNL A   1      38.458  24.425  26.359  1.00  0.00     0.451 C 
ATOM    100  F   UNL A   1      37.161  24.406  26.769  1.00  0.00    -0.185 F 
ATOM    101  F   UNL A   1      39.136  25.219  27.232  1.00  0.00    -0.185 F 
ENDBRANCH  92  99
ENDBRANCH  89  90
ENDBRANCH  82  84
ENDBRANCH  79  82
ENDBRANCH  76  79
ENDBRANCH  71  74
ENDBRANCH   1  70
TORSDOF 18
ENDMDL
MODEL 2
REMARK VINA RESULT:     -11.9      2.782      7.424
REMARK SMILES O=C(NCCCNC(=O)c1sccc1S(=O)(=O)Nc1ccc(-c2nc3ccccc3n2C(F)F)cc1)c1ccc(-c2c3nc(c(-c4ccc(S(=O)(=O)[O-])cc4)c4ccc([nH]4)c(-c4ccc(S(=O)(=O)[O-])cc4)c4nc(c(-c5ccc(S(=O)(=O)[O-])cc5)c5ccc2[nH]5)C=C4)C=C3)cc1
REMARK SMILES IDX 6 1 5 2 4 3 3 4 1 5 2 6 37 8 38 9 96 10 39 11 95 12 40 13
REMARK SMILES IDX 41 14 42 15 89 16 43 17 94 18 88 19 90 20 44 21 93 22 87 23
REMARK SMILES IDX 86 24 45 26 75 27 56 28 74 29 57 30 60 31 73 32 91 33 58 34
REMARK SMILES IDX 59 35 72 37 92 38 61 39 46 40 47 41 55 42 48 43 54 44 49 45
REMARK SMILES IDX 50 46 51 47 52 48 53 49 76 50 77 51 85 52 78 53 84 54 79 55
REMARK SMILES IDX 80 56 81 57 82 58 83 59 62 60 63 61 71 62 64 63 70 64 65 65
REMARK SMILES IDX 66 66 67 67 68 68 69 69 7 70 8 71 9 73 10 74 11 75 14 76
REMARK SMILES IDX 12 77 13 78 15 79 16 80 17 81 18 82 19 84 20 85 36 86 21 87
REMARK SMILES IDX 35 88 22 89 23 90 24 91 31 92 25 93 30 94 26 95 29 96 27 97
REMARK SMILES IDX 28 98 32 99 33 100 34 101
REMARK H PARENT 3 7 90 25 60 36 7 72 18 83
REMARK Flexibility Score: inf
ROOT
ATOM      1  C   UNL A   1      31.963  27.911  26.535  1.00  0.00     0.118 C 
ENDROOT
BRANCH   1   2
ATOM      2  C   UNL A   1      31.862  29.204  27.333  1.00  0.00     0.042 C 
BRANCH   2   3
ATOM      3  C   UNL A   1      32.512  30.436  26.685  1.00  0.00     0.118 C 
BRANCH   3   4
ATOM      4  N   UNL A   1      32.101  31.735  27.181  1.00  0.00    -0.352 N 
ATOM      5  O   UNL A   1      32.135  33.886  27.694  1.00  0.00    -0.269 OA
ATOM      6  C   UNL A   1      32.773  32.831  27.654  1.00  0.00     0.251 C 
ATOM      7  H   UNL A   1      31.123  31.857  27.177  1.00  0.00     0.163 HD
BRANCH   6   8
ATOM      8  C   UNL A   1      34.158  32.798  28.184  1.00  0.00     0.039 A 
ATOM      9  C   UNL A   1      35.219  33.534  27.663  1.00  0.00     0.014 A 
ATOM     10  C   UNL A   1      34.412  31.899  29.236  1.00  0.00     0.014 A 
ATOM     11  C   UNL A   1      36.519  33.267  28.054  1.00  0.00     0.010 A 
ATOM     12  C   UNL A   1      35.711  31.667  29.675  1.00  0.00     0.010 A 
ATOM     13  C   UNL A   1      36.766  32.315  29.040  1.00  0.00    -0.014 A 
BRANCH  13  14
ATOM     14  C   UNL A   1      38.155  32.154  29.448  1.00  0.00     0.031 A 
ATOM     15  C   UNL A   1      38.682  30.766  29.334  1.00  0.00     0.074 A 
ATOM     16  C   UNL A   1      38.956  33.170  29.810  1.00  0.00     0.049 A 
ATOM     17  N   UNL A   1      39.105  29.983  30.272  1.00  0.00    -0.248 NA
ATOM     18  C   UNL A   1      38.614  30.136  28.007  1.00  0.00     0.031 C 
ATOM     19  C   UNL A   1      38.698  34.605  29.686  1.00  0.00     0.029 A 
ATOM     20  N   UNL A   1      40.243  33.116  30.257  1.00  0.00    -0.354 N 
ATOM     21  C   UNL A   1      39.542  28.825  29.632  1.00  0.00     0.074 A 
ATOM     22  C   UNL A   1      39.079  28.916  28.271  1.00  0.00     0.031 C 
ATOM     23  C   UNL A   1      39.866  35.271  29.812  1.00  0.00     0.029 A 
ATOM     24  C   UNL A   1      40.916  34.323  30.153  1.00  0.00     0.049 A 
ATOM     25  H   UNL A   1      40.654  32.298  30.618  1.00  0.00     0.167 HD
ATOM     26  C   UNL A   1      40.437  27.968  30.198  1.00  0.00     0.031 A 
ATOM     27  C   UNL A   1      42.256  34.508  30.243  1.00  0.00     0.031 A 
ATOM     28  C   UNL A   1      40.564  28.168  31.617  1.00  0.00     0.049 A 
ATOM     29  C   UNL A   1      42.835  33.335  30.940  1.00  0.00     0.074 A 
ATOM     30  C   UNL A   1      39.710  28.095  32.699  1.00  0.00     0.029 A 
ATOM     31  N   UNL A   1      41.685  28.825  32.063  1.00  0.00    -0.354 N 
ATOM     32  N   UNL A   1      42.623  33.059  32.196  1.00  0.00    -0.248 NA
ATOM     33  C   UNL A   1      43.358  32.235  30.144  1.00  0.00     0.031 C 
ATOM     34  C   UNL A   1      40.165  29.100  33.601  1.00  0.00     0.029 A 
ATOM     35  C   UNL A   1      41.284  29.708  33.030  1.00  0.00     0.049 A 
ATOM     36  H   UNL A   1      42.608  28.687  31.747  1.00  0.00     0.167 HD
ATOM     37  C   UNL A   1      42.594  31.674  32.261  1.00  0.00     0.074 A 
ATOM     38  C   UNL A   1      43.168  31.225  30.996  1.00  0.00     0.031 C 
ATOM     39  C   UNL A   1      41.859  31.025  33.213  1.00  0.00     0.031 A 
BRANCH  26  40
ATOM     40  C   UNL A   1      41.493  27.231  29.403  1.00  0.00    -0.014 A 
ATOM     41  C   UNL A   1      42.695  27.899  29.085  1.00  0.00     0.010 A 
ATOM     42  C   UNL A   1      41.223  26.037  28.702  1.00  0.00     0.010 A 
ATOM     43  C   UNL A   1      43.515  27.459  28.038  1.00  0.00     0.020 A 
ATOM     44  C   UNL A   1      42.060  25.562  27.692  1.00  0.00     0.020 A 
ATOM     45  C   UNL A   1      43.173  26.306  27.330  1.00  0.00     0.054 A 
BRANCH  45  46
ATOM     46  S   UNL A   1      44.131  25.842  25.868  1.00  0.00     0.124 S 
ATOM     47  O   UNL A   1      44.622  24.521  26.245  1.00  0.00    -0.237 OA
ATOM     48  O   UNL A   1      43.122  25.868  24.813  1.00  0.00    -0.237 OA
ATOM     49  O   UNL A   1      45.146  26.889  25.780  1.00  0.00    -0.744 OA
ENDBRANCH  45  46
ENDBRANCH  26  40
BRANCH  27  50
ATOM     50  C   UNL A   1      43.073  35.478  29.475  1.00  0.00    -0.014 A 
ATOM     51  C   UNL A   1      42.979  35.557  28.075  1.00  0.00     0.010 A 
ATOM     52  C   UNL A   1      43.760  36.511  30.147  1.00  0.00     0.010 A 
ATOM     53  C   UNL A   1      43.508  36.657  27.378  1.00  0.00     0.020 A 
ATOM     54  C   UNL A   1      44.301  37.602  29.460  1.00  0.00     0.020 A 
ATOM     55  C   UNL A   1      44.151  37.681  28.079  1.00  0.00     0.054 A 
BRANCH  55  56
ATOM     56  S   UNL A   1      44.680  39.178  27.197  1.00  0.00     0.124 S 
ATOM     57  O   UNL A   1      44.954  40.103  28.293  1.00  0.00    -0.237 OA
ATOM     58  O   UNL A   1      45.848  38.713  26.454  1.00  0.00    -0.237 OA
ATOM     59  O   UNL A   1      43.522  39.518  26.372  1.00  0.00    -0.744 OA
ENDBRANCH  55  56
ENDBRANCH  27  50
BRANCH  39  60
ATOM     60  C   UNL A   1      41.364  31.809  34.404  1.00  0.00    -0.014 A 
ATOM     61  C   UNL A   1      40.156  32.532  34.406  1.00  0.00     0.010 A 
ATOM     62  C   UNL A   1      42.070  31.677  35.613  1.00  0.00     0.010 A 
ATOM     63  C   UNL A   1      39.680  33.125  35.584  1.00  0.00     0.020 A 
ATOM     64  C   UNL A   1      41.592  32.249  36.794  1.00  0.00     0.020 A 
ATOM     65  C   UNL A   1      40.402  32.977  36.772  1.00  0.00     0.054 A 
BRANCH  65  66
ATOM     66  S   UNL A   1      39.740  33.684  38.306  1.00  0.00     0.124 S 
ATOM     67  O   UNL A   1      38.348  33.952  37.958  1.00  0.00    -0.237 OA
ATOM     68  O   UNL A   1      39.951  32.611  39.276  1.00  0.00    -0.237 OA
ATOM     69  O   UNL A   1      40.564  34.873  38.525  1.00  0.00    -0.744 OA
ENDBRANCH  65  66
ENDBRANCH  39  60
ENDBRANCH  13  14
ENDBRANCH   6   8
ENDBRANCH   3   4
ENDBRANCH   2   3
ENDBRANCH   1   2
BRANCH   1  70
ATOM     70  N   UNL A   1      30.878  27.005  26.836  1.00  0.00    -0.351 N 
ATOM     71  C   UNL A   1      30.301  26.030  26.075  1.00  0.00     0.262 C 
ATOM     72  H   UNL A   1      30.490  27.109  27.735  1.00  0.00     0.163 HD
ATOM     73  O   UNL A   1      29.276  25.525  26.542  1.00  0.00    -0.268 OA
BRANCH  71  74
ATOM     74  C   UNL A   1      30.831  25.687  24.775  1.00  0.00     0.112 A 
ATOM     75  S   UNL A   1      30.429  26.829  23.532  1.00  0.00    -0.137 S 
ATOM     76  C   UNL A   1      31.533  24.615  24.248  1.00  0.00     0.111 A 
ATOM     77  C   UNL A   1      31.255  25.953  22.336  1.00  0.00     0.067 A 
ATOM     78  C   UNL A   1      31.809  24.805  22.844  1.00  0.00     0.035 A 
BRANCH  76  79
ATOM     79  S   UNL A   1      32.060  23.128  24.981  1.00  0.00     0.263 S 
ATOM     80  O   UNL A   1      32.979  23.576  26.002  1.00  0.00    -0.201 OA
ATOM     81  O   UNL A   1      30.805  22.493  25.339  1.00  0.00    -0.201 OA
BRANCH  79  82
ATOM     82  N   UNL A   1      32.849  22.020  24.036  1.00  0.00    -0.280 N 
ATOM     83  H   UNL A   1      32.312  21.551  23.357  1.00  0.00     0.180 HD
BRANCH  82  84
ATOM     84  C   UNL A   1      34.217  21.686  24.109  1.00  0.00     0.049 A 
ATOM     85  C   UNL A   1      35.108  22.596  23.536  1.00  0.00     0.027 A 
ATOM     86  C   UNL A   1      34.706  20.606  24.824  1.00  0.00     0.027 A 
ATOM     87  C   UNL A   1      36.465  22.570  23.872  1.00  0.00     0.014 A 
ATOM     88  C   UNL A   1      36.063  20.576  25.149  1.00  0.00     0.014 A 
ATOM     89  C   UNL A   1      36.942  21.606  24.758  1.00  0.00     0.018 A 
BRANCH  89  90
ATOM     90  C   UNL A   1      38.281  21.607  25.364  1.00  0.00     0.145 A 
ATOM     91  N   UNL A   1      39.047  20.527  25.363  1.00  0.00    -0.228 NA
ATOM     92  N   UNL A   1      38.867  22.586  26.153  1.00  0.00    -0.266 N 
ATOM     93  C   UNL A   1      40.054  20.756  26.250  1.00  0.00     0.089 A 
ATOM     94  C   UNL A   1      39.981  22.041  26.769  1.00  0.00     0.074 A 
ATOM     95  C   UNL A   1      41.063  19.882  26.674  1.00  0.00     0.030 A 
ATOM     96  C   UNL A   1      40.901  22.513  27.717  1.00  0.00     0.029 A 
ATOM     97  C   UNL A   1      41.983  20.329  27.626  1.00  0.00     0.002 A 
ATOM     98  C   UNL A   1      41.902  21.625  28.136  1.00  0.00     0.002 A 
BRANCH  92  99
ATOM     99  C   UNL A   1      38.405  23.942  26.359  1.00  0.00     0.451 C 
ATOM    100  F   UNL A   1      38.144  24.175  27.674  1.00  0.00    -0.185 F 
ATOM    101  F   UNL A   1      39.311  24.878  25.965  1.00  0.00    -0.185 F 
ENDBRANCH  92  99
ENDBRANCH  89  90
ENDBRANCH  82  84
ENDBRANCH  79  82
ENDBRANCH  76  79
ENDBRANCH  71  74
ENDBRANCH   1  70
TORSDOF 18
ENDMDL
MODEL 3
REMARK VINA RESULT:     -11.7      2.610      7.184
REMARK SMILES O=C(NCCCNC(=O)c1sccc1S(=O)(=O)Nc1ccc(-c2nc3ccccc3n2C(F)F)cc1)c1ccc(-c2c3nc(c(-c4ccc(S(=O)(=O)[O-])cc4)c4ccc([nH]4)c(-c4ccc(S(=O)(=O)[O-])cc4)c4nc(c(-c5ccc(S(=O)(=O)[O-])cc5)c5ccc2[nH]5)C=C4)C=C3)cc1
REMARK SMILES IDX 6 1 5 2 4 3 3 4 1 5 2 6 37 8 38 9 96 10 39 11 95 12 40 13
REMARK SMILES IDX 41 14 42 15 89 16 43 17 94 18 88 19 90 20 44 21 93 22 87 23
REMARK SMILES IDX 86 24 45 26 75 27 56 28 74 29 57 30 60 31 73 32 91 33 58 34
REMARK SMILES IDX 59 35 72 37 92 38 61 39 46 40 47 41 55 42 48 43 54 44 49 45
REMARK SMILES IDX 50 46 51 47 52 48 53 49 76 50 77 51 85 52 78 53 84 54 79 55
REMARK SMILES IDX 80 56 81 57 82 58 83 59 62 60 63 61 71 62 64 63 70 64 65 65
REMARK SMILES IDX 66 66 67 67 68 68 69 69 7 70 8 71 9 73 10 74 11 75 14 76
REMARK SMILES IDX 12 77 13 78 15 79 16 80 17 81 18 82 19 84 20 85 36 86 21 87
REMARK SMILES IDX 35 88 22 89 23 90 24 91 31 92 25 93 30 94 26 95 29 96 27 97
REMARK SMILES IDX 28 98 32 99 33 100 34 101
REMARK H PARENT 3 7 90 25 60 36 7 72 18 83
REMARK Flexibility Score: inf
ROOT
ATOM      1  C   UNL A   1      31.873  30.573  26.580  1.00  0.00     0.118 C 
ENDROOT
BRANCH   1   2
ATOM      2  C   UNL A   1      32.656  31.763  27.117  1.00  0.00     0.042 C 
BRANCH   2   3
ATOM      3  C   UNL A   1      32.077  33.145  26.777  1.00  0.00     0.118 C 
BRANCH   3   4
ATOM      4  N   UNL A   1      31.973  34.101  27.863  1.00  0.00    -0.352 N 
ATOM      5  O   UNL A   1      32.476  35.724  29.277  1.00  0.00    -0.269 OA
ATOM      6  C   UNL A   1      32.883  34.733  28.667  1.00  0.00     0.251 C 
ATOM      7  H   UNL A   1      31.042  34.352  28.066  1.00  0.00     0.163 HD
BRANCH   6   8
ATOM      8  C   UNL A   1      34.267  34.252  28.903  1.00  0.00     0.039 A 
ATOM      9  C   UNL A   1      35.295  34.320  27.967  1.00  0.00     0.014 A 
ATOM     10  C   UNL A   1      34.515  33.617  30.134  1.00  0.00     0.014 A 
ATOM     11  C   UNL A   1      36.480  33.636  28.172  1.00  0.00     0.010 A 
ATOM     12  C   UNL A   1      35.726  32.975  30.372  1.00  0.00     0.010 A 
ATOM     13  C   UNL A   1      36.684  32.942  29.363  1.00  0.00    -0.014 A 
BRANCH  13  14
ATOM     14  C   UNL A   1      37.989  32.317  29.530  1.00  0.00     0.031 A 
ATOM     15  C   UNL A   1      38.054  30.889  29.114  1.00  0.00     0.074 A 
ATOM     16  C   UNL A   1      39.091  32.971  29.933  1.00  0.00     0.049 A 
ATOM     17  N   UNL A   1      38.302  29.847  29.838  1.00  0.00    -0.248 NA
ATOM     18  C   UNL A   1      37.676  30.582  27.726  1.00  0.00     0.031 C 
ATOM     19  C   UNL A   1      39.272  34.415  30.085  1.00  0.00     0.029 A 
ATOM     20  N   UNL A   1      40.336  32.468  30.170  1.00  0.00    -0.354 N 
ATOM     21  C   UNL A   1      38.304  28.765  28.960  1.00  0.00     0.074 A 
ATOM     22  C   UNL A   1      37.768  29.254  27.715  1.00  0.00     0.031 C 
ATOM     23  C   UNL A   1      40.595  34.684  30.145  1.00  0.00     0.029 A 
ATOM     24  C   UNL A   1      41.332  33.430  30.168  1.00  0.00     0.049 A 
ATOM     25  H   UNL A   1      40.509  31.512  30.328  1.00  0.00     0.167 HD
ATOM     26  C   UNL A   1      38.944  27.595  29.240  1.00  0.00     0.031 A 
ATOM     27  C   UNL A   1      42.667  33.207  30.090  1.00  0.00     0.031 A 
ATOM     28  C   UNL A   1      39.255  27.463  30.638  1.00  0.00     0.049 A 
ATOM     29  C   UNL A   1      42.922  31.804  30.492  1.00  0.00     0.074 A 
ATOM     30  C   UNL A   1      38.522  27.418  31.807  1.00  0.00     0.029 A 
ATOM     31  N   UNL A   1      40.559  27.673  31.016  1.00  0.00    -0.354 N 
ATOM     32  N   UNL A   1      42.751  31.352  31.703  1.00  0.00    -0.248 NA
ATOM     33  C   UNL A   1      43.009  30.783  29.458  1.00  0.00     0.031 C 
ATOM     34  C   UNL A   1      39.342  28.052  32.785  1.00  0.00     0.029 A 
ATOM     35  C   UNL A   1      40.536  28.421  32.163  1.00  0.00     0.049 A 
ATOM     36  H   UNL A   1      41.362  27.346  30.550  1.00  0.00     0.167 HD
ATOM     37  C   UNL A   1      42.307  30.048  31.543  1.00  0.00     0.074 A 
ATOM     38  C   UNL A   1      42.599  29.719  30.151  1.00  0.00     0.031 C 
ATOM     39  C   UNL A   1      41.499  29.457  32.473  1.00  0.00     0.031 A 
BRANCH  26  40
ATOM     40  C   UNL A   1      39.647  26.765  28.188  1.00  0.00    -0.014 A 
ATOM     41  C   UNL A   1      39.701  25.364  28.352  1.00  0.00     0.010 A 
ATOM     42  C   UNL A   1      40.511  27.328  27.226  1.00  0.00     0.010 A 
ATOM     43  C   UNL A   1      40.654  24.590  27.676  1.00  0.00     0.020 A 
ATOM     44  C   UNL A   1      41.429  26.559  26.510  1.00  0.00     0.020 A 
ATOM     45  C   UNL A   1      41.531  25.202  26.779  1.00  0.00     0.054 A 
BRANCH  45  46
ATOM     46  S   UNL A   1      42.873  24.236  26.046  1.00  0.00     0.124 S 
ATOM     47  O   UNL A   1      42.187  22.995  25.700  1.00  0.00    -0.237 OA
ATOM     48  O   UNL A   1      43.281  25.073  24.922  1.00  0.00    -0.237 OA
ATOM     49  O   UNL A   1      43.849  24.135  27.129  1.00  0.00    -0.744 OA
ENDBRANCH  45  46
ENDBRANCH  26  40
BRANCH  27  50
ATOM     50  C   UNL A   1      43.667  34.040  29.380  1.00  0.00    -0.014 A 
ATOM     51  C   UNL A   1      44.652  34.752  30.088  1.00  0.00     0.010 A 
ATOM     52  C   UNL A   1      43.816  33.928  27.981  1.00  0.00     0.010 A 
ATOM     53  C   UNL A   1      45.771  35.286  29.426  1.00  0.00     0.020 A 
ATOM     54  C   UNL A   1      44.919  34.468  27.314  1.00  0.00     0.020 A 
ATOM     55  C   UNL A   1      45.904  35.125  28.043  1.00  0.00     0.054 A 
BRANCH  55  56
ATOM     56  S   UNL A   1      47.430  35.665  27.220  1.00  0.00     0.124 S 
ATOM     57  O   UNL A   1      47.787  36.859  27.982  1.00  0.00    -0.237 OA
ATOM     58  O   UNL A   1      48.311  34.515  27.397  1.00  0.00    -0.237 OA
ATOM     59  O   UNL A   1      47.009  35.911  25.842  1.00  0.00    -0.744 OA
ENDBRANCH  55  56
ENDBRANCH  27  50
BRANCH  39  60
ATOM     60  C   UNL A   1      41.379  30.093  33.836  1.00  0.00    -0.014 A 
ATOM     61  C   UNL A   1      42.184  29.732  34.933  1.00  0.00     0.010 A 
ATOM     62  C   UNL A   1      40.527  31.205  33.965  1.00  0.00     0.010 A 
ATOM     63  C   UNL A   1      42.123  30.453  36.133  1.00  0.00     0.020 A 
ATOM     64  C   UNL A   1      40.475  31.940  35.152  1.00  0.00     0.020 A 
ATOM     65  C   UNL A   1      41.268  31.556  36.234  1.00  0.00     0.054 A 
BRANCH  65  66
ATOM     66  S   UNL A   1      41.250  32.528  37.765  1.00  0.00     0.124 S 
ATOM     67  O   UNL A   1      42.090  31.733  38.656  1.00  0.00    -0.237 OA
ATOM     68  O   UNL A   1      41.813  33.809  37.344  1.00  0.00    -0.237 OA
ATOM     69  O   UNL A   1      39.834  32.577  38.130  1.00  0.00    -0.744 OA
ENDBRANCH  65  66
ENDBRANCH  39  60
ENDBRANCH  13  14
ENDBRANCH   6   8
ENDBRANCH   3   4
ENDBRANCH   2   3
ENDBRANCH   1   2
BRANCH   1  70
ATOM     70  N   UNL A   1      31.817  29.488  27.534  1.00  0.00    -0.351 N 
ATOM     71  C   UNL A   1      31.983  28.145  27.358  1.00  0.00     0.262 C 
ATOM     72  H   UNL A   1      31.628  29.763  28.460  1.00  0.00     0.163 HD
ATOM     73  O   UNL A   1      31.712  27.442  28.336  1.00  0.00    -0.268 OA
BRANCH  71  74
ATOM     74  C   UNL A   1      32.371  27.602  26.077  1.00  0.00     0.112 A 
ATOM     75  S   UNL A   1      33.803  28.325  25.414  1.00  0.00    -0.137 S 
ATOM     76  C   UNL A   1      31.833  26.680  25.193  1.00  0.00     0.111 A 
ATOM     77  C   UNL A   1      33.753  27.358  24.020  1.00  0.00     0.067 A 
ATOM     78  C   UNL A   1      32.669  26.518  24.028  1.00  0.00     0.035 A 
BRANCH  76  79
ATOM     79  S   UNL A   1      30.351  25.772  25.258  1.00  0.00     0.263 S 
ATOM     80  O   UNL A   1      30.026  25.776  26.665  1.00  0.00    -0.201 OA
ATOM     81  O   UNL A   1      29.514  26.471  24.300  1.00  0.00    -0.201 OA
BRANCH  79  82
ATOM     82  N   UNL A   1      30.369  24.197  24.744  1.00  0.00    -0.280 N 
ATOM     83  H   UNL A   1      29.545  23.854  24.328  1.00  0.00     0.180 HD
BRANCH  82  84
ATOM     84  C   UNL A   1      31.454  23.301  24.843  1.00  0.00     0.049 A 
ATOM     85  C   UNL A   1      31.987  22.838  23.638  1.00  0.00     0.027 A 
ATOM     86  C   UNL A   1      32.081  22.984  26.036  1.00  0.00     0.027 A 
ATOM     87  C   UNL A   1      33.263  22.269  23.597  1.00  0.00     0.014 A 
ATOM     88  C   UNL A   1      33.350  22.406  25.994  1.00  0.00     0.014 A 
ATOM     89  C   UNL A   1      33.998  22.129  24.773  1.00  0.00     0.018 A 
BRANCH  89  90
ATOM     90  C   UNL A   1      35.420  21.763  24.840  1.00  0.00     0.145 A 
ATOM     91  N   UNL A   1      35.838  20.539  24.556  1.00  0.00    -0.228 NA
ATOM     92  N   UNL A   1      36.475  22.503  25.354  1.00  0.00    -0.266 N 
ATOM     93  C   UNL A   1      37.120  20.446  25.006  1.00  0.00     0.089 A 
ATOM     94  C   UNL A   1      37.561  21.660  25.513  1.00  0.00     0.074 A 
ATOM     95  C   UNL A   1      37.962  19.326  25.027  1.00  0.00     0.030 A 
ATOM     96  C   UNL A   1      38.847  21.817  26.052  1.00  0.00     0.029 A 
ATOM     97  C   UNL A   1      39.243  19.459  25.569  1.00  0.00     0.002 A 
ATOM     98  C   UNL A   1      39.676  20.686  26.071  1.00  0.00     0.002 A 
BRANCH  92  99
ATOM     99  C   UNL A   1      36.472  23.904  25.715  1.00  0.00     0.451 C 
ATOM    100  F   UNL A   1      37.730  24.422  25.675  1.00  0.00    -0.185 F 
ATOM    101  F   UNL A   1      35.706  24.666  24.888  1.00  0.00    -0.185 F 
ENDBRANCH  92  99
ENDBRANCH  89  90
ENDBRANCH  82  84
ENDBRANCH  79  82
ENDBRANCH  76  79
ENDBRANCH  71  74
ENDBRANCH   1  70
TORSDOF 18
ENDMDL
