MODEL 1
REMARK VINA RESULT:     -11.1      0.000      0.000
REMARK SMILES C[C@@H](C(=O)NCCCNC(=O)c1ccc(-c2c3nc(c(-c4ccc(S(=O)(=O)[O-])cc4)c4ccc([nH]4)c(-c4ccc(S(=O)(=O)[O-])cc4)c4nc(c(-c5ccc(S(=O)(=O)[O-])cc5)c5ccc2[nH]5)C=C4)C=C3)cc1)N1C(=O)/C(=C/c2ccc(-c3ccc([N+](=O)[O-])cc3Cl)o2)SC1=S
REMARK SMILES IDX 6 1 5 2 3 3 4 4 2 6 1 7 72 8 73 9 93 10 74 11 75 12 92 13
REMARK SMILES IDX 94 14 76 15 77 16 78 17 91 18 79 19 80 20 81 21 82 22 89 23
REMARK SMILES IDX 83 24 88 25 90 26 84 27 85 28 86 29 87 30 7 31 8 32 9 33
REMARK SMILES IDX 10 34 11 36 12 37 13 38 71 39 14 40 70 41 15 42 16 43 17 44
REMARK SMILES IDX 64 45 18 46 69 47 63 48 65 49 19 50 68 51 62 52 61 53 20 55
REMARK SMILES IDX 50 56 31 57 49 58 32 59 35 60 48 61 66 62 33 63 34 64 47 66
REMARK SMILES IDX 67 67 36 68 21 69 22 70 30 71 23 72 29 73 24 74 25 75 26 76
REMARK SMILES IDX 27 77 28 78 51 79 52 80 60 81 53 82 59 83 54 84 55 85 56 86
REMARK SMILES IDX 57 87 58 88 37 89 38 90 46 91 39 92 45 93 40 94 41 95 42 96
REMARK SMILES IDX 43 97 44 98
REMARK H PARENT 5 5 9 35 65 54 35 65
REMARK Flexibility Score: inf
ROOT
ATOM      1  C   UNL A   1      34.532  33.348  31.492  1.00  0.00     0.117 C 
ENDROOT
BRANCH   1   2
ATOM      2  N   UNL A   1      33.641  34.372  30.983  1.00  0.00    -0.354 N 
ATOM      3  C   UNL A   1      33.533  34.892  29.724  1.00  0.00     0.242 C 
ATOM      4  O   UNL A   1      32.560  35.618  29.500  1.00  0.00    -0.273 OA
ATOM      5  H   UNL A   1      33.018  34.750  31.645  1.00  0.00     0.163 HD
BRANCH   3   6
ATOM      6  C   UNL A   1      34.558  34.515  28.629  1.00  0.00     0.178 C 
ATOM      7  C   UNL A   1      34.612  35.468  27.439  1.00  0.00     0.042 C 
BRANCH   6   8
ATOM      8  N   UNL A   1      34.307  33.119  28.213  1.00  0.00    -0.281 N 
ATOM      9  C   UNL A   1      33.060  32.771  27.707  1.00  0.00     0.267 C 
ATOM     10  C   UNL A   1      35.215  32.092  28.360  1.00  0.00     0.149 C 
ATOM     11  O   UNL A   1      32.123  33.523  27.492  1.00  0.00    -0.268 OA
ATOM     12  C   UNL A   1      33.001  31.311  27.432  1.00  0.00     0.084 C 
ATOM     13  S   UNL A   1      34.501  30.577  27.832  1.00  0.00    -0.054 SA
ATOM     14  S   UNL A   1      36.789  32.160  28.913  1.00  0.00    -0.052 S 
ATOM     15  C   UNL A   1      31.907  30.748  26.905  1.00  0.00     0.068 C 
BRANCH  15  16
ATOM     16  C   UNL A   1      31.812  29.364  26.603  1.00  0.00     0.128 A 
ATOM     17  C   UNL A   1      31.558  28.282  27.441  1.00  0.00     0.051 A 
ATOM     18  O   UNL A   1      31.965  28.871  25.326  1.00  0.00    -0.457 OA
ATOM     19  C   UNL A   1      31.619  27.106  26.663  1.00  0.00     0.051 A 
ATOM     20  C   UNL A   1      31.898  27.514  25.379  1.00  0.00     0.136 A 
BRANCH  20  21
ATOM     21  C   UNL A   1      32.105  26.793  24.133  1.00  0.00     0.036 A 
ATOM     22  C   UNL A   1      33.366  26.213  23.908  1.00  0.00     0.020 A 
ATOM     23  C   UNL A   1      31.135  26.718  23.116  1.00  0.00     0.058 A 
ATOM     24  C   UNL A   1      33.668  25.597  22.692  1.00  0.00     0.086 A 
ATOM     25  C   UNL A   1      31.429  26.102  21.894  1.00  0.00     0.106 A 
ATOM     26  Cl  UNL A   1      29.567  27.437  23.271  1.00  0.00    -0.083 Cl
ATOM     27  C   UNL A   1      32.700  25.557  21.683  1.00  0.00     0.270 A 
BRANCH  27  28
ATOM     28  N   UNL A   1      33.034  24.970  20.380  1.00  0.00     0.062 N 
ATOM     29  O   UNL A   1      32.975  25.706  19.385  1.00  0.00    -0.258 OA
ATOM     30  O   UNL A   1      33.342  23.770  20.349  1.00  0.00    -0.258 OA
ENDBRANCH  27  28
ENDBRANCH  20  21
ENDBRANCH  15  16
ENDBRANCH   6   8
ENDBRANCH   3   6
ENDBRANCH   1   2
BRANCH   1  31
ATOM     31  C   UNL A   1      34.490  33.238  33.013  1.00  0.00     0.042 C 
BRANCH  31  32
ATOM     32  C   UNL A   1      35.032  34.458  33.754  1.00  0.00     0.118 C 
BRANCH  32  33
ATOM     33  N   UNL A   1      35.452  34.150  35.112  1.00  0.00    -0.352 N 
ATOM     34  C   UNL A   1      36.648  33.689  35.600  1.00  0.00     0.251 C 
ATOM     35  H   UNL A   1      34.760  34.298  35.797  1.00  0.00     0.163 HD
ATOM     36  O   UNL A   1      36.701  33.322  36.772  1.00  0.00    -0.269 OA
BRANCH  34  37
ATOM     37  C   UNL A   1      37.858  33.608  34.749  1.00  0.00     0.039 A 
ATOM     38  C   UNL A   1      37.879  34.339  33.557  1.00  0.00     0.014 A 
ATOM     39  C   UNL A   1      38.942  32.788  35.073  1.00  0.00     0.014 A 
ATOM     40  C   UNL A   1      39.000  34.290  32.726  1.00  0.00     0.010 A 
ATOM     41  C   UNL A   1      40.094  32.802  34.282  1.00  0.00     0.010 A 
ATOM     42  C   UNL A   1      40.135  33.551  33.099  1.00  0.00    -0.014 A 
BRANCH  42  43
ATOM     43  C   UNL A   1      41.366  33.592  32.264  1.00  0.00     0.031 A 
ATOM     44  C   UNL A   1      41.664  32.506  31.263  1.00  0.00     0.074 A 
ATOM     45  C   UNL A   1      42.234  34.610  32.427  1.00  0.00     0.049 A 
ATOM     46  N   UNL A   1      42.672  32.409  30.432  1.00  0.00    -0.248 NA
ATOM     47  C   UNL A   1      40.723  31.377  31.196  1.00  0.00     0.031 C 
ATOM     48  C   UNL A   1      42.089  35.696  33.401  1.00  0.00     0.029 A 
ATOM     49  N   UNL A   1      43.404  34.908  31.775  1.00  0.00    -0.354 N 
ATOM     50  C   UNL A   1      42.487  31.214  29.746  1.00  0.00     0.074 A 
ATOM     51  C   UNL A   1      41.303  30.593  30.298  1.00  0.00     0.031 C 
ATOM     52  C   UNL A   1      43.105  36.560  33.253  1.00  0.00     0.029 A 
ATOM     53  C   UNL A   1      43.997  36.072  32.207  1.00  0.00     0.049 A 
ATOM     54  H   UNL A   1      43.784  34.341  31.065  1.00  0.00     0.167 HD
ATOM     55  C   UNL A   1      43.221  30.692  28.732  1.00  0.00     0.031 A 
ATOM     56  C   UNL A   1      45.129  36.682  31.810  1.00  0.00     0.031 A 
ATOM     57  C   UNL A   1      44.405  31.309  28.190  1.00  0.00     0.049 A 
ATOM     58  C   UNL A   1      45.933  36.077  30.693  1.00  0.00     0.074 A 
ATOM     59  C   UNL A   1      45.194  30.879  27.136  1.00  0.00     0.029 A 
ATOM     60  N   UNL A   1      44.977  32.482  28.661  1.00  0.00    -0.354 N 
ATOM     61  N   UNL A   1      45.698  34.983  30.008  1.00  0.00    -0.248 NA
ATOM     62  C   UNL A   1      47.145  36.799  30.284  1.00  0.00     0.031 C 
ATOM     63  C   UNL A   1      46.273  31.760  27.008  1.00  0.00     0.029 A 
ATOM     64  C   UNL A   1      46.122  32.776  27.937  1.00  0.00     0.049 A 
ATOM     65  H   UNL A   1      44.620  33.025  29.400  1.00  0.00     0.167 HD
ATOM     66  C   UNL A   1      46.726  34.894  29.075  1.00  0.00     0.074 A 
ATOM     67  C   UNL A   1      47.562  36.062  29.263  1.00  0.00     0.031 C 
ATOM     68  C   UNL A   1      46.959  33.931  28.149  1.00  0.00     0.031 A 
BRANCH  55  69
ATOM     69  C   UNL A   1      42.764  29.381  28.143  1.00  0.00    -0.014 A 
ATOM     70  C   UNL A   1      42.022  29.343  26.946  1.00  0.00     0.010 A 
ATOM     71  C   UNL A   1      43.122  28.168  28.759  1.00  0.00     0.010 A 
ATOM     72  C   UNL A   1      41.614  28.121  26.402  1.00  0.00     0.020 A 
ATOM     73  C   UNL A   1      42.743  26.943  28.201  1.00  0.00     0.020 A 
ATOM     74  C   UNL A   1      41.978  26.929  27.034  1.00  0.00     0.054 A 
BRANCH  74  75
ATOM     75  S   UNL A   1      41.458  25.358  26.288  1.00  0.00     0.124 S 
ATOM     76  O   UNL A   1      40.003  25.503  26.266  1.00  0.00    -0.237 OA
ATOM     77  O   UNL A   1      42.111  25.395  24.981  1.00  0.00    -0.237 OA
ATOM     78  O   UNL A   1      41.969  24.349  27.210  1.00  0.00    -0.744 OA
ENDBRANCH  74  75
ENDBRANCH  55  69
BRANCH  56  79
ATOM     79  C   UNL A   1      45.565  37.943  32.474  1.00  0.00    -0.014 A 
ATOM     80  C   UNL A   1      45.132  39.193  32.000  1.00  0.00     0.010 A 
ATOM     81  C   UNL A   1      46.409  37.892  33.599  1.00  0.00     0.010 A 
ATOM     82  C   UNL A   1      45.551  40.372  32.627  1.00  0.00     0.020 A 
ATOM     83  C   UNL A   1      46.802  39.065  34.248  1.00  0.00     0.020 A 
ATOM     84  C   UNL A   1      46.381  40.298  33.750  1.00  0.00     0.054 A 
BRANCH  84  85
ATOM     85  S   UNL A   1      46.867  41.836  34.579  1.00  0.00     0.124 S 
ATOM     86  O   UNL A   1      46.253  41.681  35.893  1.00  0.00    -0.237 OA
ATOM     87  O   UNL A   1      48.326  41.763  34.549  1.00  0.00    -0.237 OA
ATOM     88  O   UNL A   1      46.287  42.878  33.735  1.00  0.00    -0.744 OA
ENDBRANCH  84  85
ENDBRANCH  56  79
BRANCH  68  89
ATOM     89  C   UNL A   1      48.163  34.112  27.259  1.00  0.00    -0.014 A 
ATOM     90  C   UNL A   1      48.101  34.912  26.103  1.00  0.00     0.010 A 
ATOM     91  C   UNL A   1      49.376  33.482  27.591  1.00  0.00     0.010 A 
ATOM     92  C   UNL A   1      49.213  35.032  25.266  1.00  0.00     0.020 A 
ATOM     93  C   UNL A   1      50.501  33.627  26.774  1.00  0.00     0.020 A 
ATOM     94  C   UNL A   1      50.406  34.383  25.604  1.00  0.00     0.054 A 
BRANCH  94  95
ATOM     95  S   UNL A   1      51.836  34.557  24.503  1.00  0.00     0.124 S 
ATOM     96  O   UNL A   1      52.944  34.616  25.453  1.00  0.00    -0.237 OA
ATOM     97  O   UNL A   1      51.766  33.343  23.693  1.00  0.00    -0.237 OA
ATOM     98  O   UNL A   1      51.568  35.797  23.780  1.00  0.00    -0.744 OA
ENDBRANCH  94  95
ENDBRANCH  68  89
ENDBRANCH  42  43
ENDBRANCH  34  37
ENDBRANCH  32  33
ENDBRANCH  31  32
ENDBRANCH   1  31
TORSDOF 17
ENDMDL
MODEL 2
REMARK VINA RESULT:     -11.0      4.975     12.118
REMARK SMILES C[C@@H](C(=O)NCCCNC(=O)c1ccc(-c2c3nc(c(-c4ccc(S(=O)(=O)[O-])cc4)c4ccc([nH]4)c(-c4ccc(S(=O)(=O)[O-])cc4)c4nc(c(-c5ccc(S(=O)(=O)[O-])cc5)c5ccc2[nH]5)C=C4)C=C3)cc1)N1C(=O)/C(=C/c2ccc(-c3ccc([N+](=O)[O-])cc3Cl)o2)SC1=S
REMARK SMILES IDX 6 1 5 2 3 3 4 4 2 6 1 7 72 8 73 9 93 10 74 11 75 12 92 13
REMARK SMILES IDX 94 14 76 15 77 16 78 17 91 18 79 19 80 20 81 21 82 22 89 23
REMARK SMILES IDX 83 24 88 25 90 26 84 27 85 28 86 29 87 30 7 31 8 32 9 33
REMARK SMILES IDX 10 34 11 36 12 37 13 38 71 39 14 40 70 41 15 42 16 43 17 44
REMARK SMILES IDX 64 45 18 46 69 47 63 48 65 49 19 50 68 51 62 52 61 53 20 55
REMARK SMILES IDX 50 56 31 57 49 58 32 59 35 60 48 61 66 62 33 63 34 64 47 66
REMARK SMILES IDX 67 67 36 68 21 69 22 70 30 71 23 72 29 73 24 74 25 75 26 76
REMARK SMILES IDX 27 77 28 78 51 79 52 80 60 81 53 82 59 83 54 84 55 85 56 86
REMARK SMILES IDX 57 87 58 88 37 89 38 90 46 91 39 92 45 93 40 94 41 95 42 96
REMARK SMILES IDX 43 97 44 98
REMARK H PARENT 5 5 9 35 65 54 35 65
REMARK Flexibility Score: inf
ROOT
ATOM      1  C   UNL A   1      42.638  22.600  25.644  1.00  0.00     0.117 C 
ENDROOT
BRANCH   1   2
ATOM      2  N   UNL A   1      43.642  22.610  26.691  1.00  0.00    -0.354 N 
ATOM      3  C   UNL A   1      44.771  23.368  26.815  1.00  0.00     0.242 C 
ATOM      4  O   UNL A   1      45.359  23.323  27.900  1.00  0.00    -0.273 OA
ATOM      5  H   UNL A   1      43.486  21.971  27.425  1.00  0.00     0.163 HD
BRANCH   3   6
ATOM      6  C   UNL A   1      45.230  24.287  25.659  1.00  0.00     0.178 C 
ATOM      7  C   UNL A   1      46.387  23.747  24.824  1.00  0.00     0.042 C 
BRANCH   6   8
ATOM      8  N   UNL A   1      45.520  25.627  26.212  1.00  0.00    -0.281 N 
ATOM      9  C   UNL A   1      44.551  26.620  26.141  1.00  0.00     0.267 C 
ATOM     10  C   UNL A   1      46.739  25.998  26.741  1.00  0.00     0.149 C 
ATOM     11  O   UNL A   1      43.412  26.500  25.719  1.00  0.00    -0.268 OA
ATOM     12  C   UNL A   1      45.081  27.901  26.677  1.00  0.00     0.084 C 
ATOM     13  S   UNL A   1      46.703  27.693  27.200  1.00  0.00    -0.054 SA
ATOM     14  S   UNL A   1      48.100  25.063  26.987  1.00  0.00    -0.052 S 
ATOM     15  C   UNL A   1      44.313  28.996  26.744  1.00  0.00     0.068 C 
BRANCH  15  16
ATOM     16  C   UNL A   1      44.767  30.235  27.269  1.00  0.00     0.128 A 
ATOM     17  C   UNL A   1      45.829  30.506  28.125  1.00  0.00     0.051 A 
ATOM     18  O   UNL A   1      44.162  31.434  26.965  1.00  0.00    -0.457 OA
ATOM     19  C   UNL A   1      45.829  31.892  28.392  1.00  0.00     0.051 A 
ATOM     20  C   UNL A   1      44.773  32.416  27.682  1.00  0.00     0.136 A 
BRANCH  20  21
ATOM     21  C   UNL A   1      44.235  33.761  27.552  1.00  0.00     0.036 A 
ATOM     22  C   UNL A   1      43.625  34.112  26.336  1.00  0.00     0.020 A 
ATOM     23  C   UNL A   1      44.369  34.744  28.551  1.00  0.00     0.058 A 
ATOM     24  C   UNL A   1      43.180  35.416  26.104  1.00  0.00     0.086 A 
ATOM     25  C   UNL A   1      43.926  36.053  28.327  1.00  0.00     0.106 A 
ATOM     26  Cl  UNL A   1      45.146  34.431  30.067  1.00  0.00    -0.083 Cl
ATOM     27  C   UNL A   1      43.346  36.385  27.098  1.00  0.00     0.270 A 
BRANCH  27  28
ATOM     28  N   UNL A   1      42.941  37.771  26.834  1.00  0.00     0.062 N 
ATOM     29  O   UNL A   1      43.815  38.648  26.898  1.00  0.00    -0.258 OA
ATOM     30  O   UNL A   1      41.749  37.986  26.578  1.00  0.00    -0.258 OA
ENDBRANCH  27  28
ENDBRANCH  20  21
ENDBRANCH  15  16
ENDBRANCH   6   8
ENDBRANCH   3   6
ENDBRANCH   1   2
BRANCH   1  31
ATOM     31  C   UNL A   1      41.594  21.507  25.842  1.00  0.00     0.042 C 
BRANCH  31  32
ATOM     32  C   UNL A   1      40.441  21.889  26.767  1.00  0.00     0.118 C 
BRANCH  32  33
ATOM     33  N   UNL A   1      39.300  22.434  26.047  1.00  0.00    -0.352 N 
ATOM     34  C   UNL A   1      38.661  23.642  26.162  1.00  0.00     0.251 C 
ATOM     35  H   UNL A   1      38.924  21.834  25.363  1.00  0.00     0.163 HD
ATOM     36  O   UNL A   1      37.594  23.799  25.569  1.00  0.00    -0.269 OA
BRANCH  34  37
ATOM     37  C   UNL A   1      39.212  24.741  26.987  1.00  0.00     0.039 A 
ATOM     38  C   UNL A   1      40.071  25.660  26.377  1.00  0.00     0.014 A 
ATOM     39  C   UNL A   1      38.945  24.851  28.355  1.00  0.00     0.014 A 
ATOM     40  C   UNL A   1      40.613  26.711  27.121  1.00  0.00     0.010 A 
ATOM     41  C   UNL A   1      39.422  25.947  29.078  1.00  0.00     0.010 A 
ATOM     42  C   UNL A   1      40.264  26.888  28.470  1.00  0.00    -0.014 A 
BRANCH  42  43
ATOM     43  C   UNL A   1      40.757  28.071  29.225  1.00  0.00     0.031 A 
ATOM     44  C   UNL A   1      39.886  29.282  29.430  1.00  0.00     0.074 A 
ATOM     45  C   UNL A   1      42.013  28.058  29.714  1.00  0.00     0.049 A 
ATOM     46  N   UNL A   1      40.148  30.380  30.094  1.00  0.00    -0.248 NA
ATOM     47  C   UNL A   1      38.558  29.269  28.796  1.00  0.00     0.031 C 
ATOM     48  C   UNL A   1      42.977  26.968  29.538  1.00  0.00     0.029 A 
ATOM     49  N   UNL A   1      42.696  28.982  30.466  1.00  0.00    -0.354 N 
ATOM     50  C   UNL A   1      39.023  31.186  29.959  1.00  0.00     0.074 A 
ATOM     51  C   UNL A   1      38.100  30.476  29.101  1.00  0.00     0.031 C 
ATOM     52  C   UNL A   1      44.107  27.267  30.198  1.00  0.00     0.029 A 
ATOM     53  C   UNL A   1      43.967  28.585  30.808  1.00  0.00     0.049 A 
ATOM     54  H   UNL A   1      42.310  29.848  30.735  1.00  0.00     0.167 HD
ATOM     55  C   UNL A   1      38.770  32.397  30.516  1.00  0.00     0.031 A 
ATOM     56  C   UNL A   1      44.919  29.207  31.529  1.00  0.00     0.031 A 
ATOM     57  C   UNL A   1      39.697  33.106  31.362  1.00  0.00     0.049 A 
ATOM     58  C   UNL A   1      44.620  30.554  32.126  1.00  0.00     0.074 A 
ATOM     59  C   UNL A   1      39.517  34.318  32.007  1.00  0.00     0.029 A 
ATOM     60  N   UNL A   1      40.977  32.675  31.676  1.00  0.00    -0.354 N 
ATOM     61  N   UNL A   1      43.520  31.265  32.046  1.00  0.00    -0.248 NA
ATOM     62  C   UNL A   1      45.685  31.175  32.925  1.00  0.00     0.031 C 
ATOM     63  C   UNL A   1      40.709  34.647  32.663  1.00  0.00     0.029 A 
ATOM     64  C   UNL A   1      41.608  33.609  32.483  1.00  0.00     0.049 A 
ATOM     65  H   UNL A   1      41.378  31.829  31.371  1.00  0.00     0.167 HD
ATOM     66  C   UNL A   1      43.756  32.411  32.798  1.00  0.00     0.074 A 
ATOM     67  C   UNL A   1      45.088  32.279  33.351  1.00  0.00     0.031 C 
ATOM     68  C   UNL A   1      42.944  33.477  33.009  1.00  0.00     0.031 A 
BRANCH  55  69
ATOM     69  C   UNL A   1      37.435  33.035  30.223  1.00  0.00    -0.014 A 
ATOM     70  C   UNL A   1      37.286  33.953  29.166  1.00  0.00     0.010 A 
ATOM     71  C   UNL A   1      36.303  32.676  30.977  1.00  0.00     0.010 A 
ATOM     72  C   UNL A   1      36.041  34.529  28.897  1.00  0.00     0.020 A 
ATOM     73  C   UNL A   1      35.050  33.226  30.691  1.00  0.00     0.020 A 
ATOM     74  C   UNL A   1      34.931  34.162  29.661  1.00  0.00     0.054 A 
BRANCH  74  75
ATOM     75  S   UNL A   1      33.323  34.905  29.268  1.00  0.00     0.124 S 
ATOM     76  O   UNL A   1      32.761  33.931  28.335  1.00  0.00    -0.237 OA
ATOM     77  O   UNL A   1      32.673  34.969  30.576  1.00  0.00    -0.237 OA
ATOM     78  O   UNL A   1      33.670  36.197  28.685  1.00  0.00    -0.744 OA
ENDBRANCH  74  75
ENDBRANCH  55  69
BRANCH  56  79
ATOM     79  C   UNL A   1      46.243  28.555  31.731  1.00  0.00    -0.014 A 
ATOM     80  C   UNL A   1      47.322  28.835  30.875  1.00  0.00     0.010 A 
ATOM     81  C   UNL A   1      46.431  27.658  32.799  1.00  0.00     0.010 A 
ATOM     82  C   UNL A   1      48.560  28.213  31.070  1.00  0.00     0.020 A 
ATOM     83  C   UNL A   1      47.676  27.061  33.017  1.00  0.00     0.020 A 
ATOM     84  C   UNL A   1      48.729  27.333  32.143  1.00  0.00     0.054 A 
BRANCH  84  85
ATOM     85  S   UNL A   1      50.358  26.580  32.409  1.00  0.00     0.124 S 
ATOM     86  O   UNL A   1      51.044  26.889  31.160  1.00  0.00    -0.237 OA
ATOM     87  O   UNL A   1      50.843  27.288  33.591  1.00  0.00    -0.237 OA
ATOM     88  O   UNL A   1      50.050  25.168  32.623  1.00  0.00    -0.744 OA
ENDBRANCH  84  85
ENDBRANCH  56  79
BRANCH  68  89
ATOM     89  C   UNL A   1      43.476  34.580  33.890  1.00  0.00    -0.014 A 
ATOM     90  C   UNL A   1      43.239  34.584  35.277  1.00  0.00     0.010 A 
ATOM     91  C   UNL A   1      44.234  35.620  33.323  1.00  0.00     0.010 A 
ATOM     92  C   UNL A   1      43.700  35.638  36.070  1.00  0.00     0.020 A 
ATOM     93  C   UNL A   1      44.727  36.658  34.118  1.00  0.00     0.020 A 
ATOM     94  C   UNL A   1      44.437  36.672  35.484  1.00  0.00     0.054 A 
BRANCH  94  95
ATOM     95  S   UNL A   1      45.028  38.027  36.535  1.00  0.00     0.124 S 
ATOM     96  O   UNL A   1      46.453  38.061  36.213  1.00  0.00    -0.237 OA
ATOM     97  O   UNL A   1      44.249  39.167  36.057  1.00  0.00    -0.237 OA
ATOM     98  O   UNL A   1      44.705  37.582  37.888  1.00  0.00    -0.744 OA
ENDBRANCH  94  95
ENDBRANCH  68  89
ENDBRANCH  42  43
ENDBRANCH  34  37
ENDBRANCH  32  33
ENDBRANCH  31  32
ENDBRANCH   1  31
TORSDOF 17
ENDMDL
MODEL 3
REMARK VINA RESULT:     -10.8      4.719     12.144
REMARK SMILES C[C@@H](C(=O)NCCCNC(=O)c1ccc(-c2c3nc(c(-c4ccc(S(=O)(=O)[O-])cc4)c4ccc([nH]4)c(-c4ccc(S(=O)(=O)[O-])cc4)c4nc(c(-c5ccc(S(=O)(=O)[O-])cc5)c5ccc2[nH]5)C=C4)C=C3)cc1)N1C(=O)/C(=C/c2ccc(-c3ccc([N+](=O)[O-])cc3Cl)o2)SC1=S
REMARK SMILES IDX 6 1 5 2 3 3 4 4 2 6 1 7 72 8 73 9 93 10 74 11 75 12 92 13
REMARK SMILES IDX 94 14 76 15 77 16 78 17 91 18 79 19 80 20 81 21 82 22 89 23
REMARK SMILES IDX 83 24 88 25 90 26 84 27 85 28 86 29 87 30 7 31 8 32 9 33
REMARK SMILES IDX 10 34 11 36 12 37 13 38 71 39 14 40 70 41 15 42 16 43 17 44
REMARK SMILES IDX 64 45 18 46 69 47 63 48 65 49 19 50 68 51 62 52 61 53 20 55
REMARK SMILES IDX 50 56 31 57 49 58 32 59 35 60 48 61 66 62 33 63 34 64 47 66
REMARK SMILES IDX 67 67 36 68 21 69 22 70 30 71 23 72 29 73 24 74 25 75 26 76
REMARK SMILES IDX 27 77 28 78 51 79 52 80 60 81 53 82 59 83 54 84 55 85 56 86
REMARK SMILES IDX 57 87 58 88 37 89 38 90 46 91 39 92 45 93 40 94 41 95 42 96
REMARK SMILES IDX 43 97 44 98
REMARK H PARENT 5 5 9 35 65 54 35 65
REMARK Flexibility Score: inf
ROOT
ATOM      1  C   UNL A   1      43.110  21.654  25.620  1.00  0.00     0.117 C 
ENDROOT
BRANCH   1   2
ATOM      2  N   UNL A   1      44.004  21.986  26.713  1.00  0.00    -0.354 N 
ATOM      3  C   UNL A   1      44.899  23.011  26.833  1.00  0.00     0.242 C 
ATOM      4  O   UNL A   1      45.402  23.188  27.946  1.00  0.00    -0.273 OA
ATOM      5  H   UNL A   1      43.960  21.379  27.487  1.00  0.00     0.163 HD
BRANCH   3   6
ATOM      6  C   UNL A   1      45.195  23.937  25.630  1.00  0.00     0.178 C 
ATOM      7  C   UNL A   1      46.393  23.527  24.778  1.00  0.00     0.042 C 
BRANCH   6   8
ATOM      8  N   UNL A   1      45.314  25.325  26.125  1.00  0.00    -0.281 N 
ATOM      9  C   UNL A   1      44.230  26.187  26.008  1.00  0.00     0.267 C 
ATOM     10  C   UNL A   1      46.473  25.866  26.641  1.00  0.00     0.149 C 
ATOM     11  O   UNL A   1      43.118  25.909  25.588  1.00  0.00    -0.268 OA
ATOM     12  C   UNL A   1      44.593  27.545  26.490  1.00  0.00     0.084 C 
ATOM     13  S   UNL A   1      46.225  27.562  27.027  1.00  0.00    -0.054 SA
ATOM     14  S   UNL A   1      47.937  25.118  26.932  1.00  0.00    -0.052 S 
ATOM     15  C   UNL A   1      43.696  28.539  26.507  1.00  0.00     0.068 C 
BRANCH  15  16
ATOM     16  C   UNL A   1      43.989  29.845  26.980  1.00  0.00     0.128 A 
ATOM     17  C   UNL A   1      43.442  30.553  28.046  1.00  0.00     0.051 A 
ATOM     18  O   UNL A   1      44.941  30.649  26.394  1.00  0.00    -0.457 OA
ATOM     19  C   UNL A   1      44.035  31.833  28.067  1.00  0.00     0.051 A 
ATOM     20  C   UNL A   1      44.927  31.857  27.020  1.00  0.00     0.136 A 
BRANCH  20  21
ATOM     21  C   UNL A   1      45.822  32.880  26.503  1.00  0.00     0.036 A 
ATOM     22  C   UNL A   1      47.185  32.794  26.838  1.00  0.00     0.020 A 
ATOM     23  C   UNL A   1      45.378  33.987  25.756  1.00  0.00     0.058 A 
ATOM     24  C   UNL A   1      48.083  33.796  26.465  1.00  0.00     0.086 A 
ATOM     25  C   UNL A   1      46.271  34.997  25.378  1.00  0.00     0.106 A 
ATOM     26  Cl  UNL A   1      43.715  34.215  25.329  1.00  0.00    -0.083 Cl
ATOM     27  C   UNL A   1      47.618  34.902  25.746  1.00  0.00     0.270 A 
BRANCH  27  28
ATOM     28  N   UNL A   1      48.543  35.990  25.409  1.00  0.00     0.062 N 
ATOM     29  O   UNL A   1      48.448  37.046  26.050  1.00  0.00    -0.258 OA
ATOM     30  O   UNL A   1      49.356  35.794  24.495  1.00  0.00    -0.258 OA
ENDBRANCH  27  28
ENDBRANCH  20  21
ENDBRANCH  15  16
ENDBRANCH   6   8
ENDBRANCH   3   6
ENDBRANCH   1   2
BRANCH   1  31
ATOM     31  C   UNL A   1      42.333  20.367  25.869  1.00  0.00     0.042 C 
BRANCH  31  32
ATOM     32  C   UNL A   1      41.167  20.506  26.844  1.00  0.00     0.118 C 
BRANCH  32  33
ATOM     33  N   UNL A   1      39.948  20.975  26.202  1.00  0.00    -0.352 N 
ATOM     34  C   UNL A   1      39.290  22.175  26.291  1.00  0.00     0.251 C 
ATOM     35  H   UNL A   1      39.525  20.319  25.602  1.00  0.00     0.163 HD
ATOM     36  O   UNL A   1      38.169  22.266  25.796  1.00  0.00    -0.269 OA
BRANCH  34  37
ATOM     37  C   UNL A   1      39.889  23.343  26.979  1.00  0.00     0.039 A 
ATOM     38  C   UNL A   1      39.531  24.622  26.543  1.00  0.00     0.014 A 
ATOM     39  C   UNL A   1      40.832  23.202  28.001  1.00  0.00     0.014 A 
ATOM     40  C   UNL A   1      40.073  25.749  27.164  1.00  0.00     0.010 A 
ATOM     41  C   UNL A   1      41.312  24.328  28.674  1.00  0.00     0.010 A 
ATOM     42  C   UNL A   1      40.940  25.615  28.262  1.00  0.00    -0.014 A 
BRANCH  42  43
ATOM     43  C   UNL A   1      41.426  26.818  28.988  1.00  0.00     0.031 A 
ATOM     44  C   UNL A   1      42.810  26.864  29.581  1.00  0.00     0.074 A 
ATOM     45  C   UNL A   1      40.601  27.875  29.130  1.00  0.00     0.049 A 
ATOM     46  N   UNL A   1      43.402  27.847  30.212  1.00  0.00    -0.248 NA
ATOM     47  C   UNL A   1      43.629  25.647  29.469  1.00  0.00     0.031 C 
ATOM     48  C   UNL A   1      39.218  27.936  28.649  1.00  0.00     0.029 A 
ATOM     49  N   UNL A   1      40.802  29.102  29.710  1.00  0.00    -0.354 N 
ATOM     50  C   UNL A   1      44.658  27.370  30.571  1.00  0.00     0.074 A 
ATOM     51  C   UNL A   1      44.721  25.991  30.139  1.00  0.00     0.031 C 
ATOM     52  C   UNL A   1      38.712  29.150  28.915  1.00  0.00     0.029 A 
ATOM     53  C   UNL A   1      39.715  29.940  29.623  1.00  0.00     0.049 A 
ATOM     54  H   UNL A   1      41.647  29.359  30.147  1.00  0.00     0.167 HD
ATOM     55  C   UNL A   1      45.675  28.026  31.182  1.00  0.00     0.031 A 
ATOM     56  C   UNL A   1      39.538  31.200  30.061  1.00  0.00     0.031 A 
ATOM     57  C   UNL A   1      45.606  29.398  31.620  1.00  0.00     0.049 A 
ATOM     58  C   UNL A   1      40.676  31.902  30.747  1.00  0.00     0.074 A 
ATOM     59  C   UNL A   1      46.596  30.163  32.211  1.00  0.00     0.029 A 
ATOM     60  N   UNL A   1      44.484  30.208  31.521  1.00  0.00    -0.354 N 
ATOM     61  N   UNL A   1      41.882  31.455  31.010  1.00  0.00    -0.248 NA
ATOM     62  C   UNL A   1      40.435  33.285  31.181  1.00  0.00     0.031 C 
ATOM     63  C   UNL A   1      46.056  31.416  32.523  1.00  0.00     0.029 A 
ATOM     64  C   UNL A   1      44.750  31.455  32.065  1.00  0.00     0.049 A 
ATOM     65  H   UNL A   1      43.626  29.936  31.122  1.00  0.00     0.167 HD
ATOM     66  C   UNL A   1      42.549  32.509  31.626  1.00  0.00     0.074 A 
ATOM     67  C   UNL A   1      41.623  33.622  31.664  1.00  0.00     0.031 C 
ATOM     68  C   UNL A   1      43.812  32.549  32.118  1.00  0.00     0.031 A 
BRANCH  55  69
ATOM     69  C   UNL A   1      46.955  27.264  31.418  1.00  0.00    -0.014 A 
ATOM     70  C   UNL A   1      47.981  27.253  30.454  1.00  0.00     0.010 A 
ATOM     71  C   UNL A   1      47.161  26.593  32.638  1.00  0.00     0.010 A 
ATOM     72  C   UNL A   1      49.169  26.554  30.689  1.00  0.00     0.020 A 
ATOM     73  C   UNL A   1      48.359  25.919  32.889  1.00  0.00     0.020 A 
ATOM     74  C   UNL A   1      49.350  25.890  31.905  1.00  0.00     0.054 A 
BRANCH  74  75
ATOM     75  S   UNL A   1      50.914  25.015  32.192  1.00  0.00     0.124 S 
ATOM     76  O   UNL A   1      51.824  25.725  31.296  1.00  0.00    -0.237 OA
ATOM     77  O   UNL A   1      51.143  25.231  33.618  1.00  0.00    -0.237 OA
ATOM     78  O   UNL A   1      50.615  23.637  31.813  1.00  0.00    -0.744 OA
ENDBRANCH  74  75
ENDBRANCH  55  69
BRANCH  56  79
ATOM     79  C   UNL A   1      38.229  31.881  29.855  1.00  0.00    -0.014 A 
ATOM     80  C   UNL A   1      38.075  32.863  28.861  1.00  0.00     0.010 A 
ATOM     81  C   UNL A   1      37.121  31.534  30.651  1.00  0.00     0.010 A 
ATOM     82  C   UNL A   1      36.842  33.499  28.679  1.00  0.00     0.020 A 
ATOM     83  C   UNL A   1      35.880  32.144  30.450  1.00  0.00     0.020 A 
ATOM     84  C   UNL A   1      35.752  33.132  29.474  1.00  0.00     0.054 A 
BRANCH  84  85
ATOM     85  S   UNL A   1      34.150  33.932  29.184  1.00  0.00     0.124 S 
ATOM     86  O   UNL A   1      34.531  35.100  28.397  1.00  0.00    -0.237 OA
ATOM     87  O   UNL A   1      33.406  32.899  28.468  1.00  0.00    -0.237 OA
ATOM     88  O   UNL A   1      33.662  34.217  30.532  1.00  0.00    -0.744 OA
ENDBRANCH  84  85
ENDBRANCH  56  79
BRANCH  68  89
ATOM     89  C   UNL A   1      44.268  33.850  32.729  1.00  0.00    -0.014 A 
ATOM     90  C   UNL A   1      44.108  34.106  34.103  1.00  0.00     0.010 A 
ATOM     91  C   UNL A   1      44.875  34.826  31.918  1.00  0.00     0.010 A 
ATOM     92  C   UNL A   1      44.495  35.336  34.643  1.00  0.00     0.020 A 
ATOM     93  C   UNL A   1      45.295  36.043  32.461  1.00  0.00     0.020 A 
ATOM     94  C   UNL A   1      45.081  36.300  33.816  1.00  0.00     0.054 A 
BRANCH  94  95
ATOM     95  S   UNL A   1      45.578  37.886  34.541  1.00  0.00     0.124 S 
ATOM     96  O   UNL A   1      44.466  38.167  35.446  1.00  0.00    -0.237 OA
ATOM     97  O   UNL A   1      46.847  37.559  35.189  1.00  0.00    -0.237 OA
ATOM     98  O   UNL A   1      45.685  38.776  33.388  1.00  0.00    -0.744 OA
ENDBRANCH  94  95
ENDBRANCH  68  89
ENDBRANCH  42  43
ENDBRANCH  34  37
ENDBRANCH  32  33
ENDBRANCH  31  32
ENDBRANCH   1  31
TORSDOF 17
ENDMDL
