MODEL 1
REMARK VINA RESULT:     -11.2      0.000      0.000
REMARK SMILES CCC[C@H](NC(=O)Cn1cccc1C(=O)NCCCNC(=O)c1ccc(-c2c3nc(c(-c4ccc(S(=O)(=O)[O-])cc4)c4ccc([nH]4)c(-c4ccc(S(=O)(=O)[O-])cc4)c4nc(c(-c5ccc(S(=O)(=O)[O-])cc5)c5ccc2[nH]5)C=C4)C=C3)cc1)c1cccs1
REMARK SMILES IDX 17 1 16 2 14 3 15 4 13 6 9 7 10 8 11 9 12 10 8 11 6 12 5 13
REMARK SMILES IDX 7 15 4 16 3 17 2 18 1 19 83 20 84 21 87 22 85 23 86 24 18 25
REMARK SMILES IDX 19 26 20 27 21 28 22 30 23 31 24 32 82 33 25 34 81 35 26 36
REMARK SMILES IDX 27 37 28 38 75 39 29 40 80 41 74 42 76 43 30 44 79 45 73 46
REMARK SMILES IDX 72 47 31 49 61 50 42 51 60 52 43 53 46 54 59 55 77 56 44 57
REMARK SMILES IDX 45 58 58 60 78 61 47 62 32 63 33 64 41 65 34 66 40 67 35 68
REMARK SMILES IDX 36 69 37 70 38 71 39 72 62 73 63 74 71 75 64 76 70 77 65 78
REMARK SMILES IDX 66 79 67 80 68 81 69 82 48 83 49 84 57 85 50 86 56 87 51 88
REMARK SMILES IDX 52 89 53 90 54 91 55 92
REMARK H PARENT 16 5 5 14 20 29 76 48 46 59
REMARK Flexibility Score: inf
ROOT
ATOM      1  C   UNL A   1      36.538  20.451  25.107  1.00  0.00     0.118 C 
ENDROOT
BRANCH   1   2
ATOM      2  N   UNL A   1      36.731  21.890  24.818  1.00  0.00    -0.351 N 
ATOM      3  C   UNL A   1      36.612  22.972  25.678  1.00  0.00     0.267 C 
ATOM      4  O   UNL A   1      37.656  23.414  26.156  1.00  0.00    -0.268 OA
ATOM      5  H   UNL A   1      36.977  22.108  23.890  1.00  0.00     0.163 HD
BRANCH   3   6
ATOM      6  C   UNL A   1      35.382  23.780  25.672  1.00  0.00     0.107 A 
ATOM      7  N   UNL A   1      34.186  23.662  26.372  1.00  0.00    -0.334 N 
ATOM      8  C   UNL A   1      33.339  24.708  26.058  1.00  0.00     0.087 A 
ATOM      9  C   UNL A   1      33.923  25.456  25.069  1.00  0.00     0.020 A 
ATOM     10  C   UNL A   1      35.189  24.879  24.829  1.00  0.00     0.033 A 
BRANCH   7  11
ATOM     11  C   UNL A   1      33.745  22.559  27.218  1.00  0.00     0.222 C 
BRANCH  11  12
ATOM     12  C   UNL A   1      32.563  21.808  26.636  1.00  0.00     0.240 C 
ATOM     13  N   UNL A   1      32.905  20.677  25.940  1.00  0.00    -0.347 N 
ATOM     14  H   UNL A   1      33.506  20.040  26.391  1.00  0.00     0.164 HD
ATOM     15  O   UNL A   1      31.416  22.241  26.712  1.00  0.00    -0.273 OA
BRANCH  13  16
ATOM     16  C   UNL A   1      32.467  20.335  24.613  1.00  0.00     0.122 C 
BRANCH  16  17
ATOM     17  C   UNL A   1      33.221  21.261  23.634  1.00  0.00     0.030 C 
BRANCH  17  18
ATOM     18  C   UNL A   1      32.328  22.287  22.961  1.00  0.00    -0.001 C 
ATOM     19  C   UNL A   1      33.123  23.279  22.121  1.00  0.00     0.004 C 
ENDBRANCH  17  18
ENDBRANCH  16  17
BRANCH  16  20
ATOM     20  C   UNL A   1      32.789  18.854  24.388  1.00  0.00     0.027 A 
ATOM     21  C   UNL A   1      33.147  18.194  23.223  1.00  0.00     0.017 A 
ATOM     22  S   UNL A   1      32.704  17.718  25.689  1.00  0.00    -0.147 S 
ATOM     23  C   UNL A   1      33.470  16.821  23.429  1.00  0.00     0.012 A 
ATOM     24  C   UNL A   1      33.325  16.446  24.743  1.00  0.00     0.065 A 
ENDBRANCH  16  20
ENDBRANCH  13  16
ENDBRANCH  11  12
ENDBRANCH   7  11
ENDBRANCH   3   6
ENDBRANCH   1   2
BRANCH   1  25
ATOM     25  C   UNL A   1      37.842  19.633  24.950  1.00  0.00     0.042 C 
BRANCH  25  26
ATOM     26  C   UNL A   1      39.072  20.098  25.704  1.00  0.00     0.118 C 
BRANCH  26  27
ATOM     27  N   UNL A   1      40.059  19.052  25.919  1.00  0.00    -0.352 N 
ATOM     28  C   UNL A   1      41.429  19.213  26.047  1.00  0.00     0.251 C 
ATOM     29  H   UNL A   1      39.716  18.131  25.979  1.00  0.00     0.163 HD
ATOM     30  O   UNL A   1      42.184  18.285  25.843  1.00  0.00    -0.269 OA
BRANCH  28  31
ATOM     31  C   UNL A   1      41.952  20.551  26.406  1.00  0.00     0.039 A 
ATOM     32  C   UNL A   1      42.324  21.447  25.400  1.00  0.00     0.014 A 
ATOM     33  C   UNL A   1      42.054  20.905  27.754  1.00  0.00     0.014 A 
ATOM     34  C   UNL A   1      42.726  22.728  25.760  1.00  0.00     0.010 A 
ATOM     35  C   UNL A   1      42.326  22.205  28.109  1.00  0.00     0.010 A 
ATOM     36  C   UNL A   1      42.699  23.100  27.114  1.00  0.00    -0.014 A 
BRANCH  36  37
ATOM     37  C   UNL A   1      43.072  24.466  27.504  1.00  0.00     0.031 A 
ATOM     38  C   UNL A   1      41.827  25.328  27.712  1.00  0.00     0.074 A 
ATOM     39  C   UNL A   1      44.420  24.708  27.532  1.00  0.00     0.049 A 
ATOM     40  N   UNL A   1      41.570  26.512  27.259  1.00  0.00    -0.248 NA
ATOM     41  C   UNL A   1      40.630  24.744  28.380  1.00  0.00     0.031 C 
ATOM     42  C   UNL A   1      45.473  23.671  27.362  1.00  0.00     0.029 A 
ATOM     43  N   UNL A   1      45.196  25.829  27.709  1.00  0.00    -0.354 N 
ATOM     44  C   UNL A   1      40.292  26.892  27.728  1.00  0.00     0.074 A 
ATOM     45  C   UNL A   1      39.703  25.705  28.276  1.00  0.00     0.031 C 
ATOM     46  C   UNL A   1      46.707  24.216  27.356  1.00  0.00     0.029 A 
ATOM     47  C   UNL A   1      46.588  25.649  27.494  1.00  0.00     0.049 A 
ATOM     48  H   UNL A   1      44.812  26.698  27.967  1.00  0.00     0.167 HD
ATOM     49  C   UNL A   1      39.892  28.200  27.787  1.00  0.00     0.031 A 
ATOM     50  C   UNL A   1      47.567  26.594  27.350  1.00  0.00     0.031 A 
ATOM     51  C   UNL A   1      40.984  29.031  27.388  1.00  0.00     0.049 A 
ATOM     52  C   UNL A   1      46.884  27.882  27.540  1.00  0.00     0.074 A 
ATOM     53  C   UNL A   1      41.586  29.253  26.176  1.00  0.00     0.029 A 
ATOM     54  N   UNL A   1      41.848  29.391  28.401  1.00  0.00    -0.354 N 
ATOM     55  N   UNL A   1      46.451  28.339  28.674  1.00  0.00    -0.248 NA
ATOM     56  C   UNL A   1      46.534  28.671  26.351  1.00  0.00     0.031 C 
ATOM     57  C   UNL A   1      42.959  29.220  26.507  1.00  0.00     0.029 A 
ATOM     58  C   UNL A   1      43.119  29.282  27.898  1.00  0.00     0.049 A 
ATOM     59  H   UNL A   1      41.600  29.671  29.312  1.00  0.00     0.167 HD
ATOM     60  C   UNL A   1      45.463  29.205  28.279  1.00  0.00     0.074 A 
ATOM     61  C   UNL A   1      45.786  29.609  26.925  1.00  0.00     0.031 C 
ATOM     62  C   UNL A   1      44.217  29.094  28.816  1.00  0.00     0.031 A 
BRANCH  49  63
ATOM     63  C   UNL A   1      38.737  28.899  28.455  1.00  0.00    -0.014 A 
ATOM     64  C   UNL A   1      37.966  29.773  27.639  1.00  0.00     0.010 A 
ATOM     65  C   UNL A   1      38.560  28.994  29.840  1.00  0.00     0.010 A 
ATOM     66  C   UNL A   1      37.177  30.789  28.178  1.00  0.00     0.020 A 
ATOM     67  C   UNL A   1      37.733  29.992  30.392  1.00  0.00     0.020 A 
ATOM     68  C   UNL A   1      37.092  30.914  29.558  1.00  0.00     0.054 A 
BRANCH  68  69
ATOM     69  S   UNL A   1      36.189  32.334  30.232  1.00  0.00     0.124 S 
ATOM     70  O   UNL A   1      36.995  33.460  29.770  1.00  0.00    -0.237 OA
ATOM     71  O   UNL A   1      34.877  32.203  29.598  1.00  0.00    -0.237 OA
ATOM     72  O   UNL A   1      36.203  32.098  31.672  1.00  0.00    -0.744 OA
ENDBRANCH  68  69
ENDBRANCH  49  63
BRANCH  50  73
ATOM     73  C   UNL A   1      48.998  26.659  26.872  1.00  0.00    -0.014 A 
ATOM     74  C   UNL A   1      50.148  26.745  27.667  1.00  0.00     0.010 A 
ATOM     75  C   UNL A   1      49.228  26.505  25.476  1.00  0.00     0.010 A 
ATOM     76  C   UNL A   1      51.434  26.521  27.114  1.00  0.00     0.020 A 
ATOM     77  C   UNL A   1      50.481  26.231  24.926  1.00  0.00     0.020 A 
ATOM     78  C   UNL A   1      51.582  26.207  25.758  1.00  0.00     0.054 A 
BRANCH  78  79
ATOM     79  S   UNL A   1      53.170  25.625  25.095  1.00  0.00     0.124 S 
ATOM     80  O   UNL A   1      53.167  24.214  25.464  1.00  0.00    -0.237 OA
ATOM     81  O   UNL A   1      53.045  25.906  23.666  1.00  0.00    -0.237 OA
ATOM     82  O   UNL A   1      54.154  26.451  25.794  1.00  0.00    -0.744 OA
ENDBRANCH  78  79
ENDBRANCH  50  73
BRANCH  62  83
ATOM     83  C   UNL A   1      44.154  28.414  30.186  1.00  0.00    -0.014 A 
ATOM     84  C   UNL A   1      43.638  27.105  30.280  1.00  0.00     0.010 A 
ATOM     85  C   UNL A   1      44.478  29.056  31.400  1.00  0.00     0.010 A 
ATOM     86  C   UNL A   1      43.430  26.473  31.516  1.00  0.00     0.020 A 
ATOM     87  C   UNL A   1      44.276  28.428  32.650  1.00  0.00     0.020 A 
ATOM     88  C   UNL A   1      43.750  27.136  32.699  1.00  0.00     0.054 A 
BRANCH  88  89
ATOM     89  S   UNL A   1      43.468  26.280  34.280  1.00  0.00     0.124 S 
ATOM     90  O   UNL A   1      43.761  24.886  33.951  1.00  0.00    -0.237 OA
ATOM     91  O   UNL A   1      44.432  26.926  35.166  1.00  0.00    -0.237 OA
ATOM     92  O   UNL A   1      42.065  26.557  34.586  1.00  0.00    -0.744 OA
ENDBRANCH  88  89
ENDBRANCH  62  83
ENDBRANCH  36  37
ENDBRANCH  28  31
ENDBRANCH  26  27
ENDBRANCH  25  26
ENDBRANCH   1  25
TORSDOF 19
ENDMDL
MODEL 2
REMARK VINA RESULT:     -10.7      5.278     11.711
REMARK SMILES CCC[C@H](NC(=O)Cn1cccc1C(=O)NCCCNC(=O)c1ccc(-c2c3nc(c(-c4ccc(S(=O)(=O)[O-])cc4)c4ccc([nH]4)c(-c4ccc(S(=O)(=O)[O-])cc4)c4nc(c(-c5ccc(S(=O)(=O)[O-])cc5)c5ccc2[nH]5)C=C4)C=C3)cc1)c1cccs1
REMARK SMILES IDX 17 1 16 2 14 3 15 4 13 6 9 7 10 8 11 9 12 10 8 11 6 12 5 13
REMARK SMILES IDX 7 15 4 16 3 17 2 18 1 19 83 20 84 21 87 22 85 23 86 24 18 25
REMARK SMILES IDX 19 26 20 27 21 28 22 30 23 31 24 32 82 33 25 34 81 35 26 36
REMARK SMILES IDX 27 37 28 38 75 39 29 40 80 41 74 42 76 43 30 44 79 45 73 46
REMARK SMILES IDX 72 47 31 49 61 50 42 51 60 52 43 53 46 54 59 55 77 56 44 57
REMARK SMILES IDX 45 58 58 60 78 61 47 62 32 63 33 64 41 65 34 66 40 67 35 68
REMARK SMILES IDX 36 69 37 70 38 71 39 72 62 73 63 74 71 75 64 76 70 77 65 78
REMARK SMILES IDX 66 79 67 80 68 81 69 82 48 83 49 84 57 85 50 86 56 87 51 88
REMARK SMILES IDX 52 89 53 90 54 91 55 92
REMARK H PARENT 16 5 5 14 20 29 76 48 46 59
REMARK Flexibility Score: inf
ROOT
ATOM      1  C   UNL A   1      34.739  33.956  28.239  1.00  0.00     0.118 C 
ENDROOT
BRANCH   1   2
ATOM      2  N   UNL A   1      33.614  34.297  29.139  1.00  0.00    -0.351 N 
ATOM      3  C   UNL A   1      33.223  35.544  29.606  1.00  0.00     0.267 C 
ATOM      4  O   UNL A   1      32.293  36.088  29.013  1.00  0.00    -0.268 OA
ATOM      5  H   UNL A   1      33.070  33.537  29.446  1.00  0.00     0.163 HD
BRANCH   3   6
ATOM      6  C   UNL A   1      33.611  35.972  30.960  1.00  0.00     0.107 A 
ATOM      7  N   UNL A   1      34.252  35.307  32.000  1.00  0.00    -0.334 N 
ATOM      8  C   UNL A   1      34.444  36.160  33.071  1.00  0.00     0.087 A 
ATOM      9  C   UNL A   1      33.833  37.353  32.788  1.00  0.00     0.020 A 
ATOM     10  C   UNL A   1      33.315  37.236  31.480  1.00  0.00     0.033 A 
BRANCH   7  11
ATOM     11  C   UNL A   1      34.578  33.889  32.094  1.00  0.00     0.222 C 
BRANCH  11  12
ATOM     12  C   UNL A   1      35.658  33.600  33.119  1.00  0.00     0.240 C 
ATOM     13  N   UNL A   1      36.935  33.779  32.653  1.00  0.00    -0.347 N 
ATOM     14  H   UNL A   1      37.131  34.634  32.205  1.00  0.00     0.164 HD
ATOM     15  O   UNL A   1      35.395  33.155  34.233  1.00  0.00    -0.273 OA
BRANCH  13  16
ATOM     16  C   UNL A   1      38.014  32.833  32.757  1.00  0.00     0.122 C 
BRANCH  16  17
ATOM     17  C   UNL A   1      37.555  31.540  32.050  1.00  0.00     0.030 C 
BRANCH  17  18
ATOM     18  C   UNL A   1      38.307  30.302  32.502  1.00  0.00    -0.001 C 
ATOM     19  C   UNL A   1      37.372  29.220  33.028  1.00  0.00     0.004 C 
ENDBRANCH  17  18
ENDBRANCH  16  17
BRANCH  16  20
ATOM     20  C   UNL A   1      39.244  33.462  32.093  1.00  0.00     0.027 A 
ATOM     21  C   UNL A   1      40.572  33.438  32.490  1.00  0.00     0.017 A 
ATOM     22  S   UNL A   1      39.094  34.390  30.642  1.00  0.00    -0.147 S 
ATOM     23  C   UNL A   1      41.452  34.054  31.553  1.00  0.00     0.012 A 
ATOM     24  C   UNL A   1      40.780  34.565  30.469  1.00  0.00     0.065 A 
ENDBRANCH  16  20
ENDBRANCH  13  16
ENDBRANCH  11  12
ENDBRANCH   7  11
ENDBRANCH   3   6
ENDBRANCH   1   2
BRANCH   1  25
ATOM     25  C   UNL A   1      35.990  33.469  29.009  1.00  0.00     0.042 C 
BRANCH  25  26
ATOM     26  C   UNL A   1      36.726  32.254  28.478  1.00  0.00     0.118 C 
BRANCH  26  27
ATOM     27  N   UNL A   1      35.846  31.188  28.026  1.00  0.00    -0.352 N 
ATOM     28  C   UNL A   1      36.213  29.901  27.669  1.00  0.00     0.251 C 
ATOM     29  H   UNL A   1      34.887  31.405  27.967  1.00  0.00     0.163 HD
ATOM     30  O   UNL A   1      35.494  29.225  26.962  1.00  0.00    -0.269 OA
BRANCH  28  31
ATOM     31  C   UNL A   1      37.516  29.381  28.142  1.00  0.00     0.039 A 
ATOM     32  C   UNL A   1      37.579  28.612  29.307  1.00  0.00     0.014 A 
ATOM     33  C   UNL A   1      38.670  29.660  27.405  1.00  0.00     0.014 A 
ATOM     34  C   UNL A   1      38.800  28.062  29.680  1.00  0.00     0.010 A 
ATOM     35  C   UNL A   1      39.849  29.016  27.694  1.00  0.00     0.010 A 
ATOM     36  C   UNL A   1      39.919  28.251  28.854  1.00  0.00    -0.014 A 
BRANCH  36  37
ATOM     37  C   UNL A   1      41.203  27.633  29.208  1.00  0.00     0.031 A 
ATOM     38  C   UNL A   1      41.478  26.414  28.327  1.00  0.00     0.074 A 
ATOM     39  C   UNL A   1      41.844  28.209  30.273  1.00  0.00     0.049 A 
ATOM     40  N   UNL A   1      41.857  25.227  28.673  1.00  0.00    -0.248 NA
ATOM     41  C   UNL A   1      41.135  26.461  26.878  1.00  0.00     0.031 C 
ATOM     42  C   UNL A   1      41.414  29.465  30.945  1.00  0.00     0.029 A 
ATOM     43  N   UNL A   1      42.963  27.899  31.009  1.00  0.00    -0.354 N 
ATOM     44  C   UNL A   1      41.982  24.449  27.500  1.00  0.00     0.074 A 
ATOM     45  C   UNL A   1      41.374  25.214  26.451  1.00  0.00     0.031 C 
ATOM     46  C   UNL A   1      42.190  29.745  32.011  1.00  0.00     0.029 A 
ATOM     47  C   UNL A   1      43.179  28.703  32.160  1.00  0.00     0.049 A 
ATOM     48  H   UNL A   1      43.573  27.169  30.755  1.00  0.00     0.167 HD
ATOM     49  C   UNL A   1      42.740  23.309  27.454  1.00  0.00     0.031 A 
ATOM     50  C   UNL A   1      44.036  28.496  33.206  1.00  0.00     0.031 A 
ATOM     51  C   UNL A   1      43.389  23.139  28.715  1.00  0.00     0.049 A 
ATOM     52  C   UNL A   1      44.771  27.270  32.859  1.00  0.00     0.074 A 
ATOM     53  C   UNL A   1      42.924  22.800  29.960  1.00  0.00     0.029 A 
ATOM     54  N   UNL A   1      44.605  23.779  28.839  1.00  0.00    -0.354 N 
ATOM     55  N   UNL A   1      45.685  27.179  31.944  1.00  0.00    -0.248 NA
ATOM     56  C   UNL A   1      44.365  26.008  33.493  1.00  0.00     0.031 C 
ATOM     57  C   UNL A   1      43.599  23.715  30.797  1.00  0.00     0.029 A 
ATOM     58  C   UNL A   1      44.631  24.344  30.089  1.00  0.00     0.049 A 
ATOM     59  H   UNL A   1      45.317  23.824  28.161  1.00  0.00     0.167 HD
ATOM     60  C   UNL A   1      45.645  25.845  31.626  1.00  0.00     0.074 A 
ATOM     61  C   UNL A   1      45.107  25.161  32.785  1.00  0.00     0.031 C 
ATOM     62  C   UNL A   1      45.506  25.468  30.326  1.00  0.00     0.031 A 
BRANCH  49  63
ATOM     63  C   UNL A   1      43.249  22.451  26.325  1.00  0.00    -0.014 A 
ATOM     64  C   UNL A   1      42.791  21.105  26.295  1.00  0.00     0.010 A 
ATOM     65  C   UNL A   1      44.343  22.773  25.513  1.00  0.00     0.010 A 
ATOM     66  C   UNL A   1      43.479  20.101  25.612  1.00  0.00     0.020 A 
ATOM     67  C   UNL A   1      45.019  21.773  24.789  1.00  0.00     0.020 A 
ATOM     68  C   UNL A   1      44.614  20.438  24.887  1.00  0.00     0.054 A 
BRANCH  68  69
ATOM     69  S   UNL A   1      45.577  19.097  24.139  1.00  0.00     0.124 S 
ATOM     70  O   UNL A   1      46.932  19.640  24.160  1.00  0.00    -0.237 OA
ATOM     71  O   UNL A   1      45.335  17.985  25.056  1.00  0.00    -0.237 OA
ATOM     72  O   UNL A   1      44.980  18.943  22.815  1.00  0.00    -0.744 OA
ENDBRANCH  68  69
ENDBRANCH  49  63
BRANCH  50  73
ATOM     73  C   UNL A   1      44.249  29.033  34.601  1.00  0.00    -0.014 A 
ATOM     74  C   UNL A   1      45.331  29.798  35.053  1.00  0.00     0.010 A 
ATOM     75  C   UNL A   1      43.196  28.846  35.540  1.00  0.00     0.010 A 
ATOM     76  C   UNL A   1      45.279  30.469  36.300  1.00  0.00     0.020 A 
ATOM     77  C   UNL A   1      43.106  29.541  36.747  1.00  0.00     0.020 A 
ATOM     78  C   UNL A   1      44.140  30.381  37.110  1.00  0.00     0.054 A 
BRANCH  78  79
ATOM     79  S   UNL A   1      43.927  31.461  38.555  1.00  0.00     0.124 S 
ATOM     80  O   UNL A   1      42.476  31.558  38.664  1.00  0.00    -0.237 OA
ATOM     81  O   UNL A   1      44.593  30.711  39.618  1.00  0.00    -0.237 OA
ATOM     82  O   UNL A   1      44.608  32.694  38.162  1.00  0.00    -0.744 OA
ENDBRANCH  78  79
ENDBRANCH  50  73
BRANCH  62  83
ATOM     83  C   UNL A   1      45.964  26.501  29.293  1.00  0.00    -0.014 A 
ATOM     84  C   UNL A   1      45.007  27.355  28.706  1.00  0.00     0.010 A 
ATOM     85  C   UNL A   1      47.281  26.587  28.795  1.00  0.00     0.010 A 
ATOM     86  C   UNL A   1      45.335  28.233  27.660  1.00  0.00     0.020 A 
ATOM     87  C   UNL A   1      47.623  27.469  27.745  1.00  0.00     0.020 A 
ATOM     88  C   UNL A   1      46.642  28.288  27.183  1.00  0.00     0.054 A 
BRANCH  88  89
ATOM     89  S   UNL A   1      47.025  29.442  25.828  1.00  0.00     0.124 S 
ATOM     90  O   UNL A   1      45.803  30.235  25.722  1.00  0.00    -0.237 OA
ATOM     91  O   UNL A   1      48.189  30.158  26.343  1.00  0.00    -0.237 OA
ATOM     92  O   UNL A   1      47.292  28.569  24.686  1.00  0.00    -0.744 OA
ENDBRANCH  88  89
ENDBRANCH  62  83
ENDBRANCH  36  37
ENDBRANCH  28  31
ENDBRANCH  26  27
ENDBRANCH  25  26
ENDBRANCH   1  25
TORSDOF 19
ENDMDL
MODEL 3
REMARK VINA RESULT:     -10.6      1.952      3.509
REMARK SMILES CCC[C@H](NC(=O)Cn1cccc1C(=O)NCCCNC(=O)c1ccc(-c2c3nc(c(-c4ccc(S(=O)(=O)[O-])cc4)c4ccc([nH]4)c(-c4ccc(S(=O)(=O)[O-])cc4)c4nc(c(-c5ccc(S(=O)(=O)[O-])cc5)c5ccc2[nH]5)C=C4)C=C3)cc1)c1cccs1
REMARK SMILES IDX 17 1 16 2 14 3 15 4 13 6 9 7 10 8 11 9 12 10 8 11 6 12 5 13
REMARK SMILES IDX 7 15 4 16 3 17 2 18 1 19 83 20 84 21 87 22 85 23 86 24 18 25
REMARK SMILES IDX 19 26 20 27 21 28 22 30 23 31 24 32 82 33 25 34 81 35 26 36
REMARK SMILES IDX 27 37 28 38 75 39 29 40 80 41 74 42 76 43 30 44 79 45 73 46
REMARK SMILES IDX 72 47 31 49 61 50 42 51 60 52 43 53 46 54 59 55 77 56 44 57
REMARK SMILES IDX 45 58 58 60 78 61 47 62 32 63 33 64 41 65 34 66 40 67 35 68
REMARK SMILES IDX 36 69 37 70 38 71 39 72 62 73 63 74 71 75 64 76 70 77 65 78
REMARK SMILES IDX 66 79 67 80 68 81 69 82 48 83 49 84 57 85 50 86 56 87 51 88
REMARK SMILES IDX 52 89 53 90 54 91 55 92
REMARK H PARENT 16 5 5 14 20 29 76 48 46 59
REMARK Flexibility Score: inf
ROOT
ATOM      1  C   UNL A   1      36.753  19.724  25.035  1.00  0.00     0.118 C 
ENDROOT
BRANCH   1   2
ATOM      2  N   UNL A   1      35.971  20.964  25.238  1.00  0.00    -0.351 N 
ATOM      3  C   UNL A   1      34.625  21.102  25.547  1.00  0.00     0.267 C 
ATOM      4  O   UNL A   1      34.348  21.296  26.730  1.00  0.00    -0.268 OA
ATOM      5  H   UNL A   1      36.475  21.804  25.141  1.00  0.00     0.163 HD
BRANCH   3   6
ATOM      6  C   UNL A   1      33.659  21.414  24.482  1.00  0.00     0.107 A 
ATOM      7  N   UNL A   1      33.308  22.608  23.862  1.00  0.00    -0.334 N 
ATOM      8  C   UNL A   1      32.375  22.379  22.868  1.00  0.00     0.087 A 
ATOM      9  C   UNL A   1      32.023  21.055  22.902  1.00  0.00     0.020 A 
ATOM     10  C   UNL A   1      32.819  20.457  23.904  1.00  0.00     0.033 A 
BRANCH   7  11
ATOM     11  C   UNL A   1      33.700  23.963  24.234  1.00  0.00     0.222 C 
BRANCH  11  12
ATOM     12  C   UNL A   1      32.673  24.652  25.111  1.00  0.00     0.240 C 
ATOM     13  N   UNL A   1      32.033  25.702  24.506  1.00  0.00    -0.347 N 
ATOM     14  H   UNL A   1      31.642  25.535  23.617  1.00  0.00     0.164 HD
ATOM     15  O   UNL A   1      32.512  24.343  26.289  1.00  0.00    -0.273 OA
BRANCH  13  16
ATOM     16  C   UNL A   1      31.880  27.027  25.047  1.00  0.00     0.122 C 
BRANCH  16  17
ATOM     17  C   UNL A   1      33.298  27.571  25.321  1.00  0.00     0.030 C 
BRANCH  17  18
ATOM     18  C   UNL A   1      33.533  27.948  26.773  1.00  0.00    -0.001 C 
ATOM     19  C   UNL A   1      32.233  28.253  27.506  1.00  0.00     0.004 C 
ENDBRANCH  17  18
ENDBRANCH  16  17
BRANCH  16  20
ATOM     20  C   UNL A   1      31.118  27.863  24.014  1.00  0.00     0.027 A 
ATOM     21  C   UNL A   1      31.566  28.901  23.212  1.00  0.00     0.017 A 
ATOM     22  S   UNL A   1      29.434  27.599  23.724  1.00  0.00    -0.147 S 
ATOM     23  C   UNL A   1      30.582  29.370  22.293  1.00  0.00     0.012 A 
ATOM     24  C   UNL A   1      29.388  28.704  22.429  1.00  0.00     0.065 A 
ENDBRANCH  16  20
ENDBRANCH  13  16
ENDBRANCH  11  12
ENDBRANCH   7  11
ENDBRANCH   3   6
ENDBRANCH   1   2
BRANCH   1  25
ATOM     25  C   UNL A   1      38.243  20.003  24.723  1.00  0.00     0.042 C 
BRANCH  25  26
ATOM     26  C   UNL A   1      39.186  20.225  25.889  1.00  0.00     0.118 C 
BRANCH  26  27
ATOM     27  N   UNL A   1      40.183  19.178  26.042  1.00  0.00    -0.352 N 
ATOM     28  C   UNL A   1      41.558  19.341  26.115  1.00  0.00     0.251 C 
ATOM     29  H   UNL A   1      39.846  18.255  26.101  1.00  0.00     0.163 HD
ATOM     30  O   UNL A   1      42.305  18.418  25.863  1.00  0.00    -0.269 OA
BRANCH  28  31
ATOM     31  C   UNL A   1      42.092  20.673  26.476  1.00  0.00     0.039 A 
ATOM     32  C   UNL A   1      42.456  21.574  25.470  1.00  0.00     0.014 A 
ATOM     33  C   UNL A   1      42.214  21.017  27.824  1.00  0.00     0.014 A 
ATOM     34  C   UNL A   1      42.870  22.850  25.834  1.00  0.00     0.010 A 
ATOM     35  C   UNL A   1      42.497  22.314  28.185  1.00  0.00     0.010 A 
ATOM     36  C   UNL A   1      42.863  23.214  27.190  1.00  0.00    -0.014 A 
BRANCH  36  37
ATOM     37  C   UNL A   1      43.248  24.575  27.584  1.00  0.00     0.031 A 
ATOM     38  C   UNL A   1      42.015  25.469  27.718  1.00  0.00     0.074 A 
ATOM     39  C   UNL A   1      44.598  24.785  27.680  1.00  0.00     0.049 A 
ATOM     40  N   UNL A   1      41.811  26.652  27.239  1.00  0.00    -0.248 NA
ATOM     41  C   UNL A   1      40.772  24.922  28.329  1.00  0.00     0.031 C 
ATOM     42  C   UNL A   1      45.633  23.721  27.576  1.00  0.00     0.029 A 
ATOM     43  N   UNL A   1      45.391  25.889  27.884  1.00  0.00    -0.354 N 
ATOM     44  C   UNL A   1      40.520  27.068  27.637  1.00  0.00     0.074 A 
ATOM     45  C   UNL A   1      39.875  25.903  28.167  1.00  0.00     0.031 C 
ATOM     46  C   UNL A   1      46.878  24.236  27.628  1.00  0.00     0.029 A 
ATOM     47  C   UNL A   1      46.788  25.673  27.744  1.00  0.00     0.049 A 
ATOM     48  H   UNL A   1      45.016  26.771  28.113  1.00  0.00     0.167 HD
ATOM     49  C   UNL A   1      40.150  28.386  27.661  1.00  0.00     0.031 A 
ATOM     50  C   UNL A   1      47.795  26.593  27.640  1.00  0.00     0.031 A 
ATOM     51  C   UNL A   1      41.281  29.186  27.310  1.00  0.00     0.049 A 
ATOM     52  C   UNL A   1      47.135  27.899  27.781  1.00  0.00     0.074 A 
ATOM     53  C   UNL A   1      41.950  29.379  26.129  1.00  0.00     0.029 A 
ATOM     54  N   UNL A   1      42.100  29.538  28.362  1.00  0.00    -0.354 N 
ATOM     55  N   UNL A   1      46.655  28.381  28.885  1.00  0.00    -0.248 NA
ATOM     56  C   UNL A   1      46.867  28.682  26.566  1.00  0.00     0.031 C 
ATOM     57  C   UNL A   1      43.302  29.318  26.531  1.00  0.00     0.029 A 
ATOM     58  C   UNL A   1      43.392  29.393  27.927  1.00  0.00     0.049 A 
ATOM     59  H   UNL A   1      41.812  29.835  29.256  1.00  0.00     0.167 HD
ATOM     60  C   UNL A   1      45.710  29.265  28.430  1.00  0.00     0.074 A 
ATOM     61  C   UNL A   1      46.112  29.644  27.090  1.00  0.00     0.031 C 
ATOM     62  C   UNL A   1      44.437  29.190  28.903  1.00  0.00     0.031 A 
BRANCH  49  63
ATOM     63  C   UNL A   1      38.979  29.121  28.260  1.00  0.00    -0.014 A 
ATOM     64  C   UNL A   1      37.719  28.931  27.628  1.00  0.00     0.010 A 
ATOM     65  C   UNL A   1      39.087  30.183  29.166  1.00  0.00     0.010 A 
ATOM     66  C   UNL A   1      36.671  29.839  27.773  1.00  0.00     0.020 A 
ATOM     67  C   UNL A   1      38.018  31.082  29.348  1.00  0.00     0.020 A 
ATOM     68  C   UNL A   1      36.840  30.934  28.610  1.00  0.00     0.054 A 
BRANCH  68  69
ATOM     69  S   UNL A   1      35.525  32.180  28.661  1.00  0.00     0.124 S 
ATOM     70  O   UNL A   1      36.146  33.313  27.982  1.00  0.00    -0.237 OA
ATOM     71  O   UNL A   1      34.443  31.527  27.926  1.00  0.00    -0.237 OA
ATOM     72  O   UNL A   1      35.277  32.360  30.089  1.00  0.00    -0.744 OA
ENDBRANCH  68  69
ENDBRANCH  49  63
BRANCH  50  73
ATOM     73  C   UNL A   1      49.250  26.618  27.236  1.00  0.00    -0.014 A 
ATOM     74  C   UNL A   1      50.347  26.908  28.058  1.00  0.00     0.010 A 
ATOM     75  C   UNL A   1      49.569  26.197  25.915  1.00  0.00     0.010 A 
ATOM     76  C   UNL A   1      51.670  26.629  27.632  1.00  0.00     0.020 A 
ATOM     77  C   UNL A   1      50.860  25.869  25.499  1.00  0.00     0.020 A 
ATOM     78  C   UNL A   1      51.909  26.057  26.377  1.00  0.00     0.054 A 
BRANCH  78  79
ATOM     79  S   UNL A   1      53.550  25.417  25.931  1.00  0.00     0.124 S 
ATOM     80  O   UNL A   1      54.276  25.507  27.193  1.00  0.00    -0.237 OA
ATOM     81  O   UNL A   1      53.253  24.065  25.465  1.00  0.00    -0.237 OA
ATOM     82  O   UNL A   1      54.000  26.336  24.885  1.00  0.00    -0.744 OA
ENDBRANCH  78  79
ENDBRANCH  50  73
BRANCH  62  83
ATOM     83  C   UNL A   1      44.286  28.528  30.276  1.00  0.00    -0.014 A 
ATOM     84  C   UNL A   1      43.922  27.168  30.346  1.00  0.00     0.010 A 
ATOM     85  C   UNL A   1      44.379  29.224  31.499  1.00  0.00     0.010 A 
ATOM     86  C   UNL A   1      43.640  26.534  31.567  1.00  0.00     0.020 A 
ATOM     87  C   UNL A   1      44.101  28.596  32.734  1.00  0.00     0.020 A 
ATOM     88  C   UNL A   1      43.731  27.250  32.758  1.00  0.00     0.054 A 
BRANCH  88  89
ATOM     89  S   UNL A   1      43.360  26.390  34.319  1.00  0.00     0.124 S 
ATOM     90  O   UNL A   1      41.969  26.761  34.572  1.00  0.00    -0.237 OA
ATOM     91  O   UNL A   1      43.577  24.990  33.967  1.00  0.00    -0.237 OA
ATOM     92  O   UNL A   1      44.325  26.946  35.266  1.00  0.00    -0.744 OA
ENDBRANCH  88  89
ENDBRANCH  62  83
ENDBRANCH  36  37
ENDBRANCH  28  31
ENDBRANCH  26  27
ENDBRANCH  25  26
ENDBRANCH   1  25
TORSDOF 19
ENDMDL
