MODEL 1
REMARK VINA RESULT:     -11.4      0.000      0.000
REMARK SMILES CC(C)C[C@H](C(=O)NCCCNC(=O)c1ccc(-c2c3nc(c(-c4ccc(S(=O)(=O)[O-])cc4)c4ccc([nH]4)c(-c4ccc(S(=O)(=O)[O-])cc4)c4nc(c(-c5ccc(S(=O)(=O)[O-])cc5)c5ccc2[nH]5)C=C4)C=C3)cc1)[C@@H]1CCO[C@]2(CCOC2)C1
REMARK SMILES IDX 10 1 9 2 8 3 6 4 7 5 5 7 4 8 2 9 1 10 3 11 75 12 76 13 84 14
REMARK SMILES IDX 77 15 79 16 78 17 80 18 83 19 81 20 82 21 11 22 12 23 13 24
REMARK SMILES IDX 14 26 15 27 16 28 74 29 17 30 73 31 18 32 19 33 20 34 67 35
REMARK SMILES IDX 21 36 72 37 66 38 68 39 22 40 71 41 65 42 64 43 23 45 53 46
REMARK SMILES IDX 34 47 52 48 35 49 38 50 51 51 69 52 36 53 37 54 50 56 70 57
REMARK SMILES IDX 39 58 24 59 25 60 33 61 26 62 32 63 27 64 28 65 29 66 30 67
REMARK SMILES IDX 31 68 54 69 55 70 63 71 56 72 62 73 57 74 58 75 59 76 60 77
REMARK SMILES IDX 61 78 40 79 41 80 49 81 42 82 48 83 43 84 44 85 45 86 46 87
REMARK SMILES IDX 47 88
REMARK H PARENT 8 6 12 25 68 44 38 55
REMARK Flexibility Score: inf
ROOT
ATOM      1  C   UNL A   1      35.956  23.678  26.240  1.00  0.00     0.042 C 
ENDROOT
BRANCH   1   2
ATOM      2  C   UNL A   1      34.565  22.928  26.225  1.00  0.00     0.117 C 
BRANCH   2   3
ATOM      3  N   UNL A   1      32.741  23.369  26.843  1.00  0.00    -0.356 N 
ATOM      4  C   UNL A   1      31.591  24.151  26.570  1.00  0.00     0.223 C 
ATOM      5  O   UNL A   1      30.522  23.969  27.148  1.00  0.00    -0.275 OA
ATOM      6  H   UNL A   1      32.562  22.841  27.654  1.00  0.00     0.163 HD
BRANCH   4   7
ATOM      7  C   UNL A   1      31.842  25.177  25.543  1.00  0.00     0.082 C 
BRANCH   7   8
ATOM      8  C   UNL A   1      31.901  24.568  24.142  1.00  0.00     0.016 C 
BRANCH   8   9
ATOM      9  C   UNL A   1      33.131  24.948  23.303  1.00  0.00    -0.017 C 
ATOM     10  C   UNL A   1      32.738  25.521  21.943  1.00  0.00     0.007 C 
ATOM     11  C   UNL A   1      33.985  25.961  24.071  1.00  0.00     0.007 C 
ENDBRANCH   8   9
ENDBRANCH   7   8
BRANCH   7  12
ATOM     12  C   UNL A   1      30.625  25.930  25.997  1.00  0.00     0.007 C 
ATOM     13  C   UNL A   1      29.805  26.274  24.248  1.00  0.00     0.033 C 
ATOM     14  C   UNL A   1      31.382  27.446  26.965  1.00  0.00     0.042 C 
ATOM     15  C   UNL A   1      30.182  27.989  23.383  1.00  0.00     0.161 C 
ATOM     16  C   UNL A   1      31.835  29.050  26.003  1.00  0.00     0.094 C 
ATOM     17  O   UNL A   1      30.967  29.324  24.407  1.00  0.00    -0.372 OA
ATOM     18  C   UNL A   1      33.374  29.018  25.619  1.00  0.00     0.066 C 
ATOM     19  C   UNL A   1      31.876  30.304  26.914  1.00  0.00     0.195 C 
ATOM     20  C   UNL A   1      34.073  30.051  26.474  1.00  0.00     0.163 C 
ATOM     21  O   UNL A   1      33.169  30.325  27.532  1.00  0.00    -0.378 OA
ENDBRANCH   7  12
ENDBRANCH   4   7
ENDBRANCH   2   3
ENDBRANCH   1   2
BRANCH   1  22
ATOM     22  C   UNL A   1      37.015  23.581  25.149  1.00  0.00     0.118 C 
BRANCH  22  23
ATOM     23  N   UNL A   1      38.130  22.677  25.329  1.00  0.00    -0.352 N 
ATOM     24  C   UNL A   1      39.212  22.891  26.164  1.00  0.00     0.251 C 
ATOM     25  H   UNL A   1      38.117  21.838  24.813  1.00  0.00     0.163 HD
ATOM     26  O   UNL A   1      40.042  22.008  26.355  1.00  0.00    -0.269 OA
BRANCH  24  27
ATOM     27  C   UNL A   1      39.392  24.238  26.761  1.00  0.00     0.039 A 
ATOM     28  C   UNL A   1      38.964  24.438  28.075  1.00  0.00     0.014 A 
ATOM     29  C   UNL A   1      40.089  25.246  26.088  1.00  0.00     0.014 A 
ATOM     30  C   UNL A   1      39.309  25.617  28.737  1.00  0.00     0.010 A 
ATOM     31  C   UNL A   1      40.521  26.374  26.787  1.00  0.00     0.010 A 
ATOM     32  C   UNL A   1      40.127  26.578  28.117  1.00  0.00    -0.014 A 
BRANCH  32  33
ATOM     33  C   UNL A   1      40.543  27.803  28.852  1.00  0.00     0.031 A 
ATOM     34  C   UNL A   1      41.934  27.907  29.423  1.00  0.00     0.074 A 
ATOM     35  C   UNL A   1      39.674  28.824  29.014  1.00  0.00     0.049 A 
ATOM     36  N   UNL A   1      42.502  28.918  30.030  1.00  0.00    -0.248 NA
ATOM     37  C   UNL A   1      42.792  26.714  29.321  1.00  0.00     0.031 C 
ATOM     38  C   UNL A   1      38.278  28.828  28.569  1.00  0.00     0.029 A 
ATOM     39  N   UNL A   1      39.841  30.062  29.583  1.00  0.00    -0.354 N 
ATOM     40  C   UNL A   1      43.774  28.481  30.383  1.00  0.00     0.074 A 
ATOM     41  C   UNL A   1      43.870  27.095  29.989  1.00  0.00     0.031 C 
ATOM     42  C   UNL A   1      37.733  30.027  28.836  1.00  0.00     0.029 A 
ATOM     43  C   UNL A   1      38.728  30.867  29.496  1.00  0.00     0.049 A 
ATOM     44  H   UNL A   1      40.679  30.347  30.015  1.00  0.00     0.167 HD
ATOM     45  C   UNL A   1      44.786  29.177  30.954  1.00  0.00     0.031 A 
ATOM     46  C   UNL A   1      38.534  32.143  29.886  1.00  0.00     0.031 A 
ATOM     47  C   UNL A   1      44.697  30.560  31.335  1.00  0.00     0.049 A 
ATOM     48  C   UNL A   1      39.677  32.903  30.505  1.00  0.00     0.074 A 
ATOM     49  C   UNL A   1      45.683  31.371  31.868  1.00  0.00     0.029 A 
ATOM     50  N   UNL A   1      43.556  31.339  31.221  1.00  0.00    -0.354 N 
ATOM     51  N   UNL A   1      40.901  32.496  30.752  1.00  0.00    -0.248 NA
ATOM     52  C   UNL A   1      39.422  34.302  30.877  1.00  0.00     0.031 C 
ATOM     53  C   UNL A   1      45.124  32.627  32.124  1.00  0.00     0.029 A 
ATOM     54  C   UNL A   1      43.807  32.616  31.692  1.00  0.00     0.049 A 
ATOM     55  H   UNL A   1      42.694  31.030  30.858  1.00  0.00     0.167 HD
ATOM     56  C   UNL A   1      41.567  33.596  31.281  1.00  0.00     0.074 A 
ATOM     57  C   UNL A   1      40.616  34.689  31.302  1.00  0.00     0.031 C 
ATOM     58  C   UNL A   1      42.850  33.694  31.708  1.00  0.00     0.031 A 
BRANCH  45  59
ATOM     59  C   UNL A   1      46.080  28.443  31.194  1.00  0.00    -0.014 A 
ATOM     60  C   UNL A   1      46.297  27.728  32.386  1.00  0.00     0.010 A 
ATOM     61  C   UNL A   1      47.082  28.449  30.209  1.00  0.00     0.010 A 
ATOM     62  C   UNL A   1      47.510  27.072  32.609  1.00  0.00     0.020 A 
ATOM     63  C   UNL A   1      48.286  27.767  30.413  1.00  0.00     0.020 A 
ATOM     64  C   UNL A   1      48.498  27.099  31.621  1.00  0.00     0.054 A 
BRANCH  64  65
ATOM     65  S   UNL A   1      50.056  26.222  31.929  1.00  0.00     0.124 S 
ATOM     66  O   UNL A   1      51.026  27.089  31.264  1.00  0.00    -0.237 OA
ATOM     67  O   UNL A   1      50.130  26.203  33.388  1.00  0.00    -0.237 OA
ATOM     68  O   UNL A   1      49.851  24.919  31.301  1.00  0.00    -0.744 OA
ENDBRANCH  64  65
ENDBRANCH  45  59
BRANCH  46  69
ATOM     69  C   UNL A   1      37.213  32.799  29.671  1.00  0.00    -0.014 A 
ATOM     70  C   UNL A   1      36.244  32.817  30.691  1.00  0.00     0.010 A 
ATOM     71  C   UNL A   1      36.917  33.413  28.441  1.00  0.00     0.010 A 
ATOM     72  C   UNL A   1      34.999  33.417  30.478  1.00  0.00     0.020 A 
ATOM     73  C   UNL A   1      35.684  34.039  28.233  1.00  0.00     0.020 A 
ATOM     74  C   UNL A   1      34.728  34.028  29.250  1.00  0.00     0.054 A 
BRANCH  74  75
ATOM     75  S   UNL A   1      33.125  34.846  29.012  1.00  0.00     0.124 S 
ATOM     76  O   UNL A   1      33.524  36.159  28.515  1.00  0.00    -0.237 OA
ATOM     77  O   UNL A   1      32.468  33.975  28.039  1.00  0.00    -0.237 OA
ATOM     78  O   UNL A   1      32.534  34.833  30.347  1.00  0.00    -0.744 OA
ENDBRANCH  74  75
ENDBRANCH  46  69
BRANCH  58  79
ATOM     79  C   UNL A   1      43.318  35.038  32.201  1.00  0.00    -0.014 A 
ATOM     80  C   UNL A   1      43.230  35.391  33.559  1.00  0.00     0.010 A 
ATOM     81  C   UNL A   1      43.901  35.943  31.294  1.00  0.00     0.010 A 
ATOM     82  C   UNL A   1      43.679  36.641  33.994  1.00  0.00     0.020 A 
ATOM     83  C   UNL A   1      44.378  37.180  31.729  1.00  0.00     0.020 A 
ATOM     84  C   UNL A   1      44.248  37.528  33.075  1.00  0.00     0.054 A 
BRANCH  84  85
ATOM     85  S   UNL A   1      44.850  39.132  33.669  1.00  0.00     0.124 S 
ATOM     86  O   UNL A   1      44.350  40.044  32.644  1.00  0.00    -0.237 OA
ATOM     87  O   UNL A   1      44.215  39.250  34.980  1.00  0.00    -0.237 OA
ATOM     88  O   UNL A   1      46.302  38.967  33.701  1.00  0.00    -0.744 OA
ENDBRANCH  84  85
ENDBRANCH  58  79
ENDBRANCH  32  33
ENDBRANCH  24  27
ENDBRANCH  22  23
ENDBRANCH   1  22
TORSDOF 16
ENDMDL
MODEL 2
REMARK VINA RESULT:     -11.1      0.946      2.035
REMARK SMILES CC(C)C[C@H](C(=O)NCCCNC(=O)c1ccc(-c2c3nc(c(-c4ccc(S(=O)(=O)[O-])cc4)c4ccc([nH]4)c(-c4ccc(S(=O)(=O)[O-])cc4)c4nc(c(-c5ccc(S(=O)(=O)[O-])cc5)c5ccc2[nH]5)C=C4)C=C3)cc1)[C@@H]1CCO[C@]2(CCOC2)C1
REMARK SMILES IDX 10 1 9 2 8 3 6 4 7 5 5 7 4 8 2 9 1 10 3 11 75 12 76 13 84 14
REMARK SMILES IDX 77 15 79 16 78 17 80 18 83 19 81 20 82 21 11 22 12 23 13 24
REMARK SMILES IDX 14 26 15 27 16 28 74 29 17 30 73 31 18 32 19 33 20 34 67 35
REMARK SMILES IDX 21 36 72 37 66 38 68 39 22 40 71 41 65 42 64 43 23 45 53 46
REMARK SMILES IDX 34 47 52 48 35 49 38 50 51 51 69 52 36 53 37 54 50 56 70 57
REMARK SMILES IDX 39 58 24 59 25 60 33 61 26 62 32 63 27 64 28 65 29 66 30 67
REMARK SMILES IDX 31 68 54 69 55 70 63 71 56 72 62 73 57 74 58 75 59 76 60 77
REMARK SMILES IDX 61 78 40 79 41 80 49 81 42 82 48 83 43 84 44 85 45 86 46 87
REMARK SMILES IDX 47 88
REMARK H PARENT 8 6 12 25 68 44 38 55
REMARK Flexibility Score: inf
ROOT
ATOM      1  C   UNL A   1      35.600  23.741  25.770  1.00  0.00     0.042 C 
ENDROOT
BRANCH   1   2
ATOM      2  C   UNL A   1      34.118  23.724  25.223  1.00  0.00     0.117 C 
BRANCH   2   3
ATOM      3  N   UNL A   1      32.352  24.188  25.977  1.00  0.00    -0.356 N 
ATOM      4  C   UNL A   1      31.392  25.222  26.107  1.00  0.00     0.223 C 
ATOM      5  O   UNL A   1      30.257  25.014  26.531  1.00  0.00    -0.275 OA
ATOM      6  H   UNL A   1      32.005  23.393  26.442  1.00  0.00     0.163 HD
BRANCH   4   7
ATOM      7  C   UNL A   1      31.919  26.533  25.687  1.00  0.00     0.082 C 
BRANCH   7   8
ATOM      8  C   UNL A   1      33.290  26.811  26.303  1.00  0.00     0.016 C 
BRANCH   8   9
ATOM      9  C   UNL A   1      33.409  28.122  27.096  1.00  0.00    -0.017 C 
ATOM     10  C   UNL A   1      34.400  29.090  26.452  1.00  0.00     0.007 C 
ATOM     11  C   UNL A   1      32.031  28.782  27.209  1.00  0.00     0.007 C 
ENDBRANCH   8   9
ENDBRANCH   7   8
BRANCH   7  12
ATOM     12  C   UNL A   1      31.797  26.121  24.249  1.00  0.00     0.007 C 
ATOM     13  C   UNL A   1      33.599  26.601  23.638  1.00  0.00     0.033 C 
ATOM     14  C   UNL A   1      30.299  27.196  23.609  1.00  0.00     0.042 C 
ATOM     15  C   UNL A   1      33.845  28.357  22.809  1.00  0.00     0.161 C 
ATOM     16  C   UNL A   1      30.629  28.963  22.923  1.00  0.00     0.094 C 
ATOM     17  O   UNL A   1      32.327  29.302  22.309  1.00  0.00    -0.372 OA
ATOM     18  C   UNL A   1      30.403  30.027  24.077  1.00  0.00     0.066 C 
ATOM     19  C   UNL A   1      29.511  29.454  21.968  1.00  0.00     0.195 C 
ATOM     20  C   UNL A   1      29.137  30.787  23.747  1.00  0.00     0.163 C 
ATOM     21  O   UNL A   1      28.464  29.983  22.792  1.00  0.00    -0.378 OA
ENDBRANCH   7  12
ENDBRANCH   4   7
ENDBRANCH   2   3
ENDBRANCH   1   2
BRANCH   1  22
ATOM     22  C   UNL A   1      36.854  23.697  24.905  1.00  0.00     0.118 C 
BRANCH  22  23
ATOM     23  N   UNL A   1      37.866  22.701  25.184  1.00  0.00    -0.352 N 
ATOM     24  C   UNL A   1      38.891  22.832  26.102  1.00  0.00     0.251 C 
ATOM     25  H   UNL A   1      37.820  21.859  24.676  1.00  0.00     0.163 HD
ATOM     26  O   UNL A   1      39.621  21.883  26.369  1.00  0.00    -0.269 OA
BRANCH  24  27
ATOM     27  C   UNL A   1      39.142  24.167  26.701  1.00  0.00     0.039 A 
ATOM     28  C   UNL A   1      38.659  24.413  27.987  1.00  0.00     0.014 A 
ATOM     29  C   UNL A   1      39.952  25.112  26.062  1.00  0.00     0.014 A 
ATOM     30  C   UNL A   1      39.057  25.569  28.661  1.00  0.00     0.010 A 
ATOM     31  C   UNL A   1      40.430  26.209  26.777  1.00  0.00     0.010 A 
ATOM     32  C   UNL A   1      39.981  26.457  28.082  1.00  0.00    -0.014 A 
BRANCH  32  33
ATOM     33  C   UNL A   1      40.449  27.654  28.832  1.00  0.00     0.031 A 
ATOM     34  C   UNL A   1      41.848  27.697  29.389  1.00  0.00     0.074 A 
ATOM     35  C   UNL A   1      39.620  28.703  29.020  1.00  0.00     0.049 A 
ATOM     36  N   UNL A   1      42.460  28.677  30.005  1.00  0.00    -0.248 NA
ATOM     37  C   UNL A   1      42.661  26.476  29.258  1.00  0.00     0.031 C 
ATOM     38  C   UNL A   1      38.220  28.766  28.591  1.00  0.00     0.029 A 
ATOM     39  N   UNL A   1      39.838  29.925  29.607  1.00  0.00    -0.354 N 
ATOM     40  C   UNL A   1      43.719  28.188  30.337  1.00  0.00     0.074 A 
ATOM     41  C   UNL A   1      43.759  26.806  29.920  1.00  0.00     0.031 C 
ATOM     42  C   UNL A   1      37.723  29.979  28.883  1.00  0.00     0.029 A 
ATOM     43  C   UNL A   1      38.755  30.772  29.545  1.00  0.00     0.049 A 
ATOM     44  H   UNL A   1      40.691  30.172  30.034  1.00  0.00     0.167 HD
ATOM     45  C   UNL A   1      44.762  28.837  30.908  1.00  0.00     0.031 A 
ATOM     46  C   UNL A   1      38.612  32.047  29.958  1.00  0.00     0.031 A 
ATOM     47  C   UNL A   1      44.728  30.216  31.312  1.00  0.00     0.049 A 
ATOM     48  C   UNL A   1      39.789  32.754  30.576  1.00  0.00     0.074 A 
ATOM     49  C   UNL A   1      45.749  30.982  31.847  1.00  0.00     0.029 A 
ATOM     50  N   UNL A   1      43.615  31.038  31.223  1.00  0.00    -0.354 N 
ATOM     51  N   UNL A   1      40.999  32.299  30.802  1.00  0.00    -0.248 NA
ATOM     52  C   UNL A   1      39.589  34.155  30.973  1.00  0.00     0.031 C 
ATOM     53  C   UNL A   1      45.239  32.252  32.130  1.00  0.00     0.029 A 
ATOM     54  C   UNL A   1      43.918  32.297  31.712  1.00  0.00     0.049 A 
ATOM     55  H   UNL A   1      42.738  30.767  30.866  1.00  0.00     0.167 HD
ATOM     56  C   UNL A   1      41.711  33.365  31.342  1.00  0.00     0.074 A 
ATOM     57  C   UNL A   1      40.801  34.492  31.391  1.00  0.00     0.031 C 
ATOM     58  C   UNL A   1      43.001  33.408  31.755  1.00  0.00     0.031 A 
BRANCH  45  59
ATOM     59  C   UNL A   1      46.030  28.053  31.122  1.00  0.00    -0.014 A 
ATOM     60  C   UNL A   1      47.000  27.951  30.106  1.00  0.00     0.010 A 
ATOM     61  C   UNL A   1      46.269  27.430  32.359  1.00  0.00     0.010 A 
ATOM     62  C   UNL A   1      48.162  27.201  30.308  1.00  0.00     0.020 A 
ATOM     63  C   UNL A   1      47.445  26.705  32.576  1.00  0.00     0.020 A 
ATOM     64  C   UNL A   1      48.374  26.581  31.542  1.00  0.00     0.054 A 
BRANCH  64  65
ATOM     65  S   UNL A   1      49.900  25.629  31.781  1.00  0.00     0.124 S 
ATOM     66  O   UNL A   1      50.176  25.157  30.426  1.00  0.00    -0.237 OA
ATOM     67  O   UNL A   1      50.827  26.634  32.295  1.00  0.00    -0.237 OA
ATOM     68  O   UNL A   1      49.516  24.593  32.736  1.00  0.00    -0.744 OA
ENDBRANCH  64  65
ENDBRANCH  45  59
BRANCH  46  69
ATOM     69  C   UNL A   1      37.313  32.754  29.768  1.00  0.00    -0.014 A 
ATOM     70  C   UNL A   1      36.377  32.833  30.816  1.00  0.00     0.010 A 
ATOM     71  C   UNL A   1      37.006  33.357  28.535  1.00  0.00     0.010 A 
ATOM     72  C   UNL A   1      35.153  33.481  30.627  1.00  0.00     0.020 A 
ATOM     73  C   UNL A   1      35.796  34.030  28.350  1.00  0.00     0.020 A 
ATOM     74  C   UNL A   1      34.871  34.079  29.395  1.00  0.00     0.054 A 
BRANCH  74  75
ATOM     75  S   UNL A   1      33.298  34.960  29.186  1.00  0.00     0.124 S 
ATOM     76  O   UNL A   1      33.742  36.274  28.733  1.00  0.00    -0.237 OA
ATOM     77  O   UNL A   1      32.609  34.145  28.188  1.00  0.00    -0.237 OA
ATOM     78  O   UNL A   1      32.707  34.924  30.522  1.00  0.00    -0.744 OA
ENDBRANCH  74  75
ENDBRANCH  46  69
BRANCH  58  79
ATOM     79  C   UNL A   1      43.523  34.727  32.265  1.00  0.00    -0.014 A 
ATOM     80  C   UNL A   1      44.063  35.688  31.393  1.00  0.00     0.010 A 
ATOM     81  C   UNL A   1      43.423  35.025  33.638  1.00  0.00     0.010 A 
ATOM     82  C   UNL A   1      44.532  36.907  31.890  1.00  0.00     0.020 A 
ATOM     83  C   UNL A   1      43.863  36.253  34.133  1.00  0.00     0.020 A 
ATOM     84  C   UNL A   1      44.431  37.180  33.258  1.00  0.00     0.054 A 
BRANCH  84  85
ATOM     85  S   UNL A   1      45.020  38.782  33.873  1.00  0.00     0.124 S 
ATOM     86  O   UNL A   1      44.524  39.700  32.852  1.00  0.00    -0.237 OA
ATOM     87  O   UNL A   1      44.372  38.883  35.178  1.00  0.00    -0.237 OA
ATOM     88  O   UNL A   1      46.472  38.623  33.916  1.00  0.00    -0.744 OA
ENDBRANCH  84  85
ENDBRANCH  58  79
ENDBRANCH  32  33
ENDBRANCH  24  27
ENDBRANCH  22  23
ENDBRANCH   1  22
TORSDOF 16
ENDMDL
MODEL 3
REMARK VINA RESULT:     -11.1      1.456      8.431
REMARK SMILES CC(C)C[C@H](C(=O)NCCCNC(=O)c1ccc(-c2c3nc(c(-c4ccc(S(=O)(=O)[O-])cc4)c4ccc([nH]4)c(-c4ccc(S(=O)(=O)[O-])cc4)c4nc(c(-c5ccc(S(=O)(=O)[O-])cc5)c5ccc2[nH]5)C=C4)C=C3)cc1)[C@@H]1CCO[C@]2(CCOC2)C1
REMARK SMILES IDX 10 1 9 2 8 3 6 4 7 5 5 7 4 8 2 9 1 10 3 11 75 12 76 13 84 14
REMARK SMILES IDX 77 15 79 16 78 17 80 18 83 19 81 20 82 21 11 22 12 23 13 24
REMARK SMILES IDX 14 26 15 27 16 28 74 29 17 30 73 31 18 32 19 33 20 34 67 35
REMARK SMILES IDX 21 36 72 37 66 38 68 39 22 40 71 41 65 42 64 43 23 45 53 46
REMARK SMILES IDX 34 47 52 48 35 49 38 50 51 51 69 52 36 53 37 54 50 56 70 57
REMARK SMILES IDX 39 58 24 59 25 60 33 61 26 62 32 63 27 64 28 65 29 66 30 67
REMARK SMILES IDX 31 68 54 69 55 70 63 71 56 72 62 73 57 74 58 75 59 76 60 77
REMARK SMILES IDX 61 78 40 79 41 80 49 81 42 82 48 83 43 84 44 85 45 86 46 87
REMARK SMILES IDX 47 88
REMARK H PARENT 8 6 12 25 68 44 38 55
REMARK Flexibility Score: inf
ROOT
ATOM      1  C   UNL A   1      35.730  23.800  26.169  1.00  0.00     0.042 C 
ENDROOT
BRANCH   1   2
ATOM      2  C   UNL A   1      34.402  22.964  26.356  1.00  0.00     0.117 C 
BRANCH   2   3
ATOM      3  N   UNL A   1      32.548  23.400  26.880  1.00  0.00    -0.356 N 
ATOM      4  C   UNL A   1      31.410  24.177  26.549  1.00  0.00     0.223 C 
ATOM      5  O   UNL A   1      30.314  23.993  27.072  1.00  0.00    -0.275 OA
ATOM      6  H   UNL A   1      32.330  22.873  27.682  1.00  0.00     0.163 HD
BRANCH   4   7
ATOM      7  C   UNL A   1      31.709  25.203  25.533  1.00  0.00     0.082 C 
BRANCH   7   8
ATOM      8  C   UNL A   1      31.759  24.604  24.127  1.00  0.00     0.016 C 
BRANCH   8   9
ATOM      9  C   UNL A   1      33.119  24.686  23.417  1.00  0.00    -0.017 C 
ATOM     10  C   UNL A   1      33.240  23.656  22.296  1.00  0.00     0.007 C 
ATOM     11  C   UNL A   1      33.322  26.097  22.856  1.00  0.00     0.007 C 
ENDBRANCH   8   9
ENDBRANCH   7   8
BRANCH   7  12
ATOM     12  C   UNL A   1      30.517  25.996  25.983  1.00  0.00     0.007 C 
ATOM     13  C   UNL A   1      29.723  26.380  24.230  1.00  0.00     0.033 C 
ATOM     14  C   UNL A   1      31.321  27.478  26.966  1.00  0.00     0.042 C 
ATOM     15  C   UNL A   1      30.168  28.086  23.380  1.00  0.00     0.161 C 
ATOM     16  C   UNL A   1      31.839  29.070  26.019  1.00  0.00     0.094 C 
ATOM     17  O   UNL A   1      30.993  29.385  24.418  1.00  0.00    -0.372 OA
ATOM     18  C   UNL A   1      33.378  28.985  25.646  1.00  0.00     0.066 C 
ATOM     19  C   UNL A   1      31.918  30.316  26.938  1.00  0.00     0.195 C 
ATOM     20  C   UNL A   1      34.108  29.987  26.513  1.00  0.00     0.163 C 
ATOM     21  O   UNL A   1      33.206  30.287  27.566  1.00  0.00    -0.378 OA
ENDBRANCH   7  12
ENDBRANCH   4   7
ENDBRANCH   2   3
ENDBRANCH   1   2
BRANCH   1  22
ATOM     22  C   UNL A   1      36.698  23.658  24.999  1.00  0.00     0.118 C 
BRANCH  22  23
ATOM     23  N   UNL A   1      37.725  22.641  25.056  1.00  0.00    -0.352 N 
ATOM     24  C   UNL A   1      38.857  22.686  25.849  1.00  0.00     0.251 C 
ATOM     25  H   UNL A   1      37.608  21.851  24.481  1.00  0.00     0.163 HD
ATOM     26  O   UNL A   1      39.604  21.717  25.933  1.00  0.00    -0.269 OA
BRANCH  24  27
ATOM     27  C   UNL A   1      39.193  23.959  26.535  1.00  0.00     0.039 A 
ATOM     28  C   UNL A   1      38.812  24.109  27.869  1.00  0.00     0.014 A 
ATOM     29  C   UNL A   1      39.987  24.932  25.918  1.00  0.00     0.014 A 
ATOM     30  C   UNL A   1      39.295  25.194  28.604  1.00  0.00     0.010 A 
ATOM     31  C   UNL A   1      40.550  25.953  26.682  1.00  0.00     0.010 A 
ATOM     32  C   UNL A   1      40.203  26.102  28.033  1.00  0.00    -0.014 A 
BRANCH  32  33
ATOM     33  C   UNL A   1      40.763  27.219  28.842  1.00  0.00     0.031 A 
ATOM     34  C   UNL A   1      39.949  28.466  29.073  1.00  0.00     0.074 A 
ATOM     35  C   UNL A   1      42.002  27.119  29.367  1.00  0.00     0.049 A 
ATOM     36  N   UNL A   1      40.236  29.511  29.807  1.00  0.00    -0.248 NA
ATOM     37  C   UNL A   1      38.657  28.564  28.373  1.00  0.00     0.031 C 
ATOM     38  C   UNL A   1      42.922  25.996  29.167  1.00  0.00     0.029 A 
ATOM     39  N   UNL A   1      42.699  27.970  30.191  1.00  0.00    -0.354 N 
ATOM     40  C   UNL A   1      39.166  30.387  29.651  1.00  0.00     0.074 A 
ATOM     41  C   UNL A   1      38.262  29.785  28.700  1.00  0.00     0.031 C 
ATOM     42  C   UNL A   1      44.036  26.204  29.888  1.00  0.00     0.029 A 
ATOM     43  C   UNL A   1      43.926  27.485  30.580  1.00  0.00     0.049 A 
ATOM     44  H   UNL A   1      42.351  28.846  30.477  1.00  0.00     0.167 HD
ATOM     45  C   UNL A   1      38.937  31.571  30.268  1.00  0.00     0.031 A 
ATOM     46  C   UNL A   1      44.852  28.003  31.412  1.00  0.00     0.031 A 
ATOM     47  C   UNL A   1      39.830  32.166  31.225  1.00  0.00     0.049 A 
ATOM     48  C   UNL A   1      44.571  29.313  32.098  1.00  0.00     0.074 A 
ATOM     49  C   UNL A   1      39.663  33.334  31.948  1.00  0.00     0.029 A 
ATOM     50  N   UNL A   1      41.058  31.637  31.596  1.00  0.00    -0.354 N 
ATOM     51  N   UNL A   1      43.513  30.084  32.002  1.00  0.00    -0.248 NA
ATOM     52  C   UNL A   1      45.598  29.812  33.023  1.00  0.00     0.031 C 
ATOM     53  C   UNL A   1      40.812  33.538  32.717  1.00  0.00     0.029 A 
ATOM     54  C   UNL A   1      41.668  32.465  32.521  1.00  0.00     0.049 A 
ATOM     55  H   UNL A   1      41.439  30.797  31.251  1.00  0.00     0.167 HD
ATOM     56  C   UNL A   1      43.736  31.144  32.875  1.00  0.00     0.074 A 
ATOM     57  C   UNL A   1      45.020  30.905  33.502  1.00  0.00     0.031 C 
ATOM     58  C   UNL A   1      42.947  32.215  33.136  1.00  0.00     0.031 A 
BRANCH  45  59
ATOM     59  C   UNL A   1      37.663  32.295  29.922  1.00  0.00    -0.014 A 
ATOM     60  C   UNL A   1      37.606  33.183  28.831  1.00  0.00     0.010 A 
ATOM     61  C   UNL A   1      36.501  32.071  30.681  1.00  0.00     0.010 A 
ATOM     62  C   UNL A   1      36.425  33.868  28.535  1.00  0.00     0.020 A 
ATOM     63  C   UNL A   1      35.308  32.730  30.369  1.00  0.00     0.020 A 
ATOM     64  C   UNL A   1      35.284  33.638  29.308  1.00  0.00     0.054 A 
BRANCH  64  65
ATOM     65  S   UNL A   1      33.760  34.528  28.889  1.00  0.00     0.124 S 
ATOM     66  O   UNL A   1      33.138  33.622  27.926  1.00  0.00    -0.237 OA
ATOM     67  O   UNL A   1      33.083  34.631  30.179  1.00  0.00    -0.237 OA
ATOM     68  O   UNL A   1      34.238  35.793  28.336  1.00  0.00    -0.744 OA
ENDBRANCH  64  65
ENDBRANCH  45  59
BRANCH  46  69
ATOM     69  C   UNL A   1      46.120  27.264  31.672  1.00  0.00    -0.014 A 
ATOM     70  C   UNL A   1      46.211  26.341  32.730  1.00  0.00     0.010 A 
ATOM     71  C   UNL A   1      47.247  27.477  30.857  1.00  0.00     0.010 A 
ATOM     72  C   UNL A   1      47.409  25.664  32.982  1.00  0.00     0.020 A 
ATOM     73  C   UNL A   1      48.438  26.782  31.087  1.00  0.00     0.020 A 
ATOM     74  C   UNL A   1      48.515  25.886  32.156  1.00  0.00     0.054 A 
BRANCH  74  75
ATOM     75  S   UNL A   1      50.043  24.959  32.467  1.00  0.00     0.124 S 
ATOM     76  O   UNL A   1      50.375  24.462  31.136  1.00  0.00    -0.237 OA
ATOM     77  O   UNL A   1      50.934  25.988  32.999  1.00  0.00    -0.237 OA
ATOM     78  O   UNL A   1      49.634  23.942  33.433  1.00  0.00    -0.744 OA
ENDBRANCH  74  75
ENDBRANCH  46  69
BRANCH  58  79
ATOM     79  C   UNL A   1      43.430  33.197  34.172  1.00  0.00    -0.014 A 
ATOM     80  C   UNL A   1      43.107  33.046  35.531  1.00  0.00     0.010 A 
ATOM     81  C   UNL A   1      44.264  34.260  33.779  1.00  0.00     0.010 A 
ATOM     82  C   UNL A   1      43.575  33.965  36.475  1.00  0.00     0.020 A 
ATOM     83  C   UNL A   1      44.758  35.163  34.722  1.00  0.00     0.020 A 
ATOM     84  C   UNL A   1      44.396  35.020  36.062  1.00  0.00     0.054 A 
BRANCH  84  85
ATOM     85  S   UNL A   1      45.015  36.182  37.309  1.00  0.00     0.124 S 
ATOM     86  O   UNL A   1      43.783  36.814  37.773  1.00  0.00    -0.237 OA
ATOM     87  O   UNL A   1      45.672  35.302  38.272  1.00  0.00    -0.237 OA
ATOM     88  O   UNL A   1      45.916  37.052  36.555  1.00  0.00    -0.744 OA
ENDBRANCH  84  85
ENDBRANCH  58  79
ENDBRANCH  32  33
ENDBRANCH  24  27
ENDBRANCH  22  23
ENDBRANCH   1  22
TORSDOF 16
ENDMDL
