MODEL 1
REMARK VINA RESULT:     -10.4      0.000      0.000
REMARK SMILES CN(CC(=O)NCCCNC(=O)c1ccc(-c2c3nc(c(-c4ccc(S(=O)(=O)[O-])cc4)c4ccc([nH]4)c(-c4ccc(S(=O)(=O)[O-])cc4)c4nc(c(-c5ccc(S(=O)(=O)[O-])cc5)c5ccc2[nH]5)C=C4)C=C3)cc1)C(=O)N[C@@H]1C[C@H]1c1ccccc1
REMARK SMILES IDX 7 1 6 2 4 3 5 4 3 6 2 7 1 8 73 9 74 10 75 11 76 13 77 14
REMARK SMILES IDX 78 15 79 16 80 17 84 18 81 19 83 20 82 21 8 22 9 23 10 24
REMARK SMILES IDX 11 25 12 27 13 28 14 29 72 30 15 31 71 32 16 33 17 34 18 35
REMARK SMILES IDX 65 36 19 37 70 38 64 39 66 40 20 41 69 42 63 43 62 44 21 46
REMARK SMILES IDX 51 47 32 48 50 49 33 50 36 51 49 52 67 53 34 54 35 55 48 57
REMARK SMILES IDX 68 58 37 59 22 60 23 61 31 62 24 63 30 64 25 65 26 66 27 67
REMARK SMILES IDX 28 68 29 69 52 70 53 71 61 72 54 73 60 74 55 75 56 76 57 77
REMARK SMILES IDX 58 78 59 79 38 80 39 81 47 82 40 83 46 84 41 85 42 86 43 87
REMARK SMILES IDX 44 88 45 89
REMARK H PARENT 6 5 75 12 10 26 66 45 36 56
REMARK Flexibility Score: inf
ROOT
ATOM      1  C   UNL A   1      31.865  27.802  26.416  1.00  0.00     0.117 C 
ENDROOT
BRANCH   1   2
ATOM      2  N   UNL A   1      31.443  28.057  25.056  1.00  0.00    -0.354 N 
ATOM      3  C   UNL A   1      31.349  27.180  24.017  1.00  0.00     0.239 C 
ATOM      4  O   UNL A   1      30.621  27.498  23.072  1.00  0.00    -0.273 OA
ATOM      5  H   UNL A   1      31.191  28.986  24.854  1.00  0.00     0.163 HD
BRANCH   3   6
ATOM      6  C   UNL A   1      31.978  25.784  24.098  1.00  0.00     0.220 C 
BRANCH   6   7
ATOM      7  N   UNL A   1      31.122  24.707  24.605  1.00  0.00    -0.319 N 
ATOM      8  C   UNL A   1      30.768  23.649  23.665  1.00  0.00     0.149 C 
BRANCH   7   9
ATOM      9  C   UNL A   1      30.745  24.476  25.904  1.00  0.00     0.317 C 
ATOM     10  O   UNL A   1      29.750  25.032  26.384  1.00  0.00    -0.249 OA
ATOM     11  N   UNL A   1      31.403  23.642  26.740  1.00  0.00    -0.335 N 
ATOM     12  H   UNL A   1      31.031  23.649  27.652  1.00  0.00     0.165 HD
BRANCH  11  13
ATOM     13  C   UNL A   1      32.508  22.755  26.608  1.00  0.00     0.092 C 
ATOM     14  C   UNL A   1      33.346  22.358  27.786  1.00  0.00     0.036 C 
ATOM     15  C   UNL A   1      33.930  23.288  26.762  1.00  0.00     0.044 C 
BRANCH  15  16
ATOM     16  C   UNL A   1      35.048  22.802  25.865  1.00  0.00    -0.043 A 
ATOM     17  C   UNL A   1      35.526  21.481  25.930  1.00  0.00     0.004 A 
ATOM     18  C   UNL A   1      35.681  23.669  24.959  1.00  0.00     0.004 A 
ATOM     19  C   UNL A   1      36.576  21.038  25.122  1.00  0.00     0.000 A 
ATOM     20  C   UNL A   1      36.740  23.235  24.154  1.00  0.00     0.000 A 
ATOM     21  C   UNL A   1      37.185  21.918  24.234  1.00  0.00     0.000 A 
ENDBRANCH  15  16
ENDBRANCH  11  13
ENDBRANCH   7   9
ENDBRANCH   6   7
ENDBRANCH   3   6
ENDBRANCH   1   2
BRANCH   1  22
ATOM     22  C   UNL A   1      33.373  27.662  26.562  1.00  0.00     0.042 C 
BRANCH  22  23
ATOM     23  C   UNL A   1      34.170  28.847  26.026  1.00  0.00     0.118 C 
BRANCH  23  24
ATOM     24  N   UNL A   1      33.928  30.076  26.772  1.00  0.00    -0.352 N 
ATOM     25  C   UNL A   1      34.621  30.650  27.806  1.00  0.00     0.251 C 
ATOM     26  H   UNL A   1      33.133  30.579  26.483  1.00  0.00     0.163 HD
ATOM     27  O   UNL A   1      34.107  31.590  28.415  1.00  0.00    -0.269 OA
BRANCH  25  28
ATOM     28  C   UNL A   1      35.957  30.158  28.202  1.00  0.00     0.039 A 
ATOM     29  C   UNL A   1      36.984  30.163  27.253  1.00  0.00     0.014 A 
ATOM     30  C   UNL A   1      36.195  29.646  29.479  1.00  0.00     0.014 A 
ATOM     31  C   UNL A   1      38.258  29.707  27.603  1.00  0.00     0.010 A 
ATOM     32  C   UNL A   1      37.484  29.269  29.852  1.00  0.00     0.010 A 
ATOM     33  C   UNL A   1      38.527  29.287  28.916  1.00  0.00    -0.014 A 
BRANCH  33  34
ATOM     34  C   UNL A   1      39.890  28.858  29.320  1.00  0.00     0.031 A 
ATOM     35  C   UNL A   1      40.786  29.793  30.090  1.00  0.00     0.074 A 
ATOM     36  C   UNL A   1      40.341  27.643  28.949  1.00  0.00     0.049 A 
ATOM     37  N   UNL A   1      42.016  29.605  30.499  1.00  0.00    -0.248 NA
ATOM     38  C   UNL A   1      40.240  31.118  30.422  1.00  0.00     0.031 C 
ATOM     39  C   UNL A   1      39.588  26.662  28.163  1.00  0.00     0.029 A 
ATOM     40  N   UNL A   1      41.544  27.025  29.182  1.00  0.00    -0.354 N 
ATOM     41  C   UNL A   1      42.393  30.791  31.119  1.00  0.00     0.074 A 
ATOM     42  C   UNL A   1      41.282  31.708  30.988  1.00  0.00     0.031 C 
ATOM     43  C   UNL A   1      40.332  25.557  28.008  1.00  0.00     0.029 A 
ATOM     44  C   UNL A   1      41.627  25.760  28.648  1.00  0.00     0.049 A 
ATOM     45  H   UNL A   1      42.279  27.447  29.683  1.00  0.00     0.167 HD
ATOM     46  C   UNL A   1      43.551  31.084  31.759  1.00  0.00     0.031 A 
ATOM     47  C   UNL A   1      42.633  24.864  28.669  1.00  0.00     0.031 A 
ATOM     48  C   UNL A   1      44.651  30.167  31.897  1.00  0.00     0.049 A 
ATOM     49  C   UNL A   1      43.906  25.211  29.390  1.00  0.00     0.074 A 
ATOM     50  C   UNL A   1      45.847  30.350  32.569  1.00  0.00     0.029 A 
ATOM     51  N   UNL A   1      44.689  28.890  31.354  1.00  0.00    -0.354 N 
ATOM     52  N   UNL A   1      44.221  26.316  30.023  1.00  0.00    -0.248 NA
ATOM     53  C   UNL A   1      44.954  24.181  29.414  1.00  0.00     0.031 C 
ATOM     54  C   UNL A   1      46.628  29.202  32.395  1.00  0.00     0.029 A 
ATOM     55  C   UNL A   1      45.895  28.282  31.661  1.00  0.00     0.049 A 
ATOM     56  H   UNL A   1      43.967  28.479  30.827  1.00  0.00     0.167 HD
ATOM     57  C   UNL A   1      45.493  26.104  30.544  1.00  0.00     0.074 A 
ATOM     58  C   UNL A   1      45.880  24.760  30.166  1.00  0.00     0.031 C 
ATOM     59  C   UNL A   1      46.267  26.944  31.274  1.00  0.00     0.031 A 
BRANCH  46  60
ATOM     60  C   UNL A   1      43.685  32.462  32.356  1.00  0.00    -0.014 A 
ATOM     61  C   UNL A   1      44.167  33.541  31.593  1.00  0.00     0.010 A 
ATOM     62  C   UNL A   1      43.294  32.690  33.688  1.00  0.00     0.010 A 
ATOM     63  C   UNL A   1      44.301  34.810  32.163  1.00  0.00     0.020 A 
ATOM     64  C   UNL A   1      43.398  33.965  34.254  1.00  0.00     0.020 A 
ATOM     65  C   UNL A   1      43.919  35.013  33.492  1.00  0.00     0.054 A 
BRANCH  65  66
ATOM     66  S   UNL A   1      44.090  36.673  34.203  1.00  0.00     0.124 S 
ATOM     67  O   UNL A   1      42.829  37.299  33.810  1.00  0.00    -0.237 OA
ATOM     68  O   UNL A   1      44.236  36.399  35.630  1.00  0.00    -0.237 OA
ATOM     69  O   UNL A   1      45.281  37.210  33.549  1.00  0.00    -0.744 OA
ENDBRANCH  65  66
ENDBRANCH  46  60
BRANCH  47  70
ATOM     70  C   UNL A   1      42.460  23.540  28.014  1.00  0.00    -0.014 A 
ATOM     71  C   UNL A   1      42.965  23.314  26.721  1.00  0.00     0.010 A 
ATOM     72  C   UNL A   1      41.803  22.491  28.683  1.00  0.00     0.010 A 
ATOM     73  C   UNL A   1      42.802  22.071  26.102  1.00  0.00     0.020 A 
ATOM     74  C   UNL A   1      41.662  21.239  28.079  1.00  0.00     0.020 A 
ATOM     75  C   UNL A   1      42.153  21.040  26.787  1.00  0.00     0.054 A 
BRANCH  75  76
ATOM     76  S   UNL A   1      41.999  19.419  25.986  1.00  0.00     0.124 S 
ATOM     77  O   UNL A   1      42.487  18.519  27.025  1.00  0.00    -0.237 OA
ATOM     78  O   UNL A   1      40.568  19.342  25.703  1.00  0.00    -0.237 OA
ATOM     79  O   UNL A   1      42.854  19.539  24.807  1.00  0.00    -0.744 OA
ENDBRANCH  75  76
ENDBRANCH  47  70
BRANCH  59  80
ATOM     80  C   UNL A   1      47.598  26.420  31.744  1.00  0.00    -0.014 A 
ATOM     81  C   UNL A   1      47.716  25.681  32.934  1.00  0.00     0.010 A 
ATOM     82  C   UNL A   1      48.745  26.647  30.960  1.00  0.00     0.010 A 
ATOM     83  C   UNL A   1      48.964  25.214  33.354  1.00  0.00     0.020 A 
ATOM     84  C   UNL A   1      49.990  26.156  31.363  1.00  0.00     0.020 A 
ATOM     85  C   UNL A   1      50.094  25.458  32.567  1.00  0.00     0.054 A 
BRANCH  85  86
ATOM     86  S   UNL A   1      51.700  24.822  33.120  1.00  0.00     0.124 S 
ATOM     87  O   UNL A   1      51.439  24.519  34.525  1.00  0.00    -0.237 OA
ATOM     88  O   UNL A   1      51.902  23.662  32.255  1.00  0.00    -0.237 OA
ATOM     89  O   UNL A   1      52.615  25.935  32.881  1.00  0.00    -0.744 OA
ENDBRANCH  85  86
ENDBRANCH  59  80
ENDBRANCH  33  34
ENDBRANCH  25  28
ENDBRANCH  23  24
ENDBRANCH  22  23
ENDBRANCH   1  22
TORSDOF 17
ENDMDL
MODEL 2
REMARK VINA RESULT:     -10.4      2.134      4.129
REMARK SMILES CN(CC(=O)NCCCNC(=O)c1ccc(-c2c3nc(c(-c4ccc(S(=O)(=O)[O-])cc4)c4ccc([nH]4)c(-c4ccc(S(=O)(=O)[O-])cc4)c4nc(c(-c5ccc(S(=O)(=O)[O-])cc5)c5ccc2[nH]5)C=C4)C=C3)cc1)C(=O)N[C@@H]1C[C@H]1c1ccccc1
REMARK SMILES IDX 7 1 6 2 4 3 5 4 3 6 2 7 1 8 73 9 74 10 75 11 76 13 77 14
REMARK SMILES IDX 78 15 79 16 80 17 84 18 81 19 83 20 82 21 8 22 9 23 10 24
REMARK SMILES IDX 11 25 12 27 13 28 14 29 72 30 15 31 71 32 16 33 17 34 18 35
REMARK SMILES IDX 65 36 19 37 70 38 64 39 66 40 20 41 69 42 63 43 62 44 21 46
REMARK SMILES IDX 51 47 32 48 50 49 33 50 36 51 49 52 67 53 34 54 35 55 48 57
REMARK SMILES IDX 68 58 37 59 22 60 23 61 31 62 24 63 30 64 25 65 26 66 27 67
REMARK SMILES IDX 28 68 29 69 52 70 53 71 61 72 54 73 60 74 55 75 56 76 57 77
REMARK SMILES IDX 58 78 59 79 38 80 39 81 47 82 40 83 46 84 41 85 42 86 43 87
REMARK SMILES IDX 44 88 45 89
REMARK H PARENT 6 5 75 12 10 26 66 45 36 56
REMARK Flexibility Score: inf
ROOT
ATOM      1  C   UNL A   1      33.341  29.067  24.918  1.00  0.00     0.117 C 
ENDROOT
BRANCH   1   2
ATOM      2  N   UNL A   1      34.022  29.011  23.643  1.00  0.00    -0.354 N 
ATOM      3  C   UNL A   1      34.012  28.009  22.718  1.00  0.00     0.239 C 
ATOM      4  O   UNL A   1      34.328  28.304  21.562  1.00  0.00    -0.273 OA
ATOM      5  H   UNL A   1      34.563  29.800  23.413  1.00  0.00     0.163 HD
BRANCH   3   6
ATOM      6  C   UNL A   1      33.462  26.620  23.060  1.00  0.00     0.220 C 
BRANCH   6   7
ATOM      7  N   UNL A   1      32.287  26.175  22.307  1.00  0.00    -0.319 N 
ATOM      8  C   UNL A   1      32.521  25.669  20.958  1.00  0.00     0.149 C 
BRANCH   7   9
ATOM      9  C   UNL A   1      31.005  26.017  22.769  1.00  0.00     0.317 C 
ATOM     10  O   UNL A   1      30.571  24.897  23.065  1.00  0.00    -0.249 OA
ATOM     11  N   UNL A   1      30.137  27.039  22.943  1.00  0.00    -0.335 N 
ATOM     12  H   UNL A   1      29.242  26.733  23.218  1.00  0.00     0.165 HD
BRANCH  11  13
ATOM     13  C   UNL A   1      30.217  28.455  22.820  1.00  0.00     0.092 C 
ATOM     14  C   UNL A   1      30.338  29.344  24.021  1.00  0.00     0.036 C 
ATOM     15  C   UNL A   1      29.042  29.322  23.262  1.00  0.00     0.044 C 
BRANCH  15  16
ATOM     16  C   UNL A   1      28.624  30.537  22.464  1.00  0.00    -0.043 A 
ATOM     17  C   UNL A   1      28.186  30.431  21.131  1.00  0.00     0.004 A 
ATOM     18  C   UNL A   1      28.701  31.828  23.011  1.00  0.00     0.004 A 
ATOM     19  C   UNL A   1      27.826  31.554  20.383  1.00  0.00     0.000 A 
ATOM     20  C   UNL A   1      28.352  32.959  22.265  1.00  0.00     0.000 A 
ATOM     21  C   UNL A   1      27.912  32.821  20.951  1.00  0.00     0.000 A 
ENDBRANCH  15  16
ENDBRANCH  11  13
ENDBRANCH   7   9
ENDBRANCH   6   7
ENDBRANCH   3   6
ENDBRANCH   1   2
BRANCH   1  22
ATOM     22  C   UNL A   1      33.754  27.954  25.870  1.00  0.00     0.042 C 
BRANCH  22  23
ATOM     23  C   UNL A   1      33.580  28.292  27.348  1.00  0.00     0.118 C 
BRANCH  23  24
ATOM     24  N   UNL A   1      33.520  29.727  27.598  1.00  0.00    -0.352 N 
ATOM     25  C   UNL A   1      34.432  30.578  28.165  1.00  0.00     0.251 C 
ATOM     26  H   UNL A   1      32.683  30.158  27.310  1.00  0.00     0.163 HD
ATOM     27  O   UNL A   1      34.075  31.720  28.459  1.00  0.00    -0.269 OA
BRANCH  25  28
ATOM     28  C   UNL A   1      35.821  30.149  28.434  1.00  0.00     0.039 A 
ATOM     29  C   UNL A   1      36.760  30.225  27.400  1.00  0.00     0.014 A 
ATOM     30  C   UNL A   1      36.194  29.625  29.674  1.00  0.00     0.014 A 
ATOM     31  C   UNL A   1      38.081  29.830  27.630  1.00  0.00     0.010 A 
ATOM     32  C   UNL A   1      37.528  29.309  29.925  1.00  0.00     0.010 A 
ATOM     33  C   UNL A   1      38.483  29.398  28.904  1.00  0.00    -0.014 A 
BRANCH  33  34
ATOM     34  C   UNL A   1      39.896  29.033  29.180  1.00  0.00     0.031 A 
ATOM     35  C   UNL A   1      40.834  30.033  29.803  1.00  0.00     0.074 A 
ATOM     36  C   UNL A   1      40.349  27.815  28.821  1.00  0.00     0.049 A 
ATOM     37  N   UNL A   1      42.106  29.905  30.086  1.00  0.00    -0.248 NA
ATOM     38  C   UNL A   1      40.279  31.357  30.127  1.00  0.00     0.031 C 
ATOM     39  C   UNL A   1      39.552  26.772  28.169  1.00  0.00     0.029 A 
ATOM     40  N   UNL A   1      41.591  27.247  28.953  1.00  0.00    -0.354 N 
ATOM     41  C   UNL A   1      42.504  31.133  30.605  1.00  0.00     0.074 A 
ATOM     42  C   UNL A   1      41.353  32.007  30.549  1.00  0.00     0.031 C 
ATOM     43  C   UNL A   1      40.316  25.684  27.988  1.00  0.00     0.029 A 
ATOM     44  C   UNL A   1      41.663  25.960  28.475  1.00  0.00     0.049 A 
ATOM     45  H   UNL A   1      42.359  27.717  29.352  1.00  0.00     0.167 HD
ATOM     46  C   UNL A   1      43.712  31.494  31.101  1.00  0.00     0.031 A 
ATOM     47  C   UNL A   1      42.697  25.097  28.431  1.00  0.00     0.031 A 
ATOM     48  C   UNL A   1      44.852  30.619  31.164  1.00  0.00     0.049 A 
ATOM     49  C   UNL A   1      44.026  25.520  28.993  1.00  0.00     0.074 A 
ATOM     50  C   UNL A   1      46.105  30.874  31.695  1.00  0.00     0.029 A 
ATOM     51  N   UNL A   1      44.879  29.318  30.682  1.00  0.00    -0.354 N 
ATOM     52  N   UNL A   1      44.366  26.666  29.534  1.00  0.00    -0.248 NA
ATOM     53  C   UNL A   1      45.107  24.525  28.954  1.00  0.00     0.031 C 
ATOM     54  C   UNL A   1      46.904  29.743  31.493  1.00  0.00     0.029 A 
ATOM     55  C   UNL A   1      46.132  28.764  30.887  1.00  0.00     0.049 A 
ATOM     56  H   UNL A   1      44.120  28.858  30.257  1.00  0.00     0.167 HD
ATOM     57  C   UNL A   1      45.692  26.519  29.926  1.00  0.00     0.074 A 
ATOM     58  C   UNL A   1      46.085  25.170  29.573  1.00  0.00     0.031 C 
ATOM     59  C   UNL A   1      46.508  27.420  30.527  1.00  0.00     0.031 A 
BRANCH  46  60
ATOM     60  C   UNL A   1      43.857  32.904  31.613  1.00  0.00    -0.014 A 
ATOM     61  C   UNL A   1      43.841  34.002  30.734  1.00  0.00     0.010 A 
ATOM     62  C   UNL A   1      43.982  33.140  32.995  1.00  0.00     0.010 A 
ATOM     63  C   UNL A   1      43.993  35.303  31.220  1.00  0.00     0.020 A 
ATOM     64  C   UNL A   1      44.104  34.442  33.488  1.00  0.00     0.020 A 
ATOM     65  C   UNL A   1      44.129  35.515  32.595  1.00  0.00     0.054 A 
BRANCH  65  66
ATOM     66  S   UNL A   1      44.310  37.215  33.200  1.00  0.00     0.124 S 
ATOM     67  O   UNL A   1      45.329  37.059  34.236  1.00  0.00    -0.237 OA
ATOM     68  O   UNL A   1      44.736  37.938  32.005  1.00  0.00    -0.237 OA
ATOM     69  O   UNL A   1      42.975  37.555  33.687  1.00  0.00    -0.744 OA
ENDBRANCH  65  66
ENDBRANCH  46  60
BRANCH  47  70
ATOM     70  C   UNL A   1      42.504  23.736  27.862  1.00  0.00    -0.014 A 
ATOM     71  C   UNL A   1      42.730  23.497  26.495  1.00  0.00     0.010 A 
ATOM     72  C   UNL A   1      42.107  22.667  28.686  1.00  0.00     0.010 A 
ATOM     73  C   UNL A   1      42.547  22.220  25.958  1.00  0.00     0.020 A 
ATOM     74  C   UNL A   1      41.949  21.383  28.158  1.00  0.00     0.020 A 
ATOM     75  C   UNL A   1      42.160  21.169  26.795  1.00  0.00     0.054 A 
BRANCH  75  76
ATOM     76  S   UNL A   1      41.980  19.508  26.087  1.00  0.00     0.124 S 
ATOM     77  O   UNL A   1      42.862  19.575  24.927  1.00  0.00    -0.237 OA
ATOM     78  O   UNL A   1      42.433  18.649  27.178  1.00  0.00    -0.237 OA
ATOM     79  O   UNL A   1      40.552  19.418  25.786  1.00  0.00    -0.744 OA
ENDBRANCH  75  76
ENDBRANCH  47  70
BRANCH  59  80
ATOM     80  C   UNL A   1      47.900  26.962  30.876  1.00  0.00    -0.014 A 
ATOM     81  C   UNL A   1      48.989  27.212  30.021  1.00  0.00     0.010 A 
ATOM     82  C   UNL A   1      48.124  26.299  32.097  1.00  0.00     0.010 A 
ATOM     83  C   UNL A   1      50.269  26.767  30.362  1.00  0.00     0.020 A 
ATOM     84  C   UNL A   1      49.408  25.879  32.453  1.00  0.00     0.020 A 
ATOM     85  C   UNL A   1      50.469  26.100  31.574  1.00  0.00     0.054 A 
BRANCH  85  86
ATOM     86  S   UNL A   1      52.144  25.554  32.007  1.00  0.00     0.124 S 
ATOM     87  O   UNL A   1      52.896  25.898  30.803  1.00  0.00    -0.237 OA
ATOM     88  O   UNL A   1      52.449  26.356  33.189  1.00  0.00    -0.237 OA
ATOM     89  O   UNL A   1      51.988  24.123  32.257  1.00  0.00    -0.744 OA
ENDBRANCH  85  86
ENDBRANCH  59  80
ENDBRANCH  33  34
ENDBRANCH  25  28
ENDBRANCH  23  24
ENDBRANCH  22  23
ENDBRANCH   1  22
TORSDOF 17
ENDMDL
MODEL 3
REMARK VINA RESULT:     -10.1      3.953      5.234
REMARK SMILES CN(CC(=O)NCCCNC(=O)c1ccc(-c2c3nc(c(-c4ccc(S(=O)(=O)[O-])cc4)c4ccc([nH]4)c(-c4ccc(S(=O)(=O)[O-])cc4)c4nc(c(-c5ccc(S(=O)(=O)[O-])cc5)c5ccc2[nH]5)C=C4)C=C3)cc1)C(=O)N[C@@H]1C[C@H]1c1ccccc1
REMARK SMILES IDX 7 1 6 2 4 3 5 4 3 6 2 7 1 8 73 9 74 10 75 11 76 13 77 14
REMARK SMILES IDX 78 15 79 16 80 17 84 18 81 19 83 20 82 21 8 22 9 23 10 24
REMARK SMILES IDX 11 25 12 27 13 28 14 29 72 30 15 31 71 32 16 33 17 34 18 35
REMARK SMILES IDX 65 36 19 37 70 38 64 39 66 40 20 41 69 42 63 43 62 44 21 46
REMARK SMILES IDX 51 47 32 48 50 49 33 50 36 51 49 52 67 53 34 54 35 55 48 57
REMARK SMILES IDX 68 58 37 59 22 60 23 61 31 62 24 63 30 64 25 65 26 66 27 67
REMARK SMILES IDX 28 68 29 69 52 70 53 71 61 72 54 73 60 74 55 75 56 76 57 77
REMARK SMILES IDX 58 78 59 79 38 80 39 81 47 82 40 83 46 84 41 85 42 86 43 87
REMARK SMILES IDX 44 88 45 89
REMARK H PARENT 6 5 75 12 10 26 66 45 36 56
REMARK Flexibility Score: inf
ROOT
ATOM      1  C   UNL A   1      31.649  30.879  26.237  1.00  0.00     0.117 C 
ENDROOT
BRANCH   1   2
ATOM      2  N   UNL A   1      32.818  30.127  26.639  1.00  0.00    -0.354 N 
ATOM      3  C   UNL A   1      33.381  29.044  26.032  1.00  0.00     0.239 C 
ATOM      4  O   UNL A   1      34.560  28.794  26.301  1.00  0.00    -0.273 OA
ATOM      5  H   UNL A   1      33.266  30.439  27.458  1.00  0.00     0.163 HD
BRANCH   3   6
ATOM      6  C   UNL A   1      32.638  28.276  24.933  1.00  0.00     0.220 C 
BRANCH   6   7
ATOM      7  N   UNL A   1      31.557  27.388  25.368  1.00  0.00    -0.319 N 
ATOM      8  C   UNL A   1      30.660  26.885  24.334  1.00  0.00     0.149 C 
BRANCH   7   9
ATOM      9  C   UNL A   1      31.378  26.831  26.609  1.00  0.00     0.317 C 
ATOM     10  O   UNL A   1      31.026  27.524  27.571  1.00  0.00    -0.249 OA
ATOM     11  N   UNL A   1      31.555  25.517  26.876  1.00  0.00    -0.335 N 
ATOM     12  H   UNL A   1      31.447  25.306  27.832  1.00  0.00     0.165 HD
BRANCH  11  13
ATOM     13  C   UNL A   1      31.862  24.368  26.094  1.00  0.00     0.092 C 
ATOM     14  C   UNL A   1      31.023  23.126  26.154  1.00  0.00     0.036 C 
ATOM     15  C   UNL A   1      32.391  23.108  26.774  1.00  0.00     0.044 C 
BRANCH  15  16
ATOM     16  C   UNL A   1      33.486  22.279  26.139  1.00  0.00    -0.043 A 
ATOM     17  C   UNL A   1      33.209  21.060  25.492  1.00  0.00     0.004 A 
ATOM     18  C   UNL A   1      34.830  22.676  26.209  1.00  0.00     0.004 A 
ATOM     19  C   UNL A   1      34.221  20.280  24.929  1.00  0.00     0.000 A 
ATOM     20  C   UNL A   1      35.851  21.894  25.655  1.00  0.00     0.000 A 
ATOM     21  C   UNL A   1      35.545  20.698  25.013  1.00  0.00     0.000 A 
ENDBRANCH  15  16
ENDBRANCH  11  13
ENDBRANCH   7   9
ENDBRANCH   6   7
ENDBRANCH   3   6
ENDBRANCH   1   2
BRANCH   1  22
ATOM     22  C   UNL A   1      31.590  32.271  26.850  1.00  0.00     0.042 C 
BRANCH  22  23
ATOM     23  C   UNL A   1      32.926  32.785  27.378  1.00  0.00     0.118 C 
BRANCH  23  24
ATOM     24  N   UNL A   1      32.891  34.199  27.729  1.00  0.00    -0.352 N 
ATOM     25  C   UNL A   1      33.561  34.901  28.697  1.00  0.00     0.251 C 
ATOM     26  H   UNL A   1      32.283  34.742  27.177  1.00  0.00     0.163 HD
ATOM     27  O   UNL A   1      33.213  36.057  28.940  1.00  0.00    -0.269 OA
BRANCH  25  28
ATOM     28  C   UNL A   1      34.678  34.294  29.452  1.00  0.00     0.039 A 
ATOM     29  C   UNL A   1      34.387  33.555  30.604  1.00  0.00     0.014 A 
ATOM     30  C   UNL A   1      36.006  34.487  29.068  1.00  0.00     0.014 A 
ATOM     31  C   UNL A   1      35.425  32.967  31.333  1.00  0.00     0.010 A 
ATOM     32  C   UNL A   1      37.032  33.833  29.748  1.00  0.00     0.010 A 
ATOM     33  C   UNL A   1      36.753  33.074  30.893  1.00  0.00    -0.014 A 
BRANCH  33  34
ATOM     34  C   UNL A   1      37.860  32.404  31.622  1.00  0.00     0.031 A 
ATOM     35  C   UNL A   1      38.308  32.917  32.965  1.00  0.00     0.074 A 
ATOM     36  C   UNL A   1      38.497  31.363  31.049  1.00  0.00     0.049 A 
ATOM     37  N   UNL A   1      39.277  32.483  33.732  1.00  0.00    -0.248 NA
ATOM     38  C   UNL A   1      37.594  34.084  33.506  1.00  0.00     0.031 C 
ATOM     39  C   UNL A   1      38.188  30.799  29.733  1.00  0.00     0.029 A 
ATOM     40  N   UNL A   1      39.539  30.592  31.502  1.00  0.00    -0.354 N 
ATOM     41  C   UNL A   1      39.297  33.331  34.833  1.00  0.00     0.074 A 
ATOM     42  C   UNL A   1      38.280  34.335  34.611  1.00  0.00     0.031 C 
ATOM     43  C   UNL A   1      38.999  29.755  29.500  1.00  0.00     0.029 A 
ATOM     44  C   UNL A   1      39.909  29.597  30.629  1.00  0.00     0.049 A 
ATOM     45  H   UNL A   1      39.981  30.739  32.370  1.00  0.00     0.167 HD
ATOM     46  C   UNL A   1      40.077  33.269  35.940  1.00  0.00     0.031 A 
ATOM     47  C   UNL A   1      40.874  28.661  30.724  1.00  0.00     0.031 A 
ATOM     48  C   UNL A   1      41.081  32.264  36.163  1.00  0.00     0.049 A 
ATOM     49  C   UNL A   1      41.722  28.610  31.963  1.00  0.00     0.074 A 
ATOM     50  C   UNL A   1      41.889  32.085  37.272  1.00  0.00     0.029 A 
ATOM     51  N   UNL A   1      41.415  31.265  35.259  1.00  0.00    -0.354 N 
ATOM     52  N   UNL A   1      41.686  29.385  33.021  1.00  0.00    -0.248 NA
ATOM     53  C   UNL A   1      42.733  27.545  32.029  1.00  0.00     0.031 C 
ATOM     54  C   UNL A   1      42.744  31.005  37.021  1.00  0.00     0.029 A 
ATOM     55  C   UNL A   1      42.429  30.477  35.779  1.00  0.00     0.049 A 
ATOM     56  H   UNL A   1      40.994  31.136  34.379  1.00  0.00     0.167 HD
ATOM     57  C   UNL A   1      42.649  28.883  33.891  1.00  0.00     0.074 A 
ATOM     58  C   UNL A   1      43.238  27.730  33.241  1.00  0.00     0.031 C 
ATOM     59  C   UNL A   1      43.008  29.335  35.118  1.00  0.00     0.031 A 
BRANCH  46  60
ATOM     60  C   UNL A   1      39.872  34.327  36.993  1.00  0.00    -0.014 A 
ATOM     61  C   UNL A   1      39.013  34.108  38.086  1.00  0.00     0.010 A 
ATOM     62  C   UNL A   1      40.570  35.546  36.910  1.00  0.00     0.010 A 
ATOM     63  C   UNL A   1      38.818  35.104  39.047  1.00  0.00     0.020 A 
ATOM     64  C   UNL A   1      40.402  36.533  37.885  1.00  0.00     0.020 A 
ATOM     65  C   UNL A   1      39.511  36.313  38.938  1.00  0.00     0.054 A 
BRANCH  65  66
ATOM     66  S   UNL A   1      39.252  37.582  40.208  1.00  0.00     0.124 S 
ATOM     67  O   UNL A   1      40.556  38.239  40.247  1.00  0.00    -0.237 OA
ATOM     68  O   UNL A   1      38.164  38.379  39.648  1.00  0.00    -0.237 OA
ATOM     69  O   UNL A   1      38.908  36.813  41.402  1.00  0.00    -0.744 OA
ENDBRANCH  65  66
ENDBRANCH  46  60
BRANCH  47  70
ATOM     70  C   UNL A   1      41.063  27.678  29.624  1.00  0.00    -0.014 A 
ATOM     71  C   UNL A   1      40.122  26.655  29.413  1.00  0.00     0.010 A 
ATOM     72  C   UNL A   1      42.178  27.766  28.770  1.00  0.00     0.010 A 
ATOM     73  C   UNL A   1      40.299  25.729  28.381  1.00  0.00     0.020 A 
ATOM     74  C   UNL A   1      42.345  26.858  27.721  1.00  0.00     0.020 A 
ATOM     75  C   UNL A   1      41.410  25.838  27.539  1.00  0.00     0.054 A 
BRANCH  75  76
ATOM     76  S   UNL A   1      41.592  24.657  26.173  1.00  0.00     0.124 S 
ATOM     77  O   UNL A   1      40.411  23.817  26.338  1.00  0.00    -0.237 OA
ATOM     78  O   UNL A   1      41.591  25.528  25.001  1.00  0.00    -0.237 OA
ATOM     79  O   UNL A   1      42.870  24.006  26.454  1.00  0.00    -0.744 OA
ENDBRANCH  75  76
ENDBRANCH  47  70
BRANCH  59  80
ATOM     80  C   UNL A   1      44.065  28.556  35.855  1.00  0.00    -0.014 A 
ATOM     81  C   UNL A   1      43.732  27.466  36.678  1.00  0.00     0.010 A 
ATOM     82  C   UNL A   1      45.419  28.904  35.692  1.00  0.00     0.010 A 
ATOM     83  C   UNL A   1      44.730  26.765  37.359  1.00  0.00     0.020 A 
ATOM     84  C   UNL A   1      46.422  28.187  36.350  1.00  0.00     0.020 A 
ATOM     85  C   UNL A   1      46.069  27.134  37.194  1.00  0.00     0.054 A 
BRANCH  85  86
ATOM     86  S   UNL A   1      47.350  26.194  38.070  1.00  0.00     0.124 S 
ATOM     87  O   UNL A   1      46.748  26.017  39.388  1.00  0.00    -0.237 OA
ATOM     88  O   UNL A   1      47.468  24.982  37.264  1.00  0.00    -0.237 OA
ATOM     89  O   UNL A   1      48.514  27.076  38.029  1.00  0.00    -0.744 OA
ENDBRANCH  85  86
ENDBRANCH  59  80
ENDBRANCH  33  34
ENDBRANCH  25  28
ENDBRANCH  23  24
ENDBRANCH  22  23
ENDBRANCH   1  22
TORSDOF 17
ENDMDL
