MODEL 1
REMARK VINA RESULT:      -9.2      0.000      0.000
REMARK SMILES Cc1nc(-c2ccc(C(F)(F)F)cc2)nc(SCC(=O)NCCCNC(=O)c2ccc(-c3c4nc(c(-c5ccc(S(=O)(=O)[O-])cc5)c5ccc([nH]5)c(-c5ccc(S(=O)(=O)[O-])cc5)c5nc(c(-c6ccc(S(=O)(=O)[O-])cc6)c6ccc3[nH]6)C=C5)C=C4)cc2)c1C
REMARK SMILES IDX 22 1 21 2 19 3 20 4 18 6 17 7 16 8 1 9 2 10 3 11 88 12 4 13
REMARK SMILES IDX 89 14 15 15 5 16 6 17 14 18 7 19 13 20 8 21 9 22 10 23 11 24
REMARK SMILES IDX 12 25 23 26 24 27 25 28 26 29 27 31 28 32 29 33 87 34 30 35
REMARK SMILES IDX 86 36 31 37 32 38 33 39 80 40 34 41 85 42 79 43 81 44 35 45
REMARK SMILES IDX 84 46 78 47 77 48 36 50 66 51 47 52 65 53 48 54 51 55 64 56
REMARK SMILES IDX 82 57 49 58 50 59 63 61 83 62 52 63 37 64 38 65 46 66 39 67
REMARK SMILES IDX 45 68 40 69 41 70 42 71 43 72 44 73 67 74 68 75 76 76 69 77
REMARK SMILES IDX 75 78 70 79 71 80 72 81 73 82 74 83 53 84 54 85 62 86 55 87
REMARK SMILES IDX 61 88 56 89 57 90 58 91 59 92 60 93
REMARK H PARENT 21 5 25 30 81 49 51 60
REMARK Flexibility Score: inf
ROOT
ATOM      1  C   UNL A   1      42.607  21.415  25.767  1.00  0.00     0.117 C 
ENDROOT
BRANCH   1   2
ATOM      2  N   UNL A   1      44.053  21.391  25.886  1.00  0.00    -0.355 N 
ATOM      3  C   UNL A   1      44.967  22.351  25.586  1.00  0.00     0.230 C 
ATOM      4  O   UNL A   1      46.118  22.177  26.001  1.00  0.00    -0.274 OA
ATOM      5  H   UNL A   1      44.429  20.553  26.239  1.00  0.00     0.163 HD
BRANCH   3   6
ATOM      6  C   UNL A   1      44.587  23.638  24.885  1.00  0.00     0.176 C 
BRANCH   6   7
ATOM      7  S   UNL A   1      44.463  25.115  25.922  1.00  0.00    -0.096 SA
BRANCH   7   8
ATOM      8  C   UNL A   1      45.790  26.273  25.644  1.00  0.00     0.104 A 
ATOM      9  C   UNL A   1      49.199  27.327  24.393  1.00  0.00     0.067 C 
ATOM     10  C   UNL A   1      47.816  27.300  24.982  1.00  0.00     0.045 A 
ATOM     11  N   UNL A   1      47.376  28.500  25.394  1.00  0.00    -0.233 NA
ATOM     12  C   UNL A   1      47.062  26.122  25.096  1.00  0.00     0.003 A 
ATOM     13  C   UNL A   1      46.166  28.543  25.952  1.00  0.00     0.160 A 
ATOM     14  C   UNL A   1      47.641  24.853  24.567  1.00  0.00     0.049 C 
ATOM     15  N   UNL A   1      45.369  27.481  26.100  1.00  0.00    -0.221 NA
BRANCH  13  16
ATOM     16  C   UNL A   1      45.714  29.849  26.438  1.00  0.00     0.019 A 
ATOM     17  C   UNL A   1      46.633  30.899  26.618  1.00  0.00     0.012 A 
ATOM     18  C   UNL A   1      44.376  30.080  26.794  1.00  0.00     0.012 A 
ATOM     19  C   UNL A   1      46.236  32.126  27.157  1.00  0.00     0.014 A 
ATOM     20  C   UNL A   1      43.978  31.302  27.351  1.00  0.00     0.014 A 
ATOM     21  C   UNL A   1      44.906  32.334  27.547  1.00  0.00     0.056 A 
BRANCH  21  22
ATOM     22  C   UNL A   1      44.509  33.645  28.183  1.00  0.00     0.416 C 
ATOM     23  F   UNL A   1      44.467  34.664  27.277  1.00  0.00    -0.166 F 
ATOM     24  F   UNL A   1      43.276  33.601  28.754  1.00  0.00    -0.166 F 
ATOM     25  F   UNL A   1      45.366  34.058  29.158  1.00  0.00    -0.166 F 
ENDBRANCH  21  22
ENDBRANCH  13  16
ENDBRANCH   7   8
ENDBRANCH   6   7
ENDBRANCH   3   6
ENDBRANCH   1   2
BRANCH   1  26
ATOM     26  C   UNL A   1      41.931  22.164  26.910  1.00  0.00     0.042 C 
BRANCH  26  27
ATOM     27  C   UNL A   1      40.597  21.570  27.355  1.00  0.00     0.118 C 
BRANCH  27  28
ATOM     28  N   UNL A   1      39.507  21.870  26.436  1.00  0.00    -0.352 N 
ATOM     29  C   UNL A   1      38.803  23.032  26.236  1.00  0.00     0.251 C 
ATOM     30  H   UNL A   1      39.230  21.118  25.866  1.00  0.00     0.163 HD
ATOM     31  O   UNL A   1      37.789  23.007  25.545  1.00  0.00    -0.269 OA
BRANCH  29  32
ATOM     32  C   UNL A   1      39.243  24.302  26.855  1.00  0.00     0.039 A 
ATOM     33  C   UNL A   1      38.865  24.575  28.173  1.00  0.00     0.014 A 
ATOM     34  C   UNL A   1      39.988  25.241  26.137  1.00  0.00     0.014 A 
ATOM     35  C   UNL A   1      39.290  25.756  28.789  1.00  0.00     0.010 A 
ATOM     36  C   UNL A   1      40.475  26.380  26.774  1.00  0.00     0.010 A 
ATOM     37  C   UNL A   1      40.127  26.653  28.106  1.00  0.00    -0.014 A 
BRANCH  37  38
ATOM     38  C   UNL A   1      40.632  27.887  28.760  1.00  0.00     0.031 A 
ATOM     39  C   UNL A   1      42.067  27.967  29.213  1.00  0.00     0.074 A 
ATOM     40  C   UNL A   1      39.796  28.923  28.975  1.00  0.00     0.049 A 
ATOM     41  N   UNL A   1      42.676  28.932  29.851  1.00  0.00    -0.248 NA
ATOM     42  C   UNL A   1      42.926  26.804  28.925  1.00  0.00     0.031 C 
ATOM     43  C   UNL A   1      38.383  28.966  28.591  1.00  0.00     0.029 A 
ATOM     44  N   UNL A   1      40.014  30.144  29.563  1.00  0.00    -0.354 N 
ATOM     45  C   UNL A   1      43.984  28.498  30.036  1.00  0.00     0.074 A 
ATOM     46  C   UNL A   1      44.067  27.159  29.497  1.00  0.00     0.031 C 
ATOM     47  C   UNL A   1      37.873  30.165  28.918  1.00  0.00     0.029 A 
ATOM     48  C   UNL A   1      38.905  30.959  29.577  1.00  0.00     0.049 A 
ATOM     49  H   UNL A   1      40.883  30.412  29.941  1.00  0.00     0.167 HD
ATOM     50  C   UNL A   1      45.029  29.166  30.579  1.00  0.00     0.031 A 
ATOM     51  C   UNL A   1      38.737  32.203  30.068  1.00  0.00     0.031 A 
ATOM     52  C   UNL A   1      44.950  30.502  31.105  1.00  0.00     0.049 A 
ATOM     53  C   UNL A   1      39.904  32.893  30.727  1.00  0.00     0.074 A 
ATOM     54  C   UNL A   1      45.961  31.268  31.660  1.00  0.00     0.029 A 
ATOM     55  N   UNL A   1      43.801  31.276  31.132  1.00  0.00    -0.354 N 
ATOM     56  N   UNL A   1      41.139  32.473  30.867  1.00  0.00    -0.248 NA
ATOM     57  C   UNL A   1      39.653  34.227  31.289  1.00  0.00     0.031 C 
ATOM     58  C   UNL A   1      45.413  32.486  32.066  1.00  0.00     0.029 A 
ATOM     59  C   UNL A   1      44.074  32.504  31.711  1.00  0.00     0.049 A 
ATOM     60  H   UNL A   1      42.922  30.995  30.790  1.00  0.00     0.167 HD
ATOM     61  C   UNL A   1      41.817  33.505  31.507  1.00  0.00     0.074 A 
ATOM     62  C   UNL A   1      40.862  34.575  31.709  1.00  0.00     0.031 C 
ATOM     63  C   UNL A   1      43.114  33.561  31.896  1.00  0.00     0.031 A 
BRANCH  50  64
ATOM     64  C   UNL A   1      46.367  28.475  30.610  1.00  0.00    -0.014 A 
ATOM     65  C   UNL A   1      46.724  27.660  31.699  1.00  0.00     0.010 A 
ATOM     66  C   UNL A   1      47.233  28.561  29.506  1.00  0.00     0.010 A 
ATOM     67  C   UNL A   1      47.928  26.953  31.689  1.00  0.00     0.020 A 
ATOM     68  C   UNL A   1      48.428  27.835  29.480  1.00  0.00     0.020 A 
ATOM     69  C   UNL A   1      48.769  27.039  30.575  1.00  0.00     0.054 A 
BRANCH  69  70
ATOM     70  S   UNL A   1      50.291  26.052  30.565  1.00  0.00     0.124 S 
ATOM     71  O   UNL A   1      50.283  25.497  29.214  1.00  0.00    -0.237 OA
ATOM     72  O   UNL A   1      51.321  27.055  30.826  1.00  0.00    -0.237 OA
ATOM     73  O   UNL A   1      50.084  25.081  31.637  1.00  0.00    -0.744 OA
ENDBRANCH  69  70
ENDBRANCH  50  64
BRANCH  51  74
ATOM     74  C   UNL A   1      37.422  32.893  29.949  1.00  0.00    -0.014 A 
ATOM     75  C   UNL A   1      36.429  32.699  30.925  1.00  0.00     0.010 A 
ATOM     76  C   UNL A   1      37.142  33.722  28.847  1.00  0.00     0.010 A 
ATOM     77  C   UNL A   1      35.171  33.293  30.786  1.00  0.00     0.020 A 
ATOM     78  C   UNL A   1      35.896  34.344  28.721  1.00  0.00     0.020 A 
ATOM     79  C   UNL A   1      34.912  34.110  29.684  1.00  0.00     0.054 A 
BRANCH  79  80
ATOM     80  S   UNL A   1      33.275  34.879  29.535  1.00  0.00     0.124 S 
ATOM     81  O   UNL A   1      32.590  33.962  28.630  1.00  0.00    -0.237 OA
ATOM     82  O   UNL A   1      32.801  34.878  30.916  1.00  0.00    -0.237 OA
ATOM     83  O   UNL A   1      33.566  36.201  28.985  1.00  0.00    -0.744 OA
ENDBRANCH  79  80
ENDBRANCH  51  74
BRANCH  63  84
ATOM     84  C   UNL A   1      43.592  34.830  32.552  1.00  0.00    -0.014 A 
ATOM     85  C   UNL A   1      44.058  35.911  31.785  1.00  0.00     0.010 A 
ATOM     86  C   UNL A   1      43.504  34.966  33.950  1.00  0.00     0.010 A 
ATOM     87  C   UNL A   1      44.453  37.098  32.406  1.00  0.00     0.020 A 
ATOM     88  C   UNL A   1      43.869  36.161  34.572  1.00  0.00     0.020 A 
ATOM     89  C   UNL A   1      44.352  37.217  33.797  1.00  0.00     0.054 A 
BRANCH  89  90
ATOM     90  S   UNL A   1      44.820  38.790  34.569  1.00  0.00     0.124 S 
ATOM     91  O   UNL A   1      44.400  38.586  35.953  1.00  0.00    -0.237 OA
ATOM     92  O   UNL A   1      46.263  38.836  34.350  1.00  0.00    -0.237 OA
ATOM     93  O   UNL A   1      44.050  39.785  33.827  1.00  0.00    -0.744 OA
ENDBRANCH  89  90
ENDBRANCH  63  84
ENDBRANCH  37  38
ENDBRANCH  29  32
ENDBRANCH  27  28
ENDBRANCH  26  27
ENDBRANCH   1  26
TORSDOF 17
ENDMDL
MODEL 2
REMARK VINA RESULT:      -9.0      5.070      7.817
REMARK SMILES Cc1nc(-c2ccc(C(F)(F)F)cc2)nc(SCC(=O)NCCCNC(=O)c2ccc(-c3c4nc(c(-c5ccc(S(=O)(=O)[O-])cc5)c5ccc([nH]5)c(-c5ccc(S(=O)(=O)[O-])cc5)c5nc(c(-c6ccc(S(=O)(=O)[O-])cc6)c6ccc3[nH]6)C=C5)C=C4)cc2)c1C
REMARK SMILES IDX 22 1 21 2 19 3 20 4 18 6 17 7 16 8 1 9 2 10 3 11 88 12 4 13
REMARK SMILES IDX 89 14 15 15 5 16 6 17 14 18 7 19 13 20 8 21 9 22 10 23 11 24
REMARK SMILES IDX 12 25 23 26 24 27 25 28 26 29 27 31 28 32 29 33 87 34 30 35
REMARK SMILES IDX 86 36 31 37 32 38 33 39 80 40 34 41 85 42 79 43 81 44 35 45
REMARK SMILES IDX 84 46 78 47 77 48 36 50 66 51 47 52 65 53 48 54 51 55 64 56
REMARK SMILES IDX 82 57 49 58 50 59 63 61 83 62 52 63 37 64 38 65 46 66 39 67
REMARK SMILES IDX 45 68 40 69 41 70 42 71 43 72 44 73 67 74 68 75 76 76 69 77
REMARK SMILES IDX 75 78 70 79 71 80 72 81 73 82 74 83 53 84 54 85 62 86 55 87
REMARK SMILES IDX 61 88 56 89 57 90 58 91 59 92 60 93
REMARK H PARENT 21 5 25 30 81 49 51 60
REMARK Flexibility Score: inf
ROOT
ATOM      1  C   UNL A   1      37.410  22.955  25.384  1.00  0.00     0.117 C 
ENDROOT
BRANCH   1   2
ATOM      2  N   UNL A   1      36.719  23.317  24.160  1.00  0.00    -0.355 N 
ATOM      3  C   UNL A   1      35.399  23.232  23.848  1.00  0.00     0.230 C 
ATOM      4  O   UNL A   1      35.025  23.826  22.831  1.00  0.00    -0.274 OA
ATOM      5  H   UNL A   1      37.293  23.682  23.449  1.00  0.00     0.163 HD
BRANCH   3   6
ATOM      6  C   UNL A   1      34.397  22.550  24.755  1.00  0.00     0.176 C 
BRANCH   6   7
ATOM      7  S   UNL A   1      33.732  23.543  26.113  1.00  0.00    -0.096 SA
BRANCH   7   8
ATOM      8  C   UNL A   1      32.709  24.891  25.553  1.00  0.00     0.104 A 
ATOM      9  C   UNL A   1      29.823  26.431  23.658  1.00  0.00     0.067 C 
ATOM     10  C   UNL A   1      31.022  26.199  24.534  1.00  0.00     0.045 A 
ATOM     11  N   UNL A   1      31.469  27.306  25.148  1.00  0.00    -0.233 NA
ATOM     12  C   UNL A   1      31.619  24.939  24.686  1.00  0.00     0.003 A 
ATOM     13  C   UNL A   1      32.548  27.178  25.920  1.00  0.00     0.160 A 
ATOM     14  C   UNL A   1      31.009  23.773  23.985  1.00  0.00     0.049 C 
ATOM     15  N   UNL A   1      33.185  26.022  26.134  1.00  0.00    -0.221 NA
BRANCH  13  16
ATOM     16  C   UNL A   1      33.055  28.400  26.549  1.00  0.00     0.019 A 
ATOM     17  C   UNL A   1      32.212  29.512  26.725  1.00  0.00     0.012 A 
ATOM     18  C   UNL A   1      34.397  28.525  26.941  1.00  0.00     0.012 A 
ATOM     19  C   UNL A   1      32.697  30.714  27.249  1.00  0.00     0.014 A 
ATOM     20  C   UNL A   1      34.891  29.733  27.449  1.00  0.00     0.014 A 
ATOM     21  C   UNL A   1      34.047  30.844  27.599  1.00  0.00     0.056 A 
BRANCH  21  22
ATOM     22  C   UNL A   1      34.566  32.168  28.107  1.00  0.00     0.416 C 
ATOM     23  F   UNL A   1      34.631  32.206  29.468  1.00  0.00    -0.166 F 
ATOM     24  F   UNL A   1      35.821  32.447  27.664  1.00  0.00    -0.166 F 
ATOM     25  F   UNL A   1      33.790  33.229  27.747  1.00  0.00    -0.166 F 
ENDBRANCH  21  22
ENDBRANCH  13  16
ENDBRANCH   7   8
ENDBRANCH   6   7
ENDBRANCH   3   6
ENDBRANCH   1   2
BRANCH   1  26
ATOM     26  C   UNL A   1      37.533  24.119  26.361  1.00  0.00     0.042 C 
BRANCH  26  27
ATOM     27  C   UNL A   1      38.898  24.240  27.033  1.00  0.00     0.118 C 
BRANCH  27  28
ATOM     28  N   UNL A   1      39.913  24.809  26.157  1.00  0.00    -0.352 N 
ATOM     29  C   UNL A   1      40.604  25.993  26.244  1.00  0.00     0.251 C 
ATOM     30  H   UNL A   1      40.142  24.255  25.377  1.00  0.00     0.163 HD
ATOM     31  O   UNL A   1      41.276  26.366  25.287  1.00  0.00    -0.269 OA
BRANCH  29  32
ATOM     32  C   UNL A   1      40.532  26.826  27.465  1.00  0.00     0.039 A 
ATOM     33  C   UNL A   1      39.857  26.325  28.582  1.00  0.00     0.014 A 
ATOM     34  C   UNL A   1      41.085  28.108  27.504  1.00  0.00     0.014 A 
ATOM     35  C   UNL A   1      39.798  27.082  29.756  1.00  0.00     0.010 A 
ATOM     36  C   UNL A   1      41.092  28.829  28.696  1.00  0.00     0.010 A 
ATOM     37  C   UNL A   1      40.444  28.326  29.834  1.00  0.00    -0.014 A 
BRANCH  37  38
ATOM     38  C   UNL A   1      40.436  29.121  31.089  1.00  0.00     0.031 A 
ATOM     39  C   UNL A   1      41.500  28.895  32.131  1.00  0.00     0.074 A 
ATOM     40  C   UNL A   1      39.457  30.024  31.305  1.00  0.00     0.049 A 
ATOM     41  N   UNL A   1      41.629  29.448  33.309  1.00  0.00    -0.248 NA
ATOM     42  C   UNL A   1      42.548  27.908  31.815  1.00  0.00     0.031 C 
ATOM     43  C   UNL A   1      38.365  30.329  30.377  1.00  0.00     0.029 A 
ATOM     44  N   UNL A   1      39.225  30.856  32.371  1.00  0.00    -0.354 N 
ATOM     45  C   UNL A   1      42.768  28.883  33.870  1.00  0.00     0.074 A 
ATOM     46  C   UNL A   1      43.261  27.901  32.931  1.00  0.00     0.031 C 
ATOM     47  C   UNL A   1      37.605  31.307  30.898  1.00  0.00     0.029 A 
ATOM     48  C   UNL A   1      38.124  31.665  32.214  1.00  0.00     0.049 A 
ATOM     49  H   UNL A   1      39.795  30.873  33.174  1.00  0.00     0.167 HD
ATOM     50  C   UNL A   1      43.367  29.177  35.049  1.00  0.00     0.031 A 
ATOM     51  C   UNL A   1      37.589  32.589  33.038  1.00  0.00     0.031 A 
ATOM     52  C   UNL A   1      42.883  30.161  35.979  1.00  0.00     0.049 A 
ATOM     53  C   UNL A   1      38.241  32.844  34.372  1.00  0.00     0.074 A 
ATOM     54  C   UNL A   1      43.432  30.540  37.191  1.00  0.00     0.029 A 
ATOM     55  N   UNL A   1      41.745  30.930  35.797  1.00  0.00    -0.354 N 
ATOM     56  N   UNL A   1      39.333  32.316  34.871  1.00  0.00    -0.248 NA
ATOM     57  C   UNL A   1      37.588  33.824  35.252  1.00  0.00     0.031 C 
ATOM     58  C   UNL A   1      42.601  31.504  37.765  1.00  0.00     0.029 A 
ATOM     59  C   UNL A   1      41.565  31.769  36.884  1.00  0.00     0.049 A 
ATOM     60  H   UNL A   1      41.152  30.887  35.012  1.00  0.00     0.167 HD
ATOM     61  C   UNL A   1      39.513  32.923  36.110  1.00  0.00     0.074 A 
ATOM     62  C   UNL A   1      38.430  33.869  36.276  1.00  0.00     0.031 C 
ATOM     63  C   UNL A   1      40.486  32.712  37.029  1.00  0.00     0.031 A 
BRANCH  50  64
ATOM     64  C   UNL A   1      44.635  28.443  35.396  1.00  0.00    -0.014 A 
ATOM     65  C   UNL A   1      44.584  27.190  36.033  1.00  0.00     0.010 A 
ATOM     66  C   UNL A   1      45.882  28.961  35.002  1.00  0.00     0.010 A 
ATOM     67  C   UNL A   1      45.757  26.473  36.278  1.00  0.00     0.020 A 
ATOM     68  C   UNL A   1      47.056  28.235  35.223  1.00  0.00     0.020 A 
ATOM     69  C   UNL A   1      46.985  26.996  35.865  1.00  0.00     0.054 A 
BRANCH  69  70
ATOM     70  S   UNL A   1      48.481  26.006  36.137  1.00  0.00     0.124 S 
ATOM     71  O   UNL A   1      49.453  27.027  36.522  1.00  0.00    -0.237 OA
ATOM     72  O   UNL A   1      48.069  25.097  37.203  1.00  0.00    -0.237 OA
ATOM     73  O   UNL A   1      48.722  25.376  34.841  1.00  0.00    -0.744 OA
ENDBRANCH  69  70
ENDBRANCH  50  64
BRANCH  51  74
ATOM     74  C   UNL A   1      36.379  33.357  32.631  1.00  0.00    -0.014 A 
ATOM     75  C   UNL A   1      35.095  32.839  32.876  1.00  0.00     0.010 A 
ATOM     76  C   UNL A   1      36.501  34.592  31.970  1.00  0.00     0.010 A 
ATOM     77  C   UNL A   1      33.957  33.525  32.439  1.00  0.00     0.020 A 
ATOM     78  C   UNL A   1      35.365  35.297  31.560  1.00  0.00     0.020 A 
ATOM     79  C   UNL A   1      34.099  34.749  31.782  1.00  0.00     0.054 A 
BRANCH  79  80
ATOM     80  S   UNL A   1      32.606  35.624  31.238  1.00  0.00     0.124 S 
ATOM     81  O   UNL A   1      33.070  37.007  31.177  1.00  0.00    -0.237 OA
ATOM     82  O   UNL A   1      32.324  34.994  29.952  1.00  0.00    -0.237 OA
ATOM     83  O   UNL A   1      31.636  35.335  32.292  1.00  0.00    -0.744 OA
ENDBRANCH  79  80
ENDBRANCH  51  74
BRANCH  63  84
ATOM     84  C   UNL A   1      40.450  33.540  38.287  1.00  0.00    -0.014 A 
ATOM     85  C   UNL A   1      41.082  34.793  38.349  1.00  0.00     0.010 A 
ATOM     86  C   UNL A   1      39.710  33.088  39.396  1.00  0.00     0.010 A 
ATOM     87  C   UNL A   1      40.998  35.570  39.506  1.00  0.00     0.020 A 
ATOM     88  C   UNL A   1      39.598  33.874  40.544  1.00  0.00     0.020 A 
ATOM     89  C   UNL A   1      40.252  35.107  40.596  1.00  0.00     0.054 A 
BRANCH  89  90
ATOM     90  S   UNL A   1      40.116  36.162  42.065  1.00  0.00     0.124 S 
ATOM     91  O   UNL A   1      41.504  36.248  42.509  1.00  0.00    -0.237 OA
ATOM     92  O   UNL A   1      39.552  37.395  41.520  1.00  0.00    -0.237 OA
ATOM     93  O   UNL A   1      39.226  35.414  42.949  1.00  0.00    -0.744 OA
ENDBRANCH  89  90
ENDBRANCH  63  84
ENDBRANCH  37  38
ENDBRANCH  29  32
ENDBRANCH  27  28
ENDBRANCH  26  27
ENDBRANCH   1  26
TORSDOF 17
ENDMDL
MODEL 3
REMARK VINA RESULT:      -8.8      5.871     11.449
REMARK SMILES Cc1nc(-c2ccc(C(F)(F)F)cc2)nc(SCC(=O)NCCCNC(=O)c2ccc(-c3c4nc(c(-c5ccc(S(=O)(=O)[O-])cc5)c5ccc([nH]5)c(-c5ccc(S(=O)(=O)[O-])cc5)c5nc(c(-c6ccc(S(=O)(=O)[O-])cc6)c6ccc3[nH]6)C=C5)C=C4)cc2)c1C
REMARK SMILES IDX 22 1 21 2 19 3 20 4 18 6 17 7 16 8 1 9 2 10 3 11 88 12 4 13
REMARK SMILES IDX 89 14 15 15 5 16 6 17 14 18 7 19 13 20 8 21 9 22 10 23 11 24
REMARK SMILES IDX 12 25 23 26 24 27 25 28 26 29 27 31 28 32 29 33 87 34 30 35
REMARK SMILES IDX 86 36 31 37 32 38 33 39 80 40 34 41 85 42 79 43 81 44 35 45
REMARK SMILES IDX 84 46 78 47 77 48 36 50 66 51 47 52 65 53 48 54 51 55 64 56
REMARK SMILES IDX 82 57 49 58 50 59 63 61 83 62 52 63 37 64 38 65 46 66 39 67
REMARK SMILES IDX 45 68 40 69 41 70 42 71 43 72 44 73 67 74 68 75 76 76 69 77
REMARK SMILES IDX 75 78 70 79 71 80 72 81 73 82 74 83 53 84 54 85 62 86 55 87
REMARK SMILES IDX 61 88 56 89 57 90 58 91 59 92 60 93
REMARK H PARENT 21 5 25 30 81 49 51 60
REMARK Flexibility Score: inf
ROOT
ATOM      1  C   UNL A   1      39.007  21.933  26.119  1.00  0.00     0.117 C 
ENDROOT
BRANCH   1   2
ATOM      2  N   UNL A   1      38.177  22.207  24.960  1.00  0.00    -0.355 N 
ATOM      3  C   UNL A   1      37.072  22.990  24.846  1.00  0.00     0.230 C 
ATOM      4  O   UNL A   1      36.685  23.249  23.702  1.00  0.00    -0.274 OA
ATOM      5  H   UNL A   1      38.457  21.757  24.131  1.00  0.00     0.163 HD
BRANCH   3   6
ATOM      6  C   UNL A   1      36.406  23.627  26.047  1.00  0.00     0.176 C 
BRANCH   6   7
ATOM      7  S   UNL A   1      34.783  22.973  26.509  1.00  0.00    -0.096 SA
BRANCH   7   8
ATOM      8  C   UNL A   1      33.670  22.836  25.123  1.00  0.00     0.104 A 
ATOM      9  C   UNL A   1      31.925  21.010  22.309  1.00  0.00     0.067 C 
ATOM     10  C   UNL A   1      32.381  22.038  23.306  1.00  0.00     0.045 A 
ATOM     11  N   UNL A   1      31.751  23.219  23.197  1.00  0.00    -0.233 NA
ATOM     12  C   UNL A   1      33.380  21.783  24.257  1.00  0.00     0.003 A 
ATOM     13  C   UNL A   1      32.126  24.186  24.034  1.00  0.00     0.160 A 
ATOM     14  C   UNL A   1      33.981  20.419  24.310  1.00  0.00     0.049 C 
ATOM     15  N   UNL A   1      33.062  24.042  24.978  1.00  0.00    -0.221 NA
BRANCH  13  16
ATOM     16  C   UNL A   1      31.464  25.484  23.876  1.00  0.00     0.019 A 
ATOM     17  C   UNL A   1      30.062  25.576  23.916  1.00  0.00     0.012 A 
ATOM     18  C   UNL A   1      32.194  26.656  23.624  1.00  0.00     0.012 A 
ATOM     19  C   UNL A   1      29.409  26.791  23.688  1.00  0.00     0.014 A 
ATOM     20  C   UNL A   1      31.542  27.872  23.377  1.00  0.00     0.014 A 
ATOM     21  C   UNL A   1      30.142  27.949  23.397  1.00  0.00     0.056 A 
BRANCH  21  22
ATOM     22  C   UNL A   1      29.417  29.239  23.093  1.00  0.00     0.416 C 
ATOM     23  F   UNL A   1      29.743  29.734  21.865  1.00  0.00    -0.166 F 
ATOM     24  F   UNL A   1      28.065  29.096  23.093  1.00  0.00    -0.166 F 
ATOM     25  F   UNL A   1      29.696  30.239  23.976  1.00  0.00    -0.166 F 
ENDBRANCH  21  22
ENDBRANCH  13  16
ENDBRANCH   7   8
ENDBRANCH   6   7
ENDBRANCH   3   6
ENDBRANCH   1   2
BRANCH   1  26
ATOM     26  C   UNL A   1      39.486  23.202  26.816  1.00  0.00     0.042 C 
BRANCH  26  27
ATOM     27  C   UNL A   1      41.003  23.332  26.921  1.00  0.00     0.118 C 
BRANCH  27  28
ATOM     28  N   UNL A   1      41.569  24.214  25.910  1.00  0.00    -0.352 N 
ATOM     29  C   UNL A   1      41.768  25.573  25.921  1.00  0.00     0.251 C 
ATOM     30  H   UNL A   1      41.857  23.763  25.084  1.00  0.00     0.163 HD
ATOM     31  O   UNL A   1      42.081  26.141  24.879  1.00  0.00    -0.269 OA
BRANCH  29  32
ATOM     32  C   UNL A   1      41.591  26.355  27.165  1.00  0.00     0.039 A 
ATOM     33  C   UNL A   1      42.582  27.272  27.529  1.00  0.00     0.014 A 
ATOM     34  C   UNL A   1      40.483  26.162  27.993  1.00  0.00     0.014 A 
ATOM     35  C   UNL A   1      42.426  28.041  28.686  1.00  0.00     0.010 A 
ATOM     36  C   UNL A   1      40.291  26.982  29.104  1.00  0.00     0.010 A 
ATOM     37  C   UNL A   1      41.263  27.927  29.465  1.00  0.00    -0.014 A 
BRANCH  37  38
ATOM     38  C   UNL A   1      41.055  28.772  30.669  1.00  0.00     0.031 A 
ATOM     39  C   UNL A   1      39.967  29.813  30.679  1.00  0.00     0.074 A 
ATOM     40  C   UNL A   1      41.863  28.626  31.739  1.00  0.00     0.049 A 
ATOM     41  N   UNL A   1      39.667  30.682  31.610  1.00  0.00    -0.248 NA
ATOM     42  C   UNL A   1      39.111  29.900  29.483  1.00  0.00     0.031 C 
ATOM     43  C   UNL A   1      42.959  27.660  31.849  1.00  0.00     0.029 A 
ATOM     44  N   UNL A   1      41.884  29.286  32.943  1.00  0.00    -0.354 N 
ATOM     45  C   UNL A   1      38.592  31.411  31.117  1.00  0.00     0.074 A 
ATOM     46  C   UNL A   1      38.328  30.926  29.781  1.00  0.00     0.031 C 
ATOM     47  C   UNL A   1      43.517  27.764  33.067  1.00  0.00     0.029 A 
ATOM     48  C   UNL A   1      42.855  28.832  33.806  1.00  0.00     0.049 A 
ATOM     49  H   UNL A   1      41.262  30.015  33.168  1.00  0.00     0.167 HD
ATOM     50  C   UNL A   1      37.870  32.378  31.731  1.00  0.00     0.031 A 
ATOM     51  C   UNL A   1      43.177  29.235  35.052  1.00  0.00     0.031 A 
ATOM     52  C   UNL A   1      38.126  32.854  33.064  1.00  0.00     0.049 A 
ATOM     53  C   UNL A   1      42.398  30.360  35.682  1.00  0.00     0.074 A 
ATOM     54  C   UNL A   1      37.437  33.820  33.778  1.00  0.00     0.029 A 
ATOM     55  N   UNL A   1      39.141  32.395  33.888  1.00  0.00    -0.354 N 
ATOM     56  N   UNL A   1      41.368  31.018  35.206  1.00  0.00    -0.248 NA
ATOM     57  C   UNL A   1      42.824  30.793  37.021  1.00  0.00     0.031 C 
ATOM     58  C   UNL A   1      38.064  33.978  35.016  1.00  0.00     0.029 A 
ATOM     59  C   UNL A   1      39.108  33.070  35.096  1.00  0.00     0.049 A 
ATOM     60  H   UNL A   1      39.788  31.692  33.650  1.00  0.00     0.167 HD
ATOM     61  C   UNL A   1      41.006  31.921  36.200  1.00  0.00     0.074 A 
ATOM     62  C   UNL A   1      41.913  31.712  37.309  1.00  0.00     0.031 C 
ATOM     63  C   UNL A   1      40.013  32.843  36.194  1.00  0.00     0.031 A 
BRANCH  50  64
ATOM     64  C   UNL A   1      36.710  32.976  30.981  1.00  0.00    -0.014 A 
ATOM     65  C   UNL A   1      35.390  32.756  31.414  1.00  0.00     0.010 A 
ATOM     66  C   UNL A   1      36.940  33.839  29.894  1.00  0.00     0.010 A 
ATOM     67  C   UNL A   1      34.320  33.380  30.768  1.00  0.00     0.020 A 
ATOM     68  C   UNL A   1      35.874  34.485  29.261  1.00  0.00     0.020 A 
ATOM     69  C   UNL A   1      34.570  34.247  29.701  1.00  0.00     0.054 A 
BRANCH  69  70
ATOM     70  S   UNL A   1      33.162  35.094  28.930  1.00  0.00     0.124 S 
ATOM     71  O   UNL A   1      32.282  35.319  30.074  1.00  0.00    -0.237 OA
ATOM     72  O   UNL A   1      33.782  36.292  28.369  1.00  0.00    -0.237 OA
ATOM     73  O   UNL A   1      32.672  34.130  27.947  1.00  0.00    -0.744 OA
ENDBRANCH  69  70
ENDBRANCH  50  64
BRANCH  51  74
ATOM     74  C   UNL A   1      44.279  28.569  35.802  1.00  0.00    -0.014 A 
ATOM     75  C   UNL A   1      45.606  29.014  35.656  1.00  0.00     0.010 A 
ATOM     76  C   UNL A   1      44.017  27.469  36.638  1.00  0.00     0.010 A 
ATOM     77  C   UNL A   1      46.651  28.352  36.307  1.00  0.00     0.020 A 
ATOM     78  C   UNL A   1      45.057  26.824  37.316  1.00  0.00     0.020 A 
ATOM     79  C   UNL A   1      46.371  27.261  37.131  1.00  0.00     0.054 A 
BRANCH  79  80
ATOM     80  S   UNL A   1      47.745  26.429  37.975  1.00  0.00     0.124 S 
ATOM     81  O   UNL A   1      47.852  25.182  37.225  1.00  0.00    -0.237 OA
ATOM     82  O   UNL A   1      48.844  27.374  37.791  1.00  0.00    -0.237 OA
ATOM     83  O   UNL A   1      47.273  26.295  39.351  1.00  0.00    -0.744 OA
ENDBRANCH  79  80
ENDBRANCH  51  74
BRANCH  63  84
ATOM     84  C   UNL A   1      39.828  33.679  37.433  1.00  0.00    -0.014 A 
ATOM     85  C   UNL A   1      40.383  34.967  37.528  1.00  0.00     0.010 A 
ATOM     86  C   UNL A   1      39.027  33.197  38.485  1.00  0.00     0.010 A 
ATOM     87  C   UNL A   1      40.162  35.748  38.664  1.00  0.00     0.020 A 
ATOM     88  C   UNL A   1      38.778  33.987  39.609  1.00  0.00     0.020 A 
ATOM     89  C   UNL A   1      39.356  35.254  39.697  1.00  0.00     0.054 A 
BRANCH  89  90
ATOM     90  S   UNL A   1      39.042  36.314  41.134  1.00  0.00     0.124 S 
ATOM     91  O   UNL A   1      38.731  37.596  40.507  1.00  0.00    -0.237 OA
ATOM     92  O   UNL A   1      37.919  35.644  41.785  1.00  0.00    -0.237 OA
ATOM     93  O   UNL A   1      40.299  36.274  41.877  1.00  0.00    -0.744 OA
ENDBRANCH  89  90
ENDBRANCH  63  84
ENDBRANCH  37  38
ENDBRANCH  29  32
ENDBRANCH  27  28
ENDBRANCH  26  27
ENDBRANCH   1  26
TORSDOF 17
ENDMDL
