MODEL 1
REMARK VINA RESULT:     -14.9      0.000      0.000
REMARK SMILES Cc1ccccc1-c1c(Cl)ccc2c1C=C(C(=O)NCCCNC(=O)c1ccc(-c3c4nc(c(-c5ccc(S(=O)(=O)[O-])cc5)c5ccc([nH]5)c(-c5ccc(S(=O)(=O)[O-])cc5)c5nc(c(-c6ccc(S(=O)(=O)[O-])cc6)c6ccc3[nH]6)C=C5)C=C4)cc1)[C@@H](C(F)(F)F)O2
REMARK SMILES IDX 22 1 21 2 20 3 19 4 17 5 18 6 16 8 8 9 9 10 14 11 10 12
REMARK SMILES IDX 11 13 13 14 15 15 12 16 91 17 86 18 7 19 1 20 2 21 3 22 4 23
REMARK SMILES IDX 6 24 5 25 87 26 88 27 89 28 90 29 23 30 24 31 25 33 26 34
REMARK SMILES IDX 27 35 85 36 28 37 84 38 29 39 30 40 31 41 78 42 32 43 83 44
REMARK SMILES IDX 77 45 79 46 33 47 82 48 76 49 75 50 34 52 64 53 45 54 63 55
REMARK SMILES IDX 46 56 49 57 62 58 80 59 47 60 48 61 61 63 81 64 50 65 35 66
REMARK SMILES IDX 36 67 44 68 37 69 43 70 38 71 39 72 40 73 41 74 42 75 65 76
REMARK SMILES IDX 66 77 74 78 67 79 73 80 68 81 69 82 70 83 71 84 72 85 51 86
REMARK SMILES IDX 52 87 60 88 53 89 59 90 54 91 55 92 56 93 57 94 58 95
REMARK H PARENT 19 7 23 32 79 51 49 62
REMARK Flexibility Score: inf
ROOT
ATOM      1  C   UNL A   1      34.472  29.929  28.021  1.00  0.00     0.118 C 
ENDROOT
BRANCH   1   2
ATOM      2  C   UNL A   1      33.731  30.532  26.837  1.00  0.00     0.042 C 
BRANCH   2   3
ATOM      3  C   UNL A   1      32.241  30.263  26.894  1.00  0.00     0.118 C 
BRANCH   3   4
ATOM      4  N   UNL A   1      31.972  28.903  27.321  1.00  0.00    -0.352 N 
ATOM      5  C   UNL A   1      31.977  27.719  26.670  1.00  0.00     0.251 C 
ATOM      6  O   UNL A   1      31.503  26.747  27.264  1.00  0.00    -0.270 OA
ATOM      7  H   UNL A   1      31.740  28.827  28.275  1.00  0.00     0.163 HD
BRANCH   5   8
ATOM      8  C   UNL A   1      32.577  27.500  25.313  1.00  0.00     0.067 C 
ATOM      9  C   UNL A   1      32.957  23.978  24.293  1.00  0.00     0.012 A 
ATOM     10  C   UNL A   1      32.017  23.012  23.851  1.00  0.00     0.049 A 
ATOM     11  C   UNL A   1      32.528  25.334  24.334  1.00  0.00     0.027 A 
ATOM     12  Cl  UNL A   1      32.388  21.318  23.809  1.00  0.00    -0.084 Cl
ATOM     13  C   UNL A   1      30.736  23.374  23.419  1.00  0.00     0.025 A 
ATOM     14  C   UNL A   1      31.253  25.681  23.830  1.00  0.00     0.128 A 
ATOM     15  C   UNL A   1      33.280  26.376  25.080  1.00  0.00     0.026 C 
ATOM     16  C   UNL A   1      30.363  24.710  23.385  1.00  0.00     0.049 A 
ATOM     17  O   UNL A   1      30.766  26.966  23.775  1.00  0.00    -0.475 OA
ATOM     18  C   UNL A   1      31.693  27.993  24.190  1.00  0.00     0.314 C 
BRANCH   9  19
ATOM     19  C   UNL A   1      34.371  23.589  24.538  1.00  0.00    -0.013 A 
ATOM     20  C   UNL A   1      34.142  23.099  27.067  1.00  0.00     0.045 C 
ATOM     21  C   UNL A   1      34.919  23.200  25.781  1.00  0.00    -0.043 A 
ATOM     22  C   UNL A   1      36.296  22.901  25.866  1.00  0.00     0.004 A 
ATOM     23  C   UNL A   1      37.117  22.935  24.742  1.00  0.00     0.000 A 
ATOM     24  C   UNL A   1      35.231  23.615  23.417  1.00  0.00     0.009 A 
ATOM     25  C   UNL A   1      36.581  23.280  23.510  1.00  0.00     0.001 A 
ENDBRANCH   9  19
BRANCH  18  26
ATOM     26  C   UNL A   1      32.498  28.539  22.998  1.00  0.00     0.429 C 
ATOM     27  F   UNL A   1      31.803  29.500  22.338  1.00  0.00    -0.167 F 
ATOM     28  F   UNL A   1      33.658  29.114  23.404  1.00  0.00    -0.167 F 
ATOM     29  F   UNL A   1      32.820  27.593  22.086  1.00  0.00    -0.167 F 
ENDBRANCH  18  26
ENDBRANCH   5   8
ENDBRANCH   3   4
ENDBRANCH   2   3
ENDBRANCH   1   2
BRANCH   1  30
ATOM     30  N   UNL A   1      35.291  30.922  28.723  1.00  0.00    -0.352 N 
ATOM     31  C   UNL A   1      36.549  30.771  29.270  1.00  0.00     0.251 C 
ATOM     32  H   UNL A   1      34.889  31.816  28.818  1.00  0.00     0.163 HD
ATOM     33  O   UNL A   1      37.115  31.637  29.931  1.00  0.00    -0.269 OA
BRANCH  31  34
ATOM     34  C   UNL A   1      37.271  29.540  28.911  1.00  0.00     0.039 A 
ATOM     35  C   UNL A   1      37.547  28.660  29.962  1.00  0.00     0.014 A 
ATOM     36  C   UNL A   1      37.988  29.513  27.719  1.00  0.00     0.014 A 
ATOM     37  C   UNL A   1      38.712  27.911  29.913  1.00  0.00     0.010 A 
ATOM     38  C   UNL A   1      39.199  28.852  27.719  1.00  0.00     0.010 A 
ATOM     39  C   UNL A   1      39.589  28.117  28.847  1.00  0.00    -0.014 A 
BRANCH  39  40
ATOM     40  C   UNL A   1      40.968  27.649  28.887  1.00  0.00     0.031 A 
ATOM     41  C   UNL A   1      41.243  26.253  28.494  1.00  0.00     0.074 A 
ATOM     42  C   UNL A   1      41.958  28.461  29.325  1.00  0.00     0.049 A 
ATOM     43  N   UNL A   1      42.192  25.522  28.969  1.00  0.00    -0.248 NA
ATOM     44  C   UNL A   1      40.375  25.540  27.562  1.00  0.00     0.031 C 
ATOM     45  C   UNL A   1      43.388  28.162  29.341  1.00  0.00     0.029 A 
ATOM     46  N   UNL A   1      41.852  29.635  30.082  1.00  0.00    -0.354 N 
ATOM     47  C   UNL A   1      42.244  24.375  28.207  1.00  0.00     0.074 A 
ATOM     48  C   UNL A   1      41.034  24.390  27.420  1.00  0.00     0.031 C 
ATOM     49  C   UNL A   1      43.959  28.890  30.314  1.00  0.00     0.029 A 
ATOM     50  C   UNL A   1      42.893  29.584  31.021  1.00  0.00     0.049 A 
ATOM     51  H   UNL A   1      41.183  30.349  29.977  1.00  0.00     0.167 HD
ATOM     52  C   UNL A   1      43.376  23.614  28.203  1.00  0.00     0.031 A 
ATOM     53  C   UNL A   1      42.684  29.535  32.368  1.00  0.00     0.031 A 
ATOM     54  C   UNL A   1      44.330  24.081  29.210  1.00  0.00     0.049 A 
ATOM     55  C   UNL A   1      43.240  28.268  32.999  1.00  0.00     0.074 A 
ATOM     56  C   UNL A   1      45.460  24.879  29.144  1.00  0.00     0.029 A 
ATOM     57  N   UNL A   1      43.974  24.020  30.556  1.00  0.00    -0.354 N 
ATOM     58  N   UNL A   1      43.602  27.210  32.321  1.00  0.00    -0.248 NA
ATOM     59  C   UNL A   1      43.414  28.084  34.438  1.00  0.00     0.031 C 
ATOM     60  C   UNL A   1      45.700  25.405  30.445  1.00  0.00     0.029 A 
ATOM     61  C   UNL A   1      44.747  24.888  31.307  1.00  0.00     0.049 A 
ATOM     62  H   UNL A   1      43.268  23.440  30.924  1.00  0.00     0.167 HD
ATOM     63  C   UNL A   1      44.062  26.241  33.176  1.00  0.00     0.074 A 
ATOM     64  C   UNL A   1      43.929  26.842  34.493  1.00  0.00     0.031 C 
ATOM     65  C   UNL A   1      44.519  25.027  32.742  1.00  0.00     0.031 A 
BRANCH  52  66
ATOM     66  C   UNL A   1      43.711  22.699  27.039  1.00  0.00    -0.014 A 
ATOM     67  C   UNL A   1      42.877  21.603  26.739  1.00  0.00     0.010 A 
ATOM     68  C   UNL A   1      44.889  22.799  26.273  1.00  0.00     0.010 A 
ATOM     69  C   UNL A   1      43.261  20.601  25.828  1.00  0.00     0.020 A 
ATOM     70  C   UNL A   1      45.312  21.784  25.401  1.00  0.00     0.020 A 
ATOM     71  C   UNL A   1      44.499  20.679  25.194  1.00  0.00     0.054 A 
BRANCH  71  72
ATOM     72  S   UNL A   1      45.044  19.326  24.116  1.00  0.00     0.124 S 
ATOM     73  O   UNL A   1      46.500  19.418  24.198  1.00  0.00    -0.237 OA
ATOM     74  O   UNL A   1      44.448  18.158  24.756  1.00  0.00    -0.237 OA
ATOM     75  O   UNL A   1      44.481  19.673  22.812  1.00  0.00    -0.744 OA
ENDBRANCH  71  72
ENDBRANCH  52  66
BRANCH  53  76
ATOM     76  C   UNL A   1      41.527  30.337  32.858  1.00  0.00    -0.014 A 
ATOM     77  C   UNL A   1      40.274  29.688  32.926  1.00  0.00     0.010 A 
ATOM     78  C   UNL A   1      41.695  31.534  33.573  1.00  0.00     0.010 A 
ATOM     79  C   UNL A   1      39.271  30.136  33.793  1.00  0.00     0.020 A 
ATOM     80  C   UNL A   1      40.690  31.987  34.448  1.00  0.00     0.020 A 
ATOM     81  C   UNL A   1      39.512  31.246  34.598  1.00  0.00     0.054 A 
BRANCH  81  82
ATOM     82  S   UNL A   1      38.302  31.649  35.899  1.00  0.00     0.124 S 
ATOM     83  O   UNL A   1      37.134  32.072  35.131  1.00  0.00    -0.237 OA
ATOM     84  O   UNL A   1      38.153  30.368  36.590  1.00  0.00    -0.237 OA
ATOM     85  O   UNL A   1      38.966  32.700  36.660  1.00  0.00    -0.744 OA
ENDBRANCH  81  82
ENDBRANCH  53  76
BRANCH  65  86
ATOM     86  C   UNL A   1      44.875  23.853  33.627  1.00  0.00    -0.014 A 
ATOM     87  C   UNL A   1      43.981  22.830  33.981  1.00  0.00     0.010 A 
ATOM     88  C   UNL A   1      46.225  23.685  34.024  1.00  0.00     0.010 A 
ATOM     89  C   UNL A   1      44.398  21.726  34.739  1.00  0.00     0.020 A 
ATOM     90  C   UNL A   1      46.663  22.566  34.738  1.00  0.00     0.020 A 
ATOM     91  C   UNL A   1      45.737  21.600  35.113  1.00  0.00     0.054 A 
BRANCH  91  92
ATOM     92  S   UNL A   1      46.291  20.132  36.019  1.00  0.00     0.124 S 
ATOM     93  O   UNL A   1      45.618  19.059  35.293  1.00  0.00    -0.237 OA
ATOM     94  O   UNL A   1      47.744  20.177  35.864  1.00  0.00    -0.237 OA
ATOM     95  O   UNL A   1      45.811  20.371  37.377  1.00  0.00    -0.744 OA
ENDBRANCH  91  92
ENDBRANCH  65  86
ENDBRANCH  39  40
ENDBRANCH  31  34
ENDBRANCH   1  30
TORSDOF 15
ENDMDL
MODEL 2
REMARK VINA RESULT:     -14.6      4.990     11.304
REMARK SMILES Cc1ccccc1-c1c(Cl)ccc2c1C=C(C(=O)NCCCNC(=O)c1ccc(-c3c4nc(c(-c5ccc(S(=O)(=O)[O-])cc5)c5ccc([nH]5)c(-c5ccc(S(=O)(=O)[O-])cc5)c5nc(c(-c6ccc(S(=O)(=O)[O-])cc6)c6ccc3[nH]6)C=C5)C=C4)cc1)[C@@H](C(F)(F)F)O2
REMARK SMILES IDX 22 1 21 2 20 3 19 4 17 5 18 6 16 8 8 9 9 10 14 11 10 12
REMARK SMILES IDX 11 13 13 14 15 15 12 16 91 17 86 18 7 19 1 20 2 21 3 22 4 23
REMARK SMILES IDX 6 24 5 25 87 26 88 27 89 28 90 29 23 30 24 31 25 33 26 34
REMARK SMILES IDX 27 35 85 36 28 37 84 38 29 39 30 40 31 41 78 42 32 43 83 44
REMARK SMILES IDX 77 45 79 46 33 47 82 48 76 49 75 50 34 52 64 53 45 54 63 55
REMARK SMILES IDX 46 56 49 57 62 58 80 59 47 60 48 61 61 63 81 64 50 65 35 66
REMARK SMILES IDX 36 67 44 68 37 69 43 70 38 71 39 72 40 73 41 74 42 75 65 76
REMARK SMILES IDX 66 77 74 78 67 79 73 80 68 81 69 82 70 83 71 84 72 85 51 86
REMARK SMILES IDX 52 87 60 88 53 89 59 90 54 91 55 92 56 93 57 94 58 95
REMARK H PARENT 19 7 23 32 79 51 49 62
REMARK Flexibility Score: inf
ROOT
ATOM      1  C   UNL A   1      38.959  23.268  26.212  1.00  0.00     0.118 C 
ENDROOT
BRANCH   1   2
ATOM      2  C   UNL A   1      38.632  21.845  25.787  1.00  0.00     0.042 C 
BRANCH   2   3
ATOM      3  C   UNL A   1      37.172  21.675  25.417  1.00  0.00     0.118 C 
BRANCH   3   4
ATOM      4  N   UNL A   1      36.748  22.700  24.482  1.00  0.00    -0.352 N 
ATOM      5  C   UNL A   1      35.633  23.459  24.396  1.00  0.00     0.251 C 
ATOM      6  O   UNL A   1      35.472  24.108  23.359  1.00  0.00    -0.270 OA
ATOM      7  H   UNL A   1      37.403  22.879  23.768  1.00  0.00     0.163 HD
BRANCH   5   8
ATOM      8  C   UNL A   1      34.625  23.612  25.496  1.00  0.00     0.067 C 
ATOM      9  C   UNL A   1      31.907  26.013  24.835  1.00  0.00     0.012 A 
ATOM     10  C   UNL A   1      30.754  25.938  24.013  1.00  0.00     0.049 A 
ATOM     11  C   UNL A   1      32.606  24.801  25.091  1.00  0.00     0.027 A 
ATOM     12  Cl  UNL A   1      29.843  27.347  23.572  1.00  0.00    -0.084 Cl
ATOM     13  C   UNL A   1      30.283  24.718  23.514  1.00  0.00     0.025 A 
ATOM     14  C   UNL A   1      32.073  23.574  24.630  1.00  0.00     0.128 A 
ATOM     15  C   UNL A   1      33.987  24.788  25.640  1.00  0.00     0.026 C 
ATOM     16  C   UNL A   1      30.929  23.534  23.843  1.00  0.00     0.049 A 
ATOM     17  O   UNL A   1      32.642  22.346  24.869  1.00  0.00    -0.475 OA
ATOM     18  C   UNL A   1      33.806  22.362  25.724  1.00  0.00     0.314 C 
BRANCH   9  19
ATOM     19  C   UNL A   1      32.255  27.285  25.523  1.00  0.00    -0.013 A 
ATOM     20  C   UNL A   1      33.911  28.175  23.748  1.00  0.00     0.045 C 
ATOM     21  C   UNL A   1      33.160  28.262  25.050  1.00  0.00    -0.043 A 
ATOM     22  C   UNL A   1      33.421  29.402  25.839  1.00  0.00     0.004 A 
ATOM     23  C   UNL A   1      32.771  29.610  27.053  1.00  0.00     0.000 A 
ATOM     24  C   UNL A   1      31.612  27.525  26.759  1.00  0.00     0.009 A 
ATOM     25  C   UNL A   1      31.853  28.675  27.509  1.00  0.00     0.001 A 
ENDBRANCH   9  19
BRANCH  18  26
ATOM     26  C   UNL A   1      33.423  22.166  27.201  1.00  0.00     0.429 C 
ATOM     27  F   UNL A   1      33.452  20.853  27.545  1.00  0.00    -0.167 F 
ATOM     28  F   UNL A   1      34.292  22.800  28.028  1.00  0.00    -0.167 F 
ATOM     29  F   UNL A   1      32.184  22.622  27.502  1.00  0.00    -0.167 F 
ENDBRANCH  18  26
ENDBRANCH   5   8
ENDBRANCH   3   4
ENDBRANCH   2   3
ENDBRANCH   1   2
BRANCH   1  30
ATOM     30  N   UNL A   1      40.383  23.442  26.515  1.00  0.00    -0.352 N 
ATOM     31  C   UNL A   1      41.051  24.589  26.890  1.00  0.00     0.251 C 
ATOM     32  H   UNL A   1      40.936  22.630  26.440  1.00  0.00     0.163 HD
ATOM     33  O   UNL A   1      42.269  24.656  27.025  1.00  0.00    -0.269 OA
BRANCH  31  34
ATOM     34  C   UNL A   1      40.212  25.738  27.265  1.00  0.00     0.039 A 
ATOM     35  C   UNL A   1      40.460  26.931  26.579  1.00  0.00     0.014 A 
ATOM     36  C   UNL A   1      39.566  25.717  28.497  1.00  0.00     0.014 A 
ATOM     37  C   UNL A   1      40.281  28.132  27.248  1.00  0.00     0.010 A 
ATOM     38  C   UNL A   1      39.492  26.903  29.198  1.00  0.00     0.010 A 
ATOM     39  C   UNL A   1      39.922  28.093  28.596  1.00  0.00    -0.014 A 
BRANCH  39  40
ATOM     40  C   UNL A   1      40.050  29.261  29.457  1.00  0.00     0.031 A 
ATOM     41  C   UNL A   1      39.008  30.304  29.378  1.00  0.00     0.074 A 
ATOM     42  C   UNL A   1      41.125  29.405  30.267  1.00  0.00     0.049 A 
ATOM     43  N   UNL A   1      39.201  31.562  29.582  1.00  0.00    -0.248 NA
ATOM     44  C   UNL A   1      37.645  29.988  28.963  1.00  0.00     0.031 C 
ATOM     45  C   UNL A   1      41.347  30.472  31.240  1.00  0.00     0.029 A 
ATOM     46  N   UNL A   1      42.362  28.750  30.198  1.00  0.00    -0.354 N 
ATOM     47  C   UNL A   1      37.962  32.163  29.622  1.00  0.00     0.074 A 
ATOM     48  C   UNL A   1      37.043  31.166  29.130  1.00  0.00     0.031 C 
ATOM     49  C   UNL A   1      42.671  30.616  31.411  1.00  0.00     0.029 A 
ATOM     50  C   UNL A   1      43.332  29.728  30.467  1.00  0.00     0.049 A 
ATOM     51  H   UNL A   1      42.518  27.799  30.001  1.00  0.00     0.167 HD
ATOM     52  C   UNL A   1      37.820  33.384  30.214  1.00  0.00     0.031 A 
ATOM     53  C   UNL A   1      44.279  30.109  29.563  1.00  0.00     0.031 A 
ATOM     54  C   UNL A   1      39.119  33.956  30.565  1.00  0.00     0.049 A 
ATOM     55  C   UNL A   1      44.174  31.580  29.192  1.00  0.00     0.074 A 
ATOM     56  C   UNL A   1      39.838  34.018  31.747  1.00  0.00     0.029 A 
ATOM     57  N   UNL A   1      40.021  34.259  29.545  1.00  0.00    -0.354 N 
ATOM     58  N   UNL A   1      43.134  32.329  29.454  1.00  0.00    -0.248 NA
ATOM     59  C   UNL A   1      45.216  32.318  28.482  1.00  0.00     0.031 C 
ATOM     60  C   UNL A   1      41.206  34.229  31.417  1.00  0.00     0.029 A 
ATOM     61  C   UNL A   1      41.310  34.343  30.041  1.00  0.00     0.049 A 
ATOM     62  H   UNL A   1      39.774  34.394  28.601  1.00  0.00     0.167 HD
ATOM     63  C   UNL A   1      43.349  33.604  28.996  1.00  0.00     0.074 A 
ATOM     64  C   UNL A   1      44.673  33.546  28.400  1.00  0.00     0.031 C 
ATOM     65  C   UNL A   1      42.430  34.608  29.142  1.00  0.00     0.031 A 
BRANCH  52  66
ATOM     66  C   UNL A   1      36.483  33.844  30.769  1.00  0.00    -0.014 A 
ATOM     67  C   UNL A   1      35.384  34.026  29.905  1.00  0.00     0.010 A 
ATOM     68  C   UNL A   1      36.275  34.219  32.111  1.00  0.00     0.010 A 
ATOM     69  C   UNL A   1      34.202  34.665  30.326  1.00  0.00     0.020 A 
ATOM     70  C   UNL A   1      35.126  34.904  32.535  1.00  0.00     0.020 A 
ATOM     71  C   UNL A   1      34.098  35.137  31.633  1.00  0.00     0.054 A 
BRANCH  71  72
ATOM     72  S   UNL A   1      32.625  36.067  32.137  1.00  0.00     0.124 S 
ATOM     73  O   UNL A   1      32.247  36.758  30.906  1.00  0.00    -0.237 OA
ATOM     74  O   UNL A   1      31.720  35.008  32.570  1.00  0.00    -0.237 OA
ATOM     75  O   UNL A   1      33.114  36.939  33.203  1.00  0.00    -0.744 OA
ENDBRANCH  71  72
ENDBRANCH  52  66
BRANCH  53  76
ATOM     76  C   UNL A   1      44.812  29.013  28.705  1.00  0.00    -0.014 A 
ATOM     77  C   UNL A   1      44.041  28.639  27.583  1.00  0.00     0.010 A 
ATOM     78  C   UNL A   1      46.158  28.615  28.749  1.00  0.00     0.010 A 
ATOM     79  C   UNL A   1      44.627  28.018  26.474  1.00  0.00     0.020 A 
ATOM     80  C   UNL A   1      46.753  27.993  27.635  1.00  0.00     0.020 A 
ATOM     81  C   UNL A   1      45.995  27.759  26.482  1.00  0.00     0.054 A 
BRANCH  81  82
ATOM     82  S   UNL A   1      46.777  27.195  24.936  1.00  0.00     0.124 S 
ATOM     83  O   UNL A   1      48.192  27.149  25.290  1.00  0.00    -0.237 OA
ATOM     84  O   UNL A   1      46.151  25.887  24.733  1.00  0.00    -0.237 OA
ATOM     85  O   UNL A   1      46.402  28.226  23.976  1.00  0.00    -0.744 OA
ENDBRANCH  81  82
ENDBRANCH  53  76
BRANCH  65  86
ATOM     86  C   UNL A   1      42.520  35.981  28.516  1.00  0.00    -0.014 A 
ATOM     87  C   UNL A   1      41.902  36.340  27.307  1.00  0.00     0.010 A 
ATOM     88  C   UNL A   1      43.149  37.021  29.244  1.00  0.00     0.010 A 
ATOM     89  C   UNL A   1      41.957  37.656  26.822  1.00  0.00     0.020 A 
ATOM     90  C   UNL A   1      43.170  38.344  28.794  1.00  0.00     0.020 A 
ATOM     91  C   UNL A   1      42.591  38.650  27.569  1.00  0.00     0.054 A 
BRANCH  91  92
ATOM     92  S   UNL A   1      42.587  40.364  26.982  1.00  0.00     0.124 S 
ATOM     93  O   UNL A   1      41.163  40.608  26.775  1.00  0.00    -0.237 OA
ATOM     94  O   UNL A   1      43.192  41.095  28.093  1.00  0.00    -0.237 OA
ATOM     95  O   UNL A   1      43.399  40.309  25.769  1.00  0.00    -0.744 OA
ENDBRANCH  91  92
ENDBRANCH  65  86
ENDBRANCH  39  40
ENDBRANCH  31  34
ENDBRANCH   1  30
TORSDOF 15
ENDMDL
MODEL 3
REMARK VINA RESULT:     -13.0      2.239      2.870
REMARK SMILES Cc1ccccc1-c1c(Cl)ccc2c1C=C(C(=O)NCCCNC(=O)c1ccc(-c3c4nc(c(-c5ccc(S(=O)(=O)[O-])cc5)c5ccc([nH]5)c(-c5ccc(S(=O)(=O)[O-])cc5)c5nc(c(-c6ccc(S(=O)(=O)[O-])cc6)c6ccc3[nH]6)C=C5)C=C4)cc1)[C@@H](C(F)(F)F)O2
REMARK SMILES IDX 22 1 21 2 20 3 19 4 17 5 18 6 16 8 8 9 9 10 14 11 10 12
REMARK SMILES IDX 11 13 13 14 15 15 12 16 91 17 86 18 7 19 1 20 2 21 3 22 4 23
REMARK SMILES IDX 6 24 5 25 87 26 88 27 89 28 90 29 23 30 24 31 25 33 26 34
REMARK SMILES IDX 27 35 85 36 28 37 84 38 29 39 30 40 31 41 78 42 32 43 83 44
REMARK SMILES IDX 77 45 79 46 33 47 82 48 76 49 75 50 34 52 64 53 45 54 63 55
REMARK SMILES IDX 46 56 49 57 62 58 80 59 47 60 48 61 61 63 81 64 50 65 35 66
REMARK SMILES IDX 36 67 44 68 37 69 43 70 38 71 39 72 40 73 41 74 42 75 65 76
REMARK SMILES IDX 66 77 74 78 67 79 73 80 68 81 69 82 70 83 71 84 72 85 51 86
REMARK SMILES IDX 52 87 60 88 53 89 59 90 54 91 55 92 56 93 57 94 58 95
REMARK H PARENT 19 7 23 32 79 51 49 62
REMARK Flexibility Score: inf
ROOT
ATOM      1  C   UNL A   1      36.162  30.948  28.250  1.00  0.00     0.118 C 
ENDROOT
BRANCH   1   2
ATOM      2  C   UNL A   1      34.763  30.868  27.658  1.00  0.00     0.042 C 
BRANCH   2   3
ATOM      3  C   UNL A   1      34.475  29.514  27.041  1.00  0.00     0.118 C 
BRANCH   3   4
ATOM      4  N   UNL A   1      33.401  28.838  27.743  1.00  0.00    -0.352 N 
ATOM      5  C   UNL A   1      32.380  28.057  27.324  1.00  0.00     0.251 C 
ATOM      6  O   UNL A   1      31.500  27.791  28.147  1.00  0.00    -0.270 OA
ATOM      7  H   UNL A   1      33.418  28.974  28.718  1.00  0.00     0.163 HD
BRANCH   5   8
ATOM      8  C   UNL A   1      32.285  27.446  25.958  1.00  0.00     0.067 C 
ATOM      9  C   UNL A   1      33.067  23.849  25.769  1.00  0.00     0.012 A 
ATOM     10  C   UNL A   1      32.334  22.698  26.154  1.00  0.00     0.049 A 
ATOM     11  C   UNL A   1      32.361  25.082  25.712  1.00  0.00     0.027 A 
ATOM     12  Cl  UNL A   1      33.083  21.142  26.323  1.00  0.00    -0.084 Cl
ATOM     13  C   UNL A   1      30.960  22.752  26.417  1.00  0.00     0.025 A 
ATOM     14  C   UNL A   1      30.962  25.099  25.918  1.00  0.00     0.128 A 
ATOM     15  C   UNL A   1      33.064  26.391  25.657  1.00  0.00     0.026 C 
ATOM     16  C   UNL A   1      30.270  23.947  26.274  1.00  0.00     0.049 A 
ATOM     17  O   UNL A   1      30.181  26.227  25.832  1.00  0.00    -0.475 OA
ATOM     18  C   UNL A   1      30.874  27.425  25.418  1.00  0.00     0.314 C 
BRANCH   9  19
ATOM     19  C   UNL A   1      34.469  23.718  25.291  1.00  0.00    -0.013 A 
ATOM     20  C   UNL A   1      33.928  23.309  22.796  1.00  0.00     0.045 C 
ATOM     21  C   UNL A   1      34.870  23.468  23.959  1.00  0.00    -0.043 A 
ATOM     22  C   UNL A   1      36.243  23.325  23.666  1.00  0.00     0.004 A 
ATOM     23  C   UNL A   1      37.216  23.473  24.652  1.00  0.00     0.000 A 
ATOM     24  C   UNL A   1      35.480  23.862  26.268  1.00  0.00     0.009 A 
ATOM     25  C   UNL A   1      36.835  23.756  25.955  1.00  0.00     0.001 A 
ENDBRANCH   9  19
BRANCH  18  26
ATOM     26  C   UNL A   1      30.821  27.606  23.891  1.00  0.00     0.429 C 
ATOM     27  F   UNL A   1      31.430  26.573  23.254  1.00  0.00    -0.167 F 
ATOM     28  F   UNL A   1      29.542  27.636  23.438  1.00  0.00    -0.167 F 
ATOM     29  F   UNL A   1      31.421  28.740  23.460  1.00  0.00    -0.167 F 
ENDBRANCH  18  26
ENDBRANCH   5   8
ENDBRANCH   3   4
ENDBRANCH   2   3
ENDBRANCH   1   2
BRANCH   1  30
ATOM     30  N   UNL A   1      36.144  30.932  29.716  1.00  0.00    -0.352 N 
ATOM     31  C   UNL A   1      36.583  29.944  30.572  1.00  0.00     0.251 C 
ATOM     32  H   UNL A   1      35.767  31.734  30.146  1.00  0.00     0.163 HD
ATOM     33  O   UNL A   1      36.432  29.979  31.790  1.00  0.00    -0.269 OA
BRANCH  31  34
ATOM     34  C   UNL A   1      37.384  28.867  29.968  1.00  0.00     0.039 A 
ATOM     35  C   UNL A   1      38.223  28.164  30.838  1.00  0.00     0.014 A 
ATOM     36  C   UNL A   1      37.596  28.887  28.594  1.00  0.00     0.014 A 
ATOM     37  C   UNL A   1      39.427  27.679  30.351  1.00  0.00     0.010 A 
ATOM     38  C   UNL A   1      38.839  28.501  28.135  1.00  0.00     0.010 A 
ATOM     39  C   UNL A   1      39.776  27.970  29.032  1.00  0.00    -0.014 A 
BRANCH  39  40
ATOM     40  C   UNL A   1      41.140  27.812  28.547  1.00  0.00     0.031 A 
ATOM     41  C   UNL A   1      41.640  26.444  28.307  1.00  0.00     0.074 A 
ATOM     42  C   UNL A   1      41.939  28.890  28.373  1.00  0.00     0.049 A 
ATOM     43  N   UNL A   1      42.868  26.070  28.437  1.00  0.00    -0.248 NA
ATOM     44  C   UNL A   1      40.735  25.349  27.974  1.00  0.00     0.031 C 
ATOM     45  C   UNL A   1      43.290  28.894  27.817  1.00  0.00     0.029 A 
ATOM     46  N   UNL A   1      41.788  30.180  28.899  1.00  0.00    -0.354 N 
ATOM     47  C   UNL A   1      42.961  24.794  27.926  1.00  0.00     0.074 A 
ATOM     48  C   UNL A   1      41.597  24.357  27.750  1.00  0.00     0.031 C 
ATOM     49  C   UNL A   1      43.945  29.956  28.313  1.00  0.00     0.029 A 
ATOM     50  C   UNL A   1      43.072  30.591  29.288  1.00  0.00     0.049 A 
ATOM     51  H   UNL A   1      40.952  30.693  28.979  1.00  0.00     0.167 HD
ATOM     52  C   UNL A   1      44.177  24.299  27.556  1.00  0.00     0.031 A 
ATOM     53  C   UNL A   1      43.409  30.866  30.581  1.00  0.00     0.031 A 
ATOM     54  C   UNL A   1      45.258  25.198  27.959  1.00  0.00     0.049 A 
ATOM     55  C   UNL A   1      44.505  29.952  31.106  1.00  0.00     0.074 A 
ATOM     56  C   UNL A   1      45.995  26.155  27.281  1.00  0.00     0.029 A 
ATOM     57  N   UNL A   1      45.469  25.434  29.316  1.00  0.00    -0.354 N 
ATOM     58  N   UNL A   1      44.877  28.843  30.521  1.00  0.00    -0.248 NA
ATOM     59  C   UNL A   1      45.253  30.201  32.336  1.00  0.00     0.031 C 
ATOM     60  C   UNL A   1      46.542  27.049  28.244  1.00  0.00     0.029 A 
ATOM     61  C   UNL A   1      46.179  26.607  29.505  1.00  0.00     0.049 A 
ATOM     62  H   UNL A   1      45.156  24.847  30.043  1.00  0.00     0.167 HD
ATOM     63  C   UNL A   1      45.886  28.252  31.238  1.00  0.00     0.074 A 
ATOM     64  C   UNL A   1      46.089  29.147  32.364  1.00  0.00     0.031 C 
ATOM     65  C   UNL A   1      46.478  27.080  30.854  1.00  0.00     0.031 A 
BRANCH  52  66
ATOM     66  C   UNL A   1      44.301  23.187  26.529  1.00  0.00    -0.014 A 
ATOM     67  C   UNL A   1      43.343  22.153  26.487  1.00  0.00     0.010 A 
ATOM     68  C   UNL A   1      45.394  23.045  25.651  1.00  0.00     0.010 A 
ATOM     69  C   UNL A   1      43.535  20.990  25.717  1.00  0.00     0.020 A 
ATOM     70  C   UNL A   1      45.627  21.871  24.919  1.00  0.00     0.020 A 
ATOM     71  C   UNL A   1      44.699  20.840  24.967  1.00  0.00     0.054 A 
BRANCH  71  72
ATOM     72  S   UNL A   1      45.000  19.289  24.075  1.00  0.00     0.124 S 
ATOM     73  O   UNL A   1      44.302  18.306  24.900  1.00  0.00    -0.237 OA
ATOM     74  O   UNL A   1      44.402  19.559  22.772  1.00  0.00    -0.237 OA
ATOM     75  O   UNL A   1      46.456  19.166  24.076  1.00  0.00    -0.744 OA
ENDBRANCH  71  72
ENDBRANCH  52  66
BRANCH  53  76
ATOM     76  C   UNL A   1      42.342  31.527  31.385  1.00  0.00    -0.014 A 
ATOM     77  C   UNL A   1      42.114  32.901  31.150  1.00  0.00     0.010 A 
ATOM     78  C   UNL A   1      41.352  30.795  32.061  1.00  0.00     0.010 A 
ATOM     79  C   UNL A   1      40.880  33.492  31.444  1.00  0.00     0.020 A 
ATOM     80  C   UNL A   1      40.108  31.385  32.356  1.00  0.00     0.020 A 
ATOM     81  C   UNL A   1      39.862  32.712  31.986  1.00  0.00     0.054 A 
BRANCH  81  82
ATOM     82  S   UNL A   1      38.195  33.434  32.115  1.00  0.00     0.124 S 
ATOM     83  O   UNL A   1      38.471  34.808  32.525  1.00  0.00    -0.237 OA
ATOM     84  O   UNL A   1      37.690  33.290  30.748  1.00  0.00    -0.237 OA
ATOM     85  O   UNL A   1      37.544  32.599  33.116  1.00  0.00    -0.744 OA
ENDBRANCH  81  82
ENDBRANCH  53  76
BRANCH  65  86
ATOM     86  C   UNL A   1      47.466  26.282  31.675  1.00  0.00    -0.014 A 
ATOM     87  C   UNL A   1      47.168  25.690  32.913  1.00  0.00     0.010 A 
ATOM     88  C   UNL A   1      48.736  25.990  31.117  1.00  0.00     0.010 A 
ATOM     89  C   UNL A   1      48.108  24.894  33.586  1.00  0.00     0.020 A 
ATOM     90  C   UNL A   1      49.661  25.160  31.755  1.00  0.00     0.020 A 
ATOM     91  C   UNL A   1      49.349  24.634  33.002  1.00  0.00     0.054 A 
BRANCH  91  92
ATOM     92  S   UNL A   1      50.528  23.537  33.833  1.00  0.00     0.124 S 
ATOM     93  O   UNL A   1      51.512  24.486  34.346  1.00  0.00    -0.237 OA
ATOM     94  O   UNL A   1      49.707  22.877  34.846  1.00  0.00    -0.237 OA
ATOM     95  O   UNL A   1      50.995  22.665  32.758  1.00  0.00    -0.744 OA
ENDBRANCH  91  92
ENDBRANCH  65  86
ENDBRANCH  39  40
ENDBRANCH  31  34
ENDBRANCH   1  30
TORSDOF 15
ENDMDL
