MODEL 1
REMARK VINA RESULT:     -10.8      0.000      0.000
REMARK SMILES CC(=O)NCCNC(=O)C[N@H+]1CC[C@@H](C(=O)NCCCNC(=O)c2ccc(-c3c4nc(c(-c5ccc(S(=O)(=O)[O-])cc5)c5ccc([nH]5)c(-c5ccc(S(=O)(=O)[O-])cc5)c5nc(c(-c6ccc(S(=O)(=O)[O-])cc6)c6ccc3[nH]6)C=C5)C=C4)cc2)[C@H]1C
REMARK SMILES IDX 18 1 17 2 15 3 16 4 14 6 11 7 12 8 84 9 13 11 85 12 10 13
REMARK SMILES IDX 8 14 7 15 9 17 6 18 5 19 4 20 1 21 2 22 3 23 19 25 20 26
REMARK SMILES IDX 21 27 22 28 23 30 24 31 25 32 83 33 26 34 82 35 27 36 28 37
REMARK SMILES IDX 29 38 76 39 30 40 81 41 75 42 77 43 31 44 80 45 74 46 73 47
REMARK SMILES IDX 32 49 62 50 43 51 61 52 44 53 47 54 60 55 78 56 45 57 46 58
REMARK SMILES IDX 59 60 79 61 48 62 33 63 34 64 42 65 35 66 41 67 36 68 37 69
REMARK SMILES IDX 38 70 39 71 40 72 63 73 64 74 72 75 65 76 71 77 66 78 67 79
REMARK SMILES IDX 68 80 69 81 70 82 49 83 50 84 58 85 51 86 57 87 52 88 53 89
REMARK SMILES IDX 54 90 55 91 56 92
REMARK H PARENT 17 5 11 10 7 16 4 24 21 29 77 48 47 59
REMARK Flexibility Score: inf
ROOT
ATOM      1  C   UNL A   1      32.651  28.108  24.682  1.00  0.00     0.117 C 
ENDROOT
BRANCH   1   2
ATOM      2  N   UNL A   1      31.837  27.094  24.033  1.00  0.00    -0.356 N 
ATOM      3  C   UNL A   1      32.112  25.839  23.599  1.00  0.00     0.229 C 
ATOM      4  O   UNL A   1      31.199  25.240  23.022  1.00  0.00    -0.275 OA
ATOM      5  H   UNL A   1      30.904  27.372  23.878  1.00  0.00     0.163 HD
BRANCH   3   6
ATOM      6  C   UNL A   1      33.443  25.142  23.829  1.00  0.00     0.142 C 
ATOM      7  N   UNL A   1      34.487  23.302  24.958  1.00  0.00    -0.324 N 
ATOM      8  C   UNL A   1      34.595  23.043  23.532  1.00  0.00     0.263 C 
ATOM      9  C   UNL A   1      33.782  24.570  25.216  1.00  0.00     0.194 C 
ATOM     10  H   UNL A   1      35.420  23.488  25.324  1.00  0.00     0.348 HD
ATOM     11  C   UNL A   1      33.750  24.062  22.804  1.00  0.00     0.081 C 
ATOM     12  C   UNL A   1      32.672  24.571  26.262  1.00  0.00     0.076 C 
BRANCH   7  13
ATOM     13  C   UNL A   1      34.210  22.133  25.794  1.00  0.00     0.363 C 
BRANCH  13  14
ATOM     14  C   UNL A   1      35.222  21.018  25.516  1.00  0.00     0.275 C 
ATOM     15  N   UNL A   1      34.758  19.787  25.131  1.00  0.00    -0.349 N 
ATOM     16  H   UNL A   1      35.419  19.057  25.116  1.00  0.00     0.163 HD
ATOM     17  O   UNL A   1      36.434  21.182  25.655  1.00  0.00    -0.269 OA
BRANCH  15  18
ATOM     18  C   UNL A   1      33.403  19.434  24.743  1.00  0.00     0.137 C 
BRANCH  18  19
ATOM     19  C   UNL A   1      33.005  18.060  25.294  1.00  0.00     0.137 C 
BRANCH  19  20
ATOM     20  N   UNL A   1      34.101  17.111  25.165  1.00  0.00    -0.355 N 
ATOM     21  C   UNL A   1      32.698  15.102  25.393  1.00  0.00     0.114 C 
ATOM     22  C   UNL A   1      34.050  15.752  25.274  1.00  0.00     0.216 C 
ATOM     23  O   UNL A   1      35.087  15.093  25.260  1.00  0.00    -0.275 OA
ATOM     24  H   UNL A   1      34.987  17.497  24.978  1.00  0.00     0.163 HD
ENDBRANCH  19  20
ENDBRANCH  18  19
ENDBRANCH  15  18
ENDBRANCH  13  14
ENDBRANCH   7  13
ENDBRANCH   3   6
ENDBRANCH   1   2
BRANCH   1  25
ATOM     25  C   UNL A   1      32.466  28.108  26.194  1.00  0.00     0.042 C 
BRANCH  25  26
ATOM     26  C   UNL A   1      33.696  28.541  26.973  1.00  0.00     0.118 C 
BRANCH  26  27
ATOM     27  N   UNL A   1      33.626  29.931  27.390  1.00  0.00    -0.352 N 
ATOM     28  C   UNL A   1      34.532  30.668  28.120  1.00  0.00     0.251 C 
ATOM     29  H   UNL A   1      32.816  30.416  27.110  1.00  0.00     0.163 HD
ATOM     30  O   UNL A   1      34.201  31.759  28.572  1.00  0.00    -0.269 OA
BRANCH  28  31
ATOM     31  C   UNL A   1      35.888  30.130  28.381  1.00  0.00     0.039 A 
ATOM     32  C   UNL A   1      36.843  30.155  27.361  1.00  0.00     0.014 A 
ATOM     33  C   UNL A   1      36.219  29.600  29.629  1.00  0.00     0.014 A 
ATOM     34  C   UNL A   1      38.148  29.718  27.619  1.00  0.00     0.010 A 
ATOM     35  C   UNL A   1      37.538  29.264  29.913  1.00  0.00     0.010 A 
ATOM     36  C   UNL A   1      38.517  29.306  28.909  1.00  0.00    -0.014 A 
BRANCH  36  37
ATOM     37  C   UNL A   1      39.901  28.877  29.245  1.00  0.00     0.031 A 
ATOM     38  C   UNL A   1      40.848  29.863  29.881  1.00  0.00     0.074 A 
ATOM     39  C   UNL A   1      40.337  27.650  28.893  1.00  0.00     0.049 A 
ATOM     40  N   UNL A   1      42.129  29.747  30.111  1.00  0.00    -0.248 NA
ATOM     41  C   UNL A   1      40.283  31.165  30.284  1.00  0.00     0.031 C 
ATOM     42  C   UNL A   1      39.528  26.608  28.257  1.00  0.00     0.029 A 
ATOM     43  N   UNL A   1      41.580  27.076  29.006  1.00  0.00    -0.354 N 
ATOM     44  C   UNL A   1      42.531  30.968  30.642  1.00  0.00     0.074 A 
ATOM     45  C   UNL A   1      41.366  31.824  30.668  1.00  0.00     0.031 C 
ATOM     46  C   UNL A   1      40.287  25.519  28.057  1.00  0.00     0.029 A 
ATOM     47  C   UNL A   1      41.651  25.800  28.495  1.00  0.00     0.049 A 
ATOM     48  H   UNL A   1      42.349  27.535  29.415  1.00  0.00     0.167 HD
ATOM     49  C   UNL A   1      43.757  31.340  31.080  1.00  0.00     0.031 A 
ATOM     50  C   UNL A   1      42.699  24.961  28.372  1.00  0.00     0.031 A 
ATOM     51  C   UNL A   1      44.903  30.473  31.084  1.00  0.00     0.049 A 
ATOM     52  C   UNL A   1      44.058  25.409  28.844  1.00  0.00     0.074 A 
ATOM     53  C   UNL A   1      46.169  30.730  31.577  1.00  0.00     0.029 A 
ATOM     54  N   UNL A   1      44.925  29.186  30.569  1.00  0.00    -0.354 N 
ATOM     55  N   UNL A   1      44.402  26.544  29.406  1.00  0.00    -0.248 NA
ATOM     56  C   UNL A   1      45.170  24.463  28.672  1.00  0.00     0.031 C 
ATOM     57  C   UNL A   1      46.976  29.624  31.302  1.00  0.00     0.029 A 
ATOM     58  C   UNL A   1      46.193  28.649  30.704  1.00  0.00     0.049 A 
ATOM     59  H   UNL A   1      44.155  28.724  30.167  1.00  0.00     0.167 HD
ATOM     60  C   UNL A   1      45.758  26.429  29.692  1.00  0.00     0.074 A 
ATOM     61  C   UNL A   1      46.172  25.116  29.246  1.00  0.00     0.031 C 
ATOM     62  C   UNL A   1      46.584  27.329  30.280  1.00  0.00     0.031 A 
BRANCH  49  63
ATOM     63  C   UNL A   1      43.934  32.749  31.581  1.00  0.00    -0.014 A 
ATOM     64  C   UNL A   1      43.852  33.058  32.950  1.00  0.00     0.010 A 
ATOM     65  C   UNL A   1      44.260  33.771  30.669  1.00  0.00     0.010 A 
ATOM     66  C   UNL A   1      44.064  34.366  33.395  1.00  0.00     0.020 A 
ATOM     67  C   UNL A   1      44.503  35.073  31.112  1.00  0.00     0.020 A 
ATOM     68  C   UNL A   1      44.391  35.365  32.472  1.00  0.00     0.054 A 
BRANCH  68  69
ATOM     69  S   UNL A   1      44.706  37.043  33.084  1.00  0.00     0.124 S 
ATOM     70  O   UNL A   1      43.926  37.064  34.319  1.00  0.00    -0.237 OA
ATOM     71  O   UNL A   1      46.156  37.051  33.258  1.00  0.00    -0.237 OA
ATOM     72  O   UNL A   1      44.203  37.904  32.016  1.00  0.00    -0.744 OA
ENDBRANCH  68  69
ENDBRANCH  49  63
BRANCH  50  73
ATOM     73  C   UNL A   1      42.515  23.605  27.780  1.00  0.00    -0.014 A 
ATOM     74  C   UNL A   1      42.261  22.497  28.609  1.00  0.00     0.010 A 
ATOM     75  C   UNL A   1      42.611  23.406  26.390  1.00  0.00     0.010 A 
ATOM     76  C   UNL A   1      42.139  21.215  28.064  1.00  0.00     0.020 A 
ATOM     77  C   UNL A   1      42.457  22.130  25.838  1.00  0.00     0.020 A 
ATOM     78  C   UNL A   1      42.239  21.040  26.682  1.00  0.00     0.054 A 
BRANCH  78  79
ATOM     79  S   UNL A   1      42.056  19.368  26.000  1.00  0.00     0.124 S 
ATOM     80  O   UNL A   1      42.896  19.434  24.808  1.00  0.00    -0.237 OA
ATOM     81  O   UNL A   1      42.560  18.529  27.085  1.00  0.00    -0.237 OA
ATOM     82  O   UNL A   1      40.621  19.255  25.750  1.00  0.00    -0.744 OA
ENDBRANCH  78  79
ENDBRANCH  50  73
BRANCH  62  83
ATOM     83  C   UNL A   1      48.006  26.918  30.545  1.00  0.00    -0.014 A 
ATOM     84  C   UNL A   1      49.019  27.119  29.593  1.00  0.00     0.010 A 
ATOM     85  C   UNL A   1      48.349  26.426  31.820  1.00  0.00     0.010 A 
ATOM     86  C   UNL A   1      50.351  26.831  29.909  1.00  0.00     0.020 A 
ATOM     87  C   UNL A   1      49.681  26.166  32.150  1.00  0.00     0.020 A 
ATOM     88  C   UNL A   1      50.673  26.366  31.189  1.00  0.00     0.054 A 
BRANCH  88  89
ATOM     89  S   UNL A   1      52.418  26.094  31.604  1.00  0.00     0.124 S 
ATOM     90  O   UNL A   1      53.090  26.493  30.371  1.00  0.00    -0.237 OA
ATOM     91  O   UNL A   1      52.617  26.984  32.745  1.00  0.00    -0.237 OA
ATOM     92  O   UNL A   1      52.483  24.668  31.916  1.00  0.00    -0.744 OA
ENDBRANCH  88  89
ENDBRANCH  62  83
ENDBRANCH  36  37
ENDBRANCH  28  31
ENDBRANCH  26  27
ENDBRANCH  25  26
ENDBRANCH   1  25
TORSDOF 18
ENDMDL
MODEL 2
REMARK VINA RESULT:     -10.5      4.825     10.768
REMARK SMILES CC(=O)NCCNC(=O)C[N@H+]1CC[C@@H](C(=O)NCCCNC(=O)c2ccc(-c3c4nc(c(-c5ccc(S(=O)(=O)[O-])cc5)c5ccc([nH]5)c(-c5ccc(S(=O)(=O)[O-])cc5)c5nc(c(-c6ccc(S(=O)(=O)[O-])cc6)c6ccc3[nH]6)C=C5)C=C4)cc2)[C@H]1C
REMARK SMILES IDX 18 1 17 2 15 3 16 4 14 6 11 7 12 8 84 9 13 11 85 12 10 13
REMARK SMILES IDX 8 14 7 15 9 17 6 18 5 19 4 20 1 21 2 22 3 23 19 25 20 26
REMARK SMILES IDX 21 27 22 28 23 30 24 31 25 32 83 33 26 34 82 35 27 36 28 37
REMARK SMILES IDX 29 38 76 39 30 40 81 41 75 42 77 43 31 44 80 45 74 46 73 47
REMARK SMILES IDX 32 49 62 50 43 51 61 52 44 53 47 54 60 55 78 56 45 57 46 58
REMARK SMILES IDX 59 60 79 61 48 62 33 63 34 64 42 65 35 66 41 67 36 68 37 69
REMARK SMILES IDX 38 70 39 71 40 72 63 73 64 74 72 75 65 76 71 77 66 78 67 79
REMARK SMILES IDX 68 80 69 81 70 82 49 83 50 84 58 85 51 86 57 87 52 88 53 89
REMARK SMILES IDX 54 90 55 91 56 92
REMARK H PARENT 17 5 11 10 7 16 4 24 21 29 77 48 47 59
REMARK Flexibility Score: inf
ROOT
ATOM      1  C   UNL A   1      36.540  23.717  25.698  1.00  0.00     0.117 C 
ENDROOT
BRANCH   1   2
ATOM      2  N   UNL A   1      35.590  23.101  26.610  1.00  0.00    -0.356 N 
ATOM      3  C   UNL A   1      34.276  22.789  26.489  1.00  0.00     0.229 C 
ATOM      4  O   UNL A   1      33.725  22.318  27.489  1.00  0.00    -0.275 OA
ATOM      5  H   UNL A   1      35.975  22.865  27.486  1.00  0.00     0.163 HD
BRANCH   3   6
ATOM      6  C   UNL A   1      33.488  22.949  25.199  1.00  0.00     0.142 C 
ATOM      7  N   UNL A   1      33.173  24.371  23.295  1.00  0.00    -0.324 N 
ATOM      8  C   UNL A   1      33.727  23.120  22.804  1.00  0.00     0.263 C 
ATOM      9  C   UNL A   1      33.008  24.342  24.759  1.00  0.00     0.194 C 
ATOM     10  H   UNL A   1      32.212  24.451  22.964  1.00  0.00     0.348 HD
ATOM     11  C   UNL A   1      34.148  22.294  23.997  1.00  0.00     0.081 C 
ATOM     12  C   UNL A   1      33.511  25.539  25.559  1.00  0.00     0.076 C 
BRANCH   7  13
ATOM     13  C   UNL A   1      33.675  25.582  22.644  1.00  0.00     0.363 C 
BRANCH  13  14
ATOM     14  C   UNL A   1      32.822  25.930  21.421  1.00  0.00     0.275 C 
ATOM     15  N   UNL A   1      31.710  26.714  21.593  1.00  0.00    -0.349 N 
ATOM     16  H   UNL A   1      31.103  26.785  20.822  1.00  0.00     0.163 HD
ATOM     17  O   UNL A   1      33.083  25.506  20.295  1.00  0.00    -0.269 OA
BRANCH  15  18
ATOM     18  C   UNL A   1      31.325  27.454  22.784  1.00  0.00     0.137 C 
BRANCH  18  19
ATOM     19  C   UNL A   1      31.774  28.917  22.701  1.00  0.00     0.137 C 
BRANCH  19  20
ATOM     20  N   UNL A   1      30.944  29.663  21.766  1.00  0.00    -0.355 N 
ATOM     21  C   UNL A   1      29.017  29.875  23.282  1.00  0.00     0.114 C 
ATOM     22  C   UNL A   1      29.652  30.068  21.932  1.00  0.00     0.216 C 
ATOM     23  O   UNL A   1      29.045  30.587  20.999  1.00  0.00    -0.275 OA
ATOM     24  H   UNL A   1      31.366  29.903  20.910  1.00  0.00     0.163 HD
ENDBRANCH  19  20
ENDBRANCH  18  19
ENDBRANCH  15  18
ENDBRANCH  13  14
ENDBRANCH   7  13
ENDBRANCH   3   6
ENDBRANCH   1   2
BRANCH   1  25
ATOM     25  C   UNL A   1      37.912  23.058  25.772  1.00  0.00     0.042 C 
BRANCH  25  26
ATOM     26  C   UNL A   1      38.877  23.735  26.729  1.00  0.00     0.118 C 
BRANCH  26  27
ATOM     27  N   UNL A   1      40.236  23.768  26.215  1.00  0.00    -0.352 N 
ATOM     28  C   UNL A   1      41.212  24.723  26.394  1.00  0.00     0.251 C 
ATOM     29  H   UNL A   1      40.496  22.997  25.659  1.00  0.00     0.163 HD
ATOM     30  O   UNL A   1      42.221  24.696  25.697  1.00  0.00    -0.269 OA
BRANCH  28  31
ATOM     31  C   UNL A   1      41.029  25.792  27.403  1.00  0.00     0.039 A 
ATOM     32  C   UNL A   1      40.059  25.637  28.398  1.00  0.00     0.014 A 
ATOM     33  C   UNL A   1      41.810  26.949  27.370  1.00  0.00     0.014 A 
ATOM     34  C   UNL A   1      39.928  26.606  29.399  1.00  0.00     0.010 A 
ATOM     35  C   UNL A   1      41.750  27.857  28.421  1.00  0.00     0.010 A 
ATOM     36  C   UNL A   1      40.800  27.705  29.442  1.00  0.00    -0.014 A 
BRANCH  36  37
ATOM     37  C   UNL A   1      40.732  28.737  30.511  1.00  0.00     0.031 A 
ATOM     38  C   UNL A   1      41.635  28.620  31.712  1.00  0.00     0.074 A 
ATOM     39  C   UNL A   1      39.803  29.714  30.455  1.00  0.00     0.049 A 
ATOM     40  N   UNL A   1      41.632  29.313  32.820  1.00  0.00    -0.248 NA
ATOM     41  C   UNL A   1      42.659  27.558  31.675  1.00  0.00     0.031 C 
ATOM     42  C   UNL A   1      38.858  29.930  29.358  1.00  0.00     0.029 A 
ATOM     43  N   UNL A   1      39.489  30.702  31.357  1.00  0.00    -0.354 N 
ATOM     44  C   UNL A   1      42.616  28.749  33.624  1.00  0.00     0.074 A 
ATOM     45  C   UNL A   1      43.173  27.633  32.893  1.00  0.00     0.031 C 
ATOM     46  C   UNL A   1      38.088  30.993  29.640  1.00  0.00     0.029 A 
ATOM     47  C   UNL A   1      38.441  31.501  30.962  1.00  0.00     0.049 A 
ATOM     48  H   UNL A   1      39.970  30.827  32.207  1.00  0.00     0.167 HD
ATOM     49  C   UNL A   1      43.027  29.133  34.855  1.00  0.00     0.031 A 
ATOM     50  C   UNL A   1      37.820  32.514  31.600  1.00  0.00     0.031 A 
ATOM     51  C   UNL A   1      42.493  30.264  35.562  1.00  0.00     0.049 A 
ATOM     52  C   UNL A   1      38.281  32.904  32.980  1.00  0.00     0.074 A 
ATOM     53  C   UNL A   1      42.895  30.780  36.781  1.00  0.00     0.029 A 
ATOM     54  N   UNL A   1      41.442  31.052  35.119  1.00  0.00    -0.354 N 
ATOM     55  N   UNL A   1      39.259  32.400  33.695  1.00  0.00    -0.248 NA
ATOM     56  C   UNL A   1      37.560  34.002  33.640  1.00  0.00     0.031 C 
ATOM     57  C   UNL A   1      42.045  31.840  37.106  1.00  0.00     0.029 A 
ATOM     58  C   UNL A   1      41.162  32.031  36.055  1.00  0.00     0.049 A 
ATOM     59  H   UNL A   1      40.966  30.932  34.265  1.00  0.00     0.167 HD
ATOM     60  C   UNL A   1      39.297  33.149  34.867  1.00  0.00     0.074 A 
ATOM     61  C   UNL A   1      38.247  34.141  34.766  1.00  0.00     0.031 C 
ATOM     62  C   UNL A   1      40.132  33.029  35.928  1.00  0.00     0.031 A 
BRANCH  49  63
ATOM     63  C   UNL A   1      44.099  28.318  35.531  1.00  0.00    -0.014 A 
ATOM     64  C   UNL A   1      45.462  28.624  35.375  1.00  0.00     0.010 A 
ATOM     65  C   UNL A   1      43.728  27.271  36.397  1.00  0.00     0.010 A 
ATOM     66  C   UNL A   1      46.435  27.880  36.048  1.00  0.00     0.020 A 
ATOM     67  C   UNL A   1      44.696  26.545  37.095  1.00  0.00     0.020 A 
ATOM     68  C   UNL A   1      46.045  26.847  36.906  1.00  0.00     0.054 A 
BRANCH  68  69
ATOM     69  S   UNL A   1      47.330  25.930  37.801  1.00  0.00     0.124 S 
ATOM     70  O   UNL A   1      48.285  26.987  38.122  1.00  0.00    -0.237 OA
ATOM     71  O   UNL A   1      46.595  25.382  38.938  1.00  0.00    -0.237 OA
ATOM     72  O   UNL A   1      47.795  24.944  36.828  1.00  0.00    -0.744 OA
ENDBRANCH  68  69
ENDBRANCH  49  63
BRANCH  50  73
ATOM     73  C   UNL A   1      36.694  33.240  30.947  1.00  0.00    -0.014 A 
ATOM     74  C   UNL A   1      35.366  32.998  31.347  1.00  0.00     0.010 A 
ATOM     75  C   UNL A   1      36.935  34.163  29.912  1.00  0.00     0.010 A 
ATOM     76  C   UNL A   1      34.303  33.638  30.703  1.00  0.00     0.020 A 
ATOM     77  C   UNL A   1      35.875  34.830  29.288  1.00  0.00     0.020 A 
ATOM     78  C   UNL A   1      34.564  34.549  29.676  1.00  0.00     0.054 A 
BRANCH  78  79
ATOM     79  S   UNL A   1      33.166  35.381  28.873  1.00  0.00     0.124 S 
ATOM     80  O   UNL A   1      33.841  36.375  28.044  1.00  0.00    -0.237 OA
ATOM     81  O   UNL A   1      32.522  34.286  28.151  1.00  0.00    -0.237 OA
ATOM     82  O   UNL A   1      32.396  35.917  29.993  1.00  0.00    -0.744 OA
ENDBRANCH  78  79
ENDBRANCH  50  73
BRANCH  62  83
ATOM     83  C   UNL A   1      40.005  34.029  37.045  1.00  0.00    -0.014 A 
ATOM     84  C   UNL A   1      40.585  35.306  36.959  1.00  0.00     0.010 A 
ATOM     85  C   UNL A   1      39.191  33.717  38.151  1.00  0.00     0.010 A 
ATOM     86  C   UNL A   1      40.356  36.252  37.962  1.00  0.00     0.020 A 
ATOM     87  C   UNL A   1      38.936  34.669  39.140  1.00  0.00     0.020 A 
ATOM     88  C   UNL A   1      39.525  35.931  39.040  1.00  0.00     0.054 A 
BRANCH  88  89
ATOM     89  S   UNL A   1      39.166  37.209  40.277  1.00  0.00     0.124 S 
ATOM     90  O   UNL A   1      38.471  38.217  39.481  1.00  0.00    -0.237 OA
ATOM     91  O   UNL A   1      38.339  36.493  41.245  1.00  0.00    -0.237 OA
ATOM     92  O   UNL A   1      40.486  37.601  40.764  1.00  0.00    -0.744 OA
ENDBRANCH  88  89
ENDBRANCH  62  83
ENDBRANCH  36  37
ENDBRANCH  28  31
ENDBRANCH  26  27
ENDBRANCH  25  26
ENDBRANCH   1  25
TORSDOF 18
ENDMDL
MODEL 3
REMARK VINA RESULT:     -10.4      3.537      9.797
REMARK SMILES CC(=O)NCCNC(=O)C[N@H+]1CC[C@@H](C(=O)NCCCNC(=O)c2ccc(-c3c4nc(c(-c5ccc(S(=O)(=O)[O-])cc5)c5ccc([nH]5)c(-c5ccc(S(=O)(=O)[O-])cc5)c5nc(c(-c6ccc(S(=O)(=O)[O-])cc6)c6ccc3[nH]6)C=C5)C=C4)cc2)[C@H]1C
REMARK SMILES IDX 18 1 17 2 15 3 16 4 14 6 11 7 12 8 84 9 13 11 85 12 10 13
REMARK SMILES IDX 8 14 7 15 9 17 6 18 5 19 4 20 1 21 2 22 3 23 19 25 20 26
REMARK SMILES IDX 21 27 22 28 23 30 24 31 25 32 83 33 26 34 82 35 27 36 28 37
REMARK SMILES IDX 29 38 76 39 30 40 81 41 75 42 77 43 31 44 80 45 74 46 73 47
REMARK SMILES IDX 32 49 62 50 43 51 61 52 44 53 47 54 60 55 78 56 45 57 46 58
REMARK SMILES IDX 59 60 79 61 48 62 33 63 34 64 42 65 35 66 41 67 36 68 37 69
REMARK SMILES IDX 38 70 39 71 40 72 63 73 64 74 72 75 65 76 71 77 66 78 67 79
REMARK SMILES IDX 68 80 69 81 70 82 49 83 50 84 58 85 51 86 57 87 52 88 53 89
REMARK SMILES IDX 54 90 55 91 56 92
REMARK H PARENT 17 5 11 10 7 16 4 24 21 29 77 48 47 59
REMARK Flexibility Score: inf
ROOT
ATOM      1  C   UNL A   1      37.243  21.085  24.555  1.00  0.00     0.117 C 
ENDROOT
BRANCH   1   2
ATOM      2  N   UNL A   1      35.970  21.101  25.257  1.00  0.00    -0.356 N 
ATOM      3  C   UNL A   1      35.012  22.052  25.393  1.00  0.00     0.229 C 
ATOM      4  O   UNL A   1      34.053  21.772  26.121  1.00  0.00    -0.275 OA
ATOM      5  H   UNL A   1      35.763  20.259  25.726  1.00  0.00     0.163 HD
BRANCH   3   6
ATOM      6  C   UNL A   1      35.045  23.389  24.672  1.00  0.00     0.142 C 
ATOM      7  N   UNL A   1      33.709  24.940  23.422  1.00  0.00    -0.324 N 
ATOM      8  C   UNL A   1      34.075  25.599  24.665  1.00  0.00     0.263 C 
ATOM      9  C   UNL A   1      34.261  23.575  23.361  1.00  0.00     0.194 C 
ATOM     10  H   UNL A   1      34.188  25.408  22.654  1.00  0.00     0.348 HD
ATOM     11  C   UNL A   1      34.719  24.572  25.568  1.00  0.00     0.081 C 
ATOM     12  C   UNL A   1      33.329  22.444  22.939  1.00  0.00     0.076 C 
BRANCH   7  13
ATOM     13  C   UNL A   1      32.348  25.194  22.949  1.00  0.00     0.363 C 
BRANCH  13  14
ATOM     14  C   UNL A   1      32.372  25.963  21.625  1.00  0.00     0.275 C 
ATOM     15  N   UNL A   1      31.548  27.049  21.478  1.00  0.00    -0.349 N 
ATOM     16  H   UNL A   1      31.473  27.419  20.568  1.00  0.00     0.163 HD
ATOM     17  O   UNL A   1      33.081  25.620  20.679  1.00  0.00    -0.269 OA
BRANCH  15  18
ATOM     18  C   UNL A   1      30.774  27.719  22.509  1.00  0.00     0.137 C 
BRANCH  18  19
ATOM     19  C   UNL A   1      31.157  29.199  22.622  1.00  0.00     0.137 C 
BRANCH  19  20
ATOM     20  N   UNL A   1      30.409  30.003  21.667  1.00  0.00    -0.355 N 
ATOM     21  C   UNL A   1      28.505  30.435  23.167  1.00  0.00     0.114 C 
ATOM     22  C   UNL A   1      29.162  30.537  21.817  1.00  0.00     0.216 C 
ATOM     23  O   UNL A   1      28.612  31.094  20.871  1.00  0.00    -0.275 OA
ATOM     24  H   UNL A   1      30.855  30.183  20.809  1.00  0.00     0.163 HD
ENDBRANCH  19  20
ENDBRANCH  18  19
ENDBRANCH  15  18
ENDBRANCH  13  14
ENDBRANCH   7  13
ENDBRANCH   3   6
ENDBRANCH   1   2
BRANCH   1  25
ATOM     25  C   UNL A   1      38.180  20.014  25.098  1.00  0.00     0.042 C 
BRANCH  25  26
ATOM     26  C   UNL A   1      39.367  20.560  25.874  1.00  0.00     0.118 C 
BRANCH  26  27
ATOM     27  N   UNL A   1      40.374  19.545  26.132  1.00  0.00    -0.352 N 
ATOM     28  C   UNL A   1      41.733  19.690  26.304  1.00  0.00     0.251 C 
ATOM     29  H   UNL A   1      40.037  18.622  26.194  1.00  0.00     0.163 HD
ATOM     30  O   UNL A   1      42.455  18.700  26.284  1.00  0.00    -0.269 OA
BRANCH  28  31
ATOM     31  C   UNL A   1      42.318  21.040  26.483  1.00  0.00     0.039 A 
ATOM     32  C   UNL A   1      42.605  21.818  25.358  1.00  0.00     0.014 A 
ATOM     33  C   UNL A   1      42.588  21.539  27.759  1.00  0.00     0.014 A 
ATOM     34  C   UNL A   1      43.089  23.121  25.518  1.00  0.00     0.010 A 
ATOM     35  C   UNL A   1      42.969  22.866  27.919  1.00  0.00     0.010 A 
ATOM     36  C   UNL A   1      43.237  23.671  26.802  1.00  0.00    -0.014 A 
BRANCH  36  37
ATOM     37  C   UNL A   1      43.703  25.066  27.023  1.00  0.00     0.031 A 
ATOM     38  C   UNL A   1      45.148  25.413  26.767  1.00  0.00     0.074 A 
ATOM     39  C   UNL A   1      42.867  25.988  27.542  1.00  0.00     0.049 A 
ATOM     40  N   UNL A   1      45.793  26.516  27.039  1.00  0.00    -0.248 NA
ATOM     41  C   UNL A   1      45.985  24.368  26.149  1.00  0.00     0.031 C 
ATOM     42  C   UNL A   1      41.451  25.777  27.851  1.00  0.00     0.029 A 
ATOM     43  N   UNL A   1      43.095  27.289  27.920  1.00  0.00    -0.354 N 
ATOM     44  C   UNL A   1      47.114  26.284  26.670  1.00  0.00     0.074 A 
ATOM     45  C   UNL A   1      47.187  24.924  26.186  1.00  0.00     0.031 C 
ATOM     46  C   UNL A   1      40.933  26.912  28.349  1.00  0.00     0.029 A 
ATOM     47  C   UNL A   1      41.990  27.915  28.451  1.00  0.00     0.049 A 
ATOM     48  H   UNL A   1      43.967  27.734  27.820  1.00  0.00     0.167 HD
ATOM     49  C   UNL A   1      48.168  27.131  26.717  1.00  0.00     0.031 A 
ATOM     50  C   UNL A   1      41.847  29.147  28.980  1.00  0.00     0.031 A 
ATOM     51  C   UNL A   1      48.082  28.493  27.167  1.00  0.00     0.049 A 
ATOM     52  C   UNL A   1      43.043  30.061  29.044  1.00  0.00     0.074 A 
ATOM     53  C   UNL A   1      49.077  29.455  27.181  1.00  0.00     0.029 A 
ATOM     54  N   UNL A   1      46.941  29.087  27.683  1.00  0.00    -0.354 N 
ATOM     55  N   UNL A   1      44.268  29.844  28.626  1.00  0.00    -0.248 NA
ATOM     56  C   UNL A   1      42.839  31.387  29.646  1.00  0.00     0.031 C 
ATOM     57  C   UNL A   1      48.556  30.611  27.766  1.00  0.00     0.029 A 
ATOM     58  C   UNL A   1      47.216  30.393  28.048  1.00  0.00     0.049 A 
ATOM     59  H   UNL A   1      46.066  28.646  27.776  1.00  0.00     0.167 HD
ATOM     60  C   UNL A   1      44.966  31.022  28.875  1.00  0.00     0.074 A 
ATOM     61  C   UNL A   1      44.029  31.947  29.476  1.00  0.00     0.031 C 
ATOM     62  C   UNL A   1      46.265  31.312  28.619  1.00  0.00     0.031 A 
BRANCH  49  63
ATOM     63  C   UNL A   1      49.515  26.612  26.286  1.00  0.00    -0.014 A 
ATOM     64  C   UNL A   1      50.063  26.942  25.034  1.00  0.00     0.010 A 
ATOM     65  C   UNL A   1      50.277  25.839  27.183  1.00  0.00     0.010 A 
ATOM     66  C   UNL A   1      51.334  26.484  24.675  1.00  0.00     0.020 A 
ATOM     67  C   UNL A   1      51.560  25.405  26.840  1.00  0.00     0.020 A 
ATOM     68  C   UNL A   1      52.075  25.721  25.582  1.00  0.00     0.054 A 
BRANCH  68  69
ATOM     69  S   UNL A   1      53.740  25.181  25.105  1.00  0.00     0.124 S 
ATOM     70  O   UNL A   1      53.661  23.738  25.319  1.00  0.00    -0.237 OA
ATOM     71  O   UNL A   1      53.824  25.605  23.710  1.00  0.00    -0.237 OA
ATOM     72  O   UNL A   1      54.617  25.900  26.027  1.00  0.00    -0.744 OA
ENDBRANCH  68  69
ENDBRANCH  49  63
BRANCH  50  73
ATOM     73  C   UNL A   1      40.522  29.601  29.491  1.00  0.00    -0.014 A 
ATOM     74  C   UNL A   1      39.550  30.096  28.603  1.00  0.00     0.010 A 
ATOM     75  C   UNL A   1      40.228  29.559  30.867  1.00  0.00     0.010 A 
ATOM     76  C   UNL A   1      38.325  30.572  29.083  1.00  0.00     0.020 A 
ATOM     77  C   UNL A   1      38.991  30.003  31.347  1.00  0.00     0.020 A 
ATOM     78  C   UNL A   1      38.055  30.523  30.452  1.00  0.00     0.054 A 
BRANCH  78  79
ATOM     79  S   UNL A   1      36.450  31.126  31.045  1.00  0.00     0.124 S 
ATOM     80  O   UNL A   1      35.701  31.271  29.800  1.00  0.00    -0.237 OA
ATOM     81  O   UNL A   1      36.013  30.045  31.925  1.00  0.00    -0.237 OA
ATOM     82  O   UNL A   1      36.783  32.376  31.725  1.00  0.00    -0.744 OA
ENDBRANCH  78  79
ENDBRANCH  50  73
BRANCH  62  83
ATOM     83  C   UNL A   1      46.753  32.703  28.920  1.00  0.00    -0.014 A 
ATOM     84  C   UNL A   1      47.372  33.017  30.142  1.00  0.00     0.010 A 
ATOM     85  C   UNL A   1      46.690  33.682  27.910  1.00  0.00     0.010 A 
ATOM     86  C   UNL A   1      47.916  34.288  30.349  1.00  0.00     0.020 A 
ATOM     87  C   UNL A   1      47.259  34.943  28.102  1.00  0.00     0.020 A 
ATOM     88  C   UNL A   1      47.865  35.239  29.324  1.00  0.00     0.054 A 
BRANCH  88  89
ATOM     89  S   UNL A   1      48.663  36.847  29.584  1.00  0.00     0.124 S 
ATOM     90  O   UNL A   1      49.370  36.635  30.844  1.00  0.00    -0.237 OA
ATOM     91  O   UNL A   1      49.512  36.976  28.402  1.00  0.00    -0.237 OA
ATOM     92  O   UNL A   1      47.546  37.785  29.646  1.00  0.00    -0.744 OA
ENDBRANCH  88  89
ENDBRANCH  62  83
ENDBRANCH  36  37
ENDBRANCH  28  31
ENDBRANCH  26  27
ENDBRANCH  25  26
ENDBRANCH   1  25
TORSDOF 18
ENDMDL
