MODEL 1
REMARK VINA RESULT:     -10.6      0.000      0.000
REMARK SMILES O=C(CCCCCn1cc(Cl)c(I)n1)NCCCNC(=O)c1ccc(-c2c3nc(c(-c4ccc(S(=O)(=O)[O-])cc4)c4ccc([nH]4)c(-c4ccc(S(=O)(=O)[O-])cc4)c4nc(c(-c5ccc(S(=O)(=O)[O-])cc5)c5ccc2[nH]5)C=C4)C=C3)cc1
REMARK SMILES IDX 16 1 15 2 1 3 2 4 3 6 4 7 5 8 6 9 7 10 8 11 9 12 14 13 10 14
REMARK SMILES IDX 12 15 11 16 13 17 17 18 18 19 19 20 20 21 21 23 22 24 23 25
REMARK SMILES IDX 81 26 24 27 80 28 25 29 26 30 27 31 74 32 28 33 79 34 73 35
REMARK SMILES IDX 75 36 29 37 78 38 72 39 71 40 30 42 60 43 41 44 59 45 42 46
REMARK SMILES IDX 45 47 58 48 76 49 43 50 44 51 57 53 77 54 46 55 31 56 32 57
REMARK SMILES IDX 40 58 33 59 39 60 34 61 35 62 36 63 37 64 38 65 61 66 62 67
REMARK SMILES IDX 70 68 63 69 69 70 64 71 65 72 66 73 67 74 68 75 47 76 48 77
REMARK SMILES IDX 56 78 49 79 55 80 50 81 51 82 52 83 53 84 54 85
REMARK H PARENT 15 5 19 22 75 41 45 52
REMARK Flexibility Score: inf
ROOT
ATOM      1  C   UNL A   1      44.676  18.743  24.844  1.00  0.00     0.117 C 
ENDROOT
BRANCH   1   2
ATOM      2  N   UNL A   1      43.520  19.368  25.464  1.00  0.00    -0.356 N 
ATOM      3  O   UNL A   1      43.009  17.617  26.860  1.00  0.00    -0.275 OA
ATOM      4  C   UNL A   1      42.832  18.776  26.501  1.00  0.00     0.219 C 
ATOM      5  H   UNL A   1      43.218  20.244  25.133  1.00  0.00     0.163 HD
BRANCH   4   6
ATOM      6  C   UNL A   1      41.861  19.706  27.208  1.00  0.00     0.100 C 
BRANCH   6   7
ATOM      7  C   UNL A   1      41.664  21.011  26.431  1.00  0.00     0.010 C 
BRANCH   7   8
ATOM      8  C   UNL A   1      40.931  22.125  27.189  1.00  0.00     0.002 C 
BRANCH   8   9
ATOM      9  C   UNL A   1      39.576  22.552  26.602  1.00  0.00     0.024 C 
BRANCH   9  10
ATOM     10  C   UNL A   1      38.832  21.491  25.774  1.00  0.00     0.144 C 
BRANCH  10  11
ATOM     11  N   UNL A   1      37.430  21.794  25.549  1.00  0.00    -0.270 N 
ATOM     12  C   UNL A   1      36.473  20.943  25.076  1.00  0.00     0.130 A 
ATOM     13  N   UNL A   1      36.965  23.036  25.785  1.00  0.00    -0.165 NA
ATOM     14  C   UNL A   1      35.333  21.697  24.920  1.00  0.00     0.092 A 
ATOM     15  C   UNL A   1      35.700  22.984  25.360  1.00  0.00     0.141 A 
ATOM     16  Cl  UNL A   1      33.841  21.169  24.318  1.00  0.00    -0.080 Cl
ATOM     17  I   UNL A   1      34.518  24.649  25.355  1.00  0.00    -0.018 I 
ENDBRANCH  10  11
ENDBRANCH   9  10
ENDBRANCH   8   9
ENDBRANCH   7   8
ENDBRANCH   6   7
ENDBRANCH   4   6
ENDBRANCH   1   2
BRANCH   1  18
ATOM     18  C   UNL A   1      46.004  19.266  25.389  1.00  0.00     0.042 C 
BRANCH  18  19
ATOM     19  C   UNL A   1      46.170  20.774  25.247  1.00  0.00     0.118 C 
BRANCH  19  20
ATOM     20  N   UNL A   1      45.685  21.304  23.972  1.00  0.00    -0.352 N 
ATOM     21  C   UNL A   1      44.680  22.237  23.789  1.00  0.00     0.251 C 
ATOM     22  H   UNL A   1      46.120  20.961  23.158  1.00  0.00     0.163 HD
ATOM     23  O   UNL A   1      44.108  22.348  22.707  1.00  0.00    -0.269 OA
BRANCH  21  24
ATOM     24  C   UNL A   1      44.316  23.107  24.922  1.00  0.00     0.039 A 
ATOM     25  C   UNL A   1      44.903  22.961  26.184  1.00  0.00     0.014 A 
ATOM     26  C   UNL A   1      43.391  24.118  24.677  1.00  0.00     0.014 A 
ATOM     27  C   UNL A   1      44.619  23.904  27.175  1.00  0.00     0.010 A 
ATOM     28  C   UNL A   1      43.216  25.113  25.604  1.00  0.00     0.010 A 
ATOM     29  C   UNL A   1      43.790  24.993  26.871  1.00  0.00    -0.014 A 
BRANCH  29  30
ATOM     30  C   UNL A   1      43.634  26.117  27.796  1.00  0.00     0.031 A 
ATOM     31  C   UNL A   1      44.695  27.166  27.683  1.00  0.00     0.074 A 
ATOM     32  C   UNL A   1      42.466  26.332  28.446  1.00  0.00     0.049 A 
ATOM     33  N   UNL A   1      45.482  27.620  28.604  1.00  0.00    -0.248 NA
ATOM     34  C   UNL A   1      45.001  27.694  26.338  1.00  0.00     0.031 C 
ATOM     35  C   UNL A   1      41.242  25.521  28.362  1.00  0.00     0.029 A 
ATOM     36  N   UNL A   1      42.054  27.404  29.179  1.00  0.00    -0.354 N 
ATOM     37  C   UNL A   1      46.217  28.647  28.009  1.00  0.00     0.074 A 
ATOM     38  C   UNL A   1      46.026  28.508  26.589  1.00  0.00     0.031 C 
ATOM     39  C   UNL A   1      40.183  26.252  28.771  1.00  0.00     0.029 A 
ATOM     40  C   UNL A   1      40.668  27.512  29.302  1.00  0.00     0.049 A 
ATOM     41  H   UNL A   1      42.680  28.046  29.587  1.00  0.00     0.167 HD
ATOM     42  C   UNL A   1      46.698  29.699  28.732  1.00  0.00     0.031 A 
ATOM     43  C   UNL A   1      39.958  28.579  29.755  1.00  0.00     0.031 A 
ATOM     44  C   UNL A   1      46.697  29.416  30.143  1.00  0.00     0.049 A 
ATOM     45  C   UNL A   1      40.897  29.434  30.514  1.00  0.00     0.074 A 
ATOM     46  C   UNL A   1      47.280  28.458  30.947  1.00  0.00     0.029 A 
ATOM     47  N   UNL A   1      45.677  29.966  30.884  1.00  0.00    -0.354 N 
ATOM     48  N   UNL A   1      41.475  29.057  31.619  1.00  0.00    -0.248 NA
ATOM     49  C   UNL A   1      41.547  30.526  29.809  1.00  0.00     0.031 C 
ATOM     50  C   UNL A   1      46.290  28.150  31.924  1.00  0.00     0.029 A 
ATOM     51  C   UNL A   1      45.195  28.992  31.717  1.00  0.00     0.049 A 
ATOM     52  H   UNL A   1      45.352  30.894  30.826  1.00  0.00     0.167 HD
ATOM     53  C   UNL A   1      42.772  29.539  31.519  1.00  0.00     0.074 A 
ATOM     54  C   UNL A   1      42.726  30.522  30.437  1.00  0.00     0.031 C 
ATOM     55  C   UNL A   1      43.810  28.891  32.126  1.00  0.00     0.031 A 
BRANCH  42  56
ATOM     56  C   UNL A   1      46.739  31.121  28.207  1.00  0.00    -0.014 A 
ATOM     57  C   UNL A   1      45.523  31.810  28.008  1.00  0.00     0.010 A 
ATOM     58  C   UNL A   1      47.892  31.693  27.627  1.00  0.00     0.010 A 
ATOM     59  C   UNL A   1      45.455  32.952  27.197  1.00  0.00     0.020 A 
ATOM     60  C   UNL A   1      47.841  32.855  26.855  1.00  0.00     0.020 A 
ATOM     61  C   UNL A   1      46.616  33.456  26.611  1.00  0.00     0.054 A 
BRANCH  61  62
ATOM     62  S   UNL A   1      46.505  34.855  25.470  1.00  0.00     0.124 S 
ATOM     63  O   UNL A   1      46.130  35.942  26.367  1.00  0.00    -0.237 OA
ATOM     64  O   UNL A   1      47.858  34.915  24.925  1.00  0.00    -0.237 OA
ATOM     65  O   UNL A   1      45.474  34.438  24.522  1.00  0.00    -0.744 OA
ENDBRANCH  61  62
ENDBRANCH  42  56
BRANCH  43  66
ATOM     66  C   UNL A   1      38.621  29.057  29.313  1.00  0.00    -0.014 A 
ATOM     67  C   UNL A   1      37.551  29.193  30.218  1.00  0.00     0.010 A 
ATOM     68  C   UNL A   1      38.477  29.652  28.042  1.00  0.00     0.010 A 
ATOM     69  C   UNL A   1      36.408  29.945  29.886  1.00  0.00     0.020 A 
ATOM     70  C   UNL A   1      37.337  30.389  27.699  1.00  0.00     0.020 A 
ATOM     71  C   UNL A   1      36.318  30.555  28.632  1.00  0.00     0.054 A 
BRANCH  71  72
ATOM     72  S   UNL A   1      34.932  31.676  28.269  1.00  0.00     0.124 S 
ATOM     73  O   UNL A   1      35.570  32.709  27.459  1.00  0.00    -0.237 OA
ATOM     74  O   UNL A   1      33.996  30.805  27.564  1.00  0.00    -0.237 OA
ATOM     75  O   UNL A   1      34.491  32.109  29.594  1.00  0.00    -0.744 OA
ENDBRANCH  71  72
ENDBRANCH  43  66
BRANCH  55  76
ATOM     76  C   UNL A   1      43.495  27.826  33.152  1.00  0.00    -0.014 A 
ATOM     77  C   UNL A   1      43.859  26.470  33.027  1.00  0.00     0.010 A 
ATOM     78  C   UNL A   1      42.937  28.257  34.368  1.00  0.00     0.010 A 
ATOM     79  C   UNL A   1      43.648  25.570  34.084  1.00  0.00     0.020 A 
ATOM     80  C   UNL A   1      42.744  27.374  35.429  1.00  0.00     0.020 A 
ATOM     81  C   UNL A   1      43.090  26.030  35.281  1.00  0.00     0.054 A 
BRANCH  81  82
ATOM     82  S   UNL A   1      42.856  24.879  36.664  1.00  0.00     0.124 S 
ATOM     83  O   UNL A   1      41.673  24.127  36.254  1.00  0.00    -0.237 OA
ATOM     84  O   UNL A   1      44.109  24.126  36.676  1.00  0.00    -0.237 OA
ATOM     85  O   UNL A   1      42.662  25.757  37.818  1.00  0.00    -0.744 OA
ENDBRANCH  81  82
ENDBRANCH  55  76
ENDBRANCH  29  30
ENDBRANCH  21  24
ENDBRANCH  19  20
ENDBRANCH  18  19
ENDBRANCH   1  18
TORSDOF 18
ENDMDL
MODEL 2
REMARK VINA RESULT:     -10.4      3.693      5.668
REMARK SMILES O=C(CCCCCn1cc(Cl)c(I)n1)NCCCNC(=O)c1ccc(-c2c3nc(c(-c4ccc(S(=O)(=O)[O-])cc4)c4ccc([nH]4)c(-c4ccc(S(=O)(=O)[O-])cc4)c4nc(c(-c5ccc(S(=O)(=O)[O-])cc5)c5ccc2[nH]5)C=C4)C=C3)cc1
REMARK SMILES IDX 16 1 15 2 1 3 2 4 3 6 4 7 5 8 6 9 7 10 8 11 9 12 14 13 10 14
REMARK SMILES IDX 12 15 11 16 13 17 17 18 18 19 19 20 20 21 21 23 22 24 23 25
REMARK SMILES IDX 81 26 24 27 80 28 25 29 26 30 27 31 74 32 28 33 79 34 73 35
REMARK SMILES IDX 75 36 29 37 78 38 72 39 71 40 30 42 60 43 41 44 59 45 42 46
REMARK SMILES IDX 45 47 58 48 76 49 43 50 44 51 57 53 77 54 46 55 31 56 32 57
REMARK SMILES IDX 40 58 33 59 39 60 34 61 35 62 36 63 37 64 38 65 61 66 62 67
REMARK SMILES IDX 70 68 63 69 69 70 64 71 65 72 66 73 67 74 68 75 47 76 48 77
REMARK SMILES IDX 56 78 49 79 55 80 50 81 51 82 52 83 53 84 54 85
REMARK H PARENT 15 5 19 22 75 41 45 52
REMARK Flexibility Score: inf
ROOT
ATOM      1  C   UNL A   1      34.865  23.673  24.456  1.00  0.00     0.117 C 
ENDROOT
BRANCH   1   2
ATOM      2  N   UNL A   1      34.302  25.004  24.602  1.00  0.00    -0.356 N 
ATOM      3  O   UNL A   1      33.059  24.545  26.479  1.00  0.00    -0.275 OA
ATOM      4  C   UNL A   1      33.508  25.353  25.673  1.00  0.00     0.219 C 
ATOM      5  H   UNL A   1      34.494  25.680  23.913  1.00  0.00     0.163 HD
BRANCH   4   6
ATOM      6  C   UNL A   1      33.273  26.848  25.806  1.00  0.00     0.100 C 
BRANCH   6   7
ATOM      7  C   UNL A   1      34.136  27.643  24.822  1.00  0.00     0.010 C 
BRANCH   7   8
ATOM      8  C   UNL A   1      33.399  28.726  24.024  1.00  0.00     0.002 C 
BRANCH   8   9
ATOM      9  C   UNL A   1      32.982  28.336  22.596  1.00  0.00     0.024 C 
BRANCH   9  10
ATOM     10  C   UNL A   1      31.750  27.422  22.477  1.00  0.00     0.144 C 
BRANCH  10  11
ATOM     11  N   UNL A   1      30.483  28.124  22.576  1.00  0.00    -0.270 N 
ATOM     12  C   UNL A   1      29.343  27.678  23.180  1.00  0.00     0.130 A 
ATOM     13  N   UNL A   1      30.341  29.338  22.009  1.00  0.00    -0.165 NA
ATOM     14  C   UNL A   1      28.377  28.622  22.923  1.00  0.00     0.092 A 
ATOM     15  C   UNL A   1      29.047  29.617  22.184  1.00  0.00     0.141 A 
ATOM     16  Cl  UNL A   1      26.751  28.566  23.392  1.00  0.00    -0.080 Cl
ATOM     17  I   UNL A   1      28.216  31.310  21.399  1.00  0.00    -0.018 I 
ENDBRANCH  10  11
ENDBRANCH   9  10
ENDBRANCH   8   9
ENDBRANCH   7   8
ENDBRANCH   6   7
ENDBRANCH   4   6
ENDBRANCH   1   2
BRANCH   1  18
ATOM     18  C   UNL A   1      36.383  23.642  24.625  1.00  0.00     0.042 C 
BRANCH  18  19
ATOM     19  C   UNL A   1      36.832  23.343  26.050  1.00  0.00     0.118 C 
BRANCH  19  20
ATOM     20  N   UNL A   1      37.726  22.190  26.159  1.00  0.00    -0.352 N 
ATOM     21  C   UNL A   1      39.105  22.217  26.270  1.00  0.00     0.251 C 
ATOM     22  H   UNL A   1      37.303  21.302  26.153  1.00  0.00     0.163 HD
ATOM     23  O   UNL A   1      39.782  21.228  25.996  1.00  0.00    -0.269 OA
BRANCH  21  24
ATOM     24  C   UNL A   1      39.748  23.459  26.736  1.00  0.00     0.039 A 
ATOM     25  C   UNL A   1      39.387  24.712  26.230  1.00  0.00     0.014 A 
ATOM     26  C   UNL A   1      40.704  23.343  27.741  1.00  0.00     0.014 A 
ATOM     27  C   UNL A   1      39.932  25.859  26.811  1.00  0.00     0.010 A 
ATOM     28  C   UNL A   1      41.137  24.468  28.396  1.00  0.00     0.010 A 
ATOM     29  C   UNL A   1      40.791  25.730  27.912  1.00  0.00    -0.014 A 
BRANCH  29  30
ATOM     30  C   UNL A   1      41.216  26.895  28.691  1.00  0.00     0.031 A 
ATOM     31  C   UNL A   1      42.402  27.616  28.133  1.00  0.00     0.074 A 
ATOM     32  C   UNL A   1      40.407  27.443  29.629  1.00  0.00     0.049 A 
ATOM     33  N   UNL A   1      43.528  27.884  28.711  1.00  0.00    -0.248 NA
ATOM     34  C   UNL A   1      42.375  27.983  26.703  1.00  0.00     0.031 C 
ATOM     35  C   UNL A   1      39.065  26.986  30.020  1.00  0.00     0.029 A 
ATOM     36  N   UNL A   1      40.523  28.617  30.310  1.00  0.00    -0.354 N 
ATOM     37  C   UNL A   1      44.255  28.649  27.798  1.00  0.00     0.074 A 
ATOM     38  C   UNL A   1      43.589  28.504  26.529  1.00  0.00     0.031 C 
ATOM     39  C   UNL A   1      38.403  27.990  30.632  1.00  0.00     0.029 A 
ATOM     40  C   UNL A   1      39.320  29.097  30.829  1.00  0.00     0.049 A 
ATOM     41  H   UNL A   1      41.382  29.085  30.427  1.00  0.00     0.167 HD
ATOM     42  C   UNL A   1      45.181  29.565  28.203  1.00  0.00     0.031 A 
ATOM     43  C   UNL A   1      39.071  30.333  31.335  1.00  0.00     0.031 A 
ATOM     44  C   UNL A   1      45.568  29.355  29.574  1.00  0.00     0.049 A 
ATOM     45  C   UNL A   1      40.381  30.939  31.662  1.00  0.00     0.074 A 
ATOM     46  C   UNL A   1      46.132  28.313  30.279  1.00  0.00     0.029 A 
ATOM     47  N   UNL A   1      45.004  30.190  30.510  1.00  0.00    -0.354 N 
ATOM     48  N   UNL A   1      41.177  30.470  32.582  1.00  0.00    -0.248 NA
ATOM     49  C   UNL A   1      41.010  31.786  30.663  1.00  0.00     0.031 C 
ATOM     50  C   UNL A   1      45.467  28.324  31.540  1.00  0.00     0.029 A 
ATOM     51  C   UNL A   1      44.599  29.418  31.566  1.00  0.00     0.049 A 
ATOM     52  H   UNL A   1      44.911  31.168  30.436  1.00  0.00     0.167 HD
ATOM     53  C   UNL A   1      42.447  30.583  32.037  1.00  0.00     0.074 A 
ATOM     54  C   UNL A   1      42.292  31.494  30.903  1.00  0.00     0.031 C 
ATOM     55  C   UNL A   1      43.439  29.709  32.381  1.00  0.00     0.031 A 
BRANCH  42  56
ATOM     56  C   UNL A   1      45.390  30.900  27.514  1.00  0.00    -0.014 A 
ATOM     57  C   UNL A   1      46.708  31.364  27.312  1.00  0.00     0.010 A 
ATOM     58  C   UNL A   1      44.354  31.840  27.330  1.00  0.00     0.010 A 
ATOM     59  C   UNL A   1      46.973  32.713  27.035  1.00  0.00     0.020 A 
ATOM     60  C   UNL A   1      44.606  33.175  27.008  1.00  0.00     0.020 A 
ATOM     61  C   UNL A   1      45.916  33.613  26.903  1.00  0.00     0.054 A 
BRANCH  61  62
ATOM     62  S   UNL A   1      46.267  35.372  26.666  1.00  0.00     0.124 S 
ATOM     63  O   UNL A   1      46.930  35.371  25.367  1.00  0.00    -0.237 OA
ATOM     64  O   UNL A   1      44.931  35.959  26.700  1.00  0.00    -0.237 OA
ATOM     65  O   UNL A   1      47.118  35.705  27.806  1.00  0.00    -0.744 OA
ENDBRANCH  61  62
ENDBRANCH  42  56
BRANCH  43  66
ATOM     66  C   UNL A   1      37.819  31.131  31.258  1.00  0.00    -0.014 A 
ATOM     67  C   UNL A   1      36.655  30.743  31.948  1.00  0.00     0.010 A 
ATOM     68  C   UNL A   1      37.854  32.437  30.726  1.00  0.00     0.010 A 
ATOM     69  C   UNL A   1      35.593  31.646  32.149  1.00  0.00     0.020 A 
ATOM     70  C   UNL A   1      36.797  33.336  30.909  1.00  0.00     0.020 A 
ATOM     71  C   UNL A   1      35.680  32.945  31.643  1.00  0.00     0.054 A 
BRANCH  71  72
ATOM     72  S   UNL A   1      34.396  34.166  32.057  1.00  0.00     0.124 S 
ATOM     73  O   UNL A   1      33.588  33.447  33.036  1.00  0.00    -0.237 OA
ATOM     74  O   UNL A   1      35.177  35.285  32.576  1.00  0.00    -0.237 OA
ATOM     75  O   UNL A   1      33.741  34.415  30.773  1.00  0.00    -0.744 OA
ENDBRANCH  71  72
ENDBRANCH  43  66
BRANCH  55  76
ATOM     76  C   UNL A   1      43.226  28.813  33.581  1.00  0.00    -0.014 A 
ATOM     77  C   UNL A   1      43.786  29.045  34.853  1.00  0.00     0.010 A 
ATOM     78  C   UNL A   1      42.290  27.773  33.442  1.00  0.00     0.010 A 
ATOM     79  C   UNL A   1      43.433  28.241  35.949  1.00  0.00     0.020 A 
ATOM     80  C   UNL A   1      41.919  26.984  34.531  1.00  0.00     0.020 A 
ATOM     81  C   UNL A   1      42.499  27.214  35.779  1.00  0.00     0.054 A 
BRANCH  81  82
ATOM     82  S   UNL A   1      42.008  26.200  37.202  1.00  0.00     0.124 S 
ATOM     83  O   UNL A   1      42.001  24.851  36.644  1.00  0.00    -0.237 OA
ATOM     84  O   UNL A   1      43.065  26.474  38.176  1.00  0.00    -0.237 OA
ATOM     85  O   UNL A   1      40.693  26.726  37.567  1.00  0.00    -0.744 OA
ENDBRANCH  81  82
ENDBRANCH  55  76
ENDBRANCH  29  30
ENDBRANCH  21  24
ENDBRANCH  19  20
ENDBRANCH  18  19
ENDBRANCH   1  18
TORSDOF 18
ENDMDL
MODEL 3
REMARK VINA RESULT:     -10.3      3.013      5.157
REMARK SMILES O=C(CCCCCn1cc(Cl)c(I)n1)NCCCNC(=O)c1ccc(-c2c3nc(c(-c4ccc(S(=O)(=O)[O-])cc4)c4ccc([nH]4)c(-c4ccc(S(=O)(=O)[O-])cc4)c4nc(c(-c5ccc(S(=O)(=O)[O-])cc5)c5ccc2[nH]5)C=C4)C=C3)cc1
REMARK SMILES IDX 16 1 15 2 1 3 2 4 3 6 4 7 5 8 6 9 7 10 8 11 9 12 14 13 10 14
REMARK SMILES IDX 12 15 11 16 13 17 17 18 18 19 19 20 20 21 21 23 22 24 23 25
REMARK SMILES IDX 81 26 24 27 80 28 25 29 26 30 27 31 74 32 28 33 79 34 73 35
REMARK SMILES IDX 75 36 29 37 78 38 72 39 71 40 30 42 60 43 41 44 59 45 42 46
REMARK SMILES IDX 45 47 58 48 76 49 43 50 44 51 57 53 77 54 46 55 31 56 32 57
REMARK SMILES IDX 40 58 33 59 39 60 34 61 35 62 36 63 37 64 38 65 61 66 62 67
REMARK SMILES IDX 70 68 63 69 69 70 64 71 65 72 66 73 67 74 68 75 47 76 48 77
REMARK SMILES IDX 56 78 49 79 55 80 50 81 51 82 52 83 53 84 54 85
REMARK H PARENT 15 5 19 22 75 41 45 52
REMARK Flexibility Score: inf
ROOT
ATOM      1  C   UNL A   1      35.019  23.437  24.150  1.00  0.00     0.117 C 
ENDROOT
BRANCH   1   2
ATOM      2  N   UNL A   1      34.631  24.430  23.163  1.00  0.00    -0.356 N 
ATOM      3  O   UNL A   1      32.407  23.856  23.091  1.00  0.00    -0.275 OA
ATOM      4  C   UNL A   1      33.319  24.616  22.783  1.00  0.00     0.219 C 
ATOM      5  H   UNL A   1      35.328  24.988  22.751  1.00  0.00     0.163 HD
BRANCH   4   6
ATOM      6  C   UNL A   1      33.082  25.885  21.984  1.00  0.00     0.100 C 
BRANCH   6   7
ATOM      7  C   UNL A   1      32.593  27.029  22.877  1.00  0.00     0.010 C 
BRANCH   7   8
ATOM      8  C   UNL A   1      33.658  27.661  23.782  1.00  0.00     0.002 C 
BRANCH   8   9
ATOM      9  C   UNL A   1      33.418  27.519  25.295  1.00  0.00     0.024 C 
BRANCH   9  10
ATOM     10  C   UNL A   1      31.987  27.153  25.722  1.00  0.00     0.144 C 
BRANCH  10  11
ATOM     11  N   UNL A   1      31.805  25.746  26.031  1.00  0.00    -0.270 N 
ATOM     12  C   UNL A   1      30.628  25.055  26.045  1.00  0.00     0.130 A 
ATOM     13  N   UNL A   1      32.866  24.991  26.374  1.00  0.00    -0.165 NA
ATOM     14  C   UNL A   1      30.929  23.794  26.503  1.00  0.00     0.092 A 
ATOM     15  C   UNL A   1      32.323  23.816  26.703  1.00  0.00     0.141 A 
ATOM     16  Cl  UNL A   1      29.840  22.523  26.768  1.00  0.00    -0.080 Cl
ATOM     17  I   UNL A   1      33.466  22.293  27.439  1.00  0.00    -0.018 I 
ENDBRANCH  10  11
ENDBRANCH   9  10
ENDBRANCH   8   9
ENDBRANCH   7   8
ENDBRANCH   6   7
ENDBRANCH   4   6
ENDBRANCH   1   2
BRANCH   1  18
ATOM     18  C   UNL A   1      36.533  23.321  24.321  1.00  0.00     0.042 C 
BRANCH  18  19
ATOM     19  C   UNL A   1      36.986  23.360  25.774  1.00  0.00     0.118 C 
BRANCH  19  20
ATOM     20  N   UNL A   1      37.882  22.264  26.144  1.00  0.00    -0.352 N 
ATOM     21  C   UNL A   1      39.216  22.364  26.496  1.00  0.00     0.251 C 
ATOM     22  H   UNL A   1      37.494  21.359  26.143  1.00  0.00     0.163 HD
ATOM     23  O   UNL A   1      39.962  21.389  26.437  1.00  0.00    -0.269 OA
BRANCH  21  24
ATOM     24  C   UNL A   1      39.725  23.669  26.955  1.00  0.00     0.039 A 
ATOM     25  C   UNL A   1      39.041  24.862  26.694  1.00  0.00     0.014 A 
ATOM     26  C   UNL A   1      40.898  23.669  27.704  1.00  0.00     0.014 A 
ATOM     27  C   UNL A   1      39.499  26.046  27.275  1.00  0.00     0.010 A 
ATOM     28  C   UNL A   1      41.271  24.803  28.378  1.00  0.00     0.010 A 
ATOM     29  C   UNL A   1      40.605  26.006  28.137  1.00  0.00    -0.014 A 
BRANCH  29  30
ATOM     30  C   UNL A   1      40.993  27.169  28.937  1.00  0.00     0.031 A 
ATOM     31  C   UNL A   1      42.119  27.971  28.363  1.00  0.00     0.074 A 
ATOM     32  C   UNL A   1      40.190  27.644  29.919  1.00  0.00     0.049 A 
ATOM     33  N   UNL A   1      43.248  28.283  28.910  1.00  0.00    -0.248 NA
ATOM     34  C   UNL A   1      42.021  28.377  26.947  1.00  0.00     0.031 C 
ATOM     35  C   UNL A   1      38.889  27.102  30.340  1.00  0.00     0.029 A 
ATOM     36  N   UNL A   1      40.266  28.802  30.632  1.00  0.00    -0.354 N 
ATOM     37  C   UNL A   1      43.900  29.114  27.998  1.00  0.00     0.074 A 
ATOM     38  C   UNL A   1      43.198  28.969  26.749  1.00  0.00     0.031 C 
ATOM     39  C   UNL A   1      38.195  28.049  31.005  1.00  0.00     0.029 A 
ATOM     40  C   UNL A   1      39.057  29.199  31.205  1.00  0.00     0.049 A 
ATOM     41  H   UNL A   1      41.101  29.313  30.735  1.00  0.00     0.167 HD
ATOM     42  C   UNL A   1      44.788  30.067  28.401  1.00  0.00     0.031 A 
ATOM     43  C   UNL A   1      38.760  30.404  31.758  1.00  0.00     0.031 A 
ATOM     44  C   UNL A   1      45.234  29.839  29.751  1.00  0.00     0.049 A 
ATOM     45  C   UNL A   1      40.045  31.072  32.060  1.00  0.00     0.074 A 
ATOM     46  C   UNL A   1      45.878  28.809  30.404  1.00  0.00     0.029 A 
ATOM     47  N   UNL A   1      44.659  30.613  30.731  1.00  0.00    -0.354 N 
ATOM     48  N   UNL A   1      40.898  30.621  32.937  1.00  0.00    -0.248 NA
ATOM     49  C   UNL A   1      40.593  31.981  31.067  1.00  0.00     0.031 C 
ATOM     50  C   UNL A   1      45.258  28.746  31.686  1.00  0.00     0.029 A 
ATOM     51  C   UNL A   1      44.334  29.789  31.775  1.00  0.00     0.049 A 
ATOM     52  H   UNL A   1      44.511  31.586  30.691  1.00  0.00     0.167 HD
ATOM     53  C   UNL A   1      42.140  30.819  32.354  1.00  0.00     0.074 A 
ATOM     54  C   UNL A   1      41.896  31.753  31.255  1.00  0.00     0.031 C 
ATOM     55  C   UNL A   1      43.189  29.991  32.637  1.00  0.00     0.031 A 
BRANCH  42  56
ATOM     56  C   UNL A   1      44.900  31.431  27.748  1.00  0.00    -0.014 A 
ATOM     57  C   UNL A   1      46.172  31.889  27.340  1.00  0.00     0.010 A 
ATOM     58  C   UNL A   1      43.867  32.391  27.790  1.00  0.00     0.010 A 
ATOM     59  C   UNL A   1      46.411  33.247  27.082  1.00  0.00     0.020 A 
ATOM     60  C   UNL A   1      44.085  33.737  27.491  1.00  0.00     0.020 A 
ATOM     61  C   UNL A   1      45.366  34.164  27.178  1.00  0.00     0.054 A 
BRANCH  61  62
ATOM     62  S   UNL A   1      45.704  35.929  26.964  1.00  0.00     0.124 S 
ATOM     63  O   UNL A   1      46.471  35.936  25.723  1.00  0.00    -0.237 OA
ATOM     64  O   UNL A   1      44.360  36.492  26.886  1.00  0.00    -0.237 OA
ATOM     65  O   UNL A   1      46.454  36.279  28.168  1.00  0.00    -0.744 OA
ENDBRANCH  61  62
ENDBRANCH  42  56
BRANCH  43  66
ATOM     66  C   UNL A   1      37.464  31.134  31.748  1.00  0.00    -0.014 A 
ATOM     67  C   UNL A   1      36.758  31.397  32.938  1.00  0.00     0.010 A 
ATOM     68  C   UNL A   1      37.060  31.823  30.586  1.00  0.00     0.010 A 
ATOM     69  C   UNL A   1      35.726  32.355  32.974  1.00  0.00     0.020 A 
ATOM     70  C   UNL A   1      36.026  32.767  30.611  1.00  0.00     0.020 A 
ATOM     71  C   UNL A   1      35.381  33.049  31.812  1.00  0.00     0.054 A 
BRANCH  71  72
ATOM     72  S   UNL A   1      34.181  34.413  31.896  1.00  0.00     0.124 S 
ATOM     73  O   UNL A   1      35.004  35.523  32.367  1.00  0.00    -0.237 OA
ATOM     74  O   UNL A   1      33.713  34.511  30.517  1.00  0.00    -0.237 OA
ATOM     75  O   UNL A   1      33.185  33.929  32.852  1.00  0.00    -0.744 OA
ENDBRANCH  71  72
ENDBRANCH  43  66
BRANCH  55  76
ATOM     76  C   UNL A   1      43.067  29.050  33.815  1.00  0.00    -0.014 A 
ATOM     77  C   UNL A   1      43.348  29.408  35.149  1.00  0.00     0.010 A 
ATOM     78  C   UNL A   1      42.495  27.790  33.568  1.00  0.00     0.010 A 
ATOM     79  C   UNL A   1      43.082  28.516  36.201  1.00  0.00     0.020 A 
ATOM     80  C   UNL A   1      42.209  26.908  34.610  1.00  0.00     0.020 A 
ATOM     81  C   UNL A   1      42.513  27.270  35.922  1.00  0.00     0.054 A 
BRANCH  81  82
ATOM     82  S   UNL A   1      42.128  26.133  37.284  1.00  0.00     0.124 S 
ATOM     83  O   UNL A   1      40.778  26.537  37.664  1.00  0.00    -0.237 OA
ATOM     84  O   UNL A   1      42.238  24.820  36.651  1.00  0.00    -0.237 OA
ATOM     85  O   UNL A   1      43.162  26.418  38.278  1.00  0.00    -0.744 OA
ENDBRANCH  81  82
ENDBRANCH  55  76
ENDBRANCH  29  30
ENDBRANCH  21  24
ENDBRANCH  19  20
ENDBRANCH  18  19
ENDBRANCH   1  18
TORSDOF 18
ENDMDL
