MODEL 1
REMARK VINA RESULT:     -13.0      0.000      0.000
REMARK SMILES CC(=O)Oc1ccc2oc(N)c([C@@H]3[NH2+][C@@H](C(=O)NCCCNC(=O)c4ccc(-c5c6nc(c(-c7ccc(S(=O)(=O)[O-])cc7)c7ccc([nH]7)c(-c7ccc(S(=O)(=O)[O-])cc7)c7nc(c(-c8ccc(S(=O)(=O)[O-])cc8)c8ccc5[nH]8)C=C7)C=C6)cc4)C(C)(C)S3)c(=O)c2c1
REMARK SMILES IDX 20 1 19 2 18 3 16 4 17 5 15 7 13 8 14 9 88 10 85 13 86 14
REMARK SMILES IDX 87 15 12 16 5 17 6 18 92 19 7 20 91 21 8 22 89 23 9 24 90 25
REMARK SMILES IDX 10 26 4 27 2 28 1 29 3 30 11 31 21 34 22 35 23 36 24 38
REMARK SMILES IDX 25 39 26 40 84 41 27 42 83 43 28 44 29 45 30 46 77 47 31 48
REMARK SMILES IDX 82 49 76 50 78 51 32 52 81 53 75 54 74 55 33 57 63 58 44 59
REMARK SMILES IDX 62 60 45 61 48 62 61 63 79 64 46 65 47 66 60 68 80 69 49 70
REMARK SMILES IDX 34 71 35 72 43 73 36 74 42 75 37 76 38 77 39 78 40 79 41 80
REMARK SMILES IDX 64 81 65 82 73 83 66 84 72 85 67 86 68 87 69 88 70 89 71 90
REMARK SMILES IDX 50 91 51 92 59 93 52 94 58 95 53 96 54 97 55 98 56 99 57 100
REMARK H PARENT 18 6 14 11 14 12 11 32 11 33 22 37 78 56 48 67
REMARK Flexibility Score: inf
ROOT
ATOM      1  C   UNL A   1      34.659  28.936  27.210  1.00  0.00     0.042 C 
ENDROOT
BRANCH   1   2
ATOM      2  C   UNL A   1      33.484  29.299  26.310  1.00  0.00     0.118 C 
BRANCH   2   3
ATOM      3  N   UNL A   1      33.865  29.360  24.907  1.00  0.00    -0.351 N 
ATOM      4  C   UNL A   1      33.737  28.530  23.841  1.00  0.00     0.279 C 
ATOM      5  O   UNL A   1      34.350  28.875  22.822  1.00  0.00    -0.268 OA
ATOM      6  H   UNL A   1      34.323  30.200  24.678  1.00  0.00     0.163 HD
BRANCH   4   7
ATOM      7  C   UNL A   1      32.921  27.227  23.832  1.00  0.00     0.289 C 
ATOM      8  C   UNL A   1      32.579  25.067  22.854  1.00  0.00     0.284 C 
ATOM      9  N   UNL A   1      33.526  26.182  22.975  1.00  0.00    -0.320 N 
ATOM     10  S   UNL A   1      30.888  25.679  23.171  1.00  0.00    -0.081 SA
ATOM     11  H   UNL A   1      33.722  26.568  22.051  1.00  0.00     0.348 HD
ATOM     12  H   UNL A   1      34.397  25.854  23.390  1.00  0.00     0.348 HD
ATOM     13  C   UNL A   1      31.403  27.381  23.607  1.00  0.00     0.077 C 
ATOM     14  C   UNL A   1      30.949  28.284  22.469  1.00  0.00     0.030 C 
ATOM     15  C   UNL A   1      30.679  27.831  24.885  1.00  0.00     0.030 C 
BRANCH   8  16
ATOM     16  C   UNL A   1      32.942  23.888  23.725  1.00  0.00     0.128 A 
ATOM     17  C   UNL A   1      32.579  19.038  24.365  1.00  0.00     0.131 A 
ATOM     18  C   UNL A   1      33.035  19.206  25.675  1.00  0.00     0.051 A 
ATOM     19  C   UNL A   1      32.555  20.102  23.462  1.00  0.00     0.063 A 
ATOM     20  C   UNL A   1      33.410  20.472  26.110  1.00  0.00     0.052 A 
ATOM     21  C   UNL A   1      32.926  21.370  23.916  1.00  0.00     0.069 A 
ATOM     22  C   UNL A   1      33.336  21.548  25.230  1.00  0.00     0.140 A 
ATOM     23  C   UNL A   1      32.865  22.557  23.049  1.00  0.00     0.205 A 
ATOM     24  O   UNL A   1      33.672  22.768  25.730  1.00  0.00    -0.440 OA
ATOM     25  O   UNL A   1      32.698  22.430  21.841  1.00  0.00    -0.288 OA
ATOM     26  C   UNL A   1      33.289  23.894  25.032  1.00  0.00     0.205 A 
BRANCH  17  27
ATOM     27  O   UNL A   1      32.194  17.772  23.908  1.00  0.00    -0.427 OA
BRANCH  27  28
ATOM     28  C   UNL A   1      33.251  16.906  23.639  1.00  0.00     0.308 C 
ATOM     29  C   UNL A   1      33.331  15.885  24.731  1.00  0.00     0.139 C 
ATOM     30  O   UNL A   1      33.997  16.931  22.670  1.00  0.00    -0.252 OA
ENDBRANCH  27  28
ENDBRANCH  17  27
BRANCH  26  31
ATOM     31  N   UNL A   1      33.286  24.991  25.840  1.00  0.00    -0.369 N 
ATOM     32  H   UNL A   1      33.629  25.851  25.503  1.00  0.00     0.159 HD
ATOM     33  H   UNL A   1      32.942  24.924  26.760  1.00  0.00     0.159 HD
ENDBRANCH  26  31
ENDBRANCH   8  16
ENDBRANCH   4   7
ENDBRANCH   2   3
ENDBRANCH   1   2
BRANCH   1  34
ATOM     34  C   UNL A   1      35.491  30.132  27.635  1.00  0.00     0.118 C 
BRANCH  34  35
ATOM     35  N   UNL A   1      35.482  30.309  29.076  1.00  0.00    -0.352 N 
ATOM     36  C   UNL A   1      36.414  29.900  30.004  1.00  0.00     0.251 C 
ATOM     37  H   UNL A   1      34.701  30.787  29.440  1.00  0.00     0.163 HD
ATOM     38  O   UNL A   1      36.127  29.897  31.194  1.00  0.00    -0.269 OA
BRANCH  36  39
ATOM     39  C   UNL A   1      37.743  29.433  29.548  1.00  0.00     0.039 A 
ATOM     40  C   UNL A   1      38.597  28.758  30.421  1.00  0.00     0.014 A 
ATOM     41  C   UNL A   1      38.148  29.684  28.235  1.00  0.00     0.014 A 
ATOM     42  C   UNL A   1      39.916  28.522  30.055  1.00  0.00     0.010 A 
ATOM     43  C   UNL A   1      39.436  29.323  27.827  1.00  0.00     0.010 A 
ATOM     44  C   UNL A   1      40.348  28.779  28.746  1.00  0.00    -0.014 A 
BRANCH  44  45
ATOM     45  C   UNL A   1      41.739  28.431  28.348  1.00  0.00     0.031 A 
ATOM     46  C   UNL A   1      42.840  29.455  28.404  1.00  0.00     0.074 A 
ATOM     47  C   UNL A   1      42.009  27.169  27.954  1.00  0.00     0.049 A 
ATOM     48  N   UNL A   1      44.092  29.332  28.046  1.00  0.00    -0.248 NA
ATOM     49  C   UNL A   1      42.498  30.791  28.922  1.00  0.00     0.031 C 
ATOM     50  C   UNL A   1      41.029  26.080  27.890  1.00  0.00     0.029 A 
ATOM     51  N   UNL A   1      43.182  26.577  27.555  1.00  0.00    -0.354 N 
ATOM     52  C   UNL A   1      44.681  30.571  28.271  1.00  0.00     0.074 A 
ATOM     53  C   UNL A   1      43.643  31.445  28.770  1.00  0.00     0.031 C 
ATOM     54  C   UNL A   1      41.651  24.947  27.539  1.00  0.00     0.029 A 
ATOM     55  C   UNL A   1      43.050  25.242  27.252  1.00  0.00     0.049 A 
ATOM     56  H   UNL A   1      44.037  27.062  27.492  1.00  0.00     0.167 HD
ATOM     57  C   UNL A   1      45.970  30.937  28.086  1.00  0.00     0.031 A 
ATOM     58  C   UNL A   1      43.937  24.350  26.768  1.00  0.00     0.031 A 
ATOM     59  C   UNL A   1      46.997  30.045  27.608  1.00  0.00     0.049 A 
ATOM     60  C   UNL A   1      45.345  24.799  26.507  1.00  0.00     0.074 A 
ATOM     61  C   UNL A   1      48.341  30.317  27.416  1.00  0.00     0.029 A 
ATOM     62  N   UNL A   1      46.804  28.718  27.253  1.00  0.00    -0.354 N 
ATOM     63  N   UNL A   1      45.883  25.972  26.735  1.00  0.00    -0.248 NA
ATOM     64  C   UNL A   1      46.265  23.815  25.923  1.00  0.00     0.031 C 
ATOM     65  C   UNL A   1      48.941  29.184  26.867  1.00  0.00     0.029 A 
ATOM     66  C   UNL A   1      47.995  28.172  26.803  1.00  0.00     0.049 A 
ATOM     67  H   UNL A   1      45.947  28.235  27.311  1.00  0.00     0.167 HD
ATOM     68  C   UNL A   1      47.208  25.867  26.334  1.00  0.00     0.074 A 
ATOM     69  C   UNL A   1      47.397  24.506  25.871  1.00  0.00     0.031 C 
ATOM     70  C   UNL A   1      48.175  26.814  26.345  1.00  0.00     0.031 A 
BRANCH  57  71
ATOM     71  C   UNL A   1      46.374  32.359  28.392  1.00  0.00    -0.014 A 
ATOM     72  C   UNL A   1      46.348  33.325  27.366  1.00  0.00     0.010 A 
ATOM     73  C   UNL A   1      46.914  32.709  29.642  1.00  0.00     0.010 A 
ATOM     74  C   UNL A   1      46.893  34.595  27.569  1.00  0.00     0.020 A 
ATOM     75  C   UNL A   1      47.431  33.991  29.859  1.00  0.00     0.020 A 
ATOM     76  C   UNL A   1      47.443  34.916  28.812  1.00  0.00     0.054 A 
BRANCH  76  77
ATOM     77  S   UNL A   1      48.191  36.553  29.041  1.00  0.00     0.124 S 
ATOM     78  O   UNL A   1      47.837  37.230  27.797  1.00  0.00    -0.237 OA
ATOM     79  O   UNL A   1      47.518  37.045  30.242  1.00  0.00    -0.237 OA
ATOM     80  O   UNL A   1      49.613  36.260  29.210  1.00  0.00    -0.744 OA
ENDBRANCH  76  77
ENDBRANCH  57  71
BRANCH  58  81
ATOM     81  C   UNL A   1      43.489  22.951  26.514  1.00  0.00    -0.014 A 
ATOM     82  C   UNL A   1      42.809  22.228  27.514  1.00  0.00     0.010 A 
ATOM     83  C   UNL A   1      43.847  22.295  25.325  1.00  0.00     0.010 A 
ATOM     84  C   UNL A   1      42.571  20.860  27.366  1.00  0.00     0.020 A 
ATOM     85  C   UNL A   1      43.575  20.933  25.155  1.00  0.00     0.020 A 
ATOM     86  C   UNL A   1      42.973  20.218  26.194  1.00  0.00     0.054 A 
BRANCH  86  87
ATOM     87  S   UNL A   1      42.731  18.424  26.062  1.00  0.00     0.124 S 
ATOM     88  O   UNL A   1      43.653  18.078  24.983  1.00  0.00    -0.237 OA
ATOM     89  O   UNL A   1      43.112  17.953  27.390  1.00  0.00    -0.237 OA
ATOM     90  O   UNL A   1      41.313  18.293  25.739  1.00  0.00    -0.744 OA
ENDBRANCH  86  87
ENDBRANCH  58  81
BRANCH  70  91
ATOM     91  C   UNL A   1      49.546  26.447  25.838  1.00  0.00    -0.014 A 
ATOM     92  C   UNL A   1      50.474  25.845  26.710  1.00  0.00     0.010 A 
ATOM     93  C   UNL A   1      49.969  26.850  24.559  1.00  0.00     0.010 A 
ATOM     94  C   UNL A   1      51.813  25.712  26.337  1.00  0.00     0.020 A 
ATOM     95  C   UNL A   1      51.301  26.686  24.170  1.00  0.00     0.020 A 
ATOM     96  C   UNL A   1      52.222  26.150  25.075  1.00  0.00     0.054 A 
BRANCH  96  97
ATOM     97  S   UNL A   1      53.980  26.045  24.643  1.00  0.00     0.124 S 
ATOM     98  O   UNL A   1      54.306  24.671  25.013  1.00  0.00    -0.237 OA
ATOM     99  O   UNL A   1      53.973  26.327  23.209  1.00  0.00    -0.237 OA
ATOM    100  O   UNL A   1      54.599  27.078  25.470  1.00  0.00    -0.744 OA
ENDBRANCH  96  97
ENDBRANCH  70  91
ENDBRANCH  44  45
ENDBRANCH  36  39
ENDBRANCH  34  35
ENDBRANCH   1  34
TORSDOF 17
ENDMDL
MODEL 2
REMARK VINA RESULT:     -12.9      3.071      9.217
REMARK SMILES CC(=O)Oc1ccc2oc(N)c([C@@H]3[NH2+][C@@H](C(=O)NCCCNC(=O)c4ccc(-c5c6nc(c(-c7ccc(S(=O)(=O)[O-])cc7)c7ccc([nH]7)c(-c7ccc(S(=O)(=O)[O-])cc7)c7nc(c(-c8ccc(S(=O)(=O)[O-])cc8)c8ccc5[nH]8)C=C7)C=C6)cc4)C(C)(C)S3)c(=O)c2c1
REMARK SMILES IDX 20 1 19 2 18 3 16 4 17 5 15 7 13 8 14 9 88 10 85 13 86 14
REMARK SMILES IDX 87 15 12 16 5 17 6 18 92 19 7 20 91 21 8 22 89 23 9 24 90 25
REMARK SMILES IDX 10 26 4 27 2 28 1 29 3 30 11 31 21 34 22 35 23 36 24 38
REMARK SMILES IDX 25 39 26 40 84 41 27 42 83 43 28 44 29 45 30 46 77 47 31 48
REMARK SMILES IDX 82 49 76 50 78 51 32 52 81 53 75 54 74 55 33 57 63 58 44 59
REMARK SMILES IDX 62 60 45 61 48 62 61 63 79 64 46 65 47 66 60 68 80 69 49 70
REMARK SMILES IDX 34 71 35 72 43 73 36 74 42 75 37 76 38 77 39 78 40 79 41 80
REMARK SMILES IDX 64 81 65 82 73 83 66 84 72 85 67 86 68 87 69 88 70 89 71 90
REMARK SMILES IDX 50 91 51 92 59 93 52 94 58 95 53 96 54 97 55 98 56 99 57 100
REMARK H PARENT 18 6 14 11 14 12 11 32 11 33 22 37 78 56 48 67
REMARK Flexibility Score: inf
ROOT
ATOM      1  C   UNL A   1      36.677  22.833  23.680  1.00  0.00     0.042 C 
ENDROOT
BRANCH   1   2
ATOM      2  C   UNL A   1      35.339  23.432  23.263  1.00  0.00     0.118 C 
BRANCH   2   3
ATOM      3  N   UNL A   1      34.248  22.478  23.387  1.00  0.00    -0.351 N 
ATOM      4  C   UNL A   1      33.024  22.491  23.973  1.00  0.00     0.279 C 
ATOM      5  O   UNL A   1      32.436  21.401  24.002  1.00  0.00    -0.268 OA
ATOM      6  H   UNL A   1      34.443  21.623  22.940  1.00  0.00     0.163 HD
BRANCH   4   7
ATOM      7  C   UNL A   1      32.358  23.728  24.596  1.00  0.00     0.289 C 
ATOM      8  C   UNL A   1      32.205  26.118  24.663  1.00  0.00     0.284 C 
ATOM      9  N   UNL A   1      32.698  24.979  23.881  1.00  0.00    -0.320 N 
ATOM     10  S   UNL A   1      32.039  25.617  26.412  1.00  0.00    -0.081 SA
ATOM     11  H   UNL A   1      33.710  25.049  23.774  1.00  0.00     0.348 HD
ATOM     12  H   UNL A   1      32.267  24.980  22.957  1.00  0.00     0.348 HD
ATOM     13  C   UNL A   1      32.479  23.863  26.127  1.00  0.00     0.077 C 
ATOM     14  C   UNL A   1      33.854  23.648  26.745  1.00  0.00     0.030 C 
ATOM     15  C   UNL A   1      31.484  22.952  26.861  1.00  0.00     0.030 C 
BRANCH   8  16
ATOM     16  C   UNL A   1      30.932  26.710  24.107  1.00  0.00     0.128 A 
ATOM     17  C   UNL A   1      28.898  30.501  21.751  1.00  0.00     0.131 A 
ATOM     18  C   UNL A   1      27.640  30.023  22.128  1.00  0.00     0.051 A 
ATOM     19  C   UNL A   1      30.058  29.767  21.998  1.00  0.00     0.063 A 
ATOM     20  C   UNL A   1      27.546  28.823  22.822  1.00  0.00     0.052 A 
ATOM     21  C   UNL A   1      29.949  28.566  22.706  1.00  0.00     0.069 A 
ATOM     22  C   UNL A   1      28.706  28.112  23.121  1.00  0.00     0.140 A 
ATOM     23  C   UNL A   1      31.129  27.765  23.067  1.00  0.00     0.205 A 
ATOM     24  O   UNL A   1      28.550  26.969  23.843  1.00  0.00    -0.440 OA
ATOM     25  O   UNL A   1      32.220  28.014  22.566  1.00  0.00    -0.288 OA
ATOM     26  C   UNL A   1      29.657  26.424  24.458  1.00  0.00     0.205 A 
BRANCH  17  27
ATOM     27  O   UNL A   1      29.014  31.709  21.054  1.00  0.00    -0.427 OA
BRANCH  27  28
ATOM     28  C   UNL A   1      28.345  32.783  21.636  1.00  0.00     0.308 C 
ATOM     29  C   UNL A   1      28.910  33.022  23.002  1.00  0.00     0.139 C 
ATOM     30  O   UNL A   1      27.453  33.455  21.138  1.00  0.00    -0.252 OA
ENDBRANCH  27  28
ENDBRANCH  17  27
BRANCH  26  31
ATOM     31  N   UNL A   1      29.291  25.591  25.472  1.00  0.00    -0.369 N 
ATOM     32  H   UNL A   1      29.762  24.736  25.600  1.00  0.00     0.159 HD
ATOM     33  H   UNL A   1      28.555  25.844  26.076  1.00  0.00     0.159 HD
ENDBRANCH  26  31
ENDBRANCH   8  16
ENDBRANCH   4   7
ENDBRANCH   2   3
ENDBRANCH   1   2
BRANCH   1  34
ATOM     34  C   UNL A   1      36.845  22.708  25.182  1.00  0.00     0.118 C 
BRANCH  34  35
ATOM     35  N   UNL A   1      37.691  21.584  25.538  1.00  0.00    -0.352 N 
ATOM     36  C   UNL A   1      38.969  21.591  26.055  1.00  0.00     0.251 C 
ATOM     37  H   UNL A   1      37.299  20.693  25.388  1.00  0.00     0.163 HD
ATOM     38  O   UNL A   1      39.633  20.563  26.049  1.00  0.00    -0.269 OA
BRANCH  36  39
ATOM     39  C   UNL A   1      39.538  22.854  26.578  1.00  0.00     0.039 A 
ATOM     40  C   UNL A   1      39.163  24.082  26.032  1.00  0.00     0.014 A 
ATOM     41  C   UNL A   1      40.470  22.811  27.617  1.00  0.00     0.014 A 
ATOM     42  C   UNL A   1      39.860  25.234  26.374  1.00  0.00     0.010 A 
ATOM     43  C   UNL A   1      41.076  23.993  28.053  1.00  0.00     0.010 A 
ATOM     44  C   UNL A   1      40.810  25.211  27.406  1.00  0.00    -0.014 A 
BRANCH  44  45
ATOM     45  C   UNL A   1      41.477  26.474  27.820  1.00  0.00     0.031 A 
ATOM     46  C   UNL A   1      40.687  27.610  28.413  1.00  0.00     0.074 A 
ATOM     47  C   UNL A   1      42.815  26.583  27.680  1.00  0.00     0.049 A 
ATOM     48  N   UNL A   1      41.104  28.794  28.778  1.00  0.00    -0.248 NA
ATOM     49  C   UNL A   1      39.244  27.397  28.618  1.00  0.00     0.031 C 
ATOM     50  C   UNL A   1      43.692  25.535  27.148  1.00  0.00     0.029 A 
ATOM     51  N   UNL A   1      43.676  27.606  27.988  1.00  0.00    -0.354 N 
ATOM     52  C   UNL A   1      39.980  29.474  29.233  1.00  0.00     0.074 A 
ATOM     53  C   UNL A   1      38.854  28.582  29.071  1.00  0.00     0.031 C 
ATOM     54  C   UNL A   1      44.965  25.944  27.225  1.00  0.00     0.029 A 
ATOM     55  C   UNL A   1      44.993  27.319  27.713  1.00  0.00     0.049 A 
ATOM     56  H   UNL A   1      43.381  28.464  28.369  1.00  0.00     0.167 HD
ATOM     57  C   UNL A   1      39.902  30.724  29.746  1.00  0.00     0.031 A 
ATOM     58  C   UNL A   1      46.105  28.074  27.809  1.00  0.00     0.031 A 
ATOM     59  C   UNL A   1      41.040  31.592  29.921  1.00  0.00     0.049 A 
ATOM     60  C   UNL A   1      45.983  29.480  28.318  1.00  0.00     0.074 A 
ATOM     61  C   UNL A   1      41.064  32.866  30.461  1.00  0.00     0.029 A 
ATOM     62  N   UNL A   1      42.346  31.282  29.570  1.00  0.00    -0.354 N 
ATOM     63  N   UNL A   1      44.912  30.101  28.751  1.00  0.00    -0.248 NA
ATOM     64  C   UNL A   1      47.206  30.291  28.350  1.00  0.00     0.031 C 
ATOM     65  C   UNL A   1      42.366  33.358  30.359  1.00  0.00     0.029 A 
ATOM     66  C   UNL A   1      43.174  32.358  29.842  1.00  0.00     0.049 A 
ATOM     67  H   UNL A   1      42.640  30.425  29.184  1.00  0.00     0.167 HD
ATOM     68  C   UNL A   1      45.333  31.372  29.119  1.00  0.00     0.074 A 
ATOM     69  C   UNL A   1      46.762  31.424  28.880  1.00  0.00     0.031 C 
ATOM     70  C   UNL A   1      44.598  32.401  29.604  1.00  0.00     0.031 A 
BRANCH  57  71
ATOM     71  C   UNL A   1      38.552  31.256  30.164  1.00  0.00    -0.014 A 
ATOM     72  C   UNL A   1      37.802  32.034  29.260  1.00  0.00     0.010 A 
ATOM     73  C   UNL A   1      38.091  31.115  31.485  1.00  0.00     0.010 A 
ATOM     74  C   UNL A   1      36.645  32.696  29.678  1.00  0.00     0.020 A 
ATOM     75  C   UNL A   1      36.915  31.749  31.899  1.00  0.00     0.020 A 
ATOM     76  C   UNL A   1      36.215  32.559  31.000  1.00  0.00     0.054 A 
BRANCH  76  77
ATOM     77  S   UNL A   1      34.738  33.465  31.538  1.00  0.00     0.124 S 
ATOM     78  O   UNL A   1      35.314  34.656  32.154  1.00  0.00    -0.237 OA
ATOM     79  O   UNL A   1      34.025  33.685  30.281  1.00  0.00    -0.237 OA
ATOM     80  O   UNL A   1      34.084  32.538  32.460  1.00  0.00    -0.744 OA
ENDBRANCH  76  77
ENDBRANCH  57  71
BRANCH  58  81
ATOM     81  C   UNL A   1      47.416  27.485  27.411  1.00  0.00    -0.014 A 
ATOM     82  C   UNL A   1      48.245  26.877  28.374  1.00  0.00     0.010 A 
ATOM     83  C   UNL A   1      47.895  27.637  26.100  1.00  0.00     0.010 A 
ATOM     84  C   UNL A   1      49.555  26.510  28.057  1.00  0.00     0.020 A 
ATOM     85  C   UNL A   1      49.193  27.234  25.767  1.00  0.00     0.020 A 
ATOM     86  C   UNL A   1      50.026  26.710  26.758  1.00  0.00     0.054 A 
BRANCH  86  87
ATOM     87  S   UNL A   1      51.757  26.307  26.393  1.00  0.00     0.124 S 
ATOM     88  O   UNL A   1      52.469  27.223  27.279  1.00  0.00    -0.237 OA
ATOM     89  O   UNL A   1      51.838  24.894  26.752  1.00  0.00    -0.237 OA
ATOM     90  O   UNL A   1      51.881  26.594  24.966  1.00  0.00    -0.744 OA
ENDBRANCH  86  87
ENDBRANCH  58  81
BRANCH  70  91
ATOM     91  C   UNL A   1      45.299  33.698  29.916  1.00  0.00    -0.014 A 
ATOM     92  C   UNL A   1      45.720  33.963  31.233  1.00  0.00     0.010 A 
ATOM     93  C   UNL A   1      45.384  34.718  28.951  1.00  0.00     0.010 A 
ATOM     94  C   UNL A   1      46.154  35.241  31.595  1.00  0.00     0.020 A 
ATOM     95  C   UNL A   1      45.851  35.987  29.302  1.00  0.00     0.020 A 
ATOM     96  C   UNL A   1      46.200  36.249  30.630  1.00  0.00     0.054 A 
BRANCH  96  97
ATOM     97  S   UNL A   1      46.686  37.921  31.138  1.00  0.00     0.124 S 
ATOM     98  O   UNL A   1      45.405  38.620  31.162  1.00  0.00    -0.237 OA
ATOM     99  O   UNL A   1      47.302  37.689  32.443  1.00  0.00    -0.237 OA
ATOM    100  O   UNL A   1      47.609  38.345  30.089  1.00  0.00    -0.744 OA
ENDBRANCH  96  97
ENDBRANCH  70  91
ENDBRANCH  44  45
ENDBRANCH  36  39
ENDBRANCH  34  35
ENDBRANCH   1  34
TORSDOF 17
ENDMDL
MODEL 3
REMARK VINA RESULT:     -12.2      3.323      9.926
REMARK SMILES CC(=O)Oc1ccc2oc(N)c([C@@H]3[NH2+][C@@H](C(=O)NCCCNC(=O)c4ccc(-c5c6nc(c(-c7ccc(S(=O)(=O)[O-])cc7)c7ccc([nH]7)c(-c7ccc(S(=O)(=O)[O-])cc7)c7nc(c(-c8ccc(S(=O)(=O)[O-])cc8)c8ccc5[nH]8)C=C7)C=C6)cc4)C(C)(C)S3)c(=O)c2c1
REMARK SMILES IDX 20 1 19 2 18 3 16 4 17 5 15 7 13 8 14 9 88 10 85 13 86 14
REMARK SMILES IDX 87 15 12 16 5 17 6 18 92 19 7 20 91 21 8 22 89 23 9 24 90 25
REMARK SMILES IDX 10 26 4 27 2 28 1 29 3 30 11 31 21 34 22 35 23 36 24 38
REMARK SMILES IDX 25 39 26 40 84 41 27 42 83 43 28 44 29 45 30 46 77 47 31 48
REMARK SMILES IDX 82 49 76 50 78 51 32 52 81 53 75 54 74 55 33 57 63 58 44 59
REMARK SMILES IDX 62 60 45 61 48 62 61 63 79 64 46 65 47 66 60 68 80 69 49 70
REMARK SMILES IDX 34 71 35 72 43 73 36 74 42 75 37 76 38 77 39 78 40 79 41 80
REMARK SMILES IDX 64 81 65 82 73 83 66 84 72 85 67 86 68 87 69 88 70 89 71 90
REMARK SMILES IDX 50 91 51 92 59 93 52 94 58 95 53 96 54 97 55 98 56 99 57 100
REMARK H PARENT 18 6 14 11 14 12 11 32 11 33 22 37 78 56 48 67
REMARK Flexibility Score: inf
ROOT
ATOM      1  C   UNL A   1      36.153  22.497  25.349  1.00  0.00     0.042 C 
ENDROOT
BRANCH   1   2
ATOM      2  C   UNL A   1      35.406  23.087  24.158  1.00  0.00     0.118 C 
BRANCH   2   3
ATOM      3  N   UNL A   1      34.233  22.303  23.804  1.00  0.00    -0.351 N 
ATOM      4  C   UNL A   1      32.899  22.421  24.021  1.00  0.00     0.279 C 
ATOM      5  O   UNL A   1      32.217  21.441  23.692  1.00  0.00    -0.268 OA
ATOM      6  H   UNL A   1      34.460  21.498  23.284  1.00  0.00     0.163 HD
BRANCH   4   7
ATOM      7  C   UNL A   1      32.213  23.647  24.645  1.00  0.00     0.289 C 
ATOM      8  C   UNL A   1      32.074  26.036  24.770  1.00  0.00     0.284 C 
ATOM      9  N   UNL A   1      32.596  24.914  23.981  1.00  0.00    -0.320 N 
ATOM     10  S   UNL A   1      31.821  25.490  26.494  1.00  0.00    -0.081 SA
ATOM     11  H   UNL A   1      33.613  24.978  23.925  1.00  0.00     0.348 HD
ATOM     12  H   UNL A   1      32.209  24.943  23.038  1.00  0.00     0.348 HD
ATOM     13  C   UNL A   1      32.262  23.740  26.184  1.00  0.00     0.077 C 
ATOM     14  C   UNL A   1      33.604  23.497  26.860  1.00  0.00     0.030 C 
ATOM     15  C   UNL A   1      31.226  22.818  26.844  1.00  0.00     0.030 C 
BRANCH   8  16
ATOM     16  C   UNL A   1      30.834  26.653  24.170  1.00  0.00     0.128 A 
ATOM     17  C   UNL A   1      28.951  30.505  21.787  1.00  0.00     0.131 A 
ATOM     18  C   UNL A   1      27.672  30.040  22.105  1.00  0.00     0.051 A 
ATOM     19  C   UNL A   1      30.090  29.751  22.072  1.00  0.00     0.063 A 
ATOM     20  C   UNL A   1      27.533  28.832  22.777  1.00  0.00     0.052 A 
ATOM     21  C   UNL A   1      29.935  28.543  22.756  1.00  0.00     0.069 A 
ATOM     22  C   UNL A   1      28.670  28.100  23.113  1.00  0.00     0.140 A 
ATOM     23  C   UNL A   1      31.088  27.720  23.155  1.00  0.00     0.205 A 
ATOM     24  O   UNL A   1      28.469  26.950  23.812  1.00  0.00    -0.440 OA
ATOM     25  O   UNL A   1      32.202  27.960  22.703  1.00  0.00    -0.288 OA
ATOM     26  C   UNL A   1      29.542  26.381  24.464  1.00  0.00     0.205 A 
BRANCH  17  27
ATOM     27  O   UNL A   1      29.112  31.721  21.113  1.00  0.00    -0.427 OA
BRANCH  27  28
ATOM     28  C   UNL A   1      28.416  32.791  21.670  1.00  0.00     0.308 C 
ATOM     29  C   UNL A   1      28.946  33.050  23.046  1.00  0.00     0.139 C 
ATOM     30  O   UNL A   1      27.528  33.448  21.144  1.00  0.00    -0.252 OA
ENDBRANCH  27  28
ENDBRANCH  17  27
BRANCH  26  31
ATOM     31  N   UNL A   1      29.123  25.539  25.450  1.00  0.00    -0.369 N 
ATOM     32  H   UNL A   1      28.563  24.760  25.227  1.00  0.00     0.159 HD
ATOM     33  H   UNL A   1      29.379  25.710  26.385  1.00  0.00     0.159 HD
ENDBRANCH  26  31
ENDBRANCH   8  16
ENDBRANCH   4   7
ENDBRANCH   2   3
ENDBRANCH   1   2
BRANCH   1  34
ATOM     34  C   UNL A   1      37.494  23.156  25.612  1.00  0.00     0.118 C 
BRANCH  34  35
ATOM     35  N   UNL A   1      38.548  22.176  25.803  1.00  0.00    -0.352 N 
ATOM     36  C   UNL A   1      39.856  22.375  26.187  1.00  0.00     0.251 C 
ATOM     37  H   UNL A   1      38.293  21.240  25.635  1.00  0.00     0.163 HD
ATOM     38  O   UNL A   1      40.675  21.477  26.046  1.00  0.00    -0.269 OA
BRANCH  36  39
ATOM     39  C   UNL A   1      40.265  23.689  26.734  1.00  0.00     0.039 A 
ATOM     40  C   UNL A   1      40.132  24.849  25.970  1.00  0.00     0.014 A 
ATOM     41  C   UNL A   1      40.802  23.763  28.021  1.00  0.00     0.014 A 
ATOM     42  C   UNL A   1      40.718  26.033  26.400  1.00  0.00     0.010 A 
ATOM     43  C   UNL A   1      41.271  24.988  28.506  1.00  0.00     0.010 A 
ATOM     44  C   UNL A   1      41.274  26.126  27.684  1.00  0.00    -0.014 A 
BRANCH  44  45
ATOM     45  C   UNL A   1      41.811  27.429  28.161  1.00  0.00     0.031 A 
ATOM     46  C   UNL A   1      43.283  27.735  28.083  1.00  0.00     0.074 A 
ATOM     47  C   UNL A   1      40.954  28.351  28.646  1.00  0.00     0.049 A 
ATOM     48  N   UNL A   1      43.921  28.798  28.500  1.00  0.00    -0.248 NA
ATOM     49  C   UNL A   1      44.155  26.721  27.466  1.00  0.00     0.031 C 
ATOM     50  C   UNL A   1      39.501  28.180  28.741  1.00  0.00     0.029 A 
ATOM     51  N   UNL A   1      41.167  29.617  29.131  1.00  0.00    -0.354 N 
ATOM     52  C   UNL A   1      45.264  28.575  28.220  1.00  0.00     0.074 A 
ATOM     53  C   UNL A   1      45.357  27.262  27.622  1.00  0.00     0.031 C 
ATOM     54  C   UNL A   1      38.951  29.315  29.189  1.00  0.00     0.029 A 
ATOM     55  C   UNL A   1      40.013  30.261  29.515  1.00  0.00     0.049 A 
ATOM     56  H   UNL A   1      42.060  30.027  29.197  1.00  0.00     0.167 HD
ATOM     57  C   UNL A   1      46.317  29.398  28.434  1.00  0.00     0.031 A 
ATOM     58  C   UNL A   1      39.818  31.463  30.092  1.00  0.00     0.031 A 
ATOM     59  C   UNL A   1      46.203  30.714  29.011  1.00  0.00     0.049 A 
ATOM     60  C   UNL A   1      41.009  32.329  30.380  1.00  0.00     0.074 A 
ATOM     61  C   UNL A   1      47.211  31.635  29.239  1.00  0.00     0.029 A 
ATOM     62  N   UNL A   1      45.022  31.300  29.443  1.00  0.00    -0.354 N 
ATOM     63  N   UNL A   1      42.269  32.103  30.099  1.00  0.00    -0.248 NA
ATOM     64  C   UNL A   1      40.760  33.604  31.065  1.00  0.00     0.031 C 
ATOM     65  C   UNL A   1      46.654  32.739  29.885  1.00  0.00     0.029 A 
ATOM     66  C   UNL A   1      45.284  32.551  29.976  1.00  0.00     0.049 A 
ATOM     67  H   UNL A   1      44.130  30.887  29.381  1.00  0.00     0.167 HD
ATOM     68  C   UNL A   1      42.966  33.213  30.561  1.00  0.00     0.074 A 
ATOM     69  C   UNL A   1      41.983  34.120  31.119  1.00  0.00     0.031 C 
ATOM     70  C   UNL A   1      44.298  33.451  30.528  1.00  0.00     0.031 A 
BRANCH  57  71
ATOM     71  C   UNL A   1      47.699  28.925  28.053  1.00  0.00    -0.014 A 
ATOM     72  C   UNL A   1      48.095  28.953  26.701  1.00  0.00     0.010 A 
ATOM     73  C   UNL A   1      48.549  28.322  28.998  1.00  0.00     0.010 A 
ATOM     74  C   UNL A   1      49.288  28.349  26.294  1.00  0.00     0.020 A 
ATOM     75  C   UNL A   1      49.759  27.745  28.599  1.00  0.00     0.020 A 
ATOM     76  C   UNL A   1      50.107  27.738  27.246  1.00  0.00     0.054 A 
BRANCH  76  77
ATOM     77  S   UNL A   1      51.627  26.916  26.692  1.00  0.00     0.124 S 
ATOM     78  O   UNL A   1      52.621  27.974  26.841  1.00  0.00    -0.237 OA
ATOM     79  O   UNL A   1      51.745  25.801  27.629  1.00  0.00    -0.237 OA
ATOM     80  O   UNL A   1      51.326  26.531  25.315  1.00  0.00    -0.744 OA
ENDBRANCH  76  77
ENDBRANCH  57  71
BRANCH  58  81
ATOM     81  C   UNL A   1      38.427  31.891  30.417  1.00  0.00    -0.014 A 
ATOM     82  C   UNL A   1      37.726  32.753  29.551  1.00  0.00     0.010 A 
ATOM     83  C   UNL A   1      37.845  31.541  31.647  1.00  0.00     0.010 A 
ATOM     84  C   UNL A   1      36.513  33.323  29.942  1.00  0.00     0.020 A 
ATOM     85  C   UNL A   1      36.610  32.078  32.026  1.00  0.00     0.020 A 
ATOM     86  C   UNL A   1      35.972  32.996  31.187  1.00  0.00     0.054 A 
BRANCH  86  87
ATOM     87  S   UNL A   1      34.440  33.816  31.710  1.00  0.00     0.124 S 
ATOM     88  O   UNL A   1      34.955  34.991  32.407  1.00  0.00    -0.237 OA
ATOM     89  O   UNL A   1      33.772  34.081  30.440  1.00  0.00    -0.237 OA
ATOM     90  O   UNL A   1      33.791  32.820  32.558  1.00  0.00    -0.744 OA
ENDBRANCH  86  87
ENDBRANCH  58  81
BRANCH  70  91
ATOM     91  C   UNL A   1      44.811  34.741  31.115  1.00  0.00    -0.014 A 
ATOM     92  C   UNL A   1      45.044  35.845  30.272  1.00  0.00     0.010 A 
ATOM     93  C   UNL A   1      45.222  34.805  32.458  1.00  0.00     0.010 A 
ATOM     94  C   UNL A   1      45.735  36.963  30.745  1.00  0.00     0.020 A 
ATOM     95  C   UNL A   1      45.882  35.936  32.943  1.00  0.00     0.020 A 
ATOM     96  C   UNL A   1      46.164  36.994  32.074  1.00  0.00     0.054 A 
BRANCH  96  97
ATOM     97  S   UNL A   1      47.132  38.418  32.644  1.00  0.00     0.124 S 
ATOM     98  O   UNL A   1      48.498  38.001  32.346  1.00  0.00    -0.237 OA
ATOM     99  O   UNL A   1      46.611  39.507  31.820  1.00  0.00    -0.237 OA
ATOM    100  O   UNL A   1      46.803  38.510  34.065  1.00  0.00    -0.744 OA
ENDBRANCH  96  97
ENDBRANCH  70  91
ENDBRANCH  44  45
ENDBRANCH  36  39
ENDBRANCH  34  35
ENDBRANCH   1  34
TORSDOF 17
ENDMDL
