MODEL 1
REMARK VINA RESULT:     -12.9      0.000      0.000
REMARK SMILES Cc1ccc2[nH]c3c(=O)n(CC(=O)NCCCNC(=O)c4ccc(-c5c6nc(c(-c7ccc(S(=O)(=O)[O-])cc7)c7ccc([nH]7)c(-c7ccc(S(=O)(=O)[O-])cc7)c7nc(c(-c8ccc(S(=O)(=O)[O-])cc8)c8ccc5[nH]8)C=C7)C=C6)cc4)cnc3c2c1
REMARK SMILES IDX 17 1 16 2 15 3 14 4 12 5 13 6 11 8 10 9 1 10 2 11 3 12 85 13
REMARK SMILES IDX 4 14 84 15 5 16 83 17 6 18 7 19 82 20 8 22 81 23 9 24 18 25
REMARK SMILES IDX 19 26 20 28 21 29 22 30 80 31 23 32 79 33 24 34 25 35 26 36
REMARK SMILES IDX 73 37 27 38 78 39 72 40 74 41 28 42 77 43 71 44 70 45 29 47
REMARK SMILES IDX 59 48 40 49 58 50 41 51 44 52 57 53 75 54 42 55 43 56 56 58
REMARK SMILES IDX 76 59 45 60 30 61 31 62 39 63 32 64 38 65 33 66 34 67 35 68
REMARK SMILES IDX 36 69 37 70 60 71 61 72 69 73 62 74 68 75 63 76 64 77 65 78
REMARK SMILES IDX 66 79 67 80 46 81 47 82 55 83 48 84 54 85 49 86 50 87 51 88
REMARK SMILES IDX 52 89 53 90
REMARK H PARENT 14 7 6 21 18 27 74 46 44 57
REMARK Flexibility Score: inf
ROOT
ATOM      1  C   UNL A   1      39.520  21.832  26.548  1.00  0.00     0.118 C 
ENDROOT
BRANCH   1   2
ATOM      2  C   UNL A   1      38.334  22.185  25.647  1.00  0.00     0.042 C 
BRANCH   2   3
ATOM      3  C   UNL A   1      37.663  20.980  24.990  1.00  0.00     0.117 C 
BRANCH   3   4
ATOM      4  N   UNL A   1      36.242  20.895  25.272  1.00  0.00    -0.354 N 
ATOM      5  C   UNL A   1      35.179  21.498  24.671  1.00  0.00     0.240 C 
ATOM      6  O   UNL A   1      34.061  21.032  24.912  1.00  0.00    -0.273 OA
ATOM      7  H   UNL A   1      36.007  20.303  26.023  1.00  0.00     0.163 HD
BRANCH   5   8
ATOM      8  C   UNL A   1      35.359  22.597  23.619  1.00  0.00     0.226 C 
BRANCH   8   9
ATOM      9  N   UNL A   1      34.718  23.850  23.976  1.00  0.00    -0.288 N 
ATOM     10  C   UNL A   1      31.861  30.496  26.854  1.00  0.00     0.044 C 
ATOM     11  C   UNL A   1      31.974  29.474  25.759  1.00  0.00    -0.050 A 
ATOM     12  C   UNL A   1      31.193  29.585  24.602  1.00  0.00     0.005 A 
ATOM     13  C   UNL A   1      32.827  28.369  25.921  1.00  0.00     0.016 A 
ATOM     14  C   UNL A   1      31.256  28.632  23.578  1.00  0.00     0.027 A 
ATOM     15  C   UNL A   1      32.906  27.397  24.906  1.00  0.00     0.026 A 
ATOM     16  C   UNL A   1      32.123  27.550  23.755  1.00  0.00     0.048 A 
ATOM     17  C   UNL A   1      33.631  26.202  24.726  1.00  0.00     0.103 A 
ATOM     18  N   UNL A   1      32.390  26.475  22.928  1.00  0.00    -0.349 N 
ATOM     19  C   UNL A   1      33.304  25.652  23.524  1.00  0.00     0.132 A 
ATOM     20  N   UNL A   1      34.556  25.623  25.591  1.00  0.00    -0.236 NA
ATOM     21  H   UNL A   1      31.985  26.325  22.043  1.00  0.00     0.167 HD
ATOM     22  C   UNL A   1      33.859  24.430  23.042  1.00  0.00     0.278 A 
ATOM     23  C   UNL A   1      35.042  24.503  25.156  1.00  0.00     0.203 A 
ATOM     24  O   UNL A   1      33.602  23.961  21.947  1.00  0.00    -0.267 OA
ENDBRANCH   8   9
ENDBRANCH   5   8
ENDBRANCH   3   4
ENDBRANCH   2   3
ENDBRANCH   1   2
BRANCH   1  25
ATOM     25  N   UNL A   1      40.818  21.915  25.902  1.00  0.00    -0.352 N 
ATOM     26  C   UNL A   1      41.855  22.808  25.915  1.00  0.00     0.251 C 
ATOM     27  H   UNL A   1      40.994  21.144  25.316  1.00  0.00     0.163 HD
ATOM     28  O   UNL A   1      42.879  22.441  25.332  1.00  0.00    -0.269 OA
BRANCH  26  29
ATOM     29  C   UNL A   1      41.819  24.173  26.514  1.00  0.00     0.039 A 
ATOM     30  C   UNL A   1      42.230  24.505  27.803  1.00  0.00     0.014 A 
ATOM     31  C   UNL A   1      41.262  25.189  25.709  1.00  0.00     0.014 A 
ATOM     32  C   UNL A   1      42.001  25.783  28.308  1.00  0.00     0.010 A 
ATOM     33  C   UNL A   1      41.050  26.475  26.204  1.00  0.00     0.010 A 
ATOM     34  C   UNL A   1      41.377  26.759  27.525  1.00  0.00    -0.014 A 
BRANCH  34  35
ATOM     35  C   UNL A   1      41.134  28.064  28.138  1.00  0.00     0.031 A 
ATOM     36  C   UNL A   1      42.185  29.100  27.924  1.00  0.00     0.074 A 
ATOM     37  C   UNL A   1      40.020  28.389  28.825  1.00  0.00     0.049 A 
ATOM     38  N   UNL A   1      42.945  29.665  28.806  1.00  0.00    -0.248 NA
ATOM     39  C   UNL A   1      42.473  29.501  26.540  1.00  0.00     0.031 C 
ATOM     40  C   UNL A   1      38.755  27.656  28.920  1.00  0.00     0.029 A 
ATOM     41  N   UNL A   1      39.772  29.527  29.534  1.00  0.00    -0.354 N 
ATOM     42  C   UNL A   1      43.718  30.600  28.120  1.00  0.00     0.074 A 
ATOM     43  C   UNL A   1      43.452  30.389  26.717  1.00  0.00     0.031 C 
ATOM     44  C   UNL A   1      37.811  28.466  29.452  1.00  0.00     0.029 A 
ATOM     45  C   UNL A   1      38.442  29.702  29.882  1.00  0.00     0.049 A 
ATOM     46  H   UNL A   1      40.478  30.170  29.776  1.00  0.00     0.167 HD
ATOM     47  C   UNL A   1      44.430  31.577  28.752  1.00  0.00     0.031 A 
ATOM     48  C   UNL A   1      37.892  30.810  30.437  1.00  0.00     0.031 A 
ATOM     49  C   UNL A   1      44.591  31.309  30.153  1.00  0.00     0.049 A 
ATOM     50  C   UNL A   1      38.981  31.570  31.094  1.00  0.00     0.074 A 
ATOM     51  C   UNL A   1      45.230  30.332  30.888  1.00  0.00     0.029 A 
ATOM     52  N   UNL A   1      43.751  31.953  31.029  1.00  0.00    -0.354 N 
ATOM     53  N   UNL A   1      39.630  31.150  32.143  1.00  0.00    -0.248 NA
ATOM     54  C   UNL A   1      39.610  32.657  30.363  1.00  0.00     0.031 C 
ATOM     55  C   UNL A   1      44.406  30.130  32.031  1.00  0.00     0.029 A 
ATOM     56  C   UNL A   1      43.334  31.024  31.949  1.00  0.00     0.049 A 
ATOM     57  H   UNL A   1      43.496  32.903  31.002  1.00  0.00     0.167 HD
ATOM     58  C   UNL A   1      40.923  31.622  31.974  1.00  0.00     0.074 A 
ATOM     59  C   UNL A   1      40.820  32.633  30.927  1.00  0.00     0.031 C 
ATOM     60  C   UNL A   1      41.996  30.966  32.506  1.00  0.00     0.031 A 
BRANCH  47  61
ATOM     61  C   UNL A   1      44.772  32.917  28.148  1.00  0.00    -0.014 A 
ATOM     62  C   UNL A   1      43.807  33.912  27.900  1.00  0.00     0.010 A 
ATOM     63  C   UNL A   1      46.127  33.303  28.041  1.00  0.00     0.010 A 
ATOM     64  C   UNL A   1      44.160  35.218  27.550  1.00  0.00     0.020 A 
ATOM     65  C   UNL A   1      46.494  34.623  27.732  1.00  0.00     0.020 A 
ATOM     66  C   UNL A   1      45.503  35.571  27.486  1.00  0.00     0.054 A 
BRANCH  66  67
ATOM     67  S   UNL A   1      45.916  37.307  27.171  1.00  0.00     0.124 S 
ATOM     68  O   UNL A   1      46.595  37.225  25.881  1.00  0.00    -0.237 OA
ATOM     69  O   UNL A   1      44.602  37.942  27.152  1.00  0.00    -0.237 OA
ATOM     70  O   UNL A   1      46.765  37.669  28.304  1.00  0.00    -0.744 OA
ENDBRANCH  66  67
ENDBRANCH  47  61
BRANCH  48  71
ATOM     71  C   UNL A   1      36.607  31.446  30.058  1.00  0.00    -0.014 A 
ATOM     72  C   UNL A   1      36.376  31.806  28.714  1.00  0.00     0.010 A 
ATOM     73  C   UNL A   1      35.762  31.991  31.043  1.00  0.00     0.010 A 
ATOM     74  C   UNL A   1      35.398  32.744  28.373  1.00  0.00     0.020 A 
ATOM     75  C   UNL A   1      34.778  32.936  30.707  1.00  0.00     0.020 A 
ATOM     76  C   UNL A   1      34.632  33.334  29.377  1.00  0.00     0.054 A 
BRANCH  76  77
ATOM     77  S   UNL A   1      33.521  34.694  28.918  1.00  0.00     0.124 S 
ATOM     78  O   UNL A   1      34.449  35.657  28.331  1.00  0.00    -0.237 OA
ATOM     79  O   UNL A   1      32.607  34.051  27.977  1.00  0.00    -0.237 OA
ATOM     80  O   UNL A   1      32.921  35.096  30.188  1.00  0.00    -0.744 OA
ENDBRANCH  76  77
ENDBRANCH  48  71
BRANCH  60  81
ATOM     81  C   UNL A   1      41.759  29.885  33.543  1.00  0.00    -0.014 A 
ATOM     82  C   UNL A   1      42.023  30.200  34.888  1.00  0.00     0.010 A 
ATOM     83  C   UNL A   1      41.488  28.542  33.212  1.00  0.00     0.010 A 
ATOM     84  C   UNL A   1      42.058  29.206  35.870  1.00  0.00     0.020 A 
ATOM     85  C   UNL A   1      41.495  27.542  34.198  1.00  0.00     0.020 A 
ATOM     86  C   UNL A   1      41.807  27.879  35.517  1.00  0.00     0.054 A 
BRANCH  86  87
ATOM     87  S   UNL A   1      41.935  26.610  36.807  1.00  0.00     0.124 S 
ATOM     88  O   UNL A   1      42.193  25.402  36.027  1.00  0.00    -0.237 OA
ATOM     89  O   UNL A   1      43.059  27.082  37.613  1.00  0.00    -0.237 OA
ATOM     90  O   UNL A   1      40.636  26.651  37.475  1.00  0.00    -0.744 OA
ENDBRANCH  86  87
ENDBRANCH  60  81
ENDBRANCH  34  35
ENDBRANCH  26  29
ENDBRANCH   1  25
TORSDOF 14
ENDMDL
MODEL 2
REMARK VINA RESULT:     -12.7      1.522      1.857
REMARK SMILES Cc1ccc2[nH]c3c(=O)n(CC(=O)NCCCNC(=O)c4ccc(-c5c6nc(c(-c7ccc(S(=O)(=O)[O-])cc7)c7ccc([nH]7)c(-c7ccc(S(=O)(=O)[O-])cc7)c7nc(c(-c8ccc(S(=O)(=O)[O-])cc8)c8ccc5[nH]8)C=C7)C=C6)cc4)cnc3c2c1
REMARK SMILES IDX 17 1 16 2 15 3 14 4 12 5 13 6 11 8 10 9 1 10 2 11 3 12 85 13
REMARK SMILES IDX 4 14 84 15 5 16 83 17 6 18 7 19 82 20 8 22 81 23 9 24 18 25
REMARK SMILES IDX 19 26 20 28 21 29 22 30 80 31 23 32 79 33 24 34 25 35 26 36
REMARK SMILES IDX 73 37 27 38 78 39 72 40 74 41 28 42 77 43 71 44 70 45 29 47
REMARK SMILES IDX 59 48 40 49 58 50 41 51 44 52 57 53 75 54 42 55 43 56 56 58
REMARK SMILES IDX 76 59 45 60 30 61 31 62 39 63 32 64 38 65 33 66 34 67 35 68
REMARK SMILES IDX 36 69 37 70 60 71 61 72 69 73 62 74 68 75 63 76 64 77 65 78
REMARK SMILES IDX 66 79 67 80 46 81 47 82 55 83 48 84 54 85 49 86 50 87 51 88
REMARK SMILES IDX 52 89 53 90
REMARK H PARENT 14 7 6 21 18 27 74 46 44 57
REMARK Flexibility Score: inf
ROOT
ATOM      1  C   UNL A   1      37.347  22.444  25.485  1.00  0.00     0.118 C 
ENDROOT
BRANCH   1   2
ATOM      2  C   UNL A   1      36.002  21.824  25.874  1.00  0.00     0.042 C 
BRANCH   2   3
ATOM      3  C   UNL A   1      35.557  20.672  24.976  1.00  0.00     0.117 C 
BRANCH   3   4
ATOM      4  N   UNL A   1      34.299  20.079  25.391  1.00  0.00    -0.354 N 
ATOM      5  C   UNL A   1      33.054  20.164  24.844  1.00  0.00     0.240 C 
ATOM      6  O   UNL A   1      32.220  19.333  25.220  1.00  0.00    -0.273 OA
ATOM      7  H   UNL A   1      34.354  19.524  26.202  1.00  0.00     0.163 HD
BRANCH   5   8
ATOM      8  C   UNL A   1      32.734  21.132  23.702  1.00  0.00     0.226 C 
BRANCH   8   9
ATOM      9  N   UNL A   1      32.706  22.524  24.113  1.00  0.00    -0.288 N 
ATOM     10  C   UNL A   1      31.899  29.639  27.168  1.00  0.00     0.044 C 
ATOM     11  C   UNL A   1      32.467  28.702  26.142  1.00  0.00    -0.050 A 
ATOM     12  C   UNL A   1      33.228  29.195  25.075  1.00  0.00     0.005 A 
ATOM     13  C   UNL A   1      32.185  27.327  26.219  1.00  0.00     0.016 A 
ATOM     14  C   UNL A   1      33.746  28.349  24.087  1.00  0.00     0.027 A 
ATOM     15  C   UNL A   1      32.693  26.456  25.237  1.00  0.00     0.026 A 
ATOM     16  C   UNL A   1      33.465  26.983  24.194  1.00  0.00     0.048 A 
ATOM     17  C   UNL A   1      32.623  25.068  25.004  1.00  0.00     0.103 A 
ATOM     18  N   UNL A   1      33.837  25.928  23.381  1.00  0.00    -0.349 N 
ATOM     19  C   UNL A   1      33.317  24.764  23.873  1.00  0.00     0.132 A 
ATOM     20  N   UNL A   1      31.974  24.104  25.771  1.00  0.00    -0.236 NA
ATOM     21  H   UNL A   1      34.392  26.004  22.571  1.00  0.00     0.167 HD
ATOM     22  C   UNL A   1      33.436  23.441  23.356  1.00  0.00     0.278 A 
ATOM     23  C   UNL A   1      32.069  22.905  25.285  1.00  0.00     0.203 A 
ATOM     24  O   UNL A   1      34.095  23.161  22.370  1.00  0.00    -0.267 OA
ENDBRANCH   8   9
ENDBRANCH   5   8
ENDBRANCH   3   4
ENDBRANCH   2   3
ENDBRANCH   1   2
BRANCH   1  25
ATOM     25  N   UNL A   1      38.509  21.752  26.013  1.00  0.00    -0.352 N 
ATOM     26  C   UNL A   1      39.580  22.103  26.789  1.00  0.00     0.251 C 
ATOM     27  H   UNL A   1      38.531  20.804  25.751  1.00  0.00     0.163 HD
ATOM     28  O   UNL A   1      40.298  21.170  27.157  1.00  0.00    -0.269 OA
BRANCH  26  29
ATOM     29  C   UNL A   1      39.964  23.495  27.163  1.00  0.00     0.039 A 
ATOM     30  C   UNL A   1      41.067  23.853  27.935  1.00  0.00     0.014 A 
ATOM     31  C   UNL A   1      39.086  24.515  26.740  1.00  0.00     0.014 A 
ATOM     32  C   UNL A   1      41.235  25.170  28.355  1.00  0.00     0.010 A 
ATOM     33  C   UNL A   1      39.262  25.839  27.141  1.00  0.00     0.010 A 
ATOM     34  C   UNL A   1      40.314  26.159  27.991  1.00  0.00    -0.014 A 
BRANCH  34  35
ATOM     35  C   UNL A   1      40.535  27.510  28.505  1.00  0.00     0.031 A 
ATOM     36  C   UNL A   1      41.797  28.180  28.075  1.00  0.00     0.074 A 
ATOM     37  C   UNL A   1      39.664  28.184  29.282  1.00  0.00     0.049 A 
ATOM     38  N   UNL A   1      42.799  28.548  28.808  1.00  0.00    -0.248 NA
ATOM     39  C   UNL A   1      41.993  28.401  26.637  1.00  0.00     0.031 C 
ATOM     40  C   UNL A   1      38.269  27.858  29.590  1.00  0.00     0.029 A 
ATOM     41  N   UNL A   1      39.846  29.383  29.905  1.00  0.00    -0.354 N 
ATOM     42  C   UNL A   1      43.703  29.176  27.954  1.00  0.00     0.074 A 
ATOM     43  C   UNL A   1      43.199  28.973  26.616  1.00  0.00     0.031 C 
ATOM     44  C   UNL A   1      37.674  28.937  30.148  1.00  0.00     0.029 A 
ATOM     45  C   UNL A   1      38.681  29.957  30.386  1.00  0.00     0.049 A 
ATOM     46  H   UNL A   1      40.731  29.804  30.004  1.00  0.00     0.167 HD
ATOM     47  C   UNL A   1      44.741  29.936  28.405  1.00  0.00     0.031 A 
ATOM     48  C   UNL A   1      38.547  31.207  30.894  1.00  0.00     0.031 A 
ATOM     49  C   UNL A   1      45.010  29.712  29.798  1.00  0.00     0.049 A 
ATOM     50  C   UNL A   1      39.885  31.651  31.349  1.00  0.00     0.074 A 
ATOM     51  C   UNL A   1      45.441  28.634  30.542  1.00  0.00     0.029 A 
ATOM     52  N   UNL A   1      44.514  30.621  30.701  1.00  0.00    -0.354 N 
ATOM     53  N   UNL A   1      40.527  31.120  32.351  1.00  0.00    -0.248 NA
ATOM     54  C   UNL A   1      40.690  32.465  30.452  1.00  0.00     0.031 C 
ATOM     55  C   UNL A   1      44.759  28.746  31.787  1.00  0.00     0.029 A 
ATOM     56  C   UNL A   1      43.982  29.907  31.745  1.00  0.00     0.049 A 
ATOM     57  H   UNL A   1      44.536  31.602  30.615  1.00  0.00     0.167 HD
ATOM     58  C   UNL A   1      41.865  31.183  31.991  1.00  0.00     0.074 A 
ATOM     59  C   UNL A   1      41.909  32.120  30.873  1.00  0.00     0.031 C 
ATOM     60  C   UNL A   1      42.771  30.273  32.455  1.00  0.00     0.031 A 
BRANCH  47  61
ATOM     61  C   UNL A   1      45.361  31.082  27.645  1.00  0.00    -0.014 A 
ATOM     62  C   UNL A   1      44.660  32.264  27.338  1.00  0.00     0.010 A 
ATOM     63  C   UNL A   1      46.757  31.096  27.429  1.00  0.00     0.010 A 
ATOM     64  C   UNL A   1      45.302  33.397  26.831  1.00  0.00     0.020 A 
ATOM     65  C   UNL A   1      47.419  32.243  26.962  1.00  0.00     0.020 A 
ATOM     66  C   UNL A   1      46.682  33.387  26.664  1.00  0.00     0.054 A 
BRANCH  66  67
ATOM     67  S   UNL A   1      47.491  34.921  26.143  1.00  0.00     0.124 S 
ATOM     68  O   UNL A   1      48.300  34.467  25.016  1.00  0.00    -0.237 OA
ATOM     69  O   UNL A   1      46.356  35.773  25.801  1.00  0.00    -0.237 OA
ATOM     70  O   UNL A   1      48.242  35.333  27.327  1.00  0.00    -0.744 OA
ENDBRANCH  66  67
ENDBRANCH  47  61
BRANCH  48  71
ATOM     71  C   UNL A   1      37.454  32.168  30.608  1.00  0.00    -0.014 A 
ATOM     72  C   UNL A   1      36.140  31.876  31.028  1.00  0.00     0.010 A 
ATOM     73  C   UNL A   1      37.632  33.188  29.654  1.00  0.00     0.010 A 
ATOM     74  C   UNL A   1      35.038  32.514  30.455  1.00  0.00     0.020 A 
ATOM     75  C   UNL A   1      36.528  33.831  29.072  1.00  0.00     0.020 A 
ATOM     76  C   UNL A   1      35.236  33.459  29.450  1.00  0.00     0.054 A 
BRANCH  76  77
ATOM     77  S   UNL A   1      33.778  34.111  28.587  1.00  0.00     0.124 S 
ATOM     78  O   UNL A   1      34.361  35.167  27.764  1.00  0.00    -0.237 OA
ATOM     79  O   UNL A   1      33.296  32.941  27.856  1.00  0.00    -0.237 OA
ATOM     80  O   UNL A   1      32.909  34.567  29.668  1.00  0.00    -0.744 OA
ENDBRANCH  76  77
ENDBRANCH  48  71
BRANCH  60  81
ATOM     81  C   UNL A   1      42.383  29.369  33.608  1.00  0.00    -0.014 A 
ATOM     82  C   UNL A   1      42.935  29.648  34.872  1.00  0.00     0.010 A 
ATOM     83  C   UNL A   1      41.672  28.163  33.440  1.00  0.00     0.010 A 
ATOM     84  C   UNL A   1      42.820  28.738  35.927  1.00  0.00     0.020 A 
ATOM     85  C   UNL A   1      41.530  27.257  34.503  1.00  0.00     0.020 A 
ATOM     86  C   UNL A   1      42.129  27.540  35.733  1.00  0.00     0.054 A 
BRANCH  86  87
ATOM     87  S   UNL A   1      42.067  26.355  37.105  1.00  0.00     0.124 S 
ATOM     88  O   UNL A   1      43.168  26.806  37.952  1.00  0.00    -0.237 OA
ATOM     89  O   UNL A   1      40.730  26.569  37.655  1.00  0.00    -0.237 OA
ATOM     90  O   UNL A   1      42.269  25.057  36.463  1.00  0.00    -0.744 OA
ENDBRANCH  86  87
ENDBRANCH  60  81
ENDBRANCH  34  35
ENDBRANCH  26  29
ENDBRANCH   1  25
TORSDOF 14
ENDMDL
MODEL 3
REMARK VINA RESULT:     -12.5      2.897      9.696
REMARK SMILES Cc1ccc2[nH]c3c(=O)n(CC(=O)NCCCNC(=O)c4ccc(-c5c6nc(c(-c7ccc(S(=O)(=O)[O-])cc7)c7ccc([nH]7)c(-c7ccc(S(=O)(=O)[O-])cc7)c7nc(c(-c8ccc(S(=O)(=O)[O-])cc8)c8ccc5[nH]8)C=C7)C=C6)cc4)cnc3c2c1
REMARK SMILES IDX 17 1 16 2 15 3 14 4 12 5 13 6 11 8 10 9 1 10 2 11 3 12 85 13
REMARK SMILES IDX 4 14 84 15 5 16 83 17 6 18 7 19 82 20 8 22 81 23 9 24 18 25
REMARK SMILES IDX 19 26 20 28 21 29 22 30 80 31 23 32 79 33 24 34 25 35 26 36
REMARK SMILES IDX 73 37 27 38 78 39 72 40 74 41 28 42 77 43 71 44 70 45 29 47
REMARK SMILES IDX 59 48 40 49 58 50 41 51 44 52 57 53 75 54 42 55 43 56 56 58
REMARK SMILES IDX 76 59 45 60 30 61 31 62 39 63 32 64 38 65 33 66 34 67 35 68
REMARK SMILES IDX 36 69 37 70 60 71 61 72 69 73 62 74 68 75 63 76 64 77 65 78
REMARK SMILES IDX 66 79 67 80 46 81 47 82 55 83 48 84 54 85 49 86 50 87 51 88
REMARK SMILES IDX 52 89 53 90
REMARK H PARENT 14 7 6 21 18 27 74 46 44 57
REMARK Flexibility Score: inf
ROOT
ATOM      1  C   UNL A   1      34.423  32.129  28.017  1.00  0.00     0.118 C 
ENDROOT
BRANCH   1   2
ATOM      2  C   UNL A   1      34.217  30.675  27.582  1.00  0.00     0.042 C 
BRANCH   2   3
ATOM      3  C   UNL A   1      32.783  30.337  27.180  1.00  0.00     0.117 C 
BRANCH   3   4
ATOM      4  N   UNL A   1      32.644  30.038  25.766  1.00  0.00    -0.354 N 
ATOM      5  C   UNL A   1      32.020  29.006  25.133  1.00  0.00     0.240 C 
ATOM      6  O   UNL A   1      31.798  29.142  23.925  1.00  0.00    -0.273 OA
ATOM      7  H   UNL A   1      33.072  30.689  25.164  1.00  0.00     0.163 HD
BRANCH   5   8
ATOM      8  C   UNL A   1      31.470  27.799  25.899  1.00  0.00     0.226 C 
BRANCH   8   9
ATOM      9  N   UNL A   1      32.265  26.596  25.732  1.00  0.00    -0.288 N 
ATOM     10  C   UNL A   1      37.424  20.835  24.828  1.00  0.00     0.044 C 
ATOM     11  C   UNL A   1      36.016  21.329  25.004  1.00  0.00    -0.050 A 
ATOM     12  C   UNL A   1      34.940  20.436  24.951  1.00  0.00     0.005 A 
ATOM     13  C   UNL A   1      35.774  22.704  25.164  1.00  0.00     0.016 A 
ATOM     14  C   UNL A   1      33.615  20.872  25.082  1.00  0.00     0.027 A 
ATOM     15  C   UNL A   1      34.451  23.167  25.296  1.00  0.00     0.026 A 
ATOM     16  C   UNL A   1      33.400  22.242  25.256  1.00  0.00     0.048 A 
ATOM     17  C   UNL A   1      33.851  24.429  25.473  1.00  0.00     0.103 A 
ATOM     18  N   UNL A   1      32.222  22.949  25.411  1.00  0.00    -0.349 N 
ATOM     19  C   UNL A   1      32.499  24.282  25.537  1.00  0.00     0.132 A 
ATOM     20  N   UNL A   1      34.478  25.668  25.583  1.00  0.00    -0.236 NA
ATOM     21  H   UNL A   1      31.321  22.553  25.429  1.00  0.00     0.167 HD
ATOM     22  C   UNL A   1      31.596  25.372  25.705  1.00  0.00     0.278 A 
ATOM     23  C   UNL A   1      33.651  26.657  25.716  1.00  0.00     0.203 A 
ATOM     24  O   UNL A   1      30.390  25.237  25.809  1.00  0.00    -0.267 OA
ENDBRANCH   8   9
ENDBRANCH   5   8
ENDBRANCH   3   4
ENDBRANCH   2   3
ENDBRANCH   1   2
BRANCH   1  25
ATOM     25  N   UNL A   1      34.251  32.367  29.440  1.00  0.00    -0.352 N 
ATOM     26  C   UNL A   1      35.009  32.153  30.559  1.00  0.00     0.251 C 
ATOM     27  H   UNL A   1      33.384  32.782  29.647  1.00  0.00     0.163 HD
ATOM     28  O   UNL A   1      34.566  32.642  31.601  1.00  0.00    -0.269 OA
BRANCH  26  29
ATOM     29  C   UNL A   1      36.263  31.348  30.620  1.00  0.00     0.039 A 
ATOM     30  C   UNL A   1      37.549  31.831  30.390  1.00  0.00     0.014 A 
ATOM     31  C   UNL A   1      36.103  29.970  30.874  1.00  0.00     0.014 A 
ATOM     32  C   UNL A   1      38.628  30.953  30.316  1.00  0.00     0.010 A 
ATOM     33  C   UNL A   1      37.184  29.090  30.822  1.00  0.00     0.010 A 
ATOM     34  C   UNL A   1      38.444  29.578  30.494  1.00  0.00    -0.014 A 
BRANCH  34  35
ATOM     35  C   UNL A   1      39.618  28.716  30.362  1.00  0.00     0.031 A 
ATOM     36  C   UNL A   1      40.414  28.491  31.602  1.00  0.00     0.074 A 
ATOM     37  C   UNL A   1      39.981  28.091  29.223  1.00  0.00     0.049 A 
ATOM     38  N   UNL A   1      41.635  28.846  31.847  1.00  0.00    -0.248 NA
ATOM     39  C   UNL A   1      39.737  27.853  32.739  1.00  0.00     0.031 C 
ATOM     40  C   UNL A   1      39.219  27.928  27.983  1.00  0.00     0.029 A 
ATOM     41  N   UNL A   1      41.121  27.382  28.981  1.00  0.00    -0.354 N 
ATOM     42  C   UNL A   1      41.941  28.359  33.116  1.00  0.00     0.074 A 
ATOM     43  C   UNL A   1      40.706  27.839  33.655  1.00  0.00     0.031 C 
ATOM     44  C   UNL A   1      39.817  26.990  27.214  1.00  0.00     0.029 A 
ATOM     45  C   UNL A   1      41.080  26.616  27.828  1.00  0.00     0.049 A 
ATOM     46  H   UNL A   1      41.905  27.413  29.576  1.00  0.00     0.167 HD
ATOM     47  C   UNL A   1      43.216  28.295  33.596  1.00  0.00     0.031 A 
ATOM     48  C   UNL A   1      41.997  25.698  27.436  1.00  0.00     0.031 A 
ATOM     49  C   UNL A   1      44.123  29.102  32.830  1.00  0.00     0.049 A 
ATOM     50  C   UNL A   1      43.272  26.018  28.118  1.00  0.00     0.074 A 
ATOM     51  C   UNL A   1      44.255  30.453  32.589  1.00  0.00     0.029 A 
ATOM     52  N   UNL A   1      44.903  28.472  31.890  1.00  0.00    -0.354 N 
ATOM     53  N   UNL A   1      43.977  27.088  27.878  1.00  0.00    -0.248 NA
ATOM     54  C   UNL A   1      43.595  25.320  29.352  1.00  0.00     0.031 C 
ATOM     55  C   UNL A   1      44.716  30.548  31.246  1.00  0.00     0.029 A 
ATOM     56  C   UNL A   1      44.879  29.248  30.758  1.00  0.00     0.049 A 
ATOM     57  H   UNL A   1      45.388  27.624  32.006  1.00  0.00     0.167 HD
ATOM     58  C   UNL A   1      44.534  27.429  29.102  1.00  0.00     0.074 A 
ATOM     59  C   UNL A   1      44.358  26.246  29.938  1.00  0.00     0.031 C 
ATOM     60  C   UNL A   1      44.846  28.724  29.406  1.00  0.00     0.031 A 
BRANCH  47  61
ATOM     61  C   UNL A   1      43.700  27.294  34.616  1.00  0.00    -0.014 A 
ATOM     62  C   UNL A   1      43.786  25.914  34.352  1.00  0.00     0.010 A 
ATOM     63  C   UNL A   1      44.317  27.755  35.801  1.00  0.00     0.010 A 
ATOM     64  C   UNL A   1      44.437  25.032  35.219  1.00  0.00     0.020 A 
ATOM     65  C   UNL A   1      45.011  26.885  36.656  1.00  0.00     0.020 A 
ATOM     66  C   UNL A   1      45.062  25.525  36.358  1.00  0.00     0.054 A 
BRANCH  66  67
ATOM     67  S   UNL A   1      46.016  24.371  37.377  1.00  0.00     0.124 S 
ATOM     68  O   UNL A   1      46.327  23.312  36.421  1.00  0.00    -0.237 OA
ATOM     69  O   UNL A   1      47.149  25.191  37.799  1.00  0.00    -0.237 OA
ATOM     70  O   UNL A   1      45.086  24.002  38.441  1.00  0.00    -0.744 OA
ENDBRANCH  66  67
ENDBRANCH  47  61
BRANCH  48  71
ATOM     71  C   UNL A   1      41.721  24.352  26.876  1.00  0.00    -0.014 A 
ATOM     72  C   UNL A   1      40.860  23.473  27.566  1.00  0.00     0.010 A 
ATOM     73  C   UNL A   1      42.541  23.817  25.865  1.00  0.00     0.010 A 
ATOM     74  C   UNL A   1      40.881  22.098  27.319  1.00  0.00     0.020 A 
ATOM     75  C   UNL A   1      42.568  22.436  25.614  1.00  0.00     0.020 A 
ATOM     76  C   UNL A   1      41.764  21.582  26.373  1.00  0.00     0.054 A 
BRANCH  76  77
ATOM     77  S   UNL A   1      41.910  19.779  26.230  1.00  0.00     0.124 S 
ATOM     78  O   UNL A   1      42.245  19.393  27.599  1.00  0.00    -0.237 OA
ATOM     79  O   UNL A   1      40.576  19.389  25.779  1.00  0.00    -0.237 OA
ATOM     80  O   UNL A   1      42.975  19.592  25.249  1.00  0.00    -0.744 OA
ENDBRANCH  76  77
ENDBRANCH  48  71
BRANCH  60  81
ATOM     81  C   UNL A   1      44.868  29.756  28.296  1.00  0.00    -0.014 A 
ATOM     82  C   UNL A   1      46.102  30.361  27.991  1.00  0.00     0.010 A 
ATOM     83  C   UNL A   1      43.702  30.281  27.704  1.00  0.00     0.010 A 
ATOM     84  C   UNL A   1      46.171  31.479  27.156  1.00  0.00     0.020 A 
ATOM     85  C   UNL A   1      43.768  31.388  26.842  1.00  0.00     0.020 A 
ATOM     86  C   UNL A   1      45.001  31.995  26.596  1.00  0.00     0.054 A 
BRANCH  86  87
ATOM     87  S   UNL A   1      45.126  33.491  25.577  1.00  0.00     0.124 S 
ATOM     88  O   UNL A   1      46.567  33.731  25.557  1.00  0.00    -0.237 OA
ATOM     89  O   UNL A   1      44.549  33.063  24.304  1.00  0.00    -0.237 OA
ATOM     90  O   UNL A   1      44.341  34.485  26.307  1.00  0.00    -0.744 OA
ENDBRANCH  86  87
ENDBRANCH  60  81
ENDBRANCH  34  35
ENDBRANCH  26  29
ENDBRANCH   1  25
TORSDOF 14
ENDMDL
