MODEL 1
REMARK VINA RESULT:     -13.1      0.000      0.000
REMARK SMILES CCC(=O)N1CCC[C@](C[C@H]2CC(c3ccc(C)cc3)=NO2)(C(=O)NCCCNC(=O)c2ccc(-c3c4nc(c(-c5ccc(S(=O)(=O)[O-])cc5)c5ccc([nH]5)c(-c5ccc(S(=O)(=O)[O-])cc5)c5nc(c(-c6ccc(S(=O)(=O)[O-])cc6)c6ccc3[nH]6)C=C5)C=C4)cc2)C1
REMARK SMILES IDX 27 1 26 2 25 3 23 4 24 5 9 7 5 8 6 9 92 10 7 11 8 12 3 13
REMARK SMILES IDX 4 14 2 15 1 16 10 17 11 18 12 19 22 20 13 21 21 22 14 23
REMARK SMILES IDX 15 24 20 25 16 26 19 27 17 28 18 29 28 30 29 31 30 32 31 34
REMARK SMILES IDX 32 35 33 36 91 37 34 38 90 39 35 40 36 41 37 42 84 43 38 44
REMARK SMILES IDX 89 45 83 46 85 47 39 48 88 49 82 50 81 51 40 53 70 54 51 55
REMARK SMILES IDX 69 56 52 57 55 58 68 59 86 60 53 61 54 62 67 64 87 65 56 66
REMARK SMILES IDX 41 67 42 68 50 69 43 70 49 71 44 72 45 73 46 74 47 75 48 76
REMARK SMILES IDX 71 77 72 78 80 79 73 80 79 81 74 82 75 83 76 84 77 85 78 86
REMARK SMILES IDX 57 87 58 88 66 89 59 90 65 91 60 92 61 93 62 94 63 95 64 96
REMARK H PARENT 25 6 29 33 85 52 55 63
REMARK Flexibility Score: inf
ROOT
ATOM      1  C   UNL A   1      37.404  22.528  25.739  1.00  0.00     0.042 C 
ENDROOT
BRANCH   1   2
ATOM      2  C   UNL A   1      35.903  22.774  25.641  1.00  0.00     0.117 C 
BRANCH   2   3
ATOM      3  N   UNL A   1      35.427  22.847  24.258  1.00  0.00    -0.355 N 
ATOM      4  C   UNL A   1      34.220  22.876  23.632  1.00  0.00     0.228 C 
ATOM      5  O   UNL A   1      34.270  23.064  22.408  1.00  0.00    -0.274 OA
ATOM      6  H   UNL A   1      36.172  22.886  23.616  1.00  0.00     0.163 HD
BRANCH   4   7
ATOM      7  C   UNL A   1      32.849  22.518  24.277  1.00  0.00     0.070 C 
ATOM      8  N   UNL A   1      33.277  20.029  24.408  1.00  0.00    -0.342 N 
ATOM      9  C   UNL A   1      32.245  19.732  23.423  1.00  0.00     0.119 C 
ATOM     10  C   UNL A   1      33.084  21.262  25.191  1.00  0.00     0.136 C 
ATOM     11  C   UNL A   1      32.041  20.899  22.482  1.00  0.00     0.023 C 
ATOM     12  C   UNL A   1      31.740  22.161  23.289  1.00  0.00     0.021 C 
BRANCH   8  13
ATOM     13  C   UNL A   1      34.369  19.179  24.466  1.00  0.00     0.222 C 
ATOM     14  O   UNL A   1      35.492  19.597  24.771  1.00  0.00    -0.275 OA
BRANCH  13  15
ATOM     15  C   UNL A   1      34.253  17.782  23.875  1.00  0.00     0.097 C 
ATOM     16  C   UNL A   1      33.861  16.631  24.771  1.00  0.00     0.014 C 
ENDBRANCH  13  15
ENDBRANCH   8  13
BRANCH   7  17
ATOM     17  C   UNL A   1      32.512  23.784  25.147  1.00  0.00     0.067 C 
BRANCH  17  18
ATOM     18  C   UNL A   1      31.769  25.021  24.607  1.00  0.00     0.211 C 
ATOM     19  C   UNL A   1      31.444  26.104  25.612  1.00  0.00     0.108 C 
ATOM     20  O   UNL A   1      32.438  25.663  23.518  1.00  0.00    -0.392 OA
ATOM     21  C   UNL A   1      32.329  27.177  25.091  1.00  0.00     0.091 C 
ATOM     22  N   UNL A   1      32.820  26.968  23.915  1.00  0.00    -0.090 NA
BRANCH  21  23
ATOM     23  C   UNL A   1      32.635  28.377  25.888  1.00  0.00    -0.001 A 
ATOM     24  C   UNL A   1      33.863  28.476  26.549  1.00  0.00     0.010 A 
ATOM     25  C   UNL A   1      31.747  29.452  25.893  1.00  0.00     0.010 A 
ATOM     26  C   UNL A   1      34.219  29.664  27.186  1.00  0.00     0.004 A 
ATOM     27  C   UNL A   1      32.092  30.629  26.563  1.00  0.00     0.004 A 
ATOM     28  C   UNL A   1      33.341  30.753  27.189  1.00  0.00    -0.051 A 
ATOM     29  C   UNL A   1      33.724  32.027  27.881  1.00  0.00     0.044 C 
ENDBRANCH  21  23
ENDBRANCH  17  18
ENDBRANCH   7  17
ENDBRANCH   4   7
ENDBRANCH   2   3
ENDBRANCH   1   2
BRANCH   1  30
ATOM     30  C   UNL A   1      38.117  23.725  26.352  1.00  0.00     0.118 C 
BRANCH  30  31
ATOM     31  N   UNL A   1      39.268  23.385  27.183  1.00  0.00    -0.352 N 
ATOM     32  C   UNL A   1      40.161  24.262  27.784  1.00  0.00     0.251 C 
ATOM     33  H   UNL A   1      39.430  22.426  27.334  1.00  0.00     0.163 HD
ATOM     34  O   UNL A   1      41.228  23.895  28.242  1.00  0.00    -0.269 OA
BRANCH  32  35
ATOM     35  C   UNL A   1      39.702  25.658  27.946  1.00  0.00     0.039 A 
ATOM     36  C   UNL A   1      40.231  26.604  27.063  1.00  0.00     0.014 A 
ATOM     37  C   UNL A   1      39.081  26.040  29.131  1.00  0.00     0.014 A 
ATOM     38  C   UNL A   1      40.323  27.933  27.463  1.00  0.00     0.010 A 
ATOM     39  C   UNL A   1      39.270  27.336  29.568  1.00  0.00     0.010 A 
ATOM     40  C   UNL A   1      39.936  28.272  28.756  1.00  0.00    -0.014 A 
BRANCH  40  41
ATOM     41  C   UNL A   1      40.215  29.558  29.388  1.00  0.00     0.031 A 
ATOM     42  C   UNL A   1      39.214  30.647  29.271  1.00  0.00     0.074 A 
ATOM     43  C   UNL A   1      41.296  29.716  30.186  1.00  0.00     0.049 A 
ATOM     44  N   UNL A   1      39.426  31.884  29.574  1.00  0.00    -0.248 NA
ATOM     45  C   UNL A   1      37.884  30.421  28.709  1.00  0.00     0.031 C 
ATOM     46  C   UNL A   1      41.496  30.767  31.182  1.00  0.00     0.029 A 
ATOM     47  N   UNL A   1      42.543  29.090  30.110  1.00  0.00    -0.354 N 
ATOM     48  C   UNL A   1      38.201  32.513  29.592  1.00  0.00     0.074 A 
ATOM     49  C   UNL A   1      37.309  31.607  28.915  1.00  0.00     0.031 C 
ATOM     50  C   UNL A   1      42.812  30.918  31.391  1.00  0.00     0.029 A 
ATOM     51  C   UNL A   1      43.491  30.084  30.415  1.00  0.00     0.049 A 
ATOM     52  H   UNL A   1      42.722  28.148  29.888  1.00  0.00     0.167 HD
ATOM     53  C   UNL A   1      38.047  33.649  30.330  1.00  0.00     0.031 A 
ATOM     54  C   UNL A   1      44.449  30.526  29.546  1.00  0.00     0.031 A 
ATOM     55  C   UNL A   1      39.341  34.206  30.727  1.00  0.00     0.049 A 
ATOM     56  C   UNL A   1      44.369  32.017  29.278  1.00  0.00     0.074 A 
ATOM     57  C   UNL A   1      40.043  34.254  31.919  1.00  0.00     0.029 A 
ATOM     58  N   UNL A   1      40.239  34.584  29.730  1.00  0.00    -0.354 N 
ATOM     59  N   UNL A   1      43.344  32.761  29.594  1.00  0.00    -0.248 NA
ATOM     60  C   UNL A   1      45.412  32.779  28.595  1.00  0.00     0.031 C 
ATOM     61  C   UNL A   1      41.402  34.545  31.614  1.00  0.00     0.029 A 
ATOM     62  C   UNL A   1      41.514  34.715  30.245  1.00  0.00     0.049 A 
ATOM     63  H   UNL A   1      39.997  34.736  28.788  1.00  0.00     0.167 HD
ATOM     64  C   UNL A   1      43.556  34.048  29.178  1.00  0.00     0.074 A 
ATOM     65  C   UNL A   1      44.873  34.013  28.567  1.00  0.00     0.031 C 
ATOM     66  C   UNL A   1      42.629  35.032  29.359  1.00  0.00     0.031 A 
BRANCH  53  67
ATOM     67  C   UNL A   1      36.715  34.086  30.925  1.00  0.00    -0.014 A 
ATOM     68  C   UNL A   1      35.541  34.010  30.146  1.00  0.00     0.010 A 
ATOM     69  C   UNL A   1      36.563  34.693  32.188  1.00  0.00     0.010 A 
ATOM     70  C   UNL A   1      34.319  34.568  30.573  1.00  0.00     0.020 A 
ATOM     71  C   UNL A   1      35.356  35.253  32.629  1.00  0.00     0.020 A 
ATOM     72  C   UNL A   1      34.241  35.205  31.808  1.00  0.00     0.054 A 
BRANCH  72  73
ATOM     73  S   UNL A   1      32.693  35.990  32.328  1.00  0.00     0.124 S 
ATOM     74  O   UNL A   1      32.295  36.722  31.129  1.00  0.00    -0.237 OA
ATOM     75  O   UNL A   1      31.858  34.844  32.677  1.00  0.00    -0.237 OA
ATOM     76  O   UNL A   1      33.091  36.831  33.457  1.00  0.00    -0.744 OA
ENDBRANCH  72  73
ENDBRANCH  53  67
BRANCH  54  77
ATOM     77  C   UNL A   1      44.910  29.500  28.571  1.00  0.00    -0.014 A 
ATOM     78  C   UNL A   1      45.849  28.555  29.035  1.00  0.00     0.010 A 
ATOM     79  C   UNL A   1      44.123  29.184  27.449  1.00  0.00     0.010 A 
ATOM     80  C   UNL A   1      45.853  27.253  28.531  1.00  0.00     0.020 A 
ATOM     81  C   UNL A   1      44.133  27.880  26.934  1.00  0.00     0.020 A 
ATOM     82  C   UNL A   1      44.937  26.907  27.537  1.00  0.00     0.054 A 
BRANCH  82  83
ATOM     83  S   UNL A   1      44.650  25.138  27.225  1.00  0.00     0.124 S 
ATOM     84  O   UNL A   1      44.458  24.604  28.569  1.00  0.00    -0.237 OA
ATOM     85  O   UNL A   1      43.452  25.175  26.385  1.00  0.00    -0.237 OA
ATOM     86  O   UNL A   1      45.871  24.715  26.548  1.00  0.00    -0.744 OA
ENDBRANCH  82  83
ENDBRANCH  54  77
BRANCH  66  87
ATOM     87  C   UNL A   1      42.702  36.421  28.771  1.00  0.00    -0.014 A 
ATOM     88  C   UNL A   1      43.213  37.536  29.454  1.00  0.00     0.010 A 
ATOM     89  C   UNL A   1      42.364  36.602  27.409  1.00  0.00     0.010 A 
ATOM     90  C   UNL A   1      43.319  38.788  28.828  1.00  0.00     0.020 A 
ATOM     91  C   UNL A   1      42.505  37.834  26.764  1.00  0.00     0.020 A 
ATOM     92  C   UNL A   1      42.958  38.930  27.488  1.00  0.00     0.054 A 
BRANCH  92  93
ATOM     93  S   UNL A   1      43.153  40.532  26.667  1.00  0.00     0.124 S 
ATOM     94  O   UNL A   1      43.505  41.403  27.785  1.00  0.00    -0.237 OA
ATOM     95  O   UNL A   1      44.226  40.284  25.705  1.00  0.00    -0.237 OA
ATOM     96  O   UNL A   1      41.839  40.772  26.073  1.00  0.00    -0.744 OA
ENDBRANCH  92  93
ENDBRANCH  66  87
ENDBRANCH  40  41
ENDBRANCH  32  35
ENDBRANCH  30  31
ENDBRANCH   1  30
TORSDOF 18
ENDMDL
MODEL 2
REMARK VINA RESULT:     -12.8      4.045     10.720
REMARK SMILES CCC(=O)N1CCC[C@](C[C@H]2CC(c3ccc(C)cc3)=NO2)(C(=O)NCCCNC(=O)c2ccc(-c3c4nc(c(-c5ccc(S(=O)(=O)[O-])cc5)c5ccc([nH]5)c(-c5ccc(S(=O)(=O)[O-])cc5)c5nc(c(-c6ccc(S(=O)(=O)[O-])cc6)c6ccc3[nH]6)C=C5)C=C4)cc2)C1
REMARK SMILES IDX 27 1 26 2 25 3 23 4 24 5 9 7 5 8 6 9 92 10 7 11 8 12 3 13
REMARK SMILES IDX 4 14 2 15 1 16 10 17 11 18 12 19 22 20 13 21 21 22 14 23
REMARK SMILES IDX 15 24 20 25 16 26 19 27 17 28 18 29 28 30 29 31 30 32 31 34
REMARK SMILES IDX 32 35 33 36 91 37 34 38 90 39 35 40 36 41 37 42 84 43 38 44
REMARK SMILES IDX 89 45 83 46 85 47 39 48 88 49 82 50 81 51 40 53 70 54 51 55
REMARK SMILES IDX 69 56 52 57 55 58 68 59 86 60 53 61 54 62 67 64 87 65 56 66
REMARK SMILES IDX 41 67 42 68 50 69 43 70 49 71 44 72 45 73 46 74 47 75 48 76
REMARK SMILES IDX 71 77 72 78 80 79 73 80 79 81 74 82 75 83 76 84 77 85 78 86
REMARK SMILES IDX 57 87 58 88 66 89 59 90 65 91 60 92 61 93 62 94 63 95 64 96
REMARK H PARENT 25 6 29 33 85 52 55 63
REMARK Flexibility Score: inf
ROOT
ATOM      1  C   UNL A   1      33.360  29.062  25.724  1.00  0.00     0.042 C 
ENDROOT
BRANCH   1   2
ATOM      2  C   UNL A   1      33.786  27.600  25.785  1.00  0.00     0.117 C 
BRANCH   2   3
ATOM      3  N   UNL A   1      32.753  26.729  26.350  1.00  0.00    -0.355 N 
ATOM      4  C   UNL A   1      32.456  25.402  26.315  1.00  0.00     0.228 C 
ATOM      5  O   UNL A   1      31.524  25.055  27.054  1.00  0.00    -0.274 OA
ATOM      6  H   UNL A   1      32.108  27.233  26.897  1.00  0.00     0.163 HD
BRANCH   4   7
ATOM      7  C   UNL A   1      33.046  24.361  25.317  1.00  0.00     0.070 C 
ATOM      8  N   UNL A   1      31.739  25.172  23.309  1.00  0.00    -0.342 N 
ATOM      9  C   UNL A   1      30.956  23.944  23.239  1.00  0.00     0.119 C 
ATOM     10  C   UNL A   1      33.081  25.046  23.904  1.00  0.00     0.136 C 
ATOM     11  C   UNL A   1      30.845  23.293  24.601  1.00  0.00     0.023 C 
ATOM     12  C   UNL A   1      32.243  23.070  25.177  1.00  0.00     0.021 C 
BRANCH   8  13
ATOM     13  C   UNL A   1      31.131  26.342  22.887  1.00  0.00     0.222 C 
ATOM     14  O   UNL A   1      31.429  26.867  21.808  1.00  0.00    -0.275 OA
BRANCH  13  15
ATOM     15  C   UNL A   1      30.300  27.145  23.878  1.00  0.00     0.097 C 
ATOM     16  C   UNL A   1      30.307  28.653  23.795  1.00  0.00     0.014 C 
ENDBRANCH  13  15
ENDBRANCH   8  13
BRANCH   7  17
ATOM     17  C   UNL A   1      34.503  24.123  25.857  1.00  0.00     0.067 C 
BRANCH  17  18
ATOM     18  C   UNL A   1      35.755  24.088  24.957  1.00  0.00     0.211 C 
ATOM     19  C   UNL A   1      37.088  23.968  25.662  1.00  0.00     0.108 C 
ATOM     20  O   UNL A   1      35.722  23.054  23.970  1.00  0.00    -0.392 OA
ATOM     21  C   UNL A   1      37.475  22.612  25.198  1.00  0.00     0.091 C 
ATOM     22  N   UNL A   1      36.770  22.137  24.224  1.00  0.00    -0.090 NA
BRANCH  21  23
ATOM     23  C   UNL A   1      38.572  21.864  25.835  1.00  0.00    -0.001 A 
ATOM     24  C   UNL A   1      38.788  20.525  25.495  1.00  0.00     0.010 A 
ATOM     25  C   UNL A   1      39.455  22.522  26.691  1.00  0.00     0.010 A 
ATOM     26  C   UNL A   1      39.906  19.853  25.984  1.00  0.00     0.004 A 
ATOM     27  C   UNL A   1      40.556  21.833  27.208  1.00  0.00     0.004 A 
ATOM     28  C   UNL A   1      40.805  20.505  26.836  1.00  0.00    -0.051 A 
ATOM     29  C   UNL A   1      42.004  19.776  27.365  1.00  0.00     0.044 C 
ENDBRANCH  21  23
ENDBRANCH  17  18
ENDBRANCH   7  17
ENDBRANCH   4   7
ENDBRANCH   2   3
ENDBRANCH   1   2
BRANCH   1  30
ATOM     30  C   UNL A   1      33.054  29.602  27.115  1.00  0.00     0.118 C 
BRANCH  30  31
ATOM     31  N   UNL A   1      33.541  30.956  27.360  1.00  0.00    -0.352 N 
ATOM     32  C   UNL A   1      34.665  31.327  28.084  1.00  0.00     0.251 C 
ATOM     33  H   UNL A   1      33.012  31.689  26.968  1.00  0.00     0.163 HD
ATOM     34  O   UNL A   1      34.855  32.472  28.452  1.00  0.00    -0.269 OA
BRANCH  32  35
ATOM     35  C   UNL A   1      35.687  30.280  28.293  1.00  0.00     0.039 A 
ATOM     36  C   UNL A   1      35.855  29.811  29.600  1.00  0.00     0.014 A 
ATOM     37  C   UNL A   1      36.655  30.065  27.317  1.00  0.00     0.014 A 
ATOM     38  C   UNL A   1      37.089  29.300  29.988  1.00  0.00     0.010 A 
ATOM     39  C   UNL A   1      37.908  29.659  27.730  1.00  0.00     0.010 A 
ATOM     40  C   UNL A   1      38.140  29.324  29.076  1.00  0.00    -0.014 A 
BRANCH  40  41
ATOM     41  C   UNL A   1      39.534  29.064  29.423  1.00  0.00     0.031 A 
ATOM     42  C   UNL A   1      40.112  27.731  29.121  1.00  0.00     0.074 A 
ATOM     43  C   UNL A   1      40.330  30.058  29.878  1.00  0.00     0.049 A 
ATOM     44  N   UNL A   1      41.239  27.292  29.573  1.00  0.00    -0.248 NA
ATOM     45  C   UNL A   1      39.395  26.737  28.324  1.00  0.00     0.031 C 
ATOM     46  C   UNL A   1      41.792  30.070  29.883  1.00  0.00     0.029 A 
ATOM     47  N   UNL A   1      39.987  31.179  30.640  1.00  0.00    -0.354 N 
ATOM     48  C   UNL A   1      41.547  26.155  28.861  1.00  0.00     0.074 A 
ATOM     49  C   UNL A   1      40.318  25.780  28.211  1.00  0.00     0.031 C 
ATOM     50  C   UNL A   1      42.213  30.922  30.829  1.00  0.00     0.029 A 
ATOM     51  C   UNL A   1      41.035  31.351  31.563  1.00  0.00     0.049 A 
ATOM     52  H   UNL A   1      39.179  31.733  30.550  1.00  0.00     0.167 HD
ATOM     53  C   UNL A   1      42.850  25.762  28.764  1.00  0.00     0.031 A 
ATOM     54  C   UNL A   1      40.888  31.262  32.919  1.00  0.00     0.031 A 
ATOM     55  C   UNL A   1      43.688  26.456  29.743  1.00  0.00     0.049 A 
ATOM     56  C   UNL A   1      41.773  30.202  33.546  1.00  0.00     0.074 A 
ATOM     57  C   UNL A   1      44.624  27.474  29.658  1.00  0.00     0.029 A 
ATOM     58  N   UNL A   1      43.400  26.303  31.097  1.00  0.00    -0.354 N 
ATOM     59  N   UNL A   1      42.392  29.274  32.869  1.00  0.00    -0.248 NA
ATOM     60  C   UNL A   1      41.994  30.073  34.985  1.00  0.00     0.031 C 
ATOM     61  C   UNL A   1      44.802  28.012  30.964  1.00  0.00     0.029 A 
ATOM     62  C   UNL A   1      44.009  27.294  31.842  1.00  0.00     0.049 A 
ATOM     63  H   UNL A   1      42.839  25.586  31.472  1.00  0.00     0.167 HD
ATOM     64  C   UNL A   1      43.066  28.444  33.724  1.00  0.00     0.074 A 
ATOM     65  C   UNL A   1      42.796  28.993  35.041  1.00  0.00     0.031 C 
ATOM     66  C   UNL A   1      43.781  27.369  33.281  1.00  0.00     0.031 A 
BRANCH  53  67
ATOM     67  C   UNL A   1      43.398  24.960  27.592  1.00  0.00    -0.014 A 
ATOM     68  C   UNL A   1      43.707  23.593  27.762  1.00  0.00     0.010 A 
ATOM     69  C   UNL A   1      43.747  25.507  26.341  1.00  0.00     0.010 A 
ATOM     70  C   UNL A   1      44.383  22.849  26.775  1.00  0.00     0.020 A 
ATOM     71  C   UNL A   1      44.422  24.782  25.349  1.00  0.00     0.020 A 
ATOM     72  C   UNL A   1      44.755  23.457  25.579  1.00  0.00     0.054 A 
BRANCH  72  73
ATOM     73  S   UNL A   1      45.692  22.525  24.341  1.00  0.00     0.124 S 
ATOM     74  O   UNL A   1      46.597  23.538  23.804  1.00  0.00    -0.237 OA
ATOM     75  O   UNL A   1      46.319  21.476  25.140  1.00  0.00    -0.237 OA
ATOM     76  O   UNL A   1      44.668  22.059  23.406  1.00  0.00    -0.744 OA
ENDBRANCH  72  73
ENDBRANCH  53  67
BRANCH  54  77
ATOM     77  C   UNL A   1      39.543  31.666  33.415  1.00  0.00    -0.014 A 
ATOM     78  C   UNL A   1      39.392  33.007  33.828  1.00  0.00     0.010 A 
ATOM     79  C   UNL A   1      38.402  30.933  33.044  1.00  0.00     0.010 A 
ATOM     80  C   UNL A   1      38.169  33.663  33.669  1.00  0.00     0.020 A 
ATOM     81  C   UNL A   1      37.171  31.588  32.896  1.00  0.00     0.020 A 
ATOM     82  C   UNL A   1      37.090  32.964  33.129  1.00  0.00     0.054 A 
BRANCH  82  83
ATOM     83  S   UNL A   1      35.675  33.931  32.517  1.00  0.00     0.124 S 
ATOM     84  O   UNL A   1      35.771  35.164  33.290  1.00  0.00    -0.237 OA
ATOM     85  O   UNL A   1      35.993  34.054  31.094  1.00  0.00    -0.237 OA
ATOM     86  O   UNL A   1      34.529  33.081  32.826  1.00  0.00    -0.744 OA
ENDBRANCH  82  83
ENDBRANCH  54  77
BRANCH  66  87
ATOM     87  C   UNL A   1      44.394  26.305  34.159  1.00  0.00    -0.014 A 
ATOM     88  C   UNL A   1      45.769  26.206  34.428  1.00  0.00     0.010 A 
ATOM     89  C   UNL A   1      43.536  25.430  34.867  1.00  0.00     0.010 A 
ATOM     90  C   UNL A   1      46.270  25.236  35.309  1.00  0.00     0.020 A 
ATOM     91  C   UNL A   1      44.022  24.488  35.779  1.00  0.00     0.020 A 
ATOM     92  C   UNL A   1      45.393  24.379  35.975  1.00  0.00     0.054 A 
BRANCH  92  93
ATOM     93  S   UNL A   1      46.039  23.168  37.157  1.00  0.00     0.124 S 
ATOM     94  O   UNL A   1      45.592  21.907  36.572  1.00  0.00    -0.237 OA
ATOM     95  O   UNL A   1      47.481  23.401  37.116  1.00  0.00    -0.237 OA
ATOM     96  O   UNL A   1      45.392  23.541  38.413  1.00  0.00    -0.744 OA
ENDBRANCH  92  93
ENDBRANCH  66  87
ENDBRANCH  40  41
ENDBRANCH  32  35
ENDBRANCH  30  31
ENDBRANCH   1  30
TORSDOF 18
ENDMDL
MODEL 3
REMARK VINA RESULT:     -12.7      1.776      2.815
REMARK SMILES CCC(=O)N1CCC[C@](C[C@H]2CC(c3ccc(C)cc3)=NO2)(C(=O)NCCCNC(=O)c2ccc(-c3c4nc(c(-c5ccc(S(=O)(=O)[O-])cc5)c5ccc([nH]5)c(-c5ccc(S(=O)(=O)[O-])cc5)c5nc(c(-c6ccc(S(=O)(=O)[O-])cc6)c6ccc3[nH]6)C=C5)C=C4)cc2)C1
REMARK SMILES IDX 27 1 26 2 25 3 23 4 24 5 9 7 5 8 6 9 92 10 7 11 8 12 3 13
REMARK SMILES IDX 4 14 2 15 1 16 10 17 11 18 12 19 22 20 13 21 21 22 14 23
REMARK SMILES IDX 15 24 20 25 16 26 19 27 17 28 18 29 28 30 29 31 30 32 31 34
REMARK SMILES IDX 32 35 33 36 91 37 34 38 90 39 35 40 36 41 37 42 84 43 38 44
REMARK SMILES IDX 89 45 83 46 85 47 39 48 88 49 82 50 81 51 40 53 70 54 51 55
REMARK SMILES IDX 69 56 52 57 55 58 68 59 86 60 53 61 54 62 67 64 87 65 56 66
REMARK SMILES IDX 41 67 42 68 50 69 43 70 49 71 44 72 45 73 46 74 47 75 48 76
REMARK SMILES IDX 71 77 72 78 80 79 73 80 79 81 74 82 75 83 76 84 77 85 78 86
REMARK SMILES IDX 57 87 58 88 66 89 59 90 65 91 60 92 61 93 62 94 63 95 64 96
REMARK H PARENT 25 6 29 33 85 52 55 63
REMARK Flexibility Score: inf
ROOT
ATOM      1  C   UNL A   1      37.216  21.788  24.492  1.00  0.00     0.042 C 
ENDROOT
BRANCH   1   2
ATOM      2  C   UNL A   1      36.515  22.594  23.406  1.00  0.00     0.117 C 
BRANCH   2   3
ATOM      3  N   UNL A   1      35.681  23.671  23.944  1.00  0.00    -0.355 N 
ATOM      4  C   UNL A   1      34.350  23.907  24.090  1.00  0.00     0.228 C 
ATOM      5  O   UNL A   1      34.067  24.934  24.724  1.00  0.00    -0.274 OA
ATOM      6  H   UNL A   1      36.223  24.416  24.289  1.00  0.00     0.163 HD
BRANCH   4   7
ATOM      7  C   UNL A   1      33.201  23.121  23.391  1.00  0.00     0.070 C 
ATOM      8  N   UNL A   1      31.670  23.073  25.403  1.00  0.00    -0.342 N 
ATOM      9  C   UNL A   1      31.797  21.628  25.549  1.00  0.00     0.119 C 
ATOM     10  C   UNL A   1      31.853  23.601  24.040  1.00  0.00     0.136 C 
ATOM     11  C   UNL A   1      33.118  21.141  24.994  1.00  0.00     0.023 C 
ATOM     12  C   UNL A   1      33.266  21.603  23.545  1.00  0.00     0.021 C 
BRANCH   8  13
ATOM     13  C   UNL A   1      31.467  23.816  26.554  1.00  0.00     0.222 C 
ATOM     14  O   UNL A   1      31.153  23.274  27.620  1.00  0.00    -0.275 OA
BRANCH  13  15
ATOM     15  C   UNL A   1      31.346  25.329  26.448  1.00  0.00     0.097 C 
ATOM     16  C   UNL A   1      30.059  25.933  25.940  1.00  0.00     0.014 C 
ENDBRANCH  13  15
ENDBRANCH   8  13
BRANCH   7  17
ATOM     17  C   UNL A   1      33.296  23.592  21.894  1.00  0.00     0.067 C 
BRANCH  17  18
ATOM     18  C   UNL A   1      32.616  24.864  21.351  1.00  0.00     0.211 C 
ATOM     19  C   UNL A   1      31.828  25.684  22.349  1.00  0.00     0.108 C 
ATOM     20  O   UNL A   1      33.519  25.766  20.705  1.00  0.00    -0.392 OA
ATOM     21  C   UNL A   1      32.682  26.899  22.376  1.00  0.00     0.091 C 
ATOM     22  N   UNL A   1      33.564  26.978  21.435  1.00  0.00    -0.090 NA
BRANCH  21  23
ATOM     23  C   UNL A   1      32.536  27.919  23.428  1.00  0.00    -0.001 A 
ATOM     24  C   UNL A   1      31.298  28.537  23.629  1.00  0.00     0.010 A 
ATOM     25  C   UNL A   1      33.601  28.186  24.288  1.00  0.00     0.010 A 
ATOM     26  C   UNL A   1      31.114  29.396  24.710  1.00  0.00     0.004 A 
ATOM     27  C   UNL A   1      33.423  29.076  25.351  1.00  0.00     0.004 A 
ATOM     28  C   UNL A   1      32.172  29.664  25.586  1.00  0.00    -0.051 A 
ATOM     29  C   UNL A   1      31.972  30.594  26.746  1.00  0.00     0.044 C 
ENDBRANCH  21  23
ENDBRANCH  17  18
ENDBRANCH   7  17
ENDBRANCH   4   7
ENDBRANCH   2   3
ENDBRANCH   1   2
BRANCH   1  30
ATOM     30  C   UNL A   1      37.693  22.690  25.623  1.00  0.00     0.118 C 
BRANCH  30  31
ATOM     31  N   UNL A   1      38.843  22.180  26.361  1.00  0.00    -0.352 N 
ATOM     32  C   UNL A   1      39.883  22.916  26.913  1.00  0.00     0.251 C 
ATOM     33  H   UNL A   1      38.887  21.204  26.482  1.00  0.00     0.163 HD
ATOM     34  O   UNL A   1      40.921  22.400  27.285  1.00  0.00    -0.269 OA
BRANCH  32  35
ATOM     35  C   UNL A   1      39.624  24.354  27.134  1.00  0.00     0.039 A 
ATOM     36  C   UNL A   1      40.293  25.253  26.297  1.00  0.00     0.014 A 
ATOM     37  C   UNL A   1      39.049  24.770  28.330  1.00  0.00     0.014 A 
ATOM     38  C   UNL A   1      40.567  26.537  26.756  1.00  0.00     0.010 A 
ATOM     39  C   UNL A   1      39.415  26.005  28.826  1.00  0.00     0.010 A 
ATOM     40  C   UNL A   1      40.216  26.871  28.060  1.00  0.00    -0.014 A 
BRANCH  40  41
ATOM     41  C   UNL A   1      40.667  28.077  28.750  1.00  0.00     0.031 A 
ATOM     42  C   UNL A   1      39.756  29.246  28.820  1.00  0.00     0.074 A 
ATOM     43  C   UNL A   1      41.832  28.085  29.437  1.00  0.00     0.049 A 
ATOM     44  N   UNL A   1      40.103  30.434  29.187  1.00  0.00    -0.248 NA
ATOM     45  C   UNL A   1      38.362  29.171  28.388  1.00  0.00     0.031 C 
ATOM     46  C   UNL A   1      42.221  29.033  30.480  1.00  0.00     0.029 A 
ATOM     47  N   UNL A   1      43.007  27.372  29.183  1.00  0.00    -0.354 N 
ATOM     48  C   UNL A   1      38.945  31.153  29.381  1.00  0.00     0.074 A 
ATOM     49  C   UNL A   1      37.915  30.377  28.740  1.00  0.00     0.031 C 
ATOM     50  C   UNL A   1      43.559  29.063  30.558  1.00  0.00     0.029 A 
ATOM     51  C   UNL A   1      44.063  28.261  29.457  1.00  0.00     0.049 A 
ATOM     52  H   UNL A   1      43.081  26.440  28.876  1.00  0.00     0.167 HD
ATOM     53  C   UNL A   1      38.964  32.234  30.213  1.00  0.00     0.031 A 
ATOM     54  C   UNL A   1      44.963  28.696  28.525  1.00  0.00     0.031 A 
ATOM     55  C   UNL A   1      40.334  32.654  30.508  1.00  0.00     0.049 A 
ATOM     56  C   UNL A   1      44.984  30.205  28.376  1.00  0.00     0.074 A 
ATOM     57  C   UNL A   1      41.154  32.551  31.619  1.00  0.00     0.029 A 
ATOM     58  N   UNL A   1      41.157  33.041  29.451  1.00  0.00    -0.354 N 
ATOM     59  N   UNL A   1      44.065  30.998  28.852  1.00  0.00    -0.248 NA
ATOM     60  C   UNL A   1      46.016  30.937  27.643  1.00  0.00     0.031 C 
ATOM     61  C   UNL A   1      42.496  32.759  31.192  1.00  0.00     0.029 A 
ATOM     62  C   UNL A   1      42.484  33.030  29.835  1.00  0.00     0.049 A 
ATOM     63  H   UNL A   1      40.836  33.287  28.554  1.00  0.00     0.167 HD
ATOM     64  C   UNL A   1      44.343  32.295  28.510  1.00  0.00     0.074 A 
ATOM     65  C   UNL A   1      45.584  32.207  27.761  1.00  0.00     0.031 C 
ATOM     66  C   UNL A   1      43.527  33.331  28.861  1.00  0.00     0.031 A 
BRANCH  53  67
ATOM     67  C   UNL A   1      37.741  32.725  30.976  1.00  0.00    -0.014 A 
ATOM     68  C   UNL A   1      36.484  32.128  30.743  1.00  0.00     0.010 A 
ATOM     69  C   UNL A   1      37.730  33.839  31.839  1.00  0.00     0.010 A 
ATOM     70  C   UNL A   1      35.292  32.656  31.279  1.00  0.00     0.020 A 
ATOM     71  C   UNL A   1      36.554  34.378  32.379  1.00  0.00     0.020 A 
ATOM     72  C   UNL A   1      35.335  33.794  32.080  1.00  0.00     0.054 A 
BRANCH  72  73
ATOM     73  S   UNL A   1      33.798  34.520  32.707  1.00  0.00     0.124 S 
ATOM     74  O   UNL A   1      33.135  33.371  33.318  1.00  0.00    -0.237 OA
ATOM     75  O   UNL A   1      34.284  35.538  33.633  1.00  0.00    -0.237 OA
ATOM     76  O   UNL A   1      33.143  35.040  31.506  1.00  0.00    -0.744 OA
ENDBRANCH  72  73
ENDBRANCH  53  67
BRANCH  54  77
ATOM     77  C   UNL A   1      45.233  27.719  27.434  1.00  0.00    -0.014 A 
ATOM     78  C   UNL A   1      46.072  26.629  27.748  1.00  0.00     0.010 A 
ATOM     79  C   UNL A   1      44.349  27.608  26.347  1.00  0.00     0.010 A 
ATOM     80  C   UNL A   1      45.883  25.389  27.133  1.00  0.00     0.020 A 
ATOM     81  C   UNL A   1      44.166  26.367  25.720  1.00  0.00     0.020 A 
ATOM     82  C   UNL A   1      44.874  25.252  26.179  1.00  0.00     0.054 A 
BRANCH  82  83
ATOM     83  S   UNL A   1      44.350  23.568  25.735  1.00  0.00     0.124 S 
ATOM     84  O   UNL A   1      45.491  23.068  24.975  1.00  0.00    -0.237 OA
ATOM     85  O   UNL A   1      44.155  22.960  27.051  1.00  0.00    -0.237 OA
ATOM     86  O   UNL A   1      43.130  23.788  24.965  1.00  0.00    -0.744 OA
ENDBRANCH  82  83
ENDBRANCH  54  77
BRANCH  66  87
ATOM     87  C   UNL A   1      43.660  34.752  28.370  1.00  0.00    -0.014 A 
ATOM     88  C   UNL A   1      43.200  35.197  27.120  1.00  0.00     0.010 A 
ATOM     89  C   UNL A   1      44.152  35.736  29.261  1.00  0.00     0.010 A 
ATOM     90  C   UNL A   1      43.290  36.548  26.750  1.00  0.00     0.020 A 
ATOM     91  C   UNL A   1      44.208  37.090  28.918  1.00  0.00     0.020 A 
ATOM     92  C   UNL A   1      43.799  37.485  27.650  1.00  0.00     0.054 A 
BRANCH  92  93
ATOM     93  S   UNL A   1      43.858  39.236  27.191  1.00  0.00     0.124 S 
ATOM     94  O   UNL A   1      45.059  39.291  26.364  1.00  0.00    -0.237 OA
ATOM     95  O   UNL A   1      42.597  39.435  26.478  1.00  0.00    -0.237 OA
ATOM     96  O   UNL A   1      43.950  39.922  28.478  1.00  0.00    -0.744 OA
ENDBRANCH  92  93
ENDBRANCH  66  87
ENDBRANCH  40  41
ENDBRANCH  32  35
ENDBRANCH  30  31
ENDBRANCH   1  30
TORSDOF 18
ENDMDL
