MODEL 1
REMARK VINA RESULT:     -11.6      0.000      0.000
REMARK SMILES COC(=O)c1c(NS(=O)(=O)CCC(=O)NCCCNC(=O)c2ccc(-c3c4nc(c(-c5ccc(S(=O)(=O)[O-])cc5)c5ccc([nH]5)c(-c5ccc(S(=O)(=O)[O-])cc5)c5nc(c(-c6ccc(S(=O)(=O)[O-])cc6)c6ccc3[nH]6)C=C5)C=C4)cc2)sc2c1CCC2
REMARK SMILES IDX 13 1 14 2 15 3 12 5 11 6 8 7 9 8 10 9 7 10 6 12 5 13 84 14
REMARK SMILES IDX 82 15 83 16 85 17 87 18 86 19 3 20 4 21 2 22 1 23 16 24
REMARK SMILES IDX 17 25 18 26 19 27 20 28 21 30 22 31 23 32 81 33 24 34 80 35
REMARK SMILES IDX 25 36 26 37 27 38 74 39 28 40 79 41 73 42 75 43 29 44 78 45
REMARK SMILES IDX 72 46 71 47 30 49 60 50 41 51 59 52 42 53 45 54 58 55 76 56
REMARK SMILES IDX 43 57 44 58 57 60 77 61 46 62 31 63 32 64 40 65 33 66 39 67
REMARK SMILES IDX 34 68 35 69 36 70 37 71 38 72 61 73 62 74 70 75 63 76 69 77
REMARK SMILES IDX 64 78 65 79 66 80 67 81 68 82 47 83 48 84 56 85 49 86 55 87
REMARK SMILES IDX 50 88 51 89 52 90 53 91 54 92
REMARK H PARENT 15 4 7 11 19 29 75 48 45 59
REMARK Flexibility Score: inf
ROOT
ATOM      1  C   UNL A   1      36.369  22.545  23.637  1.00  0.00     0.221 C 
ATOM      2  O   UNL A   1      36.565  23.050  22.533  1.00  0.00    -0.275 OA
ATOM      3  N   UNL A   1      37.334  21.740  24.169  1.00  0.00    -0.356 N 
ATOM      4  H   UNL A   1      37.918  21.290  23.517  1.00  0.00     0.163 HD
ENDROOT
BRANCH   1   5
ATOM      5  C   UNL A   1      35.059  22.756  24.352  1.00  0.00     0.118 C 
BRANCH   5   6
ATOM      6  C   UNL A   1      34.432  24.102  24.030  1.00  0.00     0.170 C 
BRANCH   6   7
ATOM      7  S   UNL A   1      33.016  24.047  22.929  1.00  0.00     0.233 S 
ATOM      8  O   UNL A   1      32.264  22.843  23.210  1.00  0.00    -0.207 OA
ATOM      9  O   UNL A   1      33.538  24.257  21.592  1.00  0.00    -0.207 OA
BRANCH   7  10
ATOM     10  N   UNL A   1      32.065  25.378  23.256  1.00  0.00    -0.274 N 
ATOM     11  H   UNL A   1      31.247  25.517  22.727  1.00  0.00     0.180 HD
BRANCH  10  12
ATOM     12  C   UNL A   1      32.396  26.326  24.276  1.00  0.00     0.117 A 
ATOM     13  C   UNL A   1      31.774  26.388  25.521  1.00  0.00     0.098 A 
ATOM     14  C   UNL A   1      32.105  27.602  26.164  1.00  0.00    -0.017 A 
ATOM     15  S   UNL A   1      33.595  27.570  24.125  1.00  0.00    -0.121 S 
ATOM     16  C   UNL A   1      32.979  28.358  25.453  1.00  0.00     0.011 A 
ATOM     17  C   UNL A   1      31.677  28.270  27.413  1.00  0.00     0.038 C 
ATOM     18  C   UNL A   1      33.223  29.691  26.037  1.00  0.00     0.047 C 
ATOM     19  C   UNL A   1      32.122  29.736  27.148  1.00  0.00     0.010 C 
BRANCH  13  20
ATOM     20  C   UNL A   1      30.898  25.450  26.173  1.00  0.00     0.341 C 
ATOM     21  O   UNL A   1      29.747  25.313  25.803  1.00  0.00    -0.246 OA
BRANCH  20  22
ATOM     22  O   UNL A   1      31.554  24.628  27.047  1.00  0.00    -0.465 OA
ATOM     23  C   UNL A   1      31.588  23.243  26.665  1.00  0.00     0.282 C 
ENDBRANCH  20  22
ENDBRANCH  13  20
ENDBRANCH  10  12
ENDBRANCH   7  10
ENDBRANCH   6   7
ENDBRANCH   5   6
ENDBRANCH   1   5
BRANCH   3  24
ATOM     24  C   UNL A   1      37.619  21.453  25.569  1.00  0.00     0.117 C 
BRANCH  24  25
ATOM     25  C   UNL A   1      38.895  22.073  26.137  1.00  0.00     0.042 C 
BRANCH  25  26
ATOM     26  C   UNL A   1      40.054  21.126  26.421  1.00  0.00     0.118 C 
BRANCH  26  27
ATOM     27  N   UNL A   1      41.315  21.478  25.798  1.00  0.00    -0.352 N 
ATOM     28  C   UNL A   1      42.009  22.675  25.765  1.00  0.00     0.251 C 
ATOM     29  H   UNL A   1      41.753  20.738  25.316  1.00  0.00     0.163 HD
ATOM     30  O   UNL A   1      43.000  22.727  25.037  1.00  0.00    -0.269 OA
BRANCH  28  31
ATOM     31  C   UNL A   1      41.677  23.847  26.633  1.00  0.00     0.039 A 
ATOM     32  C   UNL A   1      40.976  24.931  26.067  1.00  0.00     0.014 A 
ATOM     33  C   UNL A   1      42.092  23.969  27.950  1.00  0.00     0.014 A 
ATOM     34  C   UNL A   1      40.866  26.158  26.744  1.00  0.00     0.010 A 
ATOM     35  C   UNL A   1      42.008  25.185  28.602  1.00  0.00     0.010 A 
ATOM     36  C   UNL A   1      41.468  26.311  27.988  1.00  0.00    -0.014 A 
BRANCH  36  37
ATOM     37  C   UNL A   1      41.403  27.541  28.782  1.00  0.00     0.031 A 
ATOM     38  C   UNL A   1      42.376  28.578  28.346  1.00  0.00     0.074 A 
ATOM     39  C   UNL A   1      40.417  27.922  29.623  1.00  0.00     0.049 A 
ATOM     40  N   UNL A   1      43.542  28.817  28.848  1.00  0.00    -0.248 NA
ATOM     41  C   UNL A   1      42.100  29.310  27.097  1.00  0.00     0.031 C 
ATOM     42  C   UNL A   1      39.146  27.267  29.925  1.00  0.00     0.029 A 
ATOM     43  N   UNL A   1      40.321  29.091  30.324  1.00  0.00    -0.354 N 
ATOM     44  C   UNL A   1      44.052  29.868  28.097  1.00  0.00     0.074 A 
ATOM     45  C   UNL A   1      43.275  29.900  26.887  1.00  0.00     0.031 C 
ATOM     46  C   UNL A   1      38.322  28.140  30.558  1.00  0.00     0.029 A 
ATOM     47  C   UNL A   1      39.064  29.354  30.855  1.00  0.00     0.049 A 
ATOM     48  H   UNL A   1      41.085  29.700  30.443  1.00  0.00     0.167 HD
ATOM     49  C   UNL A   1      44.858  30.830  28.632  1.00  0.00     0.031 A 
ATOM     50  C   UNL A   1      38.671  30.498  31.475  1.00  0.00     0.031 A 
ATOM     51  C   UNL A   1      45.254  30.499  29.979  1.00  0.00     0.049 A 
ATOM     52  C   UNL A   1      39.903  31.195  31.919  1.00  0.00     0.074 A 
ATOM     53  C   UNL A   1      45.896  29.435  30.580  1.00  0.00     0.029 A 
ATOM     54  N   UNL A   1      44.611  31.174  30.993  1.00  0.00    -0.354 N 
ATOM     55  N   UNL A   1      40.698  30.738  32.846  1.00  0.00    -0.248 NA
ATOM     56  C   UNL A   1      40.470  32.226  31.066  1.00  0.00     0.031 C 
ATOM     57  C   UNL A   1      45.233  29.259  31.832  1.00  0.00     0.029 A 
ATOM     58  C   UNL A   1      44.264  30.258  31.952  1.00  0.00     0.049 A 
ATOM     59  H   UNL A   1      44.432  32.142  31.023  1.00  0.00     0.167 HD
ATOM     60  C   UNL A   1      41.971  31.095  32.427  1.00  0.00     0.074 A 
ATOM     61  C   UNL A   1      41.758  32.110  31.400  1.00  0.00     0.031 C 
ATOM     62  C   UNL A   1      43.057  30.332  32.752  1.00  0.00     0.031 A 
BRANCH  49  63
ATOM     63  C   UNL A   1      44.955  32.244  28.101  1.00  0.00    -0.014 A 
ATOM     64  C   UNL A   1      46.222  32.740  27.730  1.00  0.00     0.010 A 
ATOM     65  C   UNL A   1      43.906  33.185  28.162  1.00  0.00     0.010 A 
ATOM     66  C   UNL A   1      46.435  34.107  27.505  1.00  0.00     0.020 A 
ATOM     67  C   UNL A   1      44.092  34.540  27.886  1.00  0.00     0.020 A 
ATOM     68  C   UNL A   1      45.367  34.999  27.596  1.00  0.00     0.054 A 
BRANCH  68  69
ATOM     69  S   UNL A   1      45.664  36.772  27.404  1.00  0.00     0.124 S 
ATOM     70  O   UNL A   1      46.397  36.815  26.142  1.00  0.00    -0.237 OA
ATOM     71  O   UNL A   1      44.309  37.312  27.370  1.00  0.00    -0.237 OA
ATOM     72  O   UNL A   1      46.439  37.119  28.593  1.00  0.00    -0.744 OA
ENDBRANCH  68  69
ENDBRANCH  49  63
BRANCH  50  73
ATOM     73  C   UNL A   1      37.344  31.160  31.544  1.00  0.00    -0.014 A 
ATOM     74  C   UNL A   1      36.744  31.427  32.793  1.00  0.00     0.010 A 
ATOM     75  C   UNL A   1      36.815  31.810  30.413  1.00  0.00     0.010 A 
ATOM     76  C   UNL A   1      35.719  32.379  32.919  1.00  0.00     0.020 A 
ATOM     77  C   UNL A   1      35.784  32.755  30.530  1.00  0.00     0.020 A 
ATOM     78  C   UNL A   1      35.265  33.059  31.788  1.00  0.00     0.054 A 
BRANCH  78  79
ATOM     79  S   UNL A   1      34.102  34.444  31.990  1.00  0.00     0.124 S 
ATOM     80  O   UNL A   1      33.161  33.921  32.976  1.00  0.00    -0.237 OA
ATOM     81  O   UNL A   1      34.969  35.523  32.455  1.00  0.00    -0.237 OA
ATOM     82  O   UNL A   1      33.553  34.629  30.647  1.00  0.00    -0.744 OA
ENDBRANCH  78  79
ENDBRANCH  50  73
BRANCH  62  83
ATOM     83  C   UNL A   1      42.916  29.310  33.859  1.00  0.00    -0.014 A 
ATOM     84  C   UNL A   1      43.198  29.574  35.214  1.00  0.00     0.010 A 
ATOM     85  C   UNL A   1      42.340  28.071  33.527  1.00  0.00     0.010 A 
ATOM     86  C   UNL A   1      42.931  28.613  36.202  1.00  0.00     0.020 A 
ATOM     87  C   UNL A   1      42.053  27.118  34.508  1.00  0.00     0.020 A 
ATOM     88  C   UNL A   1      42.357  27.391  35.842  1.00  0.00     0.054 A 
BRANCH  88  89
ATOM     89  S   UNL A   1      41.956  26.178  37.132  1.00  0.00     0.124 S 
ATOM     90  O   UNL A   1      40.616  26.586  37.546  1.00  0.00    -0.237 OA
ATOM     91  O   UNL A   1      42.033  24.906  36.417  1.00  0.00    -0.237 OA
ATOM     92  O   UNL A   1      43.002  26.378  38.135  1.00  0.00    -0.744 OA
ENDBRANCH  88  89
ENDBRANCH  62  83
ENDBRANCH  36  37
ENDBRANCH  28  31
ENDBRANCH  26  27
ENDBRANCH  25  26
ENDBRANCH  24  25
ENDBRANCH   3  24
TORSDOF 19
ENDMDL
MODEL 2
REMARK VINA RESULT:     -11.3      1.704      2.128
REMARK SMILES COC(=O)c1c(NS(=O)(=O)CCC(=O)NCCCNC(=O)c2ccc(-c3c4nc(c(-c5ccc(S(=O)(=O)[O-])cc5)c5ccc([nH]5)c(-c5ccc(S(=O)(=O)[O-])cc5)c5nc(c(-c6ccc(S(=O)(=O)[O-])cc6)c6ccc3[nH]6)C=C5)C=C4)cc2)sc2c1CCC2
REMARK SMILES IDX 13 1 14 2 15 3 12 5 11 6 8 7 9 8 10 9 7 10 6 12 5 13 84 14
REMARK SMILES IDX 82 15 83 16 85 17 87 18 86 19 3 20 4 21 2 22 1 23 16 24
REMARK SMILES IDX 17 25 18 26 19 27 20 28 21 30 22 31 23 32 81 33 24 34 80 35
REMARK SMILES IDX 25 36 26 37 27 38 74 39 28 40 79 41 73 42 75 43 29 44 78 45
REMARK SMILES IDX 72 46 71 47 30 49 60 50 41 51 59 52 42 53 45 54 58 55 76 56
REMARK SMILES IDX 43 57 44 58 57 60 77 61 46 62 31 63 32 64 40 65 33 66 39 67
REMARK SMILES IDX 34 68 35 69 36 70 37 71 38 72 61 73 62 74 70 75 63 76 69 77
REMARK SMILES IDX 64 78 65 79 66 80 67 81 68 82 47 83 48 84 56 85 49 86 55 87
REMARK SMILES IDX 50 88 51 89 52 90 53 91 54 92
REMARK H PARENT 15 4 7 11 19 29 75 48 45 59
REMARK Flexibility Score: inf
ROOT
ATOM      1  C   UNL A   1      35.028  22.876  26.328  1.00  0.00     0.221 C 
ATOM      2  O   UNL A   1      34.099  22.896  27.134  1.00  0.00    -0.275 OA
ATOM      3  N   UNL A   1      36.002  21.931  26.476  1.00  0.00    -0.356 N 
ATOM      4  H   UNL A   1      36.137  21.601  27.394  1.00  0.00     0.163 HD
ENDROOT
BRANCH   1   5
ATOM      5  C   UNL A   1      35.122  23.918  25.244  1.00  0.00     0.118 C 
BRANCH   5   6
ATOM      6  C   UNL A   1      33.762  24.301  24.687  1.00  0.00     0.170 C 
BRANCH   6   7
ATOM      7  S   UNL A   1      33.426  26.063  24.620  1.00  0.00     0.233 S 
ATOM      8  O   UNL A   1      33.701  26.531  23.279  1.00  0.00    -0.207 OA
ATOM      9  O   UNL A   1      34.145  26.651  25.734  1.00  0.00    -0.207 OA
BRANCH   7  10
ATOM     10  N   UNL A   1      31.808  26.286  24.959  1.00  0.00    -0.274 N 
ATOM     11  H   UNL A   1      31.397  25.751  25.675  1.00  0.00     0.180 HD
BRANCH  10  12
ATOM     12  C   UNL A   1      30.996  27.224  24.246  1.00  0.00     0.117 A 
ATOM     13  C   UNL A   1      31.120  28.608  24.351  1.00  0.00     0.098 A 
ATOM     14  C   UNL A   1      29.995  29.237  23.775  1.00  0.00    -0.017 A 
ATOM     15  S   UNL A   1      29.707  26.804  23.165  1.00  0.00    -0.121 S 
ATOM     16  C   UNL A   1      29.123  28.359  23.217  1.00  0.00     0.011 A 
ATOM     17  C   UNL A   1      29.513  30.633  23.685  1.00  0.00     0.038 C 
ATOM     18  C   UNL A   1      27.874  28.984  22.740  1.00  0.00     0.047 C 
ATOM     19  C   UNL A   1      28.012  30.422  23.340  1.00  0.00     0.010 C 
BRANCH  13  20
ATOM     20  C   UNL A   1      32.164  29.408  24.938  1.00  0.00     0.341 C 
ATOM     21  O   UNL A   1      33.182  29.653  24.320  1.00  0.00    -0.246 OA
BRANCH  20  22
ATOM     22  O   UNL A   1      31.782  30.004  26.109  1.00  0.00    -0.465 OA
ATOM     23  C   UNL A   1      31.773  29.137  27.253  1.00  0.00     0.282 C 
ENDBRANCH  20  22
ENDBRANCH  13  20
ENDBRANCH  10  12
ENDBRANCH   7  10
ENDBRANCH   6   7
ENDBRANCH   5   6
ENDBRANCH   1   5
BRANCH   3  24
ATOM     24  C   UNL A   1      36.871  21.344  25.464  1.00  0.00     0.117 C 
BRANCH  24  25
ATOM     25  C   UNL A   1      38.282  21.921  25.372  1.00  0.00     0.042 C 
BRANCH  25  26
ATOM     26  C   UNL A   1      39.365  21.229  26.190  1.00  0.00     0.118 C 
BRANCH  26  27
ATOM     27  N   UNL A   1      40.724  21.425  25.721  1.00  0.00    -0.352 N 
ATOM     28  C   UNL A   1      41.574  22.511  25.832  1.00  0.00     0.251 C 
ATOM     29  H   UNL A   1      41.106  20.653  25.244  1.00  0.00     0.163 HD
ATOM     30  O   UNL A   1      42.637  22.453  25.213  1.00  0.00    -0.269 OA
BRANCH  28  31
ATOM     31  C   UNL A   1      41.313  23.679  26.730  1.00  0.00     0.039 A 
ATOM     32  C   UNL A   1      40.460  24.705  26.275  1.00  0.00     0.014 A 
ATOM     33  C   UNL A   1      41.929  23.854  27.959  1.00  0.00     0.014 A 
ATOM     34  C   UNL A   1      40.382  25.936  26.948  1.00  0.00     0.010 A 
ATOM     35  C   UNL A   1      41.874  25.076  28.603  1.00  0.00     0.010 A 
ATOM     36  C   UNL A   1      41.169  26.153  28.075  1.00  0.00    -0.014 A 
BRANCH  36  37
ATOM     37  C   UNL A   1      41.155  27.393  28.855  1.00  0.00     0.031 A 
ATOM     38  C   UNL A   1      42.129  28.408  28.370  1.00  0.00     0.074 A 
ATOM     39  C   UNL A   1      40.207  27.801  29.727  1.00  0.00     0.049 A 
ATOM     40  N   UNL A   1      43.317  28.631  28.827  1.00  0.00    -0.248 NA
ATOM     41  C   UNL A   1      41.820  29.130  27.124  1.00  0.00     0.031 C 
ATOM     42  C   UNL A   1      38.937  27.173  30.083  1.00  0.00     0.029 A 
ATOM     43  N   UNL A   1      40.157  28.980  30.416  1.00  0.00    -0.354 N 
ATOM     44  C   UNL A   1      43.817  29.664  28.045  1.00  0.00     0.074 A 
ATOM     45  C   UNL A   1      42.997  29.696  26.863  1.00  0.00     0.031 C 
ATOM     46  C   UNL A   1      38.152  28.067  30.734  1.00  0.00     0.029 A 
ATOM     47  C   UNL A   1      38.925  29.272  30.990  1.00  0.00     0.049 A 
ATOM     48  H   UNL A   1      40.936  29.577  30.500  1.00  0.00     0.167 HD
ATOM     49  C   UNL A   1      44.658  30.617  28.538  1.00  0.00     0.031 A 
ATOM     50  C   UNL A   1      38.576  30.429  31.610  1.00  0.00     0.031 A 
ATOM     51  C   UNL A   1      45.098  30.296  29.873  1.00  0.00     0.049 A 
ATOM     52  C   UNL A   1      39.835  31.109  32.000  1.00  0.00     0.074 A 
ATOM     53  C   UNL A   1      45.743  29.227  30.464  1.00  0.00     0.029 A 
ATOM     54  N   UNL A   1      44.505  30.993  30.902  1.00  0.00    -0.354 N 
ATOM     55  N   UNL A   1      40.656  30.650  32.902  1.00  0.00    -0.248 NA
ATOM     56  C   UNL A   1      40.388  32.120  31.113  1.00  0.00     0.031 C 
ATOM     57  C   UNL A   1      45.124  29.078  31.741  1.00  0.00     0.029 A 
ATOM     58  C   UNL A   1      44.177  30.095  31.884  1.00  0.00     0.049 A 
ATOM     59  H   UNL A   1      44.344  31.965  30.927  1.00  0.00     0.167 HD
ATOM     60  C   UNL A   1      41.918  30.978  32.433  1.00  0.00     0.074 A 
ATOM     61  C   UNL A   1      41.685  31.985  31.401  1.00  0.00     0.031 C 
ATOM     62  C   UNL A   1      43.002  30.200  32.727  1.00  0.00     0.031 A 
BRANCH  49  63
ATOM     63  C   UNL A   1      44.761  32.024  27.986  1.00  0.00    -0.014 A 
ATOM     64  C   UNL A   1      45.986  32.441  27.426  1.00  0.00     0.010 A 
ATOM     65  C   UNL A   1      43.792  33.026  28.196  1.00  0.00     0.010 A 
ATOM     66  C   UNL A   1      46.245  33.793  27.160  1.00  0.00     0.020 A 
ATOM     67  C   UNL A   1      44.016  34.368  27.883  1.00  0.00     0.020 A 
ATOM     68  C   UNL A   1      45.258  34.748  27.402  1.00  0.00     0.054 A 
BRANCH  68  69
ATOM     69  S   UNL A   1      45.631  36.499  27.153  1.00  0.00     0.124 S 
ATOM     70  O   UNL A   1      46.374  36.821  28.367  1.00  0.00    -0.237 OA
ATOM     71  O   UNL A   1      46.409  36.479  25.918  1.00  0.00    -0.237 OA
ATOM     72  O   UNL A   1      44.311  37.117  27.041  1.00  0.00    -0.744 OA
ENDBRANCH  68  69
ENDBRANCH  49  63
BRANCH  50  73
ATOM     73  C   UNL A   1      37.264  31.116  31.719  1.00  0.00    -0.014 A 
ATOM     74  C   UNL A   1      36.801  31.575  32.970  1.00  0.00     0.010 A 
ATOM     75  C   UNL A   1      36.617  31.600  30.565  1.00  0.00     0.010 A 
ATOM     76  C   UNL A   1      35.795  32.552  33.060  1.00  0.00     0.020 A 
ATOM     77  C   UNL A   1      35.605  32.569  30.649  1.00  0.00     0.020 A 
ATOM     78  C   UNL A   1      35.223  33.064  31.895  1.00  0.00     0.054 A 
BRANCH  78  79
ATOM     79  S   UNL A   1      34.089  34.482  32.010  1.00  0.00     0.124 S 
ATOM     80  O   UNL A   1      33.087  34.005  32.959  1.00  0.00    -0.237 OA
ATOM     81  O   UNL A   1      34.961  35.549  32.495  1.00  0.00    -0.237 OA
ATOM     82  O   UNL A   1      33.612  34.652  30.638  1.00  0.00    -0.744 OA
ENDBRANCH  78  79
ENDBRANCH  50  73
BRANCH  62  83
ATOM     83  C   UNL A   1      42.884  29.194  33.850  1.00  0.00    -0.014 A 
ATOM     84  C   UNL A   1      43.269  29.451  35.181  1.00  0.00     0.010 A 
ATOM     85  C   UNL A   1      42.226  27.983  33.570  1.00  0.00     0.010 A 
ATOM     86  C   UNL A   1      43.021  28.512  36.195  1.00  0.00     0.020 A 
ATOM     87  C   UNL A   1      41.957  27.052  34.577  1.00  0.00     0.020 A 
ATOM     88  C   UNL A   1      42.363  27.319  35.886  1.00  0.00     0.054 A 
BRANCH  88  89
ATOM     89  S   UNL A   1      41.988  26.136  37.211  1.00  0.00     0.124 S 
ATOM     90  O   UNL A   1      40.635  26.518  37.605  1.00  0.00    -0.237 OA
ATOM     91  O   UNL A   1      42.106  24.844  36.537  1.00  0.00    -0.237 OA
ATOM     92  O   UNL A   1      43.022  26.397  38.213  1.00  0.00    -0.744 OA
ENDBRANCH  88  89
ENDBRANCH  62  83
ENDBRANCH  36  37
ENDBRANCH  28  31
ENDBRANCH  26  27
ENDBRANCH  25  26
ENDBRANCH  24  25
ENDBRANCH   3  24
TORSDOF 19
ENDMDL
MODEL 3
REMARK VINA RESULT:     -11.3      1.560      2.962
REMARK SMILES COC(=O)c1c(NS(=O)(=O)CCC(=O)NCCCNC(=O)c2ccc(-c3c4nc(c(-c5ccc(S(=O)(=O)[O-])cc5)c5ccc([nH]5)c(-c5ccc(S(=O)(=O)[O-])cc5)c5nc(c(-c6ccc(S(=O)(=O)[O-])cc6)c6ccc3[nH]6)C=C5)C=C4)cc2)sc2c1CCC2
REMARK SMILES IDX 13 1 14 2 15 3 12 5 11 6 8 7 9 8 10 9 7 10 6 12 5 13 84 14
REMARK SMILES IDX 82 15 83 16 85 17 87 18 86 19 3 20 4 21 2 22 1 23 16 24
REMARK SMILES IDX 17 25 18 26 19 27 20 28 21 30 22 31 23 32 81 33 24 34 80 35
REMARK SMILES IDX 25 36 26 37 27 38 74 39 28 40 79 41 73 42 75 43 29 44 78 45
REMARK SMILES IDX 72 46 71 47 30 49 60 50 41 51 59 52 42 53 45 54 58 55 76 56
REMARK SMILES IDX 43 57 44 58 57 60 77 61 46 62 31 63 32 64 40 65 33 66 39 67
REMARK SMILES IDX 34 68 35 69 36 70 37 71 38 72 61 73 62 74 70 75 63 76 69 77
REMARK SMILES IDX 64 78 65 79 66 80 67 81 68 82 47 83 48 84 56 85 49 86 55 87
REMARK SMILES IDX 50 88 51 89 52 90 53 91 54 92
REMARK H PARENT 15 4 7 11 19 29 75 48 45 59
REMARK Flexibility Score: inf
ROOT
ATOM      1  C   UNL A   1      37.278  23.137  25.555  1.00  0.00     0.221 C 
ATOM      2  O   UNL A   1      37.470  24.216  26.114  1.00  0.00    -0.275 OA
ATOM      3  N   UNL A   1      38.317  22.258  25.454  1.00  0.00    -0.356 N 
ATOM      4  H   UNL A   1      39.215  22.661  25.454  1.00  0.00     0.163 HD
ENDROOT
BRANCH   1   5
ATOM      5  C   UNL A   1      35.941  22.826  24.934  1.00  0.00     0.118 C 
BRANCH   5   6
ATOM      6  C   UNL A   1      35.069  24.061  24.783  1.00  0.00     0.170 C 
BRANCH   6   7
ATOM      7  S   UNL A   1      34.108  24.144  23.270  1.00  0.00     0.233 S 
ATOM      8  O   UNL A   1      34.762  23.331  22.267  1.00  0.00    -0.207 OA
ATOM      9  O   UNL A   1      33.895  25.554  23.006  1.00  0.00    -0.207 OA
BRANCH   7  10
ATOM     10  N   UNL A   1      32.598  23.512  23.591  1.00  0.00    -0.274 N 
ATOM     11  H   UNL A   1      31.847  24.131  23.738  1.00  0.00     0.180 HD
BRANCH  10  12
ATOM     12  C   UNL A   1      32.354  22.104  23.662  1.00  0.00     0.117 A 
ATOM     13  C   UNL A   1      32.428  21.352  24.832  1.00  0.00     0.098 A 
ATOM     14  C   UNL A   1      32.440  19.975  24.520  1.00  0.00    -0.017 A 
ATOM     15  S   UNL A   1      31.960  21.094  22.307  1.00  0.00    -0.121 S 
ATOM     16  C   UNL A   1      32.311  19.730  23.191  1.00  0.00     0.011 A 
ATOM     17  C   UNL A   1      32.613  18.730  25.300  1.00  0.00     0.038 C 
ATOM     18  C   UNL A   1      32.467  18.308  22.830  1.00  0.00     0.047 C 
ATOM     19  C   UNL A   1      32.978  17.712  24.184  1.00  0.00     0.010 C 
BRANCH  13  20
ATOM     20  C   UNL A   1      32.501  21.774  26.207  1.00  0.00     0.341 C 
ATOM     21  O   UNL A   1      33.482  21.526  26.882  1.00  0.00    -0.246 OA
BRANCH  20  22
ATOM     22  O   UNL A   1      31.493  22.630  26.555  1.00  0.00    -0.465 OA
ATOM     23  C   UNL A   1      31.922  23.948  26.930  1.00  0.00     0.282 C 
ENDBRANCH  20  22
ENDBRANCH  13  20
ENDBRANCH  10  12
ENDBRANCH   7  10
ENDBRANCH   6   7
ENDBRANCH   5   6
ENDBRANCH   1   5
BRANCH   3  24
ATOM     24  C   UNL A   1      38.281  20.805  25.346  1.00  0.00     0.117 C 
BRANCH  24  25
ATOM     25  C   UNL A   1      39.521  20.061  25.839  1.00  0.00     0.042 C 
BRANCH  25  26
ATOM     26  C   UNL A   1      40.558  20.879  26.598  1.00  0.00     0.118 C 
BRANCH  26  27
ATOM     27  N   UNL A   1      41.693  21.330  25.815  1.00  0.00    -0.352 N 
ATOM     28  C   UNL A   1      42.268  22.582  25.688  1.00  0.00     0.251 C 
ATOM     29  H   UNL A   1      42.129  20.624  25.285  1.00  0.00     0.163 HD
ATOM     30  O   UNL A   1      43.149  22.708  24.837  1.00  0.00    -0.269 OA
BRANCH  28  31
ATOM     31  C   UNL A   1      41.947  23.735  26.586  1.00  0.00     0.039 A 
ATOM     32  C   UNL A   1      40.998  24.683  26.157  1.00  0.00     0.014 A 
ATOM     33  C   UNL A   1      42.594  23.973  27.789  1.00  0.00     0.014 A 
ATOM     34  C   UNL A   1      40.846  25.912  26.822  1.00  0.00     0.010 A 
ATOM     35  C   UNL A   1      42.465  25.194  28.425  1.00  0.00     0.010 A 
ATOM     36  C   UNL A   1      41.655  26.204  27.915  1.00  0.00    -0.014 A 
BRANCH  36  37
ATOM     37  C   UNL A   1      41.570  27.448  28.685  1.00  0.00     0.031 A 
ATOM     38  C   UNL A   1      42.558  28.475  28.260  1.00  0.00     0.074 A 
ATOM     39  C   UNL A   1      40.561  27.845  29.490  1.00  0.00     0.049 A 
ATOM     40  N   UNL A   1      43.710  28.720  28.793  1.00  0.00    -0.248 NA
ATOM     41  C   UNL A   1      42.321  29.186  26.992  1.00  0.00     0.031 C 
ATOM     42  C   UNL A   1      39.280  27.199  29.766  1.00  0.00     0.029 A 
ATOM     43  N   UNL A   1      40.447  29.027  30.168  1.00  0.00    -0.354 N 
ATOM     44  C   UNL A   1      44.245  29.757  28.039  1.00  0.00     0.074 A 
ATOM     45  C   UNL A   1      43.503  29.770  26.806  1.00  0.00     0.031 C 
ATOM     46  C   UNL A   1      38.440  28.084  30.359  1.00  0.00     0.029 A 
ATOM     47  C   UNL A   1      39.176  29.301  30.658  1.00  0.00     0.049 A 
ATOM     48  H   UNL A   1      41.210  29.636  30.300  1.00  0.00     0.167 HD
ATOM     49  C   UNL A   1      45.037  30.725  28.581  1.00  0.00     0.031 A 
ATOM     50  C   UNL A   1      38.769  30.456  31.246  1.00  0.00     0.031 A 
ATOM     51  C   UNL A   1      45.392  30.418  29.944  1.00  0.00     0.049 A 
ATOM     52  C   UNL A   1      39.989  31.158  31.714  1.00  0.00     0.074 A 
ATOM     53  C   UNL A   1      46.013  29.362  30.582  1.00  0.00     0.029 A 
ATOM     54  N   UNL A   1      44.722  31.111  30.927  1.00  0.00    -0.354 N 
ATOM     55  N   UNL A   1      40.755  30.716  32.671  1.00  0.00    -0.248 NA
ATOM     56  C   UNL A   1      40.583  32.173  30.860  1.00  0.00     0.031 C 
ATOM     57  C   UNL A   1      45.313  29.209  31.817  1.00  0.00     0.029 A 
ATOM     58  C   UNL A   1      44.344  30.212  31.891  1.00  0.00     0.049 A 
ATOM     59  H   UNL A   1      44.545  32.080  30.935  1.00  0.00     0.167 HD
ATOM     60  C   UNL A   1      42.041  31.062  32.284  1.00  0.00     0.074 A 
ATOM     61  C   UNL A   1      41.861  32.060  31.234  1.00  0.00     0.031 C 
ATOM     62  C   UNL A   1      43.114  30.303  32.654  1.00  0.00     0.031 A 
BRANCH  49  63
ATOM     63  C   UNL A   1      45.154  32.131  28.029  1.00  0.00    -0.014 A 
ATOM     64  C   UNL A   1      46.422  32.747  28.014  1.00  0.00     0.010 A 
ATOM     65  C   UNL A   1      44.050  32.959  27.737  1.00  0.00     0.010 A 
ATOM     66  C   UNL A   1      46.564  34.123  27.789  1.00  0.00     0.020 A 
ATOM     67  C   UNL A   1      44.183  34.319  27.457  1.00  0.00     0.020 A 
ATOM     68  C   UNL A   1      45.438  34.901  27.523  1.00  0.00     0.054 A 
BRANCH  68  69
ATOM     69  S   UNL A   1      45.614  36.690  27.334  1.00  0.00     0.124 S 
ATOM     70  O   UNL A   1      46.564  36.781  26.230  1.00  0.00    -0.237 OA
ATOM     71  O   UNL A   1      44.248  37.106  27.032  1.00  0.00    -0.237 OA
ATOM     72  O   UNL A   1      46.118  37.123  28.636  1.00  0.00    -0.744 OA
ENDBRANCH  68  69
ENDBRANCH  49  63
BRANCH  50  73
ATOM     73  C   UNL A   1      37.442  31.123  31.264  1.00  0.00    -0.014 A 
ATOM     74  C   UNL A   1      36.641  31.086  32.425  1.00  0.00     0.010 A 
ATOM     75  C   UNL A   1      37.101  32.054  30.265  1.00  0.00     0.010 A 
ATOM     76  C   UNL A   1      35.599  32.008  32.621  1.00  0.00     0.020 A 
ATOM     77  C   UNL A   1      36.055  32.972  30.450  1.00  0.00     0.020 A 
ATOM     78  C   UNL A   1      35.332  32.966  31.642  1.00  0.00     0.054 A 
BRANCH  78  79
ATOM     79  S   UNL A   1      34.138  34.292  31.998  1.00  0.00     0.124 S 
ATOM     80  O   UNL A   1      33.503  34.498  30.700  1.00  0.00    -0.237 OA
ATOM     81  O   UNL A   1      33.292  33.691  33.026  1.00  0.00    -0.237 OA
ATOM     82  O   UNL A   1      34.979  35.395  32.459  1.00  0.00    -0.744 OA
ENDBRANCH  78  79
ENDBRANCH  50  73
BRANCH  62  83
ATOM     83  C   UNL A   1      42.938  29.301  33.773  1.00  0.00    -0.014 A 
ATOM     84  C   UNL A   1      43.126  29.602  35.137  1.00  0.00     0.010 A 
ATOM     85  C   UNL A   1      42.425  28.035  33.435  1.00  0.00     0.010 A 
ATOM     86  C   UNL A   1      42.830  28.654  36.129  1.00  0.00     0.020 A 
ATOM     87  C   UNL A   1      42.109  27.094  34.419  1.00  0.00     0.020 A 
ATOM     88  C   UNL A   1      42.319  27.406  35.763  1.00  0.00     0.054 A 
BRANCH  88  89
ATOM     89  S   UNL A   1      41.878  26.208  37.053  1.00  0.00     0.124 S 
ATOM     90  O   UNL A   1      42.981  26.340  38.001  1.00  0.00    -0.237 OA
ATOM     91  O   UNL A   1      40.583  26.697  37.523  1.00  0.00    -0.237 OA
ATOM     92  O   UNL A   1      41.825  24.932  36.339  1.00  0.00    -0.744 OA
ENDBRANCH  88  89
ENDBRANCH  62  83
ENDBRANCH  36  37
ENDBRANCH  28  31
ENDBRANCH  26  27
ENDBRANCH  25  26
ENDBRANCH  24  25
ENDBRANCH   3  24
TORSDOF 19
ENDMDL
