MODEL 1
REMARK VINA RESULT:     -10.9      0.000      0.000
REMARK SMILES O=C(COc1ccc(F)cc1)Nc1sccc1C(=O)NCCCNC(=O)c1ccc(-c2c3nc(c(-c4ccc(S(=O)(=O)[O-])cc4)c4ccc([nH]4)c(-c4ccc(S(=O)(=O)[O-])cc4)c4nc(c(-c5ccc(S(=O)(=O)[O-])cc5)c5ccc2[nH]5)C=C4)C=C3)cc1
REMARK SMILES IDX 21 1 20 2 18 3 19 4 17 6 13 7 14 8 15 9 16 10 12 11 1 12
REMARK SMILES IDX 2 13 3 15 4 16 5 17 6 18 11 19 7 20 10 21 8 22 9 23 22 24
REMARK SMILES IDX 23 25 24 26 25 27 26 29 27 30 28 31 86 32 29 33 85 34 30 35
REMARK SMILES IDX 31 36 32 37 79 38 33 39 84 40 78 41 80 42 34 43 83 44 77 45
REMARK SMILES IDX 76 46 35 48 65 49 46 50 64 51 47 52 50 53 63 54 81 55 48 56
REMARK SMILES IDX 49 57 62 59 82 60 51 61 36 62 37 63 45 64 38 65 44 66 39 67
REMARK SMILES IDX 40 68 41 69 42 70 43 71 66 72 67 73 75 74 68 75 74 76 69 77
REMARK SMILES IDX 70 78 71 79 72 80 73 81 52 82 53 83 61 84 54 85 60 86 55 87
REMARK SMILES IDX 56 88 57 89 58 90 59 91
REMARK H PARENT 20 5 12 14 24 28 80 47 50 58
REMARK Flexibility Score: inf
ROOT
ATOM      1  C   UNL A   1      31.434  28.140  26.862  1.00  0.00     0.118 C 
ENDROOT
BRANCH   1   2
ATOM      2  N   UNL A   1      30.794  26.844  26.971  1.00  0.00    -0.352 N 
ATOM      3  C   UNL A   1      30.602  25.879  26.010  1.00  0.00     0.254 C 
ATOM      4  O   UNL A   1      29.995  24.856  26.337  1.00  0.00    -0.269 OA
ATOM      5  H   UNL A   1      30.446  26.622  27.865  1.00  0.00     0.163 HD
BRANCH   3   6
ATOM      6  C   UNL A   1      30.952  26.134  24.614  1.00  0.00     0.074 A 
ATOM      7  C   UNL A   1      31.999  25.632  23.864  1.00  0.00     0.108 A 
ATOM      8  S   UNL A   1      32.178  26.413  22.357  1.00  0.00    -0.126 S 
ATOM      9  C   UNL A   1      30.710  27.255  22.554  1.00  0.00     0.068 A 
ATOM     10  C   UNL A   1      30.159  27.021  23.792  1.00  0.00     0.028 A 
BRANCH   7  11
ATOM     11  N   UNL A   1      32.954  24.660  24.037  1.00  0.00    -0.314 N 
ATOM     12  O   UNL A   1      31.866  22.878  23.012  1.00  0.00    -0.271 OA
ATOM     13  C   UNL A   1      32.812  23.343  23.638  1.00  0.00     0.262 C 
ATOM     14  H   UNL A   1      33.798  24.918  24.475  1.00  0.00     0.170 HD
BRANCH  13  15
ATOM     15  C   UNL A   1      33.961  22.460  24.134  1.00  0.00     0.329 C 
BRANCH  15  16
ATOM     16  O   UNL A   1      35.187  22.704  23.439  1.00  0.00    -0.484 OA
BRANCH  16  17
ATOM     17  C   UNL A   1      36.247  22.730  24.302  1.00  0.00     0.120 A 
ATOM     18  C   UNL A   1      36.474  23.830  25.131  1.00  0.00     0.049 A 
ATOM     19  C   UNL A   1      37.052  21.595  24.383  1.00  0.00     0.049 A 
ATOM     20  C   UNL A   1      37.539  23.807  26.027  1.00  0.00     0.043 A 
ATOM     21  C   UNL A   1      38.120  21.576  25.280  1.00  0.00     0.043 A 
ATOM     22  C   UNL A   1      38.354  22.683  26.090  1.00  0.00     0.123 A 
ATOM     23  F   UNL A   1      39.377  22.663  26.956  1.00  0.00    -0.207 F 
ENDBRANCH  16  17
ENDBRANCH  15  16
ENDBRANCH  13  15
ENDBRANCH   7  11
ENDBRANCH   3   6
ENDBRANCH   1   2
BRANCH   1  24
ATOM     24  C   UNL A   1      32.914  28.147  27.188  1.00  0.00     0.042 C 
BRANCH  24  25
ATOM     25  C   UNL A   1      33.671  29.347  26.627  1.00  0.00     0.118 C 
BRANCH  25  26
ATOM     26  N   UNL A   1      33.717  30.508  27.517  1.00  0.00    -0.352 N 
ATOM     27  C   UNL A   1      34.660  30.946  28.420  1.00  0.00     0.251 C 
ATOM     28  H   UNL A   1      32.923  31.086  27.457  1.00  0.00     0.163 HD
ATOM     29  O   UNL A   1      34.391  31.900  29.148  1.00  0.00    -0.269 OA
BRANCH  27  30
ATOM     30  C   UNL A   1      35.963  30.254  28.565  1.00  0.00     0.039 A 
ATOM     31  C   UNL A   1      36.852  30.220  27.485  1.00  0.00     0.014 A 
ATOM     32  C   UNL A   1      36.328  29.650  29.764  1.00  0.00     0.014 A 
ATOM     33  C   UNL A   1      38.146  29.709  27.660  1.00  0.00     0.010 A 
ATOM     34  C   UNL A   1      37.650  29.280  29.978  1.00  0.00     0.010 A 
ATOM     35  C   UNL A   1      38.582  29.309  28.932  1.00  0.00    -0.014 A 
BRANCH  35  36
ATOM     36  C   UNL A   1      39.993  28.924  29.223  1.00  0.00     0.031 A 
ATOM     37  C   UNL A   1      40.949  29.949  29.784  1.00  0.00     0.074 A 
ATOM     38  C   UNL A   1      40.455  27.710  28.857  1.00  0.00     0.049 A 
ATOM     39  N   UNL A   1      42.253  29.897  29.886  1.00  0.00    -0.248 NA
ATOM     40  C   UNL A   1      40.365  31.223  30.238  1.00  0.00     0.031 C 
ATOM     41  C   UNL A   1      39.660  26.637  28.252  1.00  0.00     0.029 A 
ATOM     42  N   UNL A   1      41.721  27.179  28.923  1.00  0.00    -0.354 N 
ATOM     43  C   UNL A   1      42.644  31.146  30.353  1.00  0.00     0.074 A 
ATOM     44  C   UNL A   1      41.446  31.949  30.471  1.00  0.00     0.031 C 
ATOM     45  C   UNL A   1      40.446  25.571  28.035  1.00  0.00     0.029 A 
ATOM     46  C   UNL A   1      41.811  25.898  28.428  1.00  0.00     0.049 A 
ATOM     47  H   UNL A   1      42.492  27.670  29.289  1.00  0.00     0.167 HD
ATOM     48  C   UNL A   1      43.885  31.585  30.678  1.00  0.00     0.031 A 
ATOM     49  C   UNL A   1      42.874  25.081  28.291  1.00  0.00     0.031 A 
ATOM     50  C   UNL A   1      45.064  30.765  30.628  1.00  0.00     0.049 A 
ATOM     51  C   UNL A   1      44.232  25.566  28.713  1.00  0.00     0.074 A 
ATOM     52  C   UNL A   1      46.354  31.088  31.013  1.00  0.00     0.029 A 
ATOM     53  N   UNL A   1      45.094  29.451  30.185  1.00  0.00    -0.354 N 
ATOM     54  N   UNL A   1      44.576  26.740  29.187  1.00  0.00    -0.248 NA
ATOM     55  C   UNL A   1      45.347  24.615  28.590  1.00  0.00     0.031 C 
ATOM     56  C   UNL A   1      47.169  29.975  30.780  1.00  0.00     0.029 A 
ATOM     57  C   UNL A   1      46.379  28.949  30.288  1.00  0.00     0.049 A 
ATOM     58  H   UNL A   1      44.316  28.951  29.848  1.00  0.00     0.167 HD
ATOM     59  C   UNL A   1      45.939  26.659  29.445  1.00  0.00     0.074 A 
ATOM     60  C   UNL A   1      46.356  25.319  29.083  1.00  0.00     0.031 C 
ATOM     61  C   UNL A   1      46.771  27.608  29.937  1.00  0.00     0.031 A 
BRANCH  48  62
ATOM     62  C   UNL A   1      44.021  33.015  31.130  1.00  0.00    -0.014 A 
ATOM     63  C   UNL A   1      44.015  33.349  32.496  1.00  0.00     0.010 A 
ATOM     64  C   UNL A   1      44.174  34.039  30.178  1.00  0.00     0.010 A 
ATOM     65  C   UNL A   1      44.102  34.683  32.900  1.00  0.00     0.020 A 
ATOM     66  C   UNL A   1      44.292  35.373  30.578  1.00  0.00     0.020 A 
ATOM     67  C   UNL A   1      44.232  35.688  31.938  1.00  0.00     0.054 A 
BRANCH  67  68
ATOM     68  S   UNL A   1      44.350  37.412  32.489  1.00  0.00     0.124 S 
ATOM     69  O   UNL A   1      45.687  37.446  33.077  1.00  0.00    -0.237 OA
ATOM     70  O   UNL A   1      44.194  38.160  31.244  1.00  0.00    -0.237 OA
ATOM     71  O   UNL A   1      43.248  37.549  33.437  1.00  0.00    -0.744 OA
ENDBRANCH  67  68
ENDBRANCH  48  62
BRANCH  49  72
ATOM     72  C   UNL A   1      42.690  23.705  27.754  1.00  0.00    -0.014 A 
ATOM     73  C   UNL A   1      42.742  23.477  26.367  1.00  0.00     0.010 A 
ATOM     74  C   UNL A   1      42.482  22.616  28.619  1.00  0.00     0.010 A 
ATOM     75  C   UNL A   1      42.571  22.189  25.853  1.00  0.00     0.020 A 
ATOM     76  C   UNL A   1      42.334  21.322  28.109  1.00  0.00     0.020 A 
ATOM     77  C   UNL A   1      42.369  21.118  26.728  1.00  0.00     0.054 A 
BRANCH  77  78
ATOM     78  S   UNL A   1      42.205  19.446  26.042  1.00  0.00     0.124 S 
ATOM     79  O   UNL A   1      40.783  19.389  25.720  1.00  0.00    -0.237 OA
ATOM     80  O   UNL A   1      43.114  19.482  24.900  1.00  0.00    -0.237 OA
ATOM     81  O   UNL A   1      42.635  18.584  27.142  1.00  0.00    -0.744 OA
ENDBRANCH  77  78
ENDBRANCH  49  72
BRANCH  61  82
ATOM     82  C   UNL A   1      48.207  27.224  30.160  1.00  0.00    -0.014 A 
ATOM     83  C   UNL A   1      49.163  27.362  29.140  1.00  0.00     0.010 A 
ATOM     84  C   UNL A   1      48.616  26.791  31.434  1.00  0.00     0.010 A 
ATOM     85  C   UNL A   1      50.504  27.053  29.385  1.00  0.00     0.020 A 
ATOM     86  C   UNL A   1      49.958  26.504  31.689  1.00  0.00     0.020 A 
ATOM     87  C   UNL A   1      50.892  26.627  30.660  1.00  0.00     0.054 A 
BRANCH  87  88
ATOM     88  S   UNL A   1      52.648  26.294  30.972  1.00  0.00     0.124 S 
ATOM     89  O   UNL A   1      52.588  25.066  31.759  1.00  0.00    -0.237 OA
ATOM     90  O   UNL A   1      53.194  26.152  29.624  1.00  0.00    -0.237 OA
ATOM     91  O   UNL A   1      53.101  27.479  31.698  1.00  0.00    -0.744 OA
ENDBRANCH  87  88
ENDBRANCH  61  82
ENDBRANCH  35  36
ENDBRANCH  27  30
ENDBRANCH  25  26
ENDBRANCH  24  25
ENDBRANCH   1  24
TORSDOF 17
ENDMDL
MODEL 2
REMARK VINA RESULT:     -10.6      3.106      9.492
REMARK SMILES O=C(COc1ccc(F)cc1)Nc1sccc1C(=O)NCCCNC(=O)c1ccc(-c2c3nc(c(-c4ccc(S(=O)(=O)[O-])cc4)c4ccc([nH]4)c(-c4ccc(S(=O)(=O)[O-])cc4)c4nc(c(-c5ccc(S(=O)(=O)[O-])cc5)c5ccc2[nH]5)C=C4)C=C3)cc1
REMARK SMILES IDX 21 1 20 2 18 3 19 4 17 6 13 7 14 8 15 9 16 10 12 11 1 12
REMARK SMILES IDX 2 13 3 15 4 16 5 17 6 18 11 19 7 20 10 21 8 22 9 23 22 24
REMARK SMILES IDX 23 25 24 26 25 27 26 29 27 30 28 31 86 32 29 33 85 34 30 35
REMARK SMILES IDX 31 36 32 37 79 38 33 39 84 40 78 41 80 42 34 43 83 44 77 45
REMARK SMILES IDX 76 46 35 48 65 49 46 50 64 51 47 52 50 53 63 54 81 55 48 56
REMARK SMILES IDX 49 57 62 59 82 60 51 61 36 62 37 63 45 64 38 65 44 66 39 67
REMARK SMILES IDX 40 68 41 69 42 70 43 71 66 72 67 73 75 74 68 75 74 76 69 77
REMARK SMILES IDX 70 78 71 79 72 80 73 81 52 82 53 83 61 84 54 85 60 86 55 87
REMARK SMILES IDX 56 88 57 89 58 90 59 91
REMARK H PARENT 20 5 12 14 24 28 80 47 50 58
REMARK Flexibility Score: inf
ROOT
ATOM      1  C   UNL A   1      35.622  22.445  26.651  1.00  0.00     0.118 C 
ENDROOT
BRANCH   1   2
ATOM      2  N   UNL A   1      34.432  22.584  27.467  1.00  0.00    -0.352 N 
ATOM      3  C   UNL A   1      33.108  22.572  27.094  1.00  0.00     0.254 C 
ATOM      4  O   UNL A   1      32.262  22.742  27.974  1.00  0.00    -0.269 OA
ATOM      5  H   UNL A   1      34.595  22.705  28.430  1.00  0.00     0.163 HD
BRANCH   3   6
ATOM      6  C   UNL A   1      32.730  22.532  25.682  1.00  0.00     0.074 A 
ATOM      7  C   UNL A   1      31.990  23.436  24.944  1.00  0.00     0.108 A 
ATOM      8  S   UNL A   1      31.566  22.850  23.397  1.00  0.00    -0.126 S 
ATOM      9  C   UNL A   1      32.578  21.489  23.572  1.00  0.00     0.068 A 
ATOM     10  C   UNL A   1      33.136  21.438  24.828  1.00  0.00     0.028 A 
BRANCH   7  11
ATOM     11  N   UNL A   1      31.488  24.698  25.152  1.00  0.00    -0.314 N 
ATOM     12  O   UNL A   1      33.362  25.946  24.568  1.00  0.00    -0.271 OA
ATOM     13  C   UNL A   1      32.214  25.864  24.990  1.00  0.00     0.262 C 
ATOM     14  H   UNL A   1      30.549  24.777  25.435  1.00  0.00     0.170 HD
BRANCH  13  15
ATOM     15  C   UNL A   1      31.446  27.097  25.475  1.00  0.00     0.329 C 
BRANCH  15  16
ATOM     16  O   UNL A   1      31.673  27.384  26.858  1.00  0.00    -0.484 OA
BRANCH  16  17
ATOM     17  C   UNL A   1      32.491  28.468  27.010  1.00  0.00     0.120 A 
ATOM     18  C   UNL A   1      33.877  28.318  27.097  1.00  0.00     0.049 A 
ATOM     19  C   UNL A   1      31.907  29.734  27.000  1.00  0.00     0.049 A 
ATOM     20  C   UNL A   1      34.684  29.446  27.211  1.00  0.00     0.043 A 
ATOM     21  C   UNL A   1      32.719  30.862  27.118  1.00  0.00     0.043 A 
ATOM     22  C   UNL A   1      34.098  30.707  27.224  1.00  0.00     0.123 A 
ATOM     23  F   UNL A   1      34.878  31.791  27.332  1.00  0.00    -0.207 F 
ENDBRANCH  16  17
ENDBRANCH  15  16
ENDBRANCH  13  15
ENDBRANCH   7  11
ENDBRANCH   3   6
ENDBRANCH   1   2
BRANCH   1  24
ATOM     24  C   UNL A   1      36.066  23.713  25.952  1.00  0.00     0.042 C 
BRANCH  24  25
ATOM     25  C   UNL A   1      37.157  23.500  24.906  1.00  0.00     0.118 C 
BRANCH  25  26
ATOM     26  N   UNL A   1      38.300  22.714  25.372  1.00  0.00    -0.352 N 
ATOM     27  C   UNL A   1      39.377  23.028  26.172  1.00  0.00     0.251 C 
ATOM     28  H   UNL A   1      38.298  21.783  25.053  1.00  0.00     0.163 HD
ATOM     29  O   UNL A   1      40.280  22.204  26.306  1.00  0.00    -0.269 OA
BRANCH  27  30
ATOM     30  C   UNL A   1      39.488  24.355  26.822  1.00  0.00     0.039 A 
ATOM     31  C   UNL A   1      38.953  24.547  28.100  1.00  0.00     0.014 A 
ATOM     32  C   UNL A   1      40.133  25.414  26.191  1.00  0.00     0.014 A 
ATOM     33  C   UNL A   1      39.191  25.746  28.786  1.00  0.00     0.010 A 
ATOM     34  C   UNL A   1      40.492  26.540  26.921  1.00  0.00     0.010 A 
ATOM     35  C   UNL A   1      40.033  26.722  28.232  1.00  0.00    -0.014 A 
BRANCH  35  36
ATOM     36  C   UNL A   1      40.469  27.937  28.979  1.00  0.00     0.031 A 
ATOM     37  C   UNL A   1      41.795  27.936  29.701  1.00  0.00     0.074 A 
ATOM     38  C   UNL A   1      39.627  28.980  29.130  1.00  0.00     0.049 A 
ATOM     39  N   UNL A   1      42.254  28.781  30.590  1.00  0.00    -0.248 NA
ATOM     40  C   UNL A   1      42.699  26.806  29.429  1.00  0.00     0.031 C 
ATOM     41  C   UNL A   1      38.292  29.096  28.536  1.00  0.00     0.029 A 
ATOM     42  N   UNL A   1      39.764  30.141  29.852  1.00  0.00    -0.354 N 
ATOM     43  C   UNL A   1      43.463  28.251  31.024  1.00  0.00     0.074 A 
ATOM     44  C   UNL A   1      43.645  26.991  30.336  1.00  0.00     0.031 C 
ATOM     45  C   UNL A   1      37.749  30.272  28.890  1.00  0.00     0.029 A 
ATOM     46  C   UNL A   1      38.668  30.971  29.780  1.00  0.00     0.049 A 
ATOM     47  H   UNL A   1      40.570  30.360  30.372  1.00  0.00     0.167 HD
ATOM     48  C   UNL A   1      44.357  28.772  31.900  1.00  0.00     0.031 A 
ATOM     49  C   UNL A   1      38.421  32.155  30.374  1.00  0.00     0.031 A 
ATOM     50  C   UNL A   1      44.210  30.056  32.528  1.00  0.00     0.049 A 
ATOM     51  C   UNL A   1      39.452  32.744  31.295  1.00  0.00     0.074 A 
ATOM     52  C   UNL A   1      45.096  30.710  33.367  1.00  0.00     0.029 A 
ATOM     53  N   UNL A   1      43.114  30.891  32.371  1.00  0.00    -0.354 N 
ATOM     54  N   UNL A   1      40.606  32.242  31.665  1.00  0.00    -0.248 NA
ATOM     55  C   UNL A   1      39.151  34.061  31.876  1.00  0.00     0.031 C 
ATOM     56  C   UNL A   1      44.524  31.933  33.735  1.00  0.00     0.029 A 
ATOM     57  C   UNL A   1      43.301  32.054  33.094  1.00  0.00     0.049 A 
ATOM     58  H   UNL A   1      42.322  30.685  31.824  1.00  0.00     0.167 HD
ATOM     59  C   UNL A   1      41.182  33.196  32.497  1.00  0.00     0.074 A 
ATOM     60  C   UNL A   1      40.254  34.306  32.570  1.00  0.00     0.031 C 
ATOM     61  C   UNL A   1      42.372  33.155  33.142  1.00  0.00     0.031 A 
BRANCH  48  62
ATOM     62  C   UNL A   1      45.581  27.952  32.213  1.00  0.00    -0.014 A 
ATOM     63  C   UNL A   1      46.713  27.988  31.378  1.00  0.00     0.010 A 
ATOM     64  C   UNL A   1      45.610  27.149  33.368  1.00  0.00     0.010 A 
ATOM     65  C   UNL A   1      47.826  27.192  31.659  1.00  0.00     0.020 A 
ATOM     66  C   UNL A   1      46.734  26.375  33.670  1.00  0.00     0.020 A 
ATOM     67  C   UNL A   1      47.826  26.385  32.800  1.00  0.00     0.054 A 
BRANCH  67  68
ATOM     68  S   UNL A   1      49.287  25.367  33.146  1.00  0.00     0.124 S 
ATOM     69  O   UNL A   1      50.084  26.263  33.980  1.00  0.00    -0.237 OA
ATOM     70  O   UNL A   1      48.719  24.210  33.835  1.00  0.00    -0.237 OA
ATOM     71  O   UNL A   1      49.839  25.090  31.823  1.00  0.00    -0.744 OA
ENDBRANCH  67  68
ENDBRANCH  48  62
BRANCH  49  72
ATOM     72  C   UNL A   1      37.150  32.878  30.093  1.00  0.00    -0.014 A 
ATOM     73  C   UNL A   1      36.044  32.717  30.946  1.00  0.00     0.010 A 
ATOM     74  C   UNL A   1      37.042  33.741  28.988  1.00  0.00     0.010 A 
ATOM     75  C   UNL A   1      34.847  33.392  30.691  1.00  0.00     0.020 A 
ATOM     76  C   UNL A   1      35.854  34.436  28.743  1.00  0.00     0.020 A 
ATOM     77  C   UNL A   1      34.759  34.249  29.590  1.00  0.00     0.054 A 
BRANCH  77  78
ATOM     78  S   UNL A   1      33.214  35.157  29.309  1.00  0.00     0.124 S 
ATOM     79  O   UNL A   1      32.563  35.058  30.611  1.00  0.00    -0.237 OA
ATOM     80  O   UNL A   1      33.691  36.487  28.938  1.00  0.00    -0.237 OA
ATOM     81  O   UNL A   1      32.573  34.411  28.228  1.00  0.00    -0.744 OA
ENDBRANCH  77  78
ENDBRANCH  49  72
BRANCH  61  82
ATOM     82  C   UNL A   1      42.767  34.361  33.948  1.00  0.00    -0.014 A 
ATOM     83  C   UNL A   1      42.598  34.391  35.342  1.00  0.00     0.010 A 
ATOM     84  C   UNL A   1      43.385  35.449  33.304  1.00  0.00     0.010 A 
ATOM     85  C   UNL A   1      43.023  35.500  36.079  1.00  0.00     0.020 A 
ATOM     86  C   UNL A   1      43.832  36.547  34.040  1.00  0.00     0.020 A 
ATOM     87  C   UNL A   1      43.640  36.570  35.422  1.00  0.00     0.054 A 
BRANCH  87  88
ATOM     88  S   UNL A   1      44.241  37.969  36.407  1.00  0.00     0.124 S 
ATOM     89  O   UNL A   1      45.634  37.600  36.641  1.00  0.00    -0.237 OA
ATOM     90  O   UNL A   1      44.033  39.106  35.513  1.00  0.00    -0.237 OA
ATOM     91  O   UNL A   1      43.384  37.953  37.592  1.00  0.00    -0.744 OA
ENDBRANCH  87  88
ENDBRANCH  61  82
ENDBRANCH  35  36
ENDBRANCH  27  30
ENDBRANCH  25  26
ENDBRANCH  24  25
ENDBRANCH   1  24
TORSDOF 17
ENDMDL
MODEL 3
REMARK VINA RESULT:     -10.2      2.287      4.088
REMARK SMILES O=C(COc1ccc(F)cc1)Nc1sccc1C(=O)NCCCNC(=O)c1ccc(-c2c3nc(c(-c4ccc(S(=O)(=O)[O-])cc4)c4ccc([nH]4)c(-c4ccc(S(=O)(=O)[O-])cc4)c4nc(c(-c5ccc(S(=O)(=O)[O-])cc5)c5ccc2[nH]5)C=C4)C=C3)cc1
REMARK SMILES IDX 21 1 20 2 18 3 19 4 17 6 13 7 14 8 15 9 16 10 12 11 1 12
REMARK SMILES IDX 2 13 3 15 4 16 5 17 6 18 11 19 7 20 10 21 8 22 9 23 22 24
REMARK SMILES IDX 23 25 24 26 25 27 26 29 27 30 28 31 86 32 29 33 85 34 30 35
REMARK SMILES IDX 31 36 32 37 79 38 33 39 84 40 78 41 80 42 34 43 83 44 77 45
REMARK SMILES IDX 76 46 35 48 65 49 46 50 64 51 47 52 50 53 63 54 81 55 48 56
REMARK SMILES IDX 49 57 62 59 82 60 51 61 36 62 37 63 45 64 38 65 44 66 39 67
REMARK SMILES IDX 40 68 41 69 42 70 43 71 66 72 67 73 75 74 68 75 74 76 69 77
REMARK SMILES IDX 70 78 71 79 72 80 73 81 52 82 53 83 61 84 54 85 60 86 55 87
REMARK SMILES IDX 56 88 57 89 58 90 59 91
REMARK H PARENT 20 5 12 14 24 28 80 47 50 58
REMARK Flexibility Score: inf
ROOT
ATOM      1  C   UNL A   1      34.141  26.974  25.911  1.00  0.00     0.118 C 
ENDROOT
BRANCH   1   2
ATOM      2  N   UNL A   1      33.184  26.068  26.516  1.00  0.00    -0.352 N 
ATOM      3  C   UNL A   1      32.770  24.825  26.098  1.00  0.00     0.254 C 
ATOM      4  O   UNL A   1      31.911  24.250  26.771  1.00  0.00    -0.269 OA
ATOM      5  H   UNL A   1      32.770  26.391  27.349  1.00  0.00     0.163 HD
BRANCH   3   6
ATOM      6  C   UNL A   1      33.206  24.285  24.812  1.00  0.00     0.074 A 
ATOM      7  C   UNL A   1      32.629  24.411  23.563  1.00  0.00     0.108 A 
ATOM      8  S   UNL A   1      33.333  23.387  22.392  1.00  0.00    -0.126 S 
ATOM      9  C   UNL A   1      34.593  22.947  23.452  1.00  0.00     0.068 A 
ATOM     10  C   UNL A   1      34.409  23.489  24.702  1.00  0.00     0.028 A 
BRANCH   7  11
ATOM     11  N   UNL A   1      31.604  25.151  23.024  1.00  0.00    -0.314 N 
ATOM     12  O   UNL A   1      32.667  27.215  22.885  1.00  0.00    -0.271 OA
ATOM     13  C   UNL A   1      31.674  26.506  22.758  1.00  0.00     0.262 C 
ATOM     14  H   UNL A   1      30.763  24.685  22.814  1.00  0.00     0.170 HD
BRANCH  13  15
ATOM     15  C   UNL A   1      30.320  27.087  22.339  1.00  0.00     0.329 C 
BRANCH  15  16
ATOM     16  O   UNL A   1      30.426  28.401  21.785  1.00  0.00    -0.484 OA
BRANCH  16  17
ATOM     17  C   UNL A   1      29.535  29.256  22.369  1.00  0.00     0.120 A 
ATOM     18  C   UNL A   1      29.799  30.625  22.452  1.00  0.00     0.049 A 
ATOM     19  C   UNL A   1      28.321  28.734  22.811  1.00  0.00     0.049 A 
ATOM     20  C   UNL A   1      28.851  31.474  23.016  1.00  0.00     0.043 A 
ATOM     21  C   UNL A   1      27.375  29.588  23.379  1.00  0.00     0.043 A 
ATOM     22  C   UNL A   1      27.650  30.948  23.477  1.00  0.00     0.123 A 
ATOM     23  F   UNL A   1      26.739  31.769  24.017  1.00  0.00    -0.207 F 
ENDBRANCH  16  17
ENDBRANCH  15  16
ENDBRANCH  13  15
ENDBRANCH   7  11
ENDBRANCH   3   6
ENDBRANCH   1   2
BRANCH   1  24
ATOM     24  C   UNL A   1      33.770  28.441  25.995  1.00  0.00     0.042 C 
BRANCH  24  25
ATOM     25  C   UNL A   1      33.171  28.857  27.335  1.00  0.00     0.118 C 
BRANCH  25  26
ATOM     26  N   UNL A   1      33.389  30.260  27.689  1.00  0.00    -0.352 N 
ATOM     27  C   UNL A   1      34.478  30.927  28.207  1.00  0.00     0.251 C 
ATOM     28  H   UNL A   1      32.609  30.838  27.524  1.00  0.00     0.163 HD
ATOM     29  O   UNL A   1      34.354  32.105  28.537  1.00  0.00    -0.269 OA
BRANCH  27  30
ATOM     30  C   UNL A   1      35.771  30.234  28.421  1.00  0.00     0.039 A 
ATOM     31  C   UNL A   1      36.728  30.223  27.400  1.00  0.00     0.014 A 
ATOM     32  C   UNL A   1      36.060  29.607  29.629  1.00  0.00     0.014 A 
ATOM     33  C   UNL A   1      38.009  29.711  27.647  1.00  0.00     0.010 A 
ATOM     34  C   UNL A   1      37.366  29.234  29.920  1.00  0.00     0.010 A 
ATOM     35  C   UNL A   1      38.364  29.286  28.937  1.00  0.00    -0.014 A 
BRANCH  35  36
ATOM     36  C   UNL A   1      39.754  28.898  29.310  1.00  0.00     0.031 A 
ATOM     37  C   UNL A   1      40.665  29.910  29.963  1.00  0.00     0.074 A 
ATOM     38  C   UNL A   1      40.246  27.697  28.941  1.00  0.00     0.049 A 
ATOM     39  N   UNL A   1      41.959  29.859  30.150  1.00  0.00    -0.248 NA
ATOM     40  C   UNL A   1      40.045  31.167  30.414  1.00  0.00     0.031 C 
ATOM     41  C   UNL A   1      39.499  26.639  28.253  1.00  0.00     0.029 A 
ATOM     42  N   UNL A   1      41.508  27.169  29.075  1.00  0.00    -0.354 N 
ATOM     43  C   UNL A   1      42.312  31.095  30.679  1.00  0.00     0.074 A 
ATOM     44  C   UNL A   1      41.105  31.890  30.739  1.00  0.00     0.031 C 
ATOM     45  C   UNL A   1      40.304  25.582  28.058  1.00  0.00     0.029 A 
ATOM     46  C   UNL A   1      41.638  25.903  28.551  1.00  0.00     0.049 A 
ATOM     47  H   UNL A   1      42.250  27.651  29.506  1.00  0.00     0.167 HD
ATOM     48  C   UNL A   1      43.526  31.528  31.098  1.00  0.00     0.031 A 
ATOM     49  C   UNL A   1      42.712  25.094  28.461  1.00  0.00     0.031 A 
ATOM     50  C   UNL A   1      44.711  30.714  31.103  1.00  0.00     0.049 A 
ATOM     51  C   UNL A   1      44.036  25.571  28.987  1.00  0.00     0.074 A 
ATOM     52  C   UNL A   1      45.970  31.030  31.582  1.00  0.00     0.029 A 
ATOM     53  N   UNL A   1      44.777  29.414  30.626  1.00  0.00    -0.354 N 
ATOM     54  N   UNL A   1      44.341  26.731  29.516  1.00  0.00    -0.248 NA
ATOM     55  C   UNL A   1      45.161  24.628  28.910  1.00  0.00     0.031 C 
ATOM     56  C   UNL A   1      46.805  29.927  31.373  1.00  0.00     0.029 A 
ATOM     57  C   UNL A   1      46.054  28.914  30.799  1.00  0.00     0.049 A 
ATOM     58  H   UNL A   1      44.026  28.921  30.223  1.00  0.00     0.167 HD
ATOM     59  C   UNL A   1      45.685  26.647  29.863  1.00  0.00     0.074 A 
ATOM     60  C   UNL A   1      46.132  25.320  29.490  1.00  0.00     0.031 C 
ATOM     61  C   UNL A   1      46.476  27.585  30.436  1.00  0.00     0.031 A 
BRANCH  48  62
ATOM     62  C   UNL A   1      43.624  32.945  31.599  1.00  0.00    -0.014 A 
ATOM     63  C   UNL A   1      43.329  33.264  32.937  1.00  0.00     0.010 A 
ATOM     64  C   UNL A   1      44.033  33.970  30.728  1.00  0.00     0.010 A 
ATOM     65  C   UNL A   1      43.385  34.588  33.379  1.00  0.00     0.020 A 
ATOM     66  C   UNL A   1      44.121  35.292  31.173  1.00  0.00     0.020 A 
ATOM     67  C   UNL A   1      43.773  35.595  32.492  1.00  0.00     0.054 A 
BRANCH  67  68
ATOM     68  S   UNL A   1      43.845  37.305  33.092  1.00  0.00     0.124 S 
ATOM     69  O   UNL A   1      43.651  38.063  31.859  1.00  0.00    -0.237 OA
ATOM     70  O   UNL A   1      42.736  37.361  34.042  1.00  0.00    -0.237 OA
ATOM     71  O   UNL A   1      45.175  37.408  33.686  1.00  0.00    -0.744 OA
ENDBRANCH  67  68
ENDBRANCH  48  62
BRANCH  49  72
ATOM     72  C   UNL A   1      42.572  23.734  27.873  1.00  0.00    -0.014 A 
ATOM     73  C   UNL A   1      42.184  22.652  28.684  1.00  0.00     0.010 A 
ATOM     74  C   UNL A   1      42.805  23.513  26.504  1.00  0.00     0.010 A 
ATOM     75  C   UNL A   1      42.050  21.371  28.142  1.00  0.00     0.020 A 
ATOM     76  C   UNL A   1      42.649  22.237  25.953  1.00  0.00     0.020 A 
ATOM     77  C   UNL A   1      42.282  21.171  26.778  1.00  0.00     0.054 A 
BRANCH  77  78
ATOM     78  S   UNL A   1      42.047  19.511  26.084  1.00  0.00     0.124 S 
ATOM     79  O   UNL A   1      40.608  19.482  25.848  1.00  0.00    -0.237 OA
ATOM     80  O   UNL A   1      42.885  19.546  24.889  1.00  0.00    -0.237 OA
ATOM     81  O   UNL A   1      42.528  18.628  27.145  1.00  0.00    -0.744 OA
ENDBRANCH  77  78
ENDBRANCH  49  72
BRANCH  61  82
ATOM     82  C   UNL A   1      47.897  27.200  30.744  1.00  0.00    -0.014 A 
ATOM     83  C   UNL A   1      48.238  26.594  31.964  1.00  0.00     0.010 A 
ATOM     84  C   UNL A   1      48.889  27.381  29.763  1.00  0.00     0.010 A 
ATOM     85  C   UNL A   1      49.554  26.193  32.208  1.00  0.00     0.020 A 
ATOM     86  C   UNL A   1      50.199  26.961  29.993  1.00  0.00     0.020 A 
ATOM     87  C   UNL A   1      50.526  26.377  31.219  1.00  0.00     0.054 A 
BRANCH  87  88
ATOM     88  S   UNL A   1      52.214  25.790  31.532  1.00  0.00     0.124 S 
ATOM     89  O   UNL A   1      52.861  26.025  30.244  1.00  0.00    -0.237 OA
ATOM     90  O   UNL A   1      52.657  26.653  32.625  1.00  0.00    -0.237 OA
ATOM     91  O   UNL A   1      52.030  24.385  31.892  1.00  0.00    -0.744 OA
ENDBRANCH  87  88
ENDBRANCH  61  82
ENDBRANCH  35  36
ENDBRANCH  27  30
ENDBRANCH  25  26
ENDBRANCH  24  25
ENDBRANCH   1  24
TORSDOF 17
ENDMDL
