MODEL 1
REMARK VINA RESULT:     -11.5      0.000      0.000
REMARK SMILES CC[C@@H]1CC[C@](C[C@@H]2CCCc3ccccc32)(C(=O)NCCCNC(=O)c2ccc(-c3c4nc(c(-c5ccc(S(=O)(=O)[O-])cc5)c5ccc([nH]5)c(-c5ccc(S(=O)(=O)[O-])cc5)c5nc(c(-c6ccc(S(=O)(=O)[O-])cc6)c6ccc3[nH]6)C=C5)C=C4)cc2)C1
REMARK SMILES IDX 22 1 21 2 20 3 18 4 19 5 6 7 3 8 4 9 87 10 5 11 2 12 1 13
REMARK SMILES IDX 7 14 8 15 9 16 17 17 10 18 12 19 16 20 11 21 13 22 15 23
REMARK SMILES IDX 14 24 23 25 24 26 25 27 26 29 27 30 28 31 86 32 29 33 85 34
REMARK SMILES IDX 30 35 31 36 32 37 79 38 33 39 84 40 78 41 80 42 34 43 83 44
REMARK SMILES IDX 77 45 76 46 35 48 65 49 46 50 64 51 47 52 50 53 63 54 81 55
REMARK SMILES IDX 48 56 49 57 62 59 82 60 51 61 36 62 37 63 45 64 38 65 44 66
REMARK SMILES IDX 39 67 40 68 41 69 42 70 43 71 66 72 67 73 75 74 68 75 74 76
REMARK SMILES IDX 69 77 70 78 71 79 72 80 73 81 52 82 53 83 61 84 54 85 60 86
REMARK SMILES IDX 55 87 56 88 57 89 58 90 59 91
REMARK H PARENT 20 6 24 28 80 47 50 58
REMARK Flexibility Score: inf
ROOT
ATOM      1  C   UNL A   1      33.831  28.049  25.514  1.00  0.00     0.042 C 
ENDROOT
BRANCH   1   2
ATOM      2  C   UNL A   1      32.796  27.090  24.924  1.00  0.00     0.117 C 
BRANCH   2   3
ATOM      3  N   UNL A   1      33.150  26.664  23.580  1.00  0.00    -0.356 N 
ATOM      4  C   UNL A   1      33.707  25.528  23.081  1.00  0.00     0.226 C 
ATOM      5  O   UNL A   1      33.907  25.543  21.860  1.00  0.00    -0.274 OA
ATOM      6  H   UNL A   1      32.945  27.336  22.890  1.00  0.00     0.163 HD
BRANCH   4   7
ATOM      7  C   UNL A   1      33.924  24.232  23.924  1.00  0.00     0.050 C 
ATOM      8  C   UNL A   1      35.941  23.259  24.947  1.00  0.00    -0.010 C 
ATOM      9  C   UNL A   1      36.065  23.079  23.447  1.00  0.00     0.005 C 
ATOM     10  C   UNL A   1      34.964  24.426  25.034  1.00  0.00     0.020 C 
ATOM     11  C   UNL A   1      34.603  23.178  22.990  1.00  0.00     0.017 C 
BRANCH   8  12
ATOM     12  C   UNL A   1      37.234  23.539  25.716  1.00  0.00     0.000 C 
ATOM     13  C   UNL A   1      38.194  22.359  25.661  1.00  0.00     0.004 C 
ENDBRANCH   8  12
BRANCH   7  14
ATOM     14  C   UNL A   1      32.483  23.863  24.422  1.00  0.00     0.025 C 
BRANCH  14  15
ATOM     15  C   UNL A   1      32.088  22.747  25.439  1.00  0.00     0.020 C 
ATOM     16  C   UNL A   1      32.168  23.088  26.936  1.00  0.00     0.009 C 
ATOM     17  C   UNL A   1      32.600  21.364  25.132  1.00  0.00    -0.042 A 
ATOM     18  C   UNL A   1      33.455  22.689  27.637  1.00  0.00     0.005 C 
ATOM     19  C   UNL A   1      33.560  20.741  25.942  1.00  0.00    -0.045 A 
ATOM     20  C   UNL A   1      32.106  20.683  24.003  1.00  0.00     0.004 A 
ATOM     21  C   UNL A   1      33.961  21.289  27.287  1.00  0.00     0.036 C 
ATOM     22  C   UNL A   1      34.103  19.510  25.533  1.00  0.00     0.004 A 
ATOM     23  C   UNL A   1      32.612  19.437  23.640  1.00  0.00     0.000 A 
ATOM     24  C   UNL A   1      33.637  18.867  24.385  1.00  0.00     0.000 A 
ENDBRANCH  14  15
ENDBRANCH   7  14
ENDBRANCH   4   7
ENDBRANCH   2   3
ENDBRANCH   1   2
BRANCH   1  25
ATOM     25  C   UNL A   1      33.703  28.246  27.018  1.00  0.00     0.118 C 
BRANCH  25  26
ATOM     26  N   UNL A   1      33.510  29.642  27.371  1.00  0.00    -0.352 N 
ATOM     27  C   UNL A   1      34.331  30.486  28.073  1.00  0.00     0.251 C 
ATOM     28  H   UNL A   1      32.664  30.040  27.061  1.00  0.00     0.163 HD
ATOM     29  O   UNL A   1      33.877  31.563  28.473  1.00  0.00    -0.269 OA
BRANCH  27  30
ATOM     30  C   UNL A   1      35.736  30.122  28.365  1.00  0.00     0.039 A 
ATOM     31  C   UNL A   1      36.691  30.253  27.352  1.00  0.00     0.014 A 
ATOM     32  C   UNL A   1      36.115  29.604  29.607  1.00  0.00     0.014 A 
ATOM     33  C   UNL A   1      38.021  29.900  27.595  1.00  0.00     0.010 A 
ATOM     34  C   UNL A   1      37.455  29.338  29.877  1.00  0.00     0.010 A 
ATOM     35  C   UNL A   1      38.421  29.458  28.867  1.00  0.00    -0.014 A 
BRANCH  35  36
ATOM     36  C   UNL A   1      39.831  29.080  29.142  1.00  0.00     0.031 A 
ATOM     37  C   UNL A   1      40.773  30.076  29.771  1.00  0.00     0.074 A 
ATOM     38  C   UNL A   1      40.280  27.858  28.793  1.00  0.00     0.049 A 
ATOM     39  N   UNL A   1      42.043  29.945  30.057  1.00  0.00    -0.248 NA
ATOM     40  C   UNL A   1      40.221  31.403  30.095  1.00  0.00     0.031 C 
ATOM     41  C   UNL A   1      39.481  26.816  28.143  1.00  0.00     0.029 A 
ATOM     42  N   UNL A   1      41.519  27.284  28.933  1.00  0.00    -0.354 N 
ATOM     43  C   UNL A   1      42.445  31.172  30.576  1.00  0.00     0.074 A 
ATOM     44  C   UNL A   1      41.298  32.052  30.513  1.00  0.00     0.031 C 
ATOM     45  C   UNL A   1      40.240  25.722  27.971  1.00  0.00     0.029 A 
ATOM     46  C   UNL A   1      41.588  25.995  28.461  1.00  0.00     0.049 A 
ATOM     47  H   UNL A   1      42.286  27.753  29.335  1.00  0.00     0.167 HD
ATOM     48  C   UNL A   1      43.649  31.529  31.081  1.00  0.00     0.031 A 
ATOM     49  C   UNL A   1      42.619  25.129  28.421  1.00  0.00     0.031 A 
ATOM     50  C   UNL A   1      44.783  30.648  31.156  1.00  0.00     0.049 A 
ATOM     51  C   UNL A   1      43.949  25.548  28.989  1.00  0.00     0.074 A 
ATOM     52  C   UNL A   1      46.032  30.896  31.699  1.00  0.00     0.029 A 
ATOM     53  N   UNL A   1      44.808  29.347  30.677  1.00  0.00    -0.354 N 
ATOM     54  N   UNL A   1      44.290  26.693  29.531  1.00  0.00    -0.248 NA
ATOM     55  C   UNL A   1      45.028  24.552  28.953  1.00  0.00     0.031 C 
ATOM     56  C   UNL A   1      46.828  29.763  31.499  1.00  0.00     0.029 A 
ATOM     57  C   UNL A   1      46.055  28.787  30.892  1.00  0.00     0.049 A 
ATOM     58  H   UNL A   1      44.049  28.889  30.247  1.00  0.00     0.167 HD
ATOM     59  C   UNL A   1      45.614  26.543  29.931  1.00  0.00     0.074 A 
ATOM     60  C   UNL A   1      46.005  25.193  29.580  1.00  0.00     0.031 C 
ATOM     61  C   UNL A   1      46.430  27.441  30.538  1.00  0.00     0.031 A 
BRANCH  48  62
ATOM     62  C   UNL A   1      43.802  32.942  31.588  1.00  0.00    -0.014 A 
ATOM     63  C   UNL A   1      43.523  33.270  32.928  1.00  0.00     0.010 A 
ATOM     64  C   UNL A   1      44.263  33.951  30.722  1.00  0.00     0.010 A 
ATOM     65  C   UNL A   1      43.656  34.586  33.379  1.00  0.00     0.020 A 
ATOM     66  C   UNL A   1      44.428  35.262  31.177  1.00  0.00     0.020 A 
ATOM     67  C   UNL A   1      44.105  35.574  32.499  1.00  0.00     0.054 A 
BRANCH  67  68
ATOM     68  S   UNL A   1      44.287  37.270  33.117  1.00  0.00     0.124 S 
ATOM     69  O   UNL A   1      43.962  38.059  31.930  1.00  0.00    -0.237 OA
ATOM     70  O   UNL A   1      43.303  37.326  34.195  1.00  0.00    -0.237 OA
ATOM     71  O   UNL A   1      45.682  37.336  33.545  1.00  0.00    -0.744 OA
ENDBRANCH  67  68
ENDBRANCH  48  62
BRANCH  49  72
ATOM     72  C   UNL A   1      42.427  23.768  27.846  1.00  0.00    -0.014 A 
ATOM     73  C   UNL A   1      42.707  23.518  26.492  1.00  0.00     0.010 A 
ATOM     74  C   UNL A   1      41.974  22.711  28.656  1.00  0.00     0.010 A 
ATOM     75  C   UNL A   1      42.520  22.242  25.952  1.00  0.00     0.020 A 
ATOM     76  C   UNL A   1      41.814  21.427  28.128  1.00  0.00     0.020 A 
ATOM     77  C   UNL A   1      42.076  21.203  26.776  1.00  0.00     0.054 A 
BRANCH  77  78
ATOM     78  S   UNL A   1      41.890  19.543  26.067  1.00  0.00     0.124 S 
ATOM     79  O   UNL A   1      42.333  18.692  27.166  1.00  0.00    -0.237 OA
ATOM     80  O   UNL A   1      40.464  19.490  25.759  1.00  0.00    -0.237 OA
ATOM     81  O   UNL A   1      42.770  19.570  24.900  1.00  0.00    -0.744 OA
ENDBRANCH  77  78
ENDBRANCH  49  72
BRANCH  61  82
ATOM     82  C   UNL A   1      47.817  26.979  30.904  1.00  0.00    -0.014 A 
ATOM     83  C   UNL A   1      48.047  26.171  32.031  1.00  0.00     0.010 A 
ATOM     84  C   UNL A   1      48.900  27.329  30.077  1.00  0.00     0.010 A 
ATOM     85  C   UNL A   1      49.344  25.753  32.346  1.00  0.00     0.020 A 
ATOM     86  C   UNL A   1      50.192  26.887  30.372  1.00  0.00     0.020 A 
ATOM     87  C   UNL A   1      50.409  26.116  31.515  1.00  0.00     0.054 A 
BRANCH  87  88
ATOM     88  S   UNL A   1      52.076  25.535  31.928  1.00  0.00     0.124 S 
ATOM     89  O   UNL A   1      52.795  25.764  30.678  1.00  0.00    -0.237 OA
ATOM     90  O   UNL A   1      52.453  26.405  33.039  1.00  0.00    -0.237 OA
ATOM     91  O   UNL A   1      51.876  24.132  32.283  1.00  0.00    -0.744 OA
ENDBRANCH  87  88
ENDBRANCH  61  82
ENDBRANCH  35  36
ENDBRANCH  27  30
ENDBRANCH  25  26
ENDBRANCH   1  25
TORSDOF 16
ENDMDL
MODEL 2
REMARK VINA RESULT:     -11.0      2.571      3.165
REMARK SMILES CC[C@@H]1CC[C@](C[C@@H]2CCCc3ccccc32)(C(=O)NCCCNC(=O)c2ccc(-c3c4nc(c(-c5ccc(S(=O)(=O)[O-])cc5)c5ccc([nH]5)c(-c5ccc(S(=O)(=O)[O-])cc5)c5nc(c(-c6ccc(S(=O)(=O)[O-])cc6)c6ccc3[nH]6)C=C5)C=C4)cc2)C1
REMARK SMILES IDX 22 1 21 2 20 3 18 4 19 5 6 7 3 8 4 9 87 10 5 11 2 12 1 13
REMARK SMILES IDX 7 14 8 15 9 16 17 17 10 18 12 19 16 20 11 21 13 22 15 23
REMARK SMILES IDX 14 24 23 25 24 26 25 27 26 29 27 30 28 31 86 32 29 33 85 34
REMARK SMILES IDX 30 35 31 36 32 37 79 38 33 39 84 40 78 41 80 42 34 43 83 44
REMARK SMILES IDX 77 45 76 46 35 48 65 49 46 50 64 51 47 52 50 53 63 54 81 55
REMARK SMILES IDX 48 56 49 57 62 59 82 60 51 61 36 62 37 63 45 64 38 65 44 66
REMARK SMILES IDX 39 67 40 68 41 69 42 70 43 71 66 72 67 73 75 74 68 75 74 76
REMARK SMILES IDX 69 77 70 78 71 79 72 80 73 81 52 82 53 83 61 84 54 85 60 86
REMARK SMILES IDX 55 87 56 88 57 89 58 90 59 91
REMARK H PARENT 20 6 24 28 80 47 50 58
REMARK Flexibility Score: inf
ROOT
ATOM      1  C   UNL A   1      33.870  28.416  24.956  1.00  0.00     0.042 C 
ENDROOT
BRANCH   1   2
ATOM      2  C   UNL A   1      32.959  27.228  24.645  1.00  0.00     0.117 C 
BRANCH   2   3
ATOM      3  N   UNL A   1      33.191  26.695  23.314  1.00  0.00    -0.356 N 
ATOM      4  C   UNL A   1      33.666  25.505  22.858  1.00  0.00     0.226 C 
ATOM      5  O   UNL A   1      33.771  25.427  21.627  1.00  0.00    -0.274 OA
ATOM      6  H   UNL A   1      32.958  27.326  22.594  1.00  0.00     0.163 HD
BRANCH   4   7
ATOM      7  C   UNL A   1      33.900  24.263  23.773  1.00  0.00     0.050 C 
ATOM      8  C   UNL A   1      35.941  23.341  24.797  1.00  0.00    -0.010 C 
ATOM      9  C   UNL A   1      36.020  23.066  23.307  1.00  0.00     0.005 C 
ATOM     10  C   UNL A   1      34.974  24.518  24.838  1.00  0.00     0.020 C 
ATOM     11  C   UNL A   1      34.545  23.148  22.888  1.00  0.00     0.017 C 
BRANCH   8  12
ATOM     12  C   UNL A   1      37.258  23.659  25.509  1.00  0.00     0.000 C 
ATOM     13  C   UNL A   1      38.032  22.396  25.862  1.00  0.00     0.004 C 
ENDBRANCH   8  12
BRANCH   7  14
ATOM     14  C   UNL A   1      32.473  23.936  24.335  1.00  0.00     0.025 C 
BRANCH  14  15
ATOM     15  C   UNL A   1      32.087  22.818  25.354  1.00  0.00     0.020 C 
ATOM     16  C   UNL A   1      32.193  23.151  26.850  1.00  0.00     0.009 C 
ATOM     17  C   UNL A   1      32.586  21.433  25.032  1.00  0.00    -0.042 A 
ATOM     18  C   UNL A   1      33.488  22.741  27.529  1.00  0.00     0.005 C 
ATOM     19  C   UNL A   1      33.555  20.800  25.823  1.00  0.00    -0.045 A 
ATOM     20  C   UNL A   1      32.070  20.761  23.907  1.00  0.00     0.004 A 
ATOM     21  C   UNL A   1      33.980  21.340  27.165  1.00  0.00     0.036 C 
ATOM     22  C   UNL A   1      34.084  19.569  25.400  1.00  0.00     0.004 A 
ATOM     23  C   UNL A   1      32.563  19.514  23.531  1.00  0.00     0.000 A 
ATOM     24  C   UNL A   1      33.596  18.934  24.257  1.00  0.00     0.000 A 
ENDBRANCH  14  15
ENDBRANCH   7  14
ENDBRANCH   4   7
ENDBRANCH   2   3
ENDBRANCH   1   2
BRANCH   1  25
ATOM     25  C   UNL A   1      33.973  28.744  26.440  1.00  0.00     0.118 C 
BRANCH  25  26
ATOM     26  N   UNL A   1      33.742  30.153  26.705  1.00  0.00    -0.352 N 
ATOM     27  C   UNL A   1      34.379  30.992  27.582  1.00  0.00     0.251 C 
ATOM     28  H   UNL A   1      33.020  30.567  26.178  1.00  0.00     0.163 HD
ATOM     29  O   UNL A   1      33.874  32.092  27.830  1.00  0.00    -0.269 OA
BRANCH  27  30
ATOM     30  C   UNL A   1      35.647  30.597  28.237  1.00  0.00     0.039 A 
ATOM     31  C   UNL A   1      35.602  29.698  29.307  1.00  0.00     0.014 A 
ATOM     32  C   UNL A   1      36.874  31.142  27.845  1.00  0.00     0.014 A 
ATOM     33  C   UNL A   1      36.782  29.323  29.955  1.00  0.00     0.010 A 
ATOM     34  C   UNL A   1      38.057  30.699  28.431  1.00  0.00     0.010 A 
ATOM     35  C   UNL A   1      38.025  29.803  29.509  1.00  0.00    -0.014 A 
BRANCH  35  36
ATOM     36  C   UNL A   1      39.288  29.413  30.187  1.00  0.00     0.031 A 
ATOM     37  C   UNL A   1      39.731  30.135  31.435  1.00  0.00     0.074 A 
ATOM     38  C   UNL A   1      40.060  28.441  29.663  1.00  0.00     0.049 A 
ATOM     39  N   UNL A   1      40.814  29.963  32.148  1.00  0.00    -0.248 NA
ATOM     40  C   UNL A   1      38.854  31.210  31.931  1.00  0.00     0.031 C 
ATOM     41  C   UNL A   1      39.764  27.691  28.439  1.00  0.00     0.029 A 
ATOM     42  N   UNL A   1      41.253  27.914  30.092  1.00  0.00    -0.354 N 
ATOM     43  C   UNL A   1      40.758  30.914  33.162  1.00  0.00     0.074 A 
ATOM     44  C   UNL A   1      39.563  31.697  32.938  1.00  0.00     0.031 C 
ATOM     45  C   UNL A   1      40.731  26.782  28.235  1.00  0.00     0.029 A 
ATOM     46  C   UNL A   1      41.734  26.908  29.288  1.00  0.00     0.049 A 
ATOM     47  H   UNL A   1      41.719  28.227  30.901  1.00  0.00     0.167 HD
ATOM     48  C   UNL A   1      41.608  31.105  34.198  1.00  0.00     0.031 A 
ATOM     49  C   UNL A   1      42.859  26.171  29.382  1.00  0.00     0.031 A 
ATOM     50  C   UNL A   1      42.788  30.316  34.427  1.00  0.00     0.049 A 
ATOM     51  C   UNL A   1      43.789  26.402  30.542  1.00  0.00     0.074 A 
ATOM     52  C   UNL A   1      43.688  30.394  35.476  1.00  0.00     0.029 A 
ATOM     53  N   UNL A   1      43.234  29.299  33.594  1.00  0.00    -0.354 N 
ATOM     54  N   UNL A   1      43.685  27.266  31.524  1.00  0.00    -0.248 NA
ATOM     55  C   UNL A   1      44.980  25.546  30.616  1.00  0.00     0.031 C 
ATOM     56  C   UNL A   1      44.705  29.461  35.250  1.00  0.00     0.029 A 
ATOM     57  C   UNL A   1      44.406  28.758  34.095  1.00  0.00     0.049 A 
ATOM     58  H   UNL A   1      42.783  29.007  32.769  1.00  0.00     0.167 HD
ATOM     59  C   UNL A   1      44.781  27.035  32.350  1.00  0.00     0.074 A 
ATOM     60  C   UNL A   1      45.525  25.941  31.758  1.00  0.00     0.031 C 
ATOM     61  C   UNL A   1      45.135  27.668  33.495  1.00  0.00     0.031 A 
BRANCH  48  62
ATOM     62  C   UNL A   1      41.293  32.222  35.163  1.00  0.00    -0.014 A 
ATOM     63  C   UNL A   1      41.822  33.513  34.982  1.00  0.00     0.010 A 
ATOM     64  C   UNL A   1      40.427  31.986  36.247  1.00  0.00     0.010 A 
ATOM     65  C   UNL A   1      41.532  34.533  35.892  1.00  0.00     0.020 A 
ATOM     66  C   UNL A   1      40.107  33.012  37.141  1.00  0.00     0.020 A 
ATOM     67  C   UNL A   1      40.678  34.274  36.968  1.00  0.00     0.054 A 
BRANCH  67  68
ATOM     68  S   UNL A   1      40.302  35.623  38.122  1.00  0.00     0.124 S 
ATOM     69  O   UNL A   1      39.908  36.696  37.211  1.00  0.00    -0.237 OA
ATOM     70  O   UNL A   1      39.225  35.061  38.932  1.00  0.00    -0.237 OA
ATOM     71  O   UNL A   1      41.562  35.839  38.827  1.00  0.00    -0.744 OA
ENDBRANCH  67  68
ENDBRANCH  48  62
BRANCH  49  72
ATOM     72  C   UNL A   1      43.152  25.128  28.361  1.00  0.00    -0.014 A 
ATOM     73  C   UNL A   1      42.798  23.786  28.586  1.00  0.00     0.010 A 
ATOM     74  C   UNL A   1      43.777  25.474  27.150  1.00  0.00     0.010 A 
ATOM     75  C   UNL A   1      43.081  22.806  27.629  1.00  0.00     0.020 A 
ATOM     76  C   UNL A   1      44.035  24.503  26.177  1.00  0.00     0.020 A 
ATOM     77  C   UNL A   1      43.696  23.173  26.429  1.00  0.00     0.054 A 
BRANCH  77  78
ATOM     78  S   UNL A   1      44.006  21.894  25.179  1.00  0.00     0.124 S 
ATOM     79  O   UNL A   1      45.341  21.430  25.544  1.00  0.00    -0.237 OA
ATOM     80  O   UNL A   1      42.919  20.949  25.419  1.00  0.00    -0.237 OA
ATOM     81  O   UNL A   1      43.919  22.623  23.915  1.00  0.00    -0.744 OA
ENDBRANCH  77  78
ENDBRANCH  49  72
BRANCH  61  82
ATOM     82  C   UNL A   1      46.360  27.166  34.214  1.00  0.00    -0.014 A 
ATOM     83  C   UNL A   1      46.280  26.138  35.170  1.00  0.00     0.010 A 
ATOM     84  C   UNL A   1      47.619  27.705  33.891  1.00  0.00     0.010 A 
ATOM     85  C   UNL A   1      47.433  25.687  35.820  1.00  0.00     0.020 A 
ATOM     86  C   UNL A   1      48.777  27.236  34.514  1.00  0.00     0.020 A 
ATOM     87  C   UNL A   1      48.675  26.241  35.489  1.00  0.00     0.054 A 
BRANCH  87  88
ATOM     88  S   UNL A   1      50.159  25.617  36.322  1.00  0.00     0.124 S 
ATOM     89  O   UNL A   1      49.612  25.107  37.576  1.00  0.00    -0.237 OA
ATOM     90  O   UNL A   1      50.648  24.603  35.391  1.00  0.00    -0.237 OA
ATOM     91  O   UNL A   1      51.009  26.799  36.449  1.00  0.00    -0.744 OA
ENDBRANCH  87  88
ENDBRANCH  61  82
ENDBRANCH  35  36
ENDBRANCH  27  30
ENDBRANCH  25  26
ENDBRANCH   1  25
TORSDOF 16
ENDMDL
MODEL 3
REMARK VINA RESULT:     -10.7      2.921      9.179
REMARK SMILES CC[C@@H]1CC[C@](C[C@@H]2CCCc3ccccc32)(C(=O)NCCCNC(=O)c2ccc(-c3c4nc(c(-c5ccc(S(=O)(=O)[O-])cc5)c5ccc([nH]5)c(-c5ccc(S(=O)(=O)[O-])cc5)c5nc(c(-c6ccc(S(=O)(=O)[O-])cc6)c6ccc3[nH]6)C=C5)C=C4)cc2)C1
REMARK SMILES IDX 22 1 21 2 20 3 18 4 19 5 6 7 3 8 4 9 87 10 5 11 2 12 1 13
REMARK SMILES IDX 7 14 8 15 9 16 17 17 10 18 12 19 16 20 11 21 13 22 15 23
REMARK SMILES IDX 14 24 23 25 24 26 25 27 26 29 27 30 28 31 86 32 29 33 85 34
REMARK SMILES IDX 30 35 31 36 32 37 79 38 33 39 84 40 78 41 80 42 34 43 83 44
REMARK SMILES IDX 77 45 76 46 35 48 65 49 46 50 64 51 47 52 50 53 63 54 81 55
REMARK SMILES IDX 48 56 49 57 62 59 82 60 51 61 36 62 37 63 45 64 38 65 44 66
REMARK SMILES IDX 39 67 40 68 41 69 42 70 43 71 66 72 67 73 75 74 68 75 74 76
REMARK SMILES IDX 69 77 70 78 71 79 72 80 73 81 52 82 53 83 61 84 54 85 60 86
REMARK SMILES IDX 55 87 56 88 57 89 58 90 59 91
REMARK H PARENT 20 6 24 28 80 47 50 58
REMARK Flexibility Score: inf
ROOT
ATOM      1  C   UNL A   1      35.725  23.307  26.372  1.00  0.00     0.042 C 
ENDROOT
BRANCH   1   2
ATOM      2  C   UNL A   1      34.479  23.386  25.489  1.00  0.00     0.117 C 
BRANCH   2   3
ATOM      3  N   UNL A   1      33.255  23.398  26.272  1.00  0.00    -0.356 N 
ATOM      4  C   UNL A   1      32.314  24.349  26.513  1.00  0.00     0.226 C 
ATOM      5  O   UNL A   1      31.413  24.002  27.287  1.00  0.00    -0.274 OA
ATOM      6  H   UNL A   1      33.070  22.541  26.722  1.00  0.00     0.163 HD
BRANCH   4   7
ATOM      7  C   UNL A   1      32.252  25.712  25.755  1.00  0.00     0.050 C 
ATOM      8  C   UNL A   1      32.891  27.993  26.427  1.00  0.00    -0.010 C 
ATOM      9  C   UNL A   1      31.638  27.630  27.200  1.00  0.00     0.005 C 
ATOM     10  C   UNL A   1      33.446  26.617  26.084  1.00  0.00     0.020 C 
ATOM     11  C   UNL A   1      31.040  26.512  26.333  1.00  0.00     0.017 C 
BRANCH   8  12
ATOM     12  C   UNL A   1      33.921  28.860  27.155  1.00  0.00     0.000 C 
ATOM     13  C   UNL A   1      33.696  30.344  26.901  1.00  0.00     0.004 C 
ENDBRANCH   8  12
BRANCH   7  14
ATOM     14  C   UNL A   1      32.129  25.298  24.248  1.00  0.00     0.025 C 
BRANCH  14  15
ATOM     15  C   UNL A   1      32.109  26.240  23.003  1.00  0.00     0.020 C 
ATOM     16  C   UNL A   1      33.461  26.641  22.392  1.00  0.00     0.009 C 
ATOM     17  C   UNL A   1      31.135  27.389  23.062  1.00  0.00    -0.042 A 
ATOM     18  C   UNL A   1      34.031  27.967  22.865  1.00  0.00     0.005 C 
ATOM     19  C   UNL A   1      31.574  28.718  23.145  1.00  0.00    -0.045 A 
ATOM     20  C   UNL A   1      29.753  27.120  23.038  1.00  0.00     0.004 A 
ATOM     21  C   UNL A   1      33.014  29.107  22.936  1.00  0.00     0.036 C 
ATOM     22  C   UNL A   1      30.626  29.738  23.337  1.00  0.00     0.004 A 
ATOM     23  C   UNL A   1      28.822  28.148  23.171  1.00  0.00     0.000 A 
ATOM     24  C   UNL A   1      29.260  29.454  23.357  1.00  0.00     0.000 A 
ENDBRANCH  14  15
ENDBRANCH   7  14
ENDBRANCH   4   7
ENDBRANCH   2   3
ENDBRANCH   1   2
BRANCH   1  25
ATOM     25  C   UNL A   1      37.034  23.371  25.598  1.00  0.00     0.118 C 
BRANCH  25  26
ATOM     26  N   UNL A   1      37.932  22.285  25.953  1.00  0.00    -0.352 N 
ATOM     27  C   UNL A   1      39.232  22.334  26.386  1.00  0.00     0.251 C 
ATOM     28  H   UNL A   1      37.551  21.381  25.870  1.00  0.00     0.163 HD
ATOM     29  O   UNL A   1      39.895  21.292  26.403  1.00  0.00    -0.269 OA
BRANCH  27  30
ATOM     30  C   UNL A   1      39.849  23.609  26.819  1.00  0.00     0.039 A 
ATOM     31  C   UNL A   1      40.478  23.664  28.067  1.00  0.00     0.014 A 
ATOM     32  C   UNL A   1      39.769  24.764  26.035  1.00  0.00     0.014 A 
ATOM     33  C   UNL A   1      41.052  24.859  28.508  1.00  0.00     0.010 A 
ATOM     34  C   UNL A   1      40.419  25.929  26.435  1.00  0.00     0.010 A 
ATOM     35  C   UNL A   1      41.047  25.999  27.687  1.00  0.00    -0.014 A 
BRANCH  35  36
ATOM     36  C   UNL A   1      41.654  27.277  28.141  1.00  0.00     0.031 A 
ATOM     37  C   UNL A   1      43.150  27.464  28.089  1.00  0.00     0.074 A 
ATOM     38  C   UNL A   1      40.871  28.255  28.636  1.00  0.00     0.049 A 
ATOM     39  N   UNL A   1      43.867  28.490  28.470  1.00  0.00    -0.248 NA
ATOM     40  C   UNL A   1      43.946  26.339  27.567  1.00  0.00     0.031 C 
ATOM     41  C   UNL A   1      39.414  28.185  28.776  1.00  0.00     0.029 A 
ATOM     42  N   UNL A   1      41.188  29.501  29.116  1.00  0.00    -0.354 N 
ATOM     43  C   UNL A   1      45.193  28.130  28.250  1.00  0.00     0.074 A 
ATOM     44  C   UNL A   1      45.184  26.770  27.757  1.00  0.00     0.031 C 
ATOM     45  C   UNL A   1      38.963  29.347  29.275  1.00  0.00     0.029 A 
ATOM     46  C   UNL A   1      40.097  30.230  29.527  1.00  0.00     0.049 A 
ATOM     47  H   UNL A   1      42.112  29.841  29.161  1.00  0.00     0.167 HD
ATOM     48  C   UNL A   1      46.316  28.868  28.421  1.00  0.00     0.031 A 
ATOM     49  C   UNL A   1      40.016  31.468  30.053  1.00  0.00     0.031 A 
ATOM     50  C   UNL A   1      46.321  30.225  28.898  1.00  0.00     0.049 A 
ATOM     51  C   UNL A   1      41.277  32.270  30.233  1.00  0.00     0.074 A 
ATOM     52  C   UNL A   1      47.400  31.078  29.055  1.00  0.00     0.029 A 
ATOM     53  N   UNL A   1      45.193  30.929  29.292  1.00  0.00    -0.354 N 
ATOM     54  N   UNL A   1      42.516  31.932  29.962  1.00  0.00    -0.248 NA
ATOM     55  C   UNL A   1      41.127  33.627  30.775  1.00  0.00     0.031 C 
ATOM     56  C   UNL A   1      46.930  32.280  29.596  1.00  0.00     0.029 A 
ATOM     57  C   UNL A   1      45.552  32.199  29.713  1.00  0.00     0.049 A 
ATOM     58  H   UNL A   1      44.274  30.578  29.276  1.00  0.00     0.167 HD
ATOM     59  C   UNL A   1      43.289  33.048  30.270  1.00  0.00     0.074 A 
ATOM     60  C   UNL A   1      42.376  34.072  30.734  1.00  0.00     0.031 C 
ATOM     61  C   UNL A   1      44.632  33.209  30.172  1.00  0.00     0.031 A 
BRANCH  48  62
ATOM     62  C   UNL A   1      47.636  28.216  28.093  1.00  0.00    -0.014 A 
ATOM     63  C   UNL A   1      48.171  28.266  26.792  1.00  0.00     0.010 A 
ATOM     64  C   UNL A   1      48.370  27.573  29.106  1.00  0.00     0.010 A 
ATOM     65  C   UNL A   1      49.388  27.645  26.501  1.00  0.00     0.020 A 
ATOM     66  C   UNL A   1      49.605  26.978  28.827  1.00  0.00     0.020 A 
ATOM     67  C   UNL A   1      50.096  27.003  27.521  1.00  0.00     0.054 A 
BRANCH  67  68
ATOM     68  S   UNL A   1      51.684  26.223  27.118  1.00  0.00     0.124 S 
ATOM     69  O   UNL A   1      52.403  26.336  28.386  1.00  0.00    -0.237 OA
ATOM     70  O   UNL A   1      51.289  24.868  26.740  1.00  0.00    -0.237 OA
ATOM     71  O   UNL A   1      52.208  27.043  26.030  1.00  0.00    -0.744 OA
ENDBRANCH  67  68
ENDBRANCH  48  62
BRANCH  49  72
ATOM     72  C   UNL A   1      38.689  32.035  30.421  1.00  0.00    -0.014 A 
ATOM     73  C   UNL A   1      37.969  32.824  29.507  1.00  0.00     0.010 A 
ATOM     74  C   UNL A   1      38.133  31.778  31.687  1.00  0.00     0.010 A 
ATOM     75  C   UNL A   1      36.726  33.361  29.857  1.00  0.00     0.020 A 
ATOM     76  C   UNL A   1      36.877  32.287  32.031  1.00  0.00     0.020 A 
ATOM     77  C   UNL A   1      36.188  33.086  31.118  1.00  0.00     0.054 A 
BRANCH  77  78
ATOM     78  S   UNL A   1      34.550  33.750  31.532  1.00  0.00     0.124 S 
ATOM     79  O   UNL A   1      33.926  33.861  30.217  1.00  0.00    -0.237 OA
ATOM     80  O   UNL A   1      34.004  32.718  32.407  1.00  0.00    -0.237 OA
ATOM     81  O   UNL A   1      34.853  35.019  32.191  1.00  0.00    -0.744 OA
ENDBRANCH  77  78
ENDBRANCH  49  72
BRANCH  61  82
ATOM     82  C   UNL A   1      45.195  34.559  30.532  1.00  0.00    -0.014 A 
ATOM     83  C   UNL A   1      45.557  34.874  31.853  1.00  0.00     0.010 A 
ATOM     84  C   UNL A   1      45.406  35.511  29.518  1.00  0.00     0.010 A 
ATOM     85  C   UNL A   1      46.082  36.133  32.160  1.00  0.00     0.020 A 
ATOM     86  C   UNL A   1      45.959  36.758  29.815  1.00  0.00     0.020 A 
ATOM     87  C   UNL A   1      46.278  37.069  31.138  1.00  0.00     0.054 A 
BRANCH  87  88
ATOM     88  S   UNL A   1      46.990  38.683  31.556  1.00  0.00     0.124 S 
ATOM     89  O   UNL A   1      47.050  38.619  33.013  1.00  0.00    -0.237 OA
ATOM     90  O   UNL A   1      48.280  38.652  30.871  1.00  0.00    -0.237 OA
ATOM     91  O   UNL A   1      46.026  39.638  31.014  1.00  0.00    -0.744 OA
ENDBRANCH  87  88
ENDBRANCH  61  82
ENDBRANCH  35  36
ENDBRANCH  27  30
ENDBRANCH  25  26
ENDBRANCH   1  25
TORSDOF 16
ENDMDL
