MODEL 1
REMARK VINA RESULT:      -9.7      0.000      0.000
REMARK SMILES CS(=O)(=O)c1ccc(N2N=C(C(=O)NCCCNC(=O)c3ccc(-c4c5nc(c(-c6ccc(S(=O)(=O)[O-])cc6)c6ccc([nH]6)c(-c6ccc(S(=O)(=O)[O-])cc6)c6nc(c(-c7ccc(S(=O)(=O)[O-])cc7)c7ccc4[nH]7)C=C6)C=C5)cc3)C[C@H]2c2cccs2)cc1
REMARK SMILES IDX 16 1 15 2 14 3 12 4 13 5 11 7 9 8 10 9 82 10 81 11 8 12 5 13
REMARK SMILES IDX 6 14 89 15 7 16 88 17 2 18 1 19 3 20 4 21 83 22 84 23 87 24
REMARK SMILES IDX 85 25 86 26 17 27 18 28 19 29 20 31 21 32 22 33 80 34 23 35
REMARK SMILES IDX 79 36 24 37 25 38 26 39 73 40 27 41 78 42 72 43 74 44 28 45
REMARK SMILES IDX 77 46 71 47 70 48 29 50 59 51 40 52 58 53 41 54 44 55 57 56
REMARK SMILES IDX 75 57 42 58 43 59 56 61 76 62 45 63 30 64 31 65 39 66 32 67
REMARK SMILES IDX 38 68 33 69 34 70 35 71 36 72 37 73 60 74 61 75 69 76 62 77
REMARK SMILES IDX 68 78 63 79 64 80 65 81 66 82 67 83 46 84 47 85 55 86 48 87
REMARK SMILES IDX 54 88 49 89 50 90 51 91 52 92 53 93
REMARK H PARENT 14 6 18 30 74 49 44 60
REMARK Flexibility Score: inf
ROOT
ATOM      1  C   UNL A   1      34.011  33.488  28.824  1.00  0.00     0.042 C 
ENDROOT
BRANCH   1   2
ATOM      2  C   UNL A   1      34.919  33.237  30.018  1.00  0.00     0.118 C 
BRANCH   2   3
ATOM      3  N   UNL A   1      34.188  33.312  31.268  1.00  0.00    -0.351 N 
ATOM      4  C   UNL A   1      34.528  33.244  32.594  1.00  0.00     0.267 C 
ATOM      5  O   UNL A   1      33.609  33.281  33.410  1.00  0.00    -0.268 OA
ATOM      6  H   UNL A   1      33.222  33.444  31.133  1.00  0.00     0.163 HD
BRANCH   4   7
ATOM      7  C   UNL A   1      35.955  33.175  33.116  1.00  0.00     0.128 C 
ATOM      8  N   UNL A   1      37.803  32.291  33.688  1.00  0.00    -0.256 N 
ATOM      9  N   UNL A   1      36.619  32.057  33.074  1.00  0.00    -0.171 NA
ATOM     10  C   UNL A   1      37.983  33.661  34.163  1.00  0.00     0.154 C 
ATOM     11  C   UNL A   1      36.711  34.346  33.654  1.00  0.00     0.097 C 
BRANCH   8  12
ATOM     12  C   UNL A   1      38.811  31.341  33.690  1.00  0.00     0.060 A 
ATOM     13  C   UNL A   1      40.773  29.344  33.831  1.00  0.00     0.067 A 
ATOM     14  C   UNL A   1      41.093  30.654  34.194  1.00  0.00     0.022 A 
ATOM     15  C   UNL A   1      39.505  29.031  33.347  1.00  0.00     0.022 A 
ATOM     16  C   UNL A   1      40.110  31.648  34.116  1.00  0.00     0.029 A 
ATOM     17  C   UNL A   1      38.538  30.030  33.277  1.00  0.00     0.029 A 
BRANCH  13  18
ATOM     18  S   UNL A   1      41.982  28.051  33.946  1.00  0.00     0.175 S 
ATOM     19  C   UNL A   1      43.070  28.634  35.220  1.00  0.00     0.163 C 
ATOM     20  O   UNL A   1      42.728  28.019  32.701  1.00  0.00    -0.224 OA
ATOM     21  O   UNL A   1      41.310  26.865  34.441  1.00  0.00    -0.224 OA
ENDBRANCH  13  18
ENDBRANCH   8  12
BRANCH  10  22
ATOM     22  C   UNL A   1      38.238  33.823  35.659  1.00  0.00     0.030 A 
ATOM     23  C   UNL A   1      37.496  33.261  36.686  1.00  0.00     0.017 A 
ATOM     24  S   UNL A   1      39.483  34.822  36.301  1.00  0.00    -0.147 S 
ATOM     25  C   UNL A   1      37.965  33.628  37.979  1.00  0.00     0.012 A 
ATOM     26  C   UNL A   1      39.077  34.431  37.911  1.00  0.00     0.065 A 
ENDBRANCH  10  22
ENDBRANCH   4   7
ENDBRANCH   2   3
ENDBRANCH   1   2
BRANCH   1  27
ATOM     27  C   UNL A   1      34.372  32.617  27.628  1.00  0.00     0.118 C 
BRANCH  27  28
ATOM     28  N   UNL A   1      33.706  31.319  27.681  1.00  0.00    -0.352 N 
ATOM     29  C   UNL A   1      34.229  30.054  27.783  1.00  0.00     0.251 C 
ATOM     30  H   UNL A   1      32.723  31.357  27.636  1.00  0.00     0.163 HD
ATOM     31  O   UNL A   1      33.513  29.086  27.544  1.00  0.00    -0.269 OA
BRANCH  29  32
ATOM     32  C   UNL A   1      35.642  29.862  28.168  1.00  0.00     0.039 A 
ATOM     33  C   UNL A   1      35.948  29.538  29.492  1.00  0.00     0.014 A 
ATOM     34  C   UNL A   1      36.664  30.022  27.231  1.00  0.00     0.014 A 
ATOM     35  C   UNL A   1      37.277  29.307  29.855  1.00  0.00     0.010 A 
ATOM     36  C   UNL A   1      37.971  29.692  27.569  1.00  0.00     0.010 A 
ATOM     37  C   UNL A   1      38.294  29.342  28.887  1.00  0.00    -0.014 A 
BRANCH  37  38
ATOM     38  C   UNL A   1      39.703  29.024  29.229  1.00  0.00     0.031 A 
ATOM     39  C   UNL A   1      40.578  30.073  29.864  1.00  0.00     0.074 A 
ATOM     40  C   UNL A   1      40.211  27.817  28.907  1.00  0.00     0.049 A 
ATOM     41  N   UNL A   1      41.850  30.013  30.161  1.00  0.00    -0.248 NA
ATOM     42  C   UNL A   1      39.951  31.368  30.181  1.00  0.00     0.031 C 
ATOM     43  C   UNL A   1      39.474  26.733  28.251  1.00  0.00     0.029 A 
ATOM     44  N   UNL A   1      41.470  27.301  29.082  1.00  0.00    -0.354 N 
ATOM     45  C   UNL A   1      42.175  31.258  30.686  1.00  0.00     0.074 A 
ATOM     46  C   UNL A   1      40.985  32.075  30.612  1.00  0.00     0.031 C 
ATOM     47  C   UNL A   1      40.286  25.674  28.106  1.00  0.00     0.029 A 
ATOM     48  C   UNL A   1      41.611  26.016  28.611  1.00  0.00     0.049 A 
ATOM     49  H   UNL A   1      42.204  27.803  29.505  1.00  0.00     0.167 HD
ATOM     50  C   UNL A   1      43.352  31.678  31.207  1.00  0.00     0.031 A 
ATOM     51  C   UNL A   1      42.689  25.209  28.577  1.00  0.00     0.031 A 
ATOM     52  C   UNL A   1      44.530  30.857  31.292  1.00  0.00     0.049 A 
ATOM     53  C   UNL A   1      43.992  25.708  29.142  1.00  0.00     0.074 A 
ATOM     54  C   UNL A   1      45.760  31.174  31.844  1.00  0.00     0.029 A 
ATOM     55  N   UNL A   1      44.628  29.559  30.814  1.00  0.00    -0.354 N 
ATOM     56  N   UNL A   1      44.261  26.869  29.691  1.00  0.00    -0.248 NA
ATOM     57  C   UNL A   1      45.132  24.784  29.097  1.00  0.00     0.031 C 
ATOM     58  C   UNL A   1      46.617  30.087  31.650  1.00  0.00     0.029 A 
ATOM     59  C   UNL A   1      45.903  29.068  31.039  1.00  0.00     0.049 A 
ATOM     60  H   UNL A   1      43.899  29.061  30.379  1.00  0.00     0.167 HD
ATOM     61  C   UNL A   1      45.592  26.802  30.084  1.00  0.00     0.074 A 
ATOM     62  C   UNL A   1      46.067  25.480  29.728  1.00  0.00     0.031 C 
ATOM     63  C   UNL A   1      46.356  27.747  30.686  1.00  0.00     0.031 A 
BRANCH  50  64
ATOM     64  C   UNL A   1      43.425  33.086  31.738  1.00  0.00    -0.014 A 
ATOM     65  C   UNL A   1      43.188  33.361  33.096  1.00  0.00     0.010 A 
ATOM     66  C   UNL A   1      43.800  34.139  30.883  1.00  0.00     0.010 A 
ATOM     67  C   UNL A   1      43.300  34.665  33.587  1.00  0.00     0.020 A 
ATOM     68  C   UNL A   1      43.941  35.440  31.376  1.00  0.00     0.020 A 
ATOM     69  C   UNL A   1      43.680  35.696  32.723  1.00  0.00     0.054 A 
BRANCH  69  70
ATOM     70  S   UNL A   1      43.867  37.367  33.400  1.00  0.00     0.124 S 
ATOM     71  O   UNL A   1      43.826  38.188  32.192  1.00  0.00    -0.237 OA
ATOM     72  O   UNL A   1      42.706  37.486  34.280  1.00  0.00    -0.237 OA
ATOM     73  O   UNL A   1      45.159  37.325  34.080  1.00  0.00    -0.744 OA
ENDBRANCH  69  70
ENDBRANCH  50  64
BRANCH  51  74
ATOM     74  C   UNL A   1      42.588  23.845  27.984  1.00  0.00    -0.014 A 
ATOM     75  C   UNL A   1      42.933  23.620  26.640  1.00  0.00     0.010 A 
ATOM     76  C   UNL A   1      42.129  22.766  28.761  1.00  0.00     0.010 A 
ATOM     77  C   UNL A   1      42.786  22.350  26.073  1.00  0.00     0.020 A 
ATOM     78  C   UNL A   1      42.013  21.488  28.209  1.00  0.00     0.020 A 
ATOM     79  C   UNL A   1      42.324  21.292  26.862  1.00  0.00     0.054 A 
BRANCH  79  80
ATOM     80  S   UNL A   1      42.160  19.648  26.113  1.00  0.00     0.124 S 
ATOM     81  O   UNL A   1      43.055  19.746  24.965  1.00  0.00    -0.237 OA
ATOM     82  O   UNL A   1      42.601  18.765  27.190  1.00  0.00    -0.237 OA
ATOM     83  O   UNL A   1      40.736  19.561  25.792  1.00  0.00    -0.744 OA
ENDBRANCH  79  80
ENDBRANCH  51  74
BRANCH  63  84
ATOM     84  C   UNL A   1      47.770  27.375  31.043  1.00  0.00    -0.014 A 
ATOM     85  C   UNL A   1      48.837  27.619  30.159  1.00  0.00     0.010 A 
ATOM     86  C   UNL A   1      48.041  26.824  32.309  1.00  0.00     0.010 A 
ATOM     87  C   UNL A   1      50.144  27.286  30.524  1.00  0.00     0.020 A 
ATOM     88  C   UNL A   1      49.349  26.520  32.689  1.00  0.00     0.020 A 
ATOM     89  C   UNL A   1      50.392  26.739  31.788  1.00  0.00     0.054 A 
BRANCH  89  90
ATOM     90  S   UNL A   1      52.102  26.357  32.252  1.00  0.00     0.124 S 
ATOM     91  O   UNL A   1      51.920  25.298  33.240  1.00  0.00    -0.237 OA
ATOM     92  O   UNL A   1      52.691  25.937  30.982  1.00  0.00    -0.237 OA
ATOM     93  O   UNL A   1      52.610  27.621  32.779  1.00  0.00    -0.744 OA
ENDBRANCH  89  90
ENDBRANCH  63  84
ENDBRANCH  37  38
ENDBRANCH  29  32
ENDBRANCH  27  28
ENDBRANCH   1  27
TORSDOF 16
ENDMDL
MODEL 2
REMARK VINA RESULT:      -9.4      2.002      3.117
REMARK SMILES CS(=O)(=O)c1ccc(N2N=C(C(=O)NCCCNC(=O)c3ccc(-c4c5nc(c(-c6ccc(S(=O)(=O)[O-])cc6)c6ccc([nH]6)c(-c6ccc(S(=O)(=O)[O-])cc6)c6nc(c(-c7ccc(S(=O)(=O)[O-])cc7)c7ccc4[nH]7)C=C6)C=C5)cc3)C[C@H]2c2cccs2)cc1
REMARK SMILES IDX 16 1 15 2 14 3 12 4 13 5 11 7 9 8 10 9 82 10 81 11 8 12 5 13
REMARK SMILES IDX 6 14 89 15 7 16 88 17 2 18 1 19 3 20 4 21 83 22 84 23 87 24
REMARK SMILES IDX 85 25 86 26 17 27 18 28 19 29 20 31 21 32 22 33 80 34 23 35
REMARK SMILES IDX 79 36 24 37 25 38 26 39 73 40 27 41 78 42 72 43 74 44 28 45
REMARK SMILES IDX 77 46 71 47 70 48 29 50 59 51 40 52 58 53 41 54 44 55 57 56
REMARK SMILES IDX 75 57 42 58 43 59 56 61 76 62 45 63 30 64 31 65 39 66 32 67
REMARK SMILES IDX 38 68 33 69 34 70 35 71 36 72 37 73 60 74 61 75 69 76 62 77
REMARK SMILES IDX 68 78 63 79 64 80 65 81 66 82 67 83 46 84 47 85 55 86 48 87
REMARK SMILES IDX 54 88 49 89 50 90 51 91 52 92 53 93
REMARK H PARENT 14 6 18 30 74 49 44 60
REMARK Flexibility Score: inf
ROOT
ATOM      1  C   UNL A   1      33.687  33.689  28.636  1.00  0.00     0.042 C 
ENDROOT
BRANCH   1   2
ATOM      2  C   UNL A   1      34.000  34.796  29.631  1.00  0.00     0.118 C 
BRANCH   2   3
ATOM      3  N   UNL A   1      33.559  34.450  30.968  1.00  0.00    -0.351 N 
ATOM      4  C   UNL A   1      34.186  34.074  32.127  1.00  0.00     0.267 C 
ATOM      5  O   UNL A   1      33.470  33.784  33.083  1.00  0.00    -0.268 OA
ATOM      6  H   UNL A   1      32.581  34.496  31.067  1.00  0.00     0.163 HD
BRANCH   4   7
ATOM      7  C   UNL A   1      35.695  34.040  32.320  1.00  0.00     0.128 C 
ATOM      8  N   UNL A   1      37.751  34.042  31.776  1.00  0.00    -0.256 N 
ATOM      9  N   UNL A   1      36.493  34.221  31.308  1.00  0.00    -0.171 NA
ATOM     10  C   UNL A   1      37.834  33.745  33.203  1.00  0.00     0.154 C 
ATOM     11  C   UNL A   1      36.371  33.858  33.639  1.00  0.00     0.097 C 
BRANCH   8  12
ATOM     12  C   UNL A   1      38.856  34.303  30.982  1.00  0.00     0.060 A 
ATOM     13  C   UNL A   1      41.078  35.001  29.422  1.00  0.00     0.067 A 
ATOM     14  C   UNL A   1      39.876  34.656  28.798  1.00  0.00     0.022 A 
ATOM     15  C   UNL A   1      41.199  34.947  30.809  1.00  0.00     0.022 A 
ATOM     16  C   UNL A   1      38.772  34.304  29.583  1.00  0.00     0.029 A 
ATOM     17  C   UNL A   1      40.091  34.596  31.575  1.00  0.00     0.029 A 
BRANCH  13  18
ATOM     18  S   UNL A   1      42.490  35.483  28.464  1.00  0.00     0.175 S 
ATOM     19  C   UNL A   1      43.252  36.728  29.473  1.00  0.00     0.163 C 
ATOM     20  O   UNL A   1      42.016  36.121  27.249  1.00  0.00    -0.224 OA
ATOM     21  O   UNL A   1      43.389  34.346  28.404  1.00  0.00    -0.224 OA
ENDBRANCH  13  18
ENDBRANCH   8  12
BRANCH  10  22
ATOM     22  C   UNL A   1      38.509  32.428  33.575  1.00  0.00     0.030 A 
ATOM     23  C   UNL A   1      39.720  32.281  34.234  1.00  0.00     0.017 A 
ATOM     24  S   UNL A   1      37.873  30.888  33.146  1.00  0.00    -0.147 S 
ATOM     25  C   UNL A   1      40.100  30.919  34.406  1.00  0.00     0.012 A 
ATOM     26  C   UNL A   1      39.153  30.057  33.907  1.00  0.00     0.065 A 
ENDBRANCH  10  22
ENDBRANCH   4   7
ENDBRANCH   2   3
ENDBRANCH   1   2
BRANCH   1  27
ATOM     27  C   UNL A   1      34.571  32.465  28.835  1.00  0.00     0.118 C 
BRANCH  27  28
ATOM     28  N   UNL A   1      34.037  31.292  28.150  1.00  0.00    -0.352 N 
ATOM     29  C   UNL A   1      34.671  30.161  27.697  1.00  0.00     0.251 C 
ATOM     30  H   UNL A   1      33.067  31.314  27.987  1.00  0.00     0.163 HD
ATOM     31  O   UNL A   1      34.086  29.417  26.915  1.00  0.00    -0.269 OA
BRANCH  29  32
ATOM     32  C   UNL A   1      36.044  29.850  28.140  1.00  0.00     0.039 A 
ATOM     33  C   UNL A   1      36.248  29.357  29.431  1.00  0.00     0.014 A 
ATOM     34  C   UNL A   1      37.132  30.063  27.292  1.00  0.00     0.014 A 
ATOM     35  C   UNL A   1      37.538  29.014  29.843  1.00  0.00     0.010 A 
ATOM     36  C   UNL A   1      38.398  29.626  27.665  1.00  0.00     0.010 A 
ATOM     37  C   UNL A   1      38.617  29.107  28.948  1.00  0.00    -0.014 A 
BRANCH  37  38
ATOM     38  C   UNL A   1      39.983  28.676  29.333  1.00  0.00     0.031 A 
ATOM     39  C   UNL A   1      40.893  29.626  30.067  1.00  0.00     0.074 A 
ATOM     40  C   UNL A   1      40.428  27.458  28.962  1.00  0.00     0.049 A 
ATOM     41  N   UNL A   1      42.143  29.464  30.417  1.00  0.00    -0.248 NA
ATOM     42  C   UNL A   1      40.336  30.941  30.433  1.00  0.00     0.031 C 
ATOM     43  C   UNL A   1      39.655  26.465  28.211  1.00  0.00     0.029 A 
ATOM     44  N   UNL A   1      41.641  26.849  29.162  1.00  0.00    -0.354 N 
ATOM     45  C   UNL A   1      42.522  30.653  31.029  1.00  0.00     0.074 A 
ATOM     46  C   UNL A   1      41.392  31.550  30.951  1.00  0.00     0.031 C 
ATOM     47  C   UNL A   1      40.402  25.363  28.039  1.00  0.00     0.029 A 
ATOM     48  C   UNL A   1      41.721  25.586  28.622  1.00  0.00     0.049 A 
ATOM     49  H   UNL A   1      42.384  27.275  29.646  1.00  0.00     0.167 HD
ATOM     50  C   UNL A   1      43.697  30.961  31.626  1.00  0.00     0.031 A 
ATOM     51  C   UNL A   1      42.745  24.711  28.588  1.00  0.00     0.031 A 
ATOM     52  C   UNL A   1      44.814  30.060  31.714  1.00  0.00     0.049 A 
ATOM     53  C   UNL A   1      44.048  25.089  29.240  1.00  0.00     0.074 A 
ATOM     54  C   UNL A   1      46.033  30.261  32.339  1.00  0.00     0.029 A 
ATOM     55  N   UNL A   1      44.851  28.788  31.165  1.00  0.00    -0.354 N 
ATOM     56  N   UNL A   1      44.365  26.196  29.868  1.00  0.00    -0.248 NA
ATOM     57  C   UNL A   1      45.127  24.094  29.190  1.00  0.00     0.031 C 
ATOM     58  C   UNL A   1      46.827  29.131  32.118  1.00  0.00     0.029 A 
ATOM     59  C   UNL A   1      46.079  28.199  31.416  1.00  0.00     0.049 A 
ATOM     60  H   UNL A   1      44.113  28.365  30.669  1.00  0.00     0.167 HD
ATOM     61  C   UNL A   1      45.668  26.017  30.315  1.00  0.00     0.074 A 
ATOM     62  C   UNL A   1      46.073  24.688  29.903  1.00  0.00     0.031 C 
ATOM     63  C   UNL A   1      46.462  26.873  31.006  1.00  0.00     0.031 A 
BRANCH  50  64
ATOM     64  C   UNL A   1      43.835  32.329  32.242  1.00  0.00    -0.014 A 
ATOM     65  C   UNL A   1      44.435  33.385  31.534  1.00  0.00     0.010 A 
ATOM     66  C   UNL A   1      43.297  32.582  33.518  1.00  0.00     0.010 A 
ATOM     67  C   UNL A   1      44.520  34.661  32.098  1.00  0.00     0.020 A 
ATOM     68  C   UNL A   1      43.354  33.864  34.074  1.00  0.00     0.020 A 
ATOM     69  C   UNL A   1      43.974  34.893  33.364  1.00  0.00     0.054 A 
BRANCH  69  70
ATOM     70  S   UNL A   1      44.053  36.570  34.046  1.00  0.00     0.124 S 
ATOM     71  O   UNL A   1      43.428  37.356  32.986  1.00  0.00    -0.237 OA
ATOM     72  O   UNL A   1      43.278  36.449  35.279  1.00  0.00    -0.237 OA
ATOM     73  O   UNL A   1      45.483  36.803  34.233  1.00  0.00    -0.744 OA
ENDBRANCH  69  70
ENDBRANCH  50  64
BRANCH  51  74
ATOM     74  C   UNL A   1      42.584  23.393  27.912  1.00  0.00    -0.014 A 
ATOM     75  C   UNL A   1      41.940  22.326  28.562  1.00  0.00     0.010 A 
ATOM     76  C   UNL A   1      43.092  23.195  26.614  1.00  0.00     0.010 A 
ATOM     77  C   UNL A   1      41.840  21.075  27.945  1.00  0.00     0.020 A 
ATOM     78  C   UNL A   1      42.963  21.957  25.980  1.00  0.00     0.020 A 
ATOM     79  C   UNL A   1      42.354  20.899  26.657  1.00  0.00     0.054 A 
BRANCH  79  80
ATOM     80  S   UNL A   1      42.195  19.274  25.866  1.00  0.00     0.124 S 
ATOM     81  O   UNL A   1      40.756  19.182  25.646  1.00  0.00    -0.237 OA
ATOM     82  O   UNL A   1      43.013  19.427  24.665  1.00  0.00    -0.237 OA
ATOM     83  O   UNL A   1      42.737  18.354  26.865  1.00  0.00    -0.744 OA
ENDBRANCH  79  80
ENDBRANCH  51  74
BRANCH  63  84
ATOM     84  C   UNL A   1      47.830  26.387  31.403  1.00  0.00    -0.014 A 
ATOM     85  C   UNL A   1      48.056  25.772  32.647  1.00  0.00     0.010 A 
ATOM     86  C   UNL A   1      48.894  26.498  30.489  1.00  0.00     0.010 A 
ATOM     87  C   UNL A   1      49.331  25.308  32.981  1.00  0.00     0.020 A 
ATOM     88  C   UNL A   1      50.162  26.006  30.807  1.00  0.00     0.020 A 
ATOM     89  C   UNL A   1      50.376  25.427  32.059  1.00  0.00     0.054 A 
BRANCH  89  90
ATOM     90  S   UNL A   1      52.008  24.777  32.502  1.00  0.00     0.124 S 
ATOM     91  O   UNL A   1      51.814  23.338  32.351  1.00  0.00    -0.237 OA
ATOM     92  O   UNL A   1      52.880  25.400  31.509  1.00  0.00    -0.237 OA
ATOM     93  O   UNL A   1      52.206  25.239  33.874  1.00  0.00    -0.744 OA
ENDBRANCH  89  90
ENDBRANCH  63  84
ENDBRANCH  37  38
ENDBRANCH  29  32
ENDBRANCH  27  28
ENDBRANCH   1  27
TORSDOF 16
ENDMDL
MODEL 3
REMARK VINA RESULT:      -9.1      3.297     10.110
REMARK SMILES CS(=O)(=O)c1ccc(N2N=C(C(=O)NCCCNC(=O)c3ccc(-c4c5nc(c(-c6ccc(S(=O)(=O)[O-])cc6)c6ccc([nH]6)c(-c6ccc(S(=O)(=O)[O-])cc6)c6nc(c(-c7ccc(S(=O)(=O)[O-])cc7)c7ccc4[nH]7)C=C6)C=C5)cc3)C[C@H]2c2cccs2)cc1
REMARK SMILES IDX 16 1 15 2 14 3 12 4 13 5 11 7 9 8 10 9 82 10 81 11 8 12 5 13
REMARK SMILES IDX 6 14 89 15 7 16 88 17 2 18 1 19 3 20 4 21 83 22 84 23 87 24
REMARK SMILES IDX 85 25 86 26 17 27 18 28 19 29 20 31 21 32 22 33 80 34 23 35
REMARK SMILES IDX 79 36 24 37 25 38 26 39 73 40 27 41 78 42 72 43 74 44 28 45
REMARK SMILES IDX 77 46 71 47 70 48 29 50 59 51 40 52 58 53 41 54 44 55 57 56
REMARK SMILES IDX 75 57 42 58 43 59 56 61 76 62 45 63 30 64 31 65 39 66 32 67
REMARK SMILES IDX 38 68 33 69 34 70 35 71 36 72 37 73 60 74 61 75 69 76 62 77
REMARK SMILES IDX 68 78 63 79 64 80 65 81 66 82 67 83 46 84 47 85 55 86 48 87
REMARK SMILES IDX 54 88 49 89 50 90 51 91 52 92 53 93
REMARK H PARENT 14 6 18 30 74 49 44 60
REMARK Flexibility Score: inf
ROOT
ATOM      1  C   UNL A   1      41.775  21.368  26.235  1.00  0.00     0.042 C 
ENDROOT
BRANCH   1   2
ATOM      2  C   UNL A   1      42.404  22.684  25.803  1.00  0.00     0.118 C 
BRANCH   2   3
ATOM      3  N   UNL A   1      43.274  22.506  24.656  1.00  0.00    -0.351 N 
ATOM      4  C   UNL A   1      44.430  23.096  24.217  1.00  0.00     0.267 C 
ATOM      5  O   UNL A   1      44.871  22.726  23.131  1.00  0.00    -0.268 OA
ATOM      6  H   UNL A   1      42.961  21.795  24.052  1.00  0.00     0.163 HD
BRANCH   4   7
ATOM      7  C   UNL A   1      45.220  24.134  25.001  1.00  0.00     0.128 C 
ATOM      8  N   UNL A   1      45.647  26.003  25.922  1.00  0.00    -0.256 N 
ATOM      9  N   UNL A   1      44.678  25.271  25.323  1.00  0.00    -0.171 NA
ATOM     10  C   UNL A   1      46.933  25.323  26.048  1.00  0.00     0.154 C 
ATOM     11  C   UNL A   1      46.614  23.930  25.499  1.00  0.00     0.097 C 
BRANCH   8  12
ATOM     12  C   UNL A   1      45.362  27.221  26.517  1.00  0.00     0.060 A 
ATOM     13  C   UNL A   1      44.772  29.754  27.561  1.00  0.00     0.067 A 
ATOM     14  C   UNL A   1      46.068  29.246  27.672  1.00  0.00     0.022 A 
ATOM     15  C   UNL A   1      43.757  28.992  26.988  1.00  0.00     0.022 A 
ATOM     16  C   UNL A   1      46.355  27.978  27.153  1.00  0.00     0.029 A 
ATOM     17  C   UNL A   1      44.059  27.733  26.475  1.00  0.00     0.029 A 
BRANCH  13  18
ATOM     18  S   UNL A   1      44.376  31.369  28.179  1.00  0.00     0.175 S 
ATOM     19  C   UNL A   1      44.386  32.370  26.714  1.00  0.00     0.163 C 
ATOM     20  O   UNL A   1      45.469  31.809  29.028  1.00  0.00    -0.224 OA
ATOM     21  O   UNL A   1      43.016  31.326  28.680  1.00  0.00    -0.224 OA
ENDBRANCH  13  18
ENDBRANCH   8  12
BRANCH  10  22
ATOM     22  C   UNL A   1      48.122  26.011  25.385  1.00  0.00     0.030 A 
ATOM     23  C   UNL A   1      49.402  26.127  25.905  1.00  0.00     0.017 A 
ATOM     24  S   UNL A   1      48.016  26.834  23.877  1.00  0.00    -0.147 S 
ATOM     25  C   UNL A   1      50.285  26.858  25.060  1.00  0.00     0.012 A 
ATOM     26  C   UNL A   1      49.669  27.252  23.896  1.00  0.00     0.065 A 
ENDBRANCH  10  22
ENDBRANCH   4   7
ENDBRANCH   2   3
ENDBRANCH   1   2
BRANCH   1  27
ATOM     27  C   UNL A   1      40.426  21.567  26.914  1.00  0.00     0.118 C 
BRANCH  27  28
ATOM     28  N   UNL A   1      39.397  21.983  25.966  1.00  0.00    -0.352 N 
ATOM     29  C   UNL A   1      38.667  23.144  25.899  1.00  0.00     0.251 C 
ATOM     30  H   UNL A   1      39.194  21.327  25.261  1.00  0.00     0.163 HD
ATOM     31  O   UNL A   1      37.669  23.186  25.185  1.00  0.00    -0.269 OA
BRANCH  29  32
ATOM     32  C   UNL A   1      39.075  24.326  26.685  1.00  0.00     0.039 A 
ATOM     33  C   UNL A   1      38.590  24.479  27.986  1.00  0.00     0.014 A 
ATOM     34  C   UNL A   1      39.916  25.294  26.132  1.00  0.00     0.014 A 
ATOM     35  C   UNL A   1      39.007  25.569  28.753  1.00  0.00     0.010 A 
ATOM     36  C   UNL A   1      40.410  26.319  26.929  1.00  0.00     0.010 A 
ATOM     37  C   UNL A   1      39.953  26.475  28.245  1.00  0.00    -0.014 A 
BRANCH  37  38
ATOM     38  C   UNL A   1      40.472  27.596  29.066  1.00  0.00     0.031 A 
ATOM     39  C   UNL A   1      39.638  28.835  29.263  1.00  0.00     0.074 A 
ATOM     40  C   UNL A   1      41.719  27.527  29.576  1.00  0.00     0.049 A 
ATOM     41  N   UNL A   1      39.949  29.947  29.876  1.00  0.00    -0.248 NA
ATOM     42  C   UNL A   1      38.288  28.835  28.671  1.00  0.00     0.031 C 
ATOM     43  C   UNL A   1      42.640  26.398  29.418  1.00  0.00     0.029 A 
ATOM     44  N   UNL A   1      42.430  28.430  30.326  1.00  0.00    -0.354 N 
ATOM     45  C   UNL A   1      38.845  30.779  29.733  1.00  0.00     0.074 A 
ATOM     46  C   UNL A   1      37.879  30.069  28.926  1.00  0.00     0.031 C 
ATOM     47  C   UNL A   1      43.781  26.664  30.074  1.00  0.00     0.029 A 
ATOM     48  C   UNL A   1      43.694  27.998  30.658  1.00  0.00     0.049 A 
ATOM     49  H   UNL A   1      42.070  29.304  30.601  1.00  0.00     0.167 HD
ATOM     50  C   UNL A   1      38.641  32.014  30.250  1.00  0.00     0.031 A 
ATOM     51  C   UNL A   1      44.677  28.613  31.343  1.00  0.00     0.031 A 
ATOM     52  C   UNL A   1      39.599  32.711  31.065  1.00  0.00     0.049 A 
ATOM     53  C   UNL A   1      44.433  29.995  31.887  1.00  0.00     0.074 A 
ATOM     54  C   UNL A   1      39.469  33.947  31.674  1.00  0.00     0.029 A 
ATOM     55  N   UNL A   1      40.861  32.235  31.386  1.00  0.00    -0.354 N 
ATOM     56  N   UNL A   1      43.357  30.739  31.793  1.00  0.00    -0.248 NA
ATOM     57  C   UNL A   1      45.530  30.615  32.642  1.00  0.00     0.031 C 
ATOM     58  C   UNL A   1      40.675  34.243  32.318  1.00  0.00     0.029 A 
ATOM     59  C   UNL A   1      41.529  33.162  32.168  1.00  0.00     0.049 A 
ATOM     60  H   UNL A   1      41.227  31.367  31.101  1.00  0.00     0.167 HD
ATOM     61  C   UNL A   1      43.637  31.901  32.503  1.00  0.00     0.074 A 
ATOM     62  C   UNL A   1      44.975  31.752  33.037  1.00  0.00     0.031 C 
ATOM     63  C   UNL A   1      42.858  32.994  32.697  1.00  0.00     0.031 A 
BRANCH  50  64
ATOM     64  C   UNL A   1      37.326  32.690  29.958  1.00  0.00    -0.014 A 
ATOM     65  C   UNL A   1      36.243  32.580  30.848  1.00  0.00     0.010 A 
ATOM     66  C   UNL A   1      37.192  33.501  28.816  1.00  0.00     0.010 A 
ATOM     67  C   UNL A   1      35.042  33.246  30.589  1.00  0.00     0.020 A 
ATOM     68  C   UNL A   1      36.002  34.193  28.569  1.00  0.00     0.020 A 
ATOM     69  C   UNL A   1      34.931  34.052  29.453  1.00  0.00     0.054 A 
BRANCH  69  70
ATOM     70  S   UNL A   1      33.378  34.945  29.172  1.00  0.00     0.124 S 
ATOM     71  O   UNL A   1      32.716  34.094  28.187  1.00  0.00    -0.237 OA
ATOM     72  O   UNL A   1      32.772  34.954  30.502  1.00  0.00    -0.237 OA
ATOM     73  O   UNL A   1      33.811  36.249  28.678  1.00  0.00    -0.744 OA
ENDBRANCH  69  70
ENDBRANCH  50  64
BRANCH  51  74
ATOM     74  C   UNL A   1      45.986  27.932  31.553  1.00  0.00    -0.014 A 
ATOM     75  C   UNL A   1      46.156  27.014  32.604  1.00  0.00     0.010 A 
ATOM     76  C   UNL A   1      47.076  28.212  30.709  1.00  0.00     0.010 A 
ATOM     77  C   UNL A   1      47.401  26.417  32.831  1.00  0.00     0.020 A 
ATOM     78  C   UNL A   1      48.312  27.592  30.911  1.00  0.00     0.020 A 
ATOM     79  C   UNL A   1      48.471  26.713  31.982  1.00  0.00     0.054 A 
BRANCH  79  80
ATOM     80  S   UNL A   1      50.072  25.912  32.281  1.00  0.00     0.124 S 
ATOM     81  O   UNL A   1      51.001  27.029  32.143  1.00  0.00    -0.237 OA
ATOM     82  O   UNL A   1      49.912  25.384  33.634  1.00  0.00    -0.237 OA
ATOM     83  O   UNL A   1      50.148  24.899  31.231  1.00  0.00    -0.744 OA
ENDBRANCH  79  80
ENDBRANCH  51  74
BRANCH  63  84
ATOM     84  C   UNL A   1      43.411  34.097  33.561  1.00  0.00    -0.014 A 
ATOM     85  C   UNL A   1      43.183  34.125  34.948  1.00  0.00     0.010 A 
ATOM     86  C   UNL A   1      44.220  35.090  32.978  1.00  0.00     0.010 A 
ATOM     87  C   UNL A   1      43.727  35.147  35.730  1.00  0.00     0.020 A 
ATOM     88  C   UNL A   1      44.792  36.094  33.762  1.00  0.00     0.020 A 
ATOM     89  C   UNL A   1      44.529  36.124  35.133  1.00  0.00     0.054 A 
BRANCH  89  90
ATOM     90  S   UNL A   1      45.258  37.413  36.178  1.00  0.00     0.124 S 
ATOM     91  O   UNL A   1      45.925  36.626  37.211  1.00  0.00    -0.237 OA
ATOM     92  O   UNL A   1      46.144  38.113  35.252  1.00  0.00    -0.237 OA
ATOM     93  O   UNL A   1      44.105  38.187  36.632  1.00  0.00    -0.744 OA
ENDBRANCH  89  90
ENDBRANCH  63  84
ENDBRANCH  37  38
ENDBRANCH  29  32
ENDBRANCH  27  28
ENDBRANCH   1  27
TORSDOF 16
ENDMDL
