MODEL 1
REMARK VINA RESULT:     -10.9      0.000      0.000
REMARK SMILES COc1ccc2cc([C@@H](C)C(=O)NCCCNC(=O)c3ccc(-c4c5nc(c(-c6ccc(S(=O)(=O)[O-])cc6)c6ccc([nH]6)c(-c6ccc(S(=O)(=O)[O-])cc6)c6nc(c(-c7ccc(S(=O)(=O)[O-])cc7)c7ccc4[nH]7)C=C6)C=C5)cc3)ccc2c1
REMARK SMILES IDX 15 1 14 2 13 3 11 4 12 5 9 7 10 8 8 9 3 10 4 11 83 12 5 13
REMARK SMILES IDX 82 14 6 15 81 16 7 17 80 18 2 19 1 20 16 21 17 22 18 23
REMARK SMILES IDX 19 25 20 26 21 27 79 28 22 29 78 30 23 31 24 32 25 33 72 34
REMARK SMILES IDX 26 35 77 36 71 37 73 38 27 39 76 40 70 41 69 42 28 44 58 45
REMARK SMILES IDX 39 46 57 47 40 48 43 49 56 50 74 51 41 52 42 53 55 55 75 56
REMARK SMILES IDX 44 57 29 58 30 59 38 60 31 61 37 62 32 63 33 64 34 65 35 66
REMARK SMILES IDX 36 67 59 68 60 69 68 70 61 71 67 72 62 73 63 74 64 75 65 76
REMARK SMILES IDX 66 77 45 78 46 79 54 80 47 81 53 82 48 83 49 84 50 85 51 86
REMARK SMILES IDX 52 87
REMARK H PARENT 13 6 17 24 73 43 43 54
REMARK Flexibility Score: inf
ROOT
ATOM      1  C   UNL A   1      33.253  27.510  26.521  1.00  0.00     0.042 C 
ENDROOT
BRANCH   1   2
ATOM      2  C   UNL A   1      31.762  27.573  26.195  1.00  0.00     0.117 C 
BRANCH   2   3
ATOM      3  N   UNL A   1      31.056  26.370  26.597  1.00  0.00    -0.356 N 
ATOM      4  C   UNL A   1      30.901  25.155  26.006  1.00  0.00     0.227 C 
ATOM      5  O   UNL A   1      30.179  24.348  26.607  1.00  0.00    -0.274 OA
ATOM      6  H   UNL A   1      30.601  26.449  27.467  1.00  0.00     0.163 HD
BRANCH   4   7
ATOM      7  C   UNL A   1      31.568  24.739  24.684  1.00  0.00     0.105 C 
ATOM      8  C   UNL A   1      30.597  24.312  23.585  1.00  0.00     0.023 C 
BRANCH   7   9
ATOM      9  C   UNL A   1      32.786  23.847  24.871  1.00  0.00    -0.035 A 
ATOM     10  C   UNL A   1      37.477  21.945  25.457  1.00  0.00     0.119 A 
ATOM     11  C   UNL A   1      37.544  23.284  25.831  1.00  0.00     0.047 A 
ATOM     12  C   UNL A   1      36.257  21.411  25.031  1.00  0.00     0.055 A 
ATOM     13  C   UNL A   1      36.387  24.069  25.830  1.00  0.00     0.012 A 
ATOM     14  C   UNL A   1      35.090  22.195  24.996  1.00  0.00    -0.015 A 
ATOM     15  C   UNL A   1      35.154  23.535  25.424  1.00  0.00    -0.018 A 
ATOM     16  C   UNL A   1      33.868  21.688  24.535  1.00  0.00     0.009 A 
ATOM     17  C   UNL A   1      33.990  24.322  25.406  1.00  0.00     0.013 A 
ATOM     18  C   UNL A   1      32.739  22.510  24.449  1.00  0.00     0.005 A 
BRANCH  10  19
ATOM     19  O   UNL A   1      38.530  21.074  25.439  1.00  0.00    -0.497 OA
ATOM     20  C   UNL A   1      39.680  21.459  26.189  1.00  0.00     0.278 C 
ENDBRANCH  10  19
ENDBRANCH   7   9
ENDBRANCH   4   7
ENDBRANCH   2   3
ENDBRANCH   1   2
BRANCH   1  21
ATOM     21  C   UNL A   1      34.095  28.554  25.798  1.00  0.00     0.118 C 
BRANCH  21  22
ATOM     22  N   UNL A   1      33.790  29.907  26.244  1.00  0.00    -0.352 N 
ATOM     23  C   UNL A   1      34.319  30.658  27.265  1.00  0.00     0.251 C 
ATOM     24  H   UNL A   1      33.086  30.359  25.725  1.00  0.00     0.163 HD
ATOM     25  O   UNL A   1      33.738  31.690  27.598  1.00  0.00    -0.269 OA
BRANCH  23  26
ATOM     26  C   UNL A   1      35.558  30.253  27.974  1.00  0.00     0.039 A 
ATOM     27  C   UNL A   1      36.789  30.446  27.337  1.00  0.00     0.014 A 
ATOM     28  C   UNL A   1      35.523  29.617  29.217  1.00  0.00     0.014 A 
ATOM     29  C   UNL A   1      37.978  30.054  27.964  1.00  0.00     0.010 A 
ATOM     30  C   UNL A   1      36.712  29.294  29.875  1.00  0.00     0.010 A 
ATOM     31  C   UNL A   1      37.952  29.500  29.253  1.00  0.00    -0.014 A 
BRANCH  31  32
ATOM     32  C   UNL A   1      39.204  29.120  29.962  1.00  0.00     0.031 A 
ATOM     33  C   UNL A   1      39.666  29.903  31.164  1.00  0.00     0.074 A 
ATOM     34  C   UNL A   1      39.965  28.116  29.482  1.00  0.00     0.049 A 
ATOM     35  N   UNL A   1      40.775  29.783  31.849  1.00  0.00    -0.248 NA
ATOM     36  C   UNL A   1      38.779  30.976  31.643  1.00  0.00     0.031 C 
ATOM     37  C   UNL A   1      39.656  27.304  28.302  1.00  0.00     0.029 A 
ATOM     38  N   UNL A   1      41.169  27.618  29.919  1.00  0.00    -0.354 N 
ATOM     39  C   UNL A   1      40.733  30.780  32.817  1.00  0.00     0.074 A 
ATOM     40  C   UNL A   1      39.504  31.515  32.614  1.00  0.00     0.031 C 
ATOM     41  C   UNL A   1      40.637  26.407  28.114  1.00  0.00     0.029 A 
ATOM     42  C   UNL A   1      41.663  26.602  29.134  1.00  0.00     0.049 A 
ATOM     43  H   UNL A   1      41.634  27.956  30.717  1.00  0.00     0.167 HD
ATOM     44  C   UNL A   1      41.630  31.053  33.796  1.00  0.00     0.031 A 
ATOM     45  C   UNL A   1      42.820  25.914  29.213  1.00  0.00     0.031 A 
ATOM     46  C   UNL A   1      42.837  30.303  34.020  1.00  0.00     0.049 A 
ATOM     47  C   UNL A   1      43.790  26.223  30.319  1.00  0.00     0.074 A 
ATOM     48  C   UNL A   1      43.770  30.458  35.032  1.00  0.00     0.029 A 
ATOM     49  N   UNL A   1      43.281  29.257  33.226  1.00  0.00    -0.354 N 
ATOM     50  N   UNL A   1      43.696  27.127  31.266  1.00  0.00    -0.248 NA
ATOM     51  C   UNL A   1      45.014  25.412  30.376  1.00  0.00     0.031 C 
ATOM     52  C   UNL A   1      44.799  29.535  34.824  1.00  0.00     0.029 A 
ATOM     53  C   UNL A   1      44.483  28.772  33.712  1.00  0.00     0.049 A 
ATOM     54  H   UNL A   1      42.810  28.911  32.433  1.00  0.00     0.167 HD
ATOM     55  C   UNL A   1      44.840  26.979  32.041  1.00  0.00     0.074 A 
ATOM     56  C   UNL A   1      45.601  25.888  31.467  1.00  0.00     0.031 C 
ATOM     57  C   UNL A   1      45.227  27.685  33.132  1.00  0.00     0.031 A 
BRANCH  44  58
ATOM     58  C   UNL A   1      41.343  32.216  34.707  1.00  0.00    -0.014 A 
ATOM     59  C   UNL A   1      41.798  33.510  34.399  1.00  0.00     0.010 A 
ATOM     60  C   UNL A   1      40.547  32.025  35.852  1.00  0.00     0.010 A 
ATOM     61  C   UNL A   1      41.489  34.587  35.235  1.00  0.00     0.020 A 
ATOM     62  C   UNL A   1      40.216  33.103  36.678  1.00  0.00     0.020 A 
ATOM     63  C   UNL A   1      40.700  34.376  36.370  1.00  0.00     0.054 A 
BRANCH  63  64
ATOM     64  S   UNL A   1      40.278  35.798  37.414  1.00  0.00     0.124 S 
ATOM     65  O   UNL A   1      41.582  36.171  37.956  1.00  0.00    -0.237 OA
ATOM     66  O   UNL A   1      39.704  36.741  36.456  1.00  0.00    -0.237 OA
ATOM     67  O   UNL A   1      39.333  35.249  38.384  1.00  0.00    -0.744 OA
ENDBRANCH  63  64
ENDBRANCH  44  58
BRANCH  45  68
ATOM     68  C   UNL A   1      43.129  24.865  28.204  1.00  0.00    -0.014 A 
ATOM     69  C   UNL A   1      42.689  23.543  28.389  1.00  0.00     0.010 A 
ATOM     70  C   UNL A   1      43.866  25.187  27.050  1.00  0.00     0.010 A 
ATOM     71  C   UNL A   1      42.997  22.556  27.449  1.00  0.00     0.020 A 
ATOM     72  C   UNL A   1      44.153  24.209  26.095  1.00  0.00     0.020 A 
ATOM     73  C   UNL A   1      43.728  22.896  26.306  1.00  0.00     0.054 A 
BRANCH  73  74
ATOM     74  S   UNL A   1      44.070  21.619  25.064  1.00  0.00     0.124 S 
ATOM     75  O   UNL A   1      43.045  20.625  25.361  1.00  0.00    -0.237 OA
ATOM     76  O   UNL A   1      43.904  22.345  23.807  1.00  0.00    -0.237 OA
ATOM     77  O   UNL A   1      45.443  21.220  25.364  1.00  0.00    -0.744 OA
ENDBRANCH  73  74
ENDBRANCH  45  68
BRANCH  57  78
ATOM     78  C   UNL A   1      46.515  27.281  33.797  1.00  0.00    -0.014 A 
ATOM     79  C   UNL A   1      47.735  27.880  33.441  1.00  0.00     0.010 A 
ATOM     80  C   UNL A   1      46.493  26.326  34.830  1.00  0.00     0.010 A 
ATOM     81  C   UNL A   1      48.918  27.508  34.086  1.00  0.00     0.020 A 
ATOM     82  C   UNL A   1      47.669  25.969  35.494  1.00  0.00     0.020 A 
ATOM     83  C   UNL A   1      48.877  26.553  35.108  1.00  0.00     0.054 A 
BRANCH  83  84
ATOM     84  S   UNL A   1      50.418  26.117  35.960  1.00  0.00     0.124 S 
ATOM     85  O   UNL A   1      50.034  26.247  37.363  1.00  0.00    -0.237 OA
ATOM     86  O   UNL A   1      50.667  24.754  35.500  1.00  0.00    -0.237 OA
ATOM     87  O   UNL A   1      51.372  27.115  35.480  1.00  0.00    -0.744 OA
ENDBRANCH  83  84
ENDBRANCH  57  78
ENDBRANCH  31  32
ENDBRANCH  23  26
ENDBRANCH  21  22
ENDBRANCH   1  21
TORSDOF 15
ENDMDL
MODEL 2
REMARK VINA RESULT:     -10.9      3.296      9.380
REMARK SMILES COc1ccc2cc([C@@H](C)C(=O)NCCCNC(=O)c3ccc(-c4c5nc(c(-c6ccc(S(=O)(=O)[O-])cc6)c6ccc([nH]6)c(-c6ccc(S(=O)(=O)[O-])cc6)c6nc(c(-c7ccc(S(=O)(=O)[O-])cc7)c7ccc4[nH]7)C=C6)C=C5)cc3)ccc2c1
REMARK SMILES IDX 15 1 14 2 13 3 11 4 12 5 9 7 10 8 8 9 3 10 4 11 83 12 5 13
REMARK SMILES IDX 82 14 6 15 81 16 7 17 80 18 2 19 1 20 16 21 17 22 18 23
REMARK SMILES IDX 19 25 20 26 21 27 79 28 22 29 78 30 23 31 24 32 25 33 72 34
REMARK SMILES IDX 26 35 77 36 71 37 73 38 27 39 76 40 70 41 69 42 28 44 58 45
REMARK SMILES IDX 39 46 57 47 40 48 43 49 56 50 74 51 41 52 42 53 55 55 75 56
REMARK SMILES IDX 44 57 29 58 30 59 38 60 31 61 37 62 32 63 33 64 34 65 35 66
REMARK SMILES IDX 36 67 59 68 60 69 68 70 61 71 67 72 62 73 63 74 64 75 65 76
REMARK SMILES IDX 66 77 45 78 46 79 54 80 47 81 53 82 48 83 49 84 50 85 51 86
REMARK SMILES IDX 52 87
REMARK H PARENT 13 6 17 24 73 43 43 54
REMARK Flexibility Score: inf
ROOT
ATOM      1  C   UNL A   1      39.376  22.074  26.205  1.00  0.00     0.042 C 
ENDROOT
BRANCH   1   2
ATOM      2  C   UNL A   1      37.998  22.691  25.969  1.00  0.00     0.117 C 
BRANCH   2   3
ATOM      3  N   UNL A   1      37.715  22.890  24.558  1.00  0.00    -0.356 N 
ATOM      4  C   UNL A   1      36.553  22.999  23.861  1.00  0.00     0.227 C 
ATOM      5  O   UNL A   1      36.665  23.116  22.634  1.00  0.00    -0.274 OA
ATOM      6  H   UNL A   1      38.522  22.958  23.998  1.00  0.00     0.163 HD
BRANCH   4   7
ATOM      7  C   UNL A   1      35.153  23.005  24.499  1.00  0.00     0.105 C 
ATOM      8  C   UNL A   1      35.030  23.857  25.761  1.00  0.00     0.023 C 
BRANCH   7   9
ATOM      9  C   UNL A   1      34.509  21.629  24.567  1.00  0.00    -0.035 A 
ATOM     10  C   UNL A   1      33.498  16.635  24.498  1.00  0.00     0.119 A 
ATOM     11  C   UNL A   1      34.874  16.758  24.673  1.00  0.00     0.047 A 
ATOM     12  C   UNL A   1      32.715  17.788  24.385  1.00  0.00     0.055 A 
ATOM     13  C   UNL A   1      35.455  18.024  24.787  1.00  0.00     0.012 A 
ATOM     14  C   UNL A   1      33.288  19.069  24.470  1.00  0.00    -0.015 A 
ATOM     15  C   UNL A   1      34.672  19.186  24.697  1.00  0.00    -0.018 A 
ATOM     16  C   UNL A   1      32.524  20.235  24.320  1.00  0.00     0.009 A 
ATOM     17  C   UNL A   1      35.250  20.463  24.797  1.00  0.00     0.013 A 
ATOM     18  C   UNL A   1      33.131  21.496  24.342  1.00  0.00     0.005 A 
BRANCH  10  19
ATOM     19  O   UNL A   1      32.815  15.456  24.395  1.00  0.00    -0.497 OA
ATOM     20  C   UNL A   1      32.696  14.689  25.591  1.00  0.00     0.278 C 
ENDBRANCH  10  19
ENDBRANCH   7   9
ENDBRANCH   4   7
ENDBRANCH   2   3
ENDBRANCH   1   2
BRANCH   1  21
ATOM     21  C   UNL A   1      40.339  22.972  26.971  1.00  0.00     0.118 C 
BRANCH  21  22
ATOM     22  N   UNL A   1      41.342  23.569  26.100  1.00  0.00    -0.352 N 
ATOM     23  C   UNL A   1      41.897  24.826  26.097  1.00  0.00     0.251 C 
ATOM     24  H   UNL A   1      41.680  22.971  25.394  1.00  0.00     0.163 HD
ATOM     25  O   UNL A   1      42.554  25.176  25.118  1.00  0.00    -0.269 OA
BRANCH  23  26
ATOM     26  C   UNL A   1      41.714  25.765  27.231  1.00  0.00     0.039 A 
ATOM     27  C   UNL A   1      42.689  26.745  27.454  1.00  0.00     0.014 A 
ATOM     28  C   UNL A   1      40.644  25.649  28.122  1.00  0.00     0.014 A 
ATOM     29  C   UNL A   1      42.563  27.633  28.528  1.00  0.00     0.010 A 
ATOM     30  C   UNL A   1      40.480  26.581  29.149  1.00  0.00     0.010 A 
ATOM     31  C   UNL A   1      41.441  27.578  29.370  1.00  0.00    -0.014 A 
BRANCH  31  32
ATOM     32  C   UNL A   1      41.260  28.541  30.489  1.00  0.00     0.031 A 
ATOM     33  C   UNL A   1      42.101  28.428  31.734  1.00  0.00     0.074 A 
ATOM     34  C   UNL A   1      40.290  29.475  30.416  1.00  0.00     0.049 A 
ATOM     35  N   UNL A   1      42.021  29.112  32.848  1.00  0.00    -0.248 NA
ATOM     36  C   UNL A   1      43.151  27.397  31.740  1.00  0.00     0.031 C 
ATOM     37  C   UNL A   1      39.378  29.666  29.286  1.00  0.00     0.029 A 
ATOM     38  N   UNL A   1      39.897  30.429  31.324  1.00  0.00    -0.354 N 
ATOM     39  C   UNL A   1      42.986  28.575  33.694  1.00  0.00     0.074 A 
ATOM     40  C   UNL A   1      43.619  27.491  32.977  1.00  0.00     0.031 C 
ATOM     41  C   UNL A   1      38.539  30.678  29.563  1.00  0.00     0.029 A 
ATOM     42  C   UNL A   1      38.826  31.182  30.903  1.00  0.00     0.049 A 
ATOM     43  H   UNL A   1      40.339  30.560  32.193  1.00  0.00     0.167 HD
ATOM     44  C   UNL A   1      43.323  28.958  34.949  1.00  0.00     0.031 A 
ATOM     45  C   UNL A   1      38.138  32.158  31.529  1.00  0.00     0.031 A 
ATOM     46  C   UNL A   1      42.716  30.057  35.651  1.00  0.00     0.049 A 
ATOM     47  C   UNL A   1      38.545  32.577  32.914  1.00  0.00     0.074 A 
ATOM     48  C   UNL A   1      43.043  30.567  36.897  1.00  0.00     0.029 A 
ATOM     49  N   UNL A   1      41.661  30.819  35.173  1.00  0.00    -0.354 N 
ATOM     50  N   UNL A   1      39.506  32.101  33.668  1.00  0.00    -0.248 NA
ATOM     51  C   UNL A   1      37.782  33.674  33.527  1.00  0.00     0.031 C 
ATOM     52  C   UNL A   1      42.157  31.607  37.191  1.00  0.00     0.029 A 
ATOM     53  C   UNL A   1      41.311  31.779  36.108  1.00  0.00     0.049 A 
ATOM     54  H   UNL A   1      41.225  30.694  34.299  1.00  0.00     0.167 HD
ATOM     55  C   UNL A   1      39.475  32.853  34.836  1.00  0.00     0.074 A 
ATOM     56  C   UNL A   1      38.415  33.828  34.683  1.00  0.00     0.031 C 
ATOM     57  C   UNL A   1      40.256  32.744  35.940  1.00  0.00     0.031 A 
BRANCH  44  58
ATOM     58  C   UNL A   1      44.404  28.182  35.653  1.00  0.00    -0.014 A 
ATOM     59  C   UNL A   1      45.753  28.567  35.559  1.00  0.00     0.010 A 
ATOM     60  C   UNL A   1      44.058  27.095  36.476  1.00  0.00     0.010 A 
ATOM     61  C   UNL A   1      46.741  27.861  36.252  1.00  0.00     0.020 A 
ATOM     62  C   UNL A   1      45.039  26.400  37.189  1.00  0.00     0.020 A 
ATOM     63  C   UNL A   1      46.378  26.781  37.063  1.00  0.00     0.054 A 
BRANCH  63  64
ATOM     64  S   UNL A   1      47.673  25.909  37.984  1.00  0.00     0.124 S 
ATOM     65  O   UNL A   1      47.918  24.748  37.133  1.00  0.00    -0.237 OA
ATOM     66  O   UNL A   1      48.753  26.892  38.029  1.00  0.00    -0.237 OA
ATOM     67  O   UNL A   1      47.048  25.617  39.272  1.00  0.00    -0.744 OA
ENDBRANCH  63  64
ENDBRANCH  44  58
BRANCH  45  68
ATOM     68  C   UNL A   1      36.983  32.805  30.849  1.00  0.00    -0.014 A 
ATOM     69  C   UNL A   1      37.190  33.785  29.863  1.00  0.00     0.010 A 
ATOM     70  C   UNL A   1      35.667  32.438  31.185  1.00  0.00     0.010 A 
ATOM     71  C   UNL A   1      36.102  34.404  29.240  1.00  0.00     0.020 A 
ATOM     72  C   UNL A   1      34.578  33.035  30.546  1.00  0.00     0.020 A 
ATOM     73  C   UNL A   1      34.802  34.024  29.586  1.00  0.00     0.054 A 
BRANCH  73  74
ATOM     74  S   UNL A   1      33.400  34.790  28.727  1.00  0.00     0.124 S 
ATOM     75  O   UNL A   1      34.016  35.973  28.137  1.00  0.00    -0.237 OA
ATOM     76  O   UNL A   1      32.995  33.749  27.786  1.00  0.00    -0.237 OA
ATOM     77  O   UNL A   1      32.446  35.045  29.805  1.00  0.00    -0.744 OA
ENDBRANCH  73  74
ENDBRANCH  45  68
BRANCH  57  78
ATOM     78  C   UNL A   1      40.016  33.724  37.057  1.00  0.00    -0.014 A 
ATOM     79  C   UNL A   1      40.636  34.985  37.063  1.00  0.00     0.010 A 
ATOM     80  C   UNL A   1      39.115  33.395  38.086  1.00  0.00     0.010 A 
ATOM     81  C   UNL A   1      40.382  35.891  38.097  1.00  0.00     0.020 A 
ATOM     82  C   UNL A   1      38.840  34.306  39.108  1.00  0.00     0.020 A 
ATOM     83  C   UNL A   1      39.487  35.544  39.114  1.00  0.00     0.054 A 
BRANCH  83  84
ATOM     84  S   UNL A   1      39.140  36.752  40.423  1.00  0.00     0.124 S 
ATOM     85  O   UNL A   1      40.475  37.017  40.951  1.00  0.00    -0.237 OA
ATOM     86  O   UNL A   1      38.524  37.855  39.689  1.00  0.00    -0.237 OA
ATOM     87  O   UNL A   1      38.243  36.034  41.326  1.00  0.00    -0.744 OA
ENDBRANCH  83  84
ENDBRANCH  57  78
ENDBRANCH  31  32
ENDBRANCH  23  26
ENDBRANCH  21  22
ENDBRANCH   1  21
TORSDOF 15
ENDMDL
MODEL 3
REMARK VINA RESULT:     -10.7      3.175      9.576
REMARK SMILES COc1ccc2cc([C@@H](C)C(=O)NCCCNC(=O)c3ccc(-c4c5nc(c(-c6ccc(S(=O)(=O)[O-])cc6)c6ccc([nH]6)c(-c6ccc(S(=O)(=O)[O-])cc6)c6nc(c(-c7ccc(S(=O)(=O)[O-])cc7)c7ccc4[nH]7)C=C6)C=C5)cc3)ccc2c1
REMARK SMILES IDX 15 1 14 2 13 3 11 4 12 5 9 7 10 8 8 9 3 10 4 11 83 12 5 13
REMARK SMILES IDX 82 14 6 15 81 16 7 17 80 18 2 19 1 20 16 21 17 22 18 23
REMARK SMILES IDX 19 25 20 26 21 27 79 28 22 29 78 30 23 31 24 32 25 33 72 34
REMARK SMILES IDX 26 35 77 36 71 37 73 38 27 39 76 40 70 41 69 42 28 44 58 45
REMARK SMILES IDX 39 46 57 47 40 48 43 49 56 50 74 51 41 52 42 53 55 55 75 56
REMARK SMILES IDX 44 57 29 58 30 59 38 60 31 61 37 62 32 63 33 64 34 65 35 66
REMARK SMILES IDX 36 67 59 68 60 69 68 70 61 71 67 72 62 73 63 74 64 75 65 76
REMARK SMILES IDX 66 77 45 78 46 79 54 80 47 81 53 82 48 83 49 84 50 85 51 86
REMARK SMILES IDX 52 87
REMARK H PARENT 13 6 17 24 73 43 43 54
REMARK Flexibility Score: inf
ROOT
ATOM      1  C   UNL A   1      39.208  22.308  26.549  1.00  0.00     0.042 C 
ENDROOT
BRANCH   1   2
ATOM      2  C   UNL A   1      37.986  23.134  26.150  1.00  0.00     0.117 C 
BRANCH   2   3
ATOM      3  N   UNL A   1      37.764  23.136  24.716  1.00  0.00    -0.356 N 
ATOM      4  C   UNL A   1      36.634  23.073  23.961  1.00  0.00     0.227 C 
ATOM      5  O   UNL A   1      36.802  23.046  22.734  1.00  0.00    -0.274 OA
ATOM      6  H   UNL A   1      38.592  23.195  24.186  1.00  0.00     0.163 HD
BRANCH   4   7
ATOM      7  C   UNL A   1      35.206  23.053  24.532  1.00  0.00     0.105 C 
ATOM      8  C   UNL A   1      34.390  21.813  24.170  1.00  0.00     0.023 C 
BRANCH   7   9
ATOM      9  C   UNL A   1      34.479  24.382  24.399  1.00  0.00    -0.035 A 
ATOM     10  C   UNL A   1      31.889  28.700  25.184  1.00  0.00     0.119 A 
ATOM     11  C   UNL A   1      32.429  28.334  26.414  1.00  0.00     0.047 A 
ATOM     12  C   UNL A   1      32.130  27.900  24.063  1.00  0.00     0.055 A 
ATOM     13  C   UNL A   1      33.247  27.204  26.510  1.00  0.00     0.012 A 
ATOM     14  C   UNL A   1      32.928  26.746  24.149  1.00  0.00    -0.015 A 
ATOM     15  C   UNL A   1      33.512  26.409  25.385  1.00  0.00    -0.018 A 
ATOM     16  C   UNL A   1      33.147  25.911  23.044  1.00  0.00     0.009 A 
ATOM     17  C   UNL A   1      34.322  25.264  25.476  1.00  0.00     0.013 A 
ATOM     18  C   UNL A   1      33.890  24.732  23.175  1.00  0.00     0.005 A 
BRANCH  10  19
ATOM     19  O   UNL A   1      31.096  29.791  24.961  1.00  0.00    -0.497 OA
ATOM     20  C   UNL A   1      30.211  29.709  23.845  1.00  0.00     0.278 C 
ENDBRANCH  10  19
ENDBRANCH   7   9
ENDBRANCH   4   7
ENDBRANCH   2   3
ENDBRANCH   1   2
BRANCH   1  21
ATOM     21  C   UNL A   1      40.339  23.122  27.165  1.00  0.00     0.118 C 
BRANCH  21  22
ATOM     22  N   UNL A   1      41.115  23.830  26.157  1.00  0.00    -0.352 N 
ATOM     23  C   UNL A   1      41.484  25.152  26.070  1.00  0.00     0.251 C 
ATOM     24  H   UNL A   1      41.430  23.268  25.412  1.00  0.00     0.163 HD
ATOM     25  O   UNL A   1      41.941  25.565  25.006  1.00  0.00    -0.269 OA
BRANCH  23  26
ATOM     26  C   UNL A   1      41.334  26.083  27.216  1.00  0.00     0.039 A 
ATOM     27  C   UNL A   1      42.296  27.083  27.396  1.00  0.00     0.014 A 
ATOM     28  C   UNL A   1      40.311  25.940  28.155  1.00  0.00     0.014 A 
ATOM     29  C   UNL A   1      42.203  27.965  28.479  1.00  0.00     0.010 A 
ATOM     30  C   UNL A   1      40.175  26.865  29.193  1.00  0.00     0.010 A 
ATOM     31  C   UNL A   1      41.124  27.882  29.372  1.00  0.00    -0.014 A 
BRANCH  31  32
ATOM     32  C   UNL A   1      40.974  28.838  30.502  1.00  0.00     0.031 A 
ATOM     33  C   UNL A   1      41.830  28.699  31.735  1.00  0.00     0.074 A 
ATOM     34  C   UNL A   1      40.020  29.789  30.452  1.00  0.00     0.049 A 
ATOM     35  N   UNL A   1      41.778  29.374  32.856  1.00  0.00    -0.248 NA
ATOM     36  C   UNL A   1      42.862  27.649  31.717  1.00  0.00     0.031 C 
ATOM     37  C   UNL A   1      39.096  30.007  29.337  1.00  0.00     0.029 A 
ATOM     38  N   UNL A   1      39.656  30.742  31.374  1.00  0.00    -0.354 N 
ATOM     39  C   UNL A   1      42.744  28.812  33.684  1.00  0.00     0.074 A 
ATOM     40  C   UNL A   1      43.349  27.723  32.948  1.00  0.00     0.031 C 
ATOM     41  C   UNL A   1      38.279  31.031  29.634  1.00  0.00     0.029 A 
ATOM     42  C   UNL A   1      38.592  31.517  30.975  1.00  0.00     0.049 A 
ATOM     43  H   UNL A   1      40.112  30.857  32.238  1.00  0.00     0.167 HD
ATOM     44  C   UNL A   1      43.105  29.177  34.937  1.00  0.00     0.031 A 
ATOM     45  C   UNL A   1      37.930  32.499  31.619  1.00  0.00     0.031 A 
ATOM     46  C   UNL A   1      42.527  30.280  35.658  1.00  0.00     0.049 A 
ATOM     47  C   UNL A   1      38.363  32.898  33.002  1.00  0.00     0.074 A 
ATOM     48  C   UNL A   1      42.880  30.772  36.904  1.00  0.00     0.029 A 
ATOM     49  N   UNL A   1      41.479  31.064  35.202  1.00  0.00    -0.354 N 
ATOM     50  N   UNL A   1      39.326  32.397  33.739  1.00  0.00    -0.248 NA
ATOM     51  C   UNL A   1      37.629  34.002  33.636  1.00  0.00     0.031 C 
ATOM     52  C   UNL A   1      42.016  31.825  37.220  1.00  0.00     0.029 A 
ATOM     53  C   UNL A   1      41.159  32.021  36.150  1.00  0.00     0.049 A 
ATOM     54  H   UNL A   1      41.029  30.955  34.333  1.00  0.00     0.167 HD
ATOM     55  C   UNL A   1      39.325  33.138  34.914  1.00  0.00     0.074 A 
ATOM     56  C   UNL A   1      38.280  34.133  34.784  1.00  0.00     0.031 C 
ATOM     57  C   UNL A   1      40.119  33.006  36.005  1.00  0.00     0.031 A 
BRANCH  44  58
ATOM     58  C   UNL A   1      44.182  28.376  35.619  1.00  0.00    -0.014 A 
ATOM     59  C   UNL A   1      45.537  28.731  35.500  1.00  0.00     0.010 A 
ATOM     60  C   UNL A   1      43.828  27.295  36.447  1.00  0.00     0.010 A 
ATOM     61  C   UNL A   1      46.522  28.002  36.172  1.00  0.00     0.020 A 
ATOM     62  C   UNL A   1      44.807  26.577  37.140  1.00  0.00     0.020 A 
ATOM     63  C   UNL A   1      46.151  26.928  36.988  1.00  0.00     0.054 A 
BRANCH  63  64
ATOM     64  S   UNL A   1      47.444  26.026  37.883  1.00  0.00     0.124 S 
ATOM     65  O   UNL A   1      48.030  25.210  36.823  1.00  0.00    -0.237 OA
ATOM     66  O   UNL A   1      48.295  27.101  38.389  1.00  0.00    -0.237 OA
ATOM     67  O   UNL A   1      46.708  25.285  38.905  1.00  0.00    -0.744 OA
ENDBRANCH  63  64
ENDBRANCH  44  58
BRANCH  45  68
ATOM     68  C   UNL A   1      36.778  33.172  30.961  1.00  0.00    -0.014 A 
ATOM     69  C   UNL A   1      36.969  33.956  29.810  1.00  0.00     0.010 A 
ATOM     70  C   UNL A   1      35.480  33.027  31.485  1.00  0.00     0.010 A 
ATOM     71  C   UNL A   1      35.886  34.602  29.206  1.00  0.00     0.020 A 
ATOM     72  C   UNL A   1      34.392  33.649  30.869  1.00  0.00     0.020 A 
ATOM     73  C   UNL A   1      34.603  34.444  29.740  1.00  0.00     0.054 A 
BRANCH  73  74
ATOM     74  S   UNL A   1      33.198  35.237  28.912  1.00  0.00     0.124 S 
ATOM     75  O   UNL A   1      33.841  36.351  28.224  1.00  0.00    -0.237 OA
ATOM     76  O   UNL A   1      32.689  34.170  28.054  1.00  0.00    -0.237 OA
ATOM     77  O   UNL A   1      32.319  35.602  30.021  1.00  0.00    -0.744 OA
ENDBRANCH  73  74
ENDBRANCH  45  68
BRANCH  57  78
ATOM     78  C   UNL A   1      39.911  33.979  37.135  1.00  0.00    -0.014 A 
ATOM     79  C   UNL A   1      40.489  35.260  37.106  1.00  0.00     0.010 A 
ATOM     80  C   UNL A   1      39.080  33.623  38.213  1.00  0.00     0.010 A 
ATOM     81  C   UNL A   1      40.266  36.158  38.153  1.00  0.00     0.020 A 
ATOM     82  C   UNL A   1      38.835  34.527  39.249  1.00  0.00     0.020 A 
ATOM     83  C   UNL A   1      39.441  35.784  39.220  1.00  0.00     0.054 A 
BRANCH  83  84
ATOM     84  S   UNL A   1      39.131  36.982  40.546  1.00  0.00     0.124 S 
ATOM     85  O   UNL A   1      38.461  36.157  41.548  1.00  0.00    -0.237 OA
ATOM     86  O   UNL A   1      40.476  37.430  40.899  1.00  0.00    -0.237 OA
ATOM     87  O   UNL A   1      38.291  37.994  39.908  1.00  0.00    -0.744 OA
ENDBRANCH  83  84
ENDBRANCH  57  78
ENDBRANCH  31  32
ENDBRANCH  23  26
ENDBRANCH  21  22
ENDBRANCH   1  21
TORSDOF 15
ENDMDL
