MODEL 1
REMARK VINA RESULT:     -11.5      0.000      0.000
REMARK SMILES Cc1ccc(C)c([C@@H](O)[C@@H](C)[C@@H](C)C(=O)NCCCNC(=O)c2ccc(-c3c4nc(c(-c5ccc(S(=O)(=O)[O-])cc5)c5ccc([nH]5)c(-c5ccc(S(=O)(=O)[O-])cc5)c5nc(c(-c6ccc(S(=O)(=O)[O-])cc6)c6ccc3[nH]6)C=C5)C=C4)cc2)c1
REMARK SMILES IDX 18 1 17 2 16 3 14 4 15 5 12 7 13 8 10 9 11 10 8 11 7 12 1 13
REMARK SMILES IDX 2 14 3 15 83 16 4 17 5 18 6 19 9 20 19 22 20 23 21 24 22 26
REMARK SMILES IDX 23 27 24 28 82 29 25 30 81 31 26 32 27 33 28 34 75 35 29 36
REMARK SMILES IDX 80 37 74 38 76 39 30 40 79 41 73 42 72 43 31 45 61 46 42 47
REMARK SMILES IDX 60 48 43 49 46 50 59 51 77 52 44 53 45 54 58 56 78 57 47 58
REMARK SMILES IDX 32 59 33 60 41 61 34 62 40 63 35 64 36 65 37 66 38 67 39 68
REMARK SMILES IDX 62 69 63 70 71 71 64 72 70 73 65 74 66 75 67 76 68 77 69 78
REMARK SMILES IDX 48 79 49 80 57 81 50 82 56 83 51 84 52 85 53 86 54 87 55 88
REMARK H PARENT 16 6 9 21 20 25 76 44 46 55
REMARK Flexibility Score: inf
ROOT
ATOM      1  C   UNL A   1      38.679  20.586  25.517  1.00  0.00     0.042 C 
ENDROOT
BRANCH   1   2
ATOM      2  C   UNL A   1      37.226  20.765  25.072  1.00  0.00     0.117 C 
BRANCH   2   3
ATOM      3  N   UNL A   1      37.008  21.750  24.022  1.00  0.00    -0.356 N 
ATOM      4  C   UNL A   1      35.988  22.623  23.783  1.00  0.00     0.223 C 
ATOM      5  O   UNL A   1      36.181  23.482  22.918  1.00  0.00    -0.275 OA
ATOM      6  H   UNL A   1      37.735  21.795  23.360  1.00  0.00     0.163 HD
BRANCH   4   7
ATOM      7  C   UNL A   1      34.637  22.563  24.512  1.00  0.00     0.081 C 
ATOM      8  C   UNL A   1      33.559  22.004  23.585  1.00  0.00     0.018 C 
BRANCH   7   9
ATOM      9  C   UNL A   1      34.371  23.891  25.282  1.00  0.00     0.031 C 
ATOM     10  C   UNL A   1      33.936  23.539  26.722  1.00  0.00     0.011 C 
BRANCH   9  11
ATOM     11  C   UNL A   1      33.374  24.891  24.641  1.00  0.00     0.148 C 
BRANCH  11  12
ATOM     12  C   UNL A   1      32.959  26.032  25.576  1.00  0.00    -0.016 A 
ATOM     13  C   UNL A   1      34.698  29.098  27.086  1.00  0.00     0.044 C 
ATOM     14  C   UNL A   1      33.645  28.094  26.724  1.00  0.00    -0.051 A 
ATOM     15  C   UNL A   1      32.346  28.264  27.197  1.00  0.00     0.004 A 
ATOM     16  C   UNL A   1      33.939  26.991  25.909  1.00  0.00     0.010 A 
ATOM     17  C   UNL A   1      31.368  27.324  26.896  1.00  0.00     0.004 A 
ATOM     18  C   UNL A   1      31.661  26.192  26.113  1.00  0.00    -0.045 A 
ATOM     19  C   UNL A   1      30.522  25.233  25.921  1.00  0.00     0.045 C 
ENDBRANCH  11  12
BRANCH  11  20
ATOM     20  O   UNL A   1      33.897  25.480  23.451  1.00  0.00    -0.388 OA
ATOM     21  H   UNL A   1      33.488  25.061  22.677  1.00  0.00     0.211 HD
ENDBRANCH  11  20
ENDBRANCH   9  11
ENDBRANCH   7   9
ENDBRANCH   4   7
ENDBRANCH   2   3
ENDBRANCH   1   2
BRANCH   1  22
ATOM     22  C   UNL A   1      39.345  21.782  26.160  1.00  0.00     0.118 C 
BRANCH  22  23
ATOM     23  N   UNL A   1      40.790  21.851  25.932  1.00  0.00    -0.352 N 
ATOM     24  C   UNL A   1      41.702  22.897  26.021  1.00  0.00     0.251 C 
ATOM     25  H   UNL A   1      41.194  20.994  25.665  1.00  0.00     0.163 HD
ATOM     26  O   UNL A   1      42.809  22.770  25.530  1.00  0.00    -0.269 OA
BRANCH  24  27
ATOM     27  C   UNL A   1      41.334  24.159  26.707  1.00  0.00     0.039 A 
ATOM     28  C   UNL A   1      40.588  25.189  26.130  1.00  0.00     0.014 A 
ATOM     29  C   UNL A   1      41.929  24.415  27.920  1.00  0.00     0.014 A 
ATOM     30  C   UNL A   1      40.555  26.432  26.787  1.00  0.00     0.010 A 
ATOM     31  C   UNL A   1      41.426  25.368  28.737  1.00  0.00     0.010 A 
ATOM     32  C   UNL A   1      41.076  26.520  28.079  1.00  0.00    -0.014 A 
BRANCH  32  33
ATOM     33  C   UNL A   1      41.201  27.709  28.894  1.00  0.00     0.031 A 
ATOM     34  C   UNL A   1      42.210  28.670  28.411  1.00  0.00     0.074 A 
ATOM     35  C   UNL A   1      40.205  28.147  29.696  1.00  0.00     0.049 A 
ATOM     36  N   UNL A   1      43.421  28.809  28.834  1.00  0.00    -0.248 NA
ATOM     37  C   UNL A   1      41.910  29.420  27.177  1.00  0.00     0.031 C 
ATOM     38  C   UNL A   1      38.860  27.592  29.883  1.00  0.00     0.029 A 
ATOM     39  N   UNL A   1      40.166  29.292  30.428  1.00  0.00    -0.354 N 
ATOM     40  C   UNL A   1      43.943  29.840  28.067  1.00  0.00     0.074 A 
ATOM     41  C   UNL A   1      43.110  29.925  26.895  1.00  0.00     0.031 C 
ATOM     42  C   UNL A   1      38.086  28.498  30.526  1.00  0.00     0.029 A 
ATOM     43  C   UNL A   1      38.910  29.632  30.912  1.00  0.00     0.049 A 
ATOM     44  H   UNL A   1      40.966  29.837  30.603  1.00  0.00     0.167 HD
ATOM     45  C   UNL A   1      44.790  30.771  28.587  1.00  0.00     0.031 A 
ATOM     46  C   UNL A   1      38.581  30.793  31.534  1.00  0.00     0.031 A 
ATOM     47  C   UNL A   1      45.174  30.439  29.940  1.00  0.00     0.049 A 
ATOM     48  C   UNL A   1      39.853  31.430  31.973  1.00  0.00     0.074 A 
ATOM     49  C   UNL A   1      45.758  29.346  30.549  1.00  0.00     0.029 A 
ATOM     50  N   UNL A   1      44.552  31.150  30.945  1.00  0.00    -0.354 N 
ATOM     51  N   UNL A   1      40.644  30.928  32.881  1.00  0.00    -0.248 NA
ATOM     52  C   UNL A   1      40.465  32.431  31.111  1.00  0.00     0.031 C 
ATOM     53  C   UNL A   1      45.087  29.214  31.801  1.00  0.00     0.029 A 
ATOM     54  C   UNL A   1      44.173  30.263  31.921  1.00  0.00     0.049 A 
ATOM     55  H   UNL A   1      44.405  32.123  30.959  1.00  0.00     0.167 HD
ATOM     56  C   UNL A   1      41.930  31.222  32.444  1.00  0.00     0.074 A 
ATOM     57  C   UNL A   1      41.752  32.252  31.426  1.00  0.00     0.031 C 
ATOM     58  C   UNL A   1      42.980  30.400  32.741  1.00  0.00     0.031 A 
BRANCH  45  59
ATOM     59  C   UNL A   1      44.940  32.169  28.041  1.00  0.00    -0.014 A 
ATOM     60  C   UNL A   1      46.228  32.625  27.704  1.00  0.00     0.010 A 
ATOM     61  C   UNL A   1      43.906  33.128  28.050  1.00  0.00     0.010 A 
ATOM     62  C   UNL A   1      46.473  33.979  27.443  1.00  0.00     0.020 A 
ATOM     63  C   UNL A   1      44.125  34.467  27.735  1.00  0.00     0.020 A 
ATOM     64  C   UNL A   1      45.417  34.892  27.470  1.00  0.00     0.054 A 
BRANCH  64  65
ATOM     65  S   UNL A   1      45.753  36.652  27.232  1.00  0.00     0.124 S 
ATOM     66  O   UNL A   1      44.403  37.200  27.141  1.00  0.00    -0.237 OA
ATOM     67  O   UNL A   1      46.498  36.993  28.440  1.00  0.00    -0.237 OA
ATOM     68  O   UNL A   1      46.530  36.687  25.995  1.00  0.00    -0.744 OA
ENDBRANCH  64  65
ENDBRANCH  45  59
BRANCH  46  69
ATOM     69  C   UNL A   1      37.284  31.513  31.565  1.00  0.00    -0.014 A 
ATOM     70  C   UNL A   1      36.538  31.597  32.756  1.00  0.00     0.010 A 
ATOM     71  C   UNL A   1      36.905  32.353  30.498  1.00  0.00     0.010 A 
ATOM     72  C   UNL A   1      35.504  32.536  32.901  1.00  0.00     0.020 A 
ATOM     73  C   UNL A   1      35.868  33.286  30.630  1.00  0.00     0.020 A 
ATOM     74  C   UNL A   1      35.192  33.393  31.843  1.00  0.00     0.054 A 
BRANCH  74  75
ATOM     75  S   UNL A   1      33.995  34.737  32.106  1.00  0.00     0.124 S 
ATOM     76  O   UNL A   1      33.464  34.952  30.764  1.00  0.00    -0.237 OA
ATOM     77  O   UNL A   1      33.065  34.151  33.068  1.00  0.00    -0.237 OA
ATOM     78  O   UNL A   1      34.814  35.830  32.633  1.00  0.00    -0.744 OA
ENDBRANCH  74  75
ENDBRANCH  46  69
BRANCH  58  79
ATOM     79  C   UNL A   1      42.801  29.378  33.845  1.00  0.00    -0.014 A 
ATOM     80  C   UNL A   1      43.005  29.654  35.211  1.00  0.00     0.010 A 
ATOM     81  C   UNL A   1      42.269  28.124  33.491  1.00  0.00     0.010 A 
ATOM     82  C   UNL A   1      42.708  28.695  36.192  1.00  0.00     0.020 A 
ATOM     83  C   UNL A   1      41.952  27.172  34.464  1.00  0.00     0.020 A 
ATOM     84  C   UNL A   1      42.181  27.458  35.810  1.00  0.00     0.054 A 
BRANCH  84  85
ATOM     85  S   UNL A   1      41.741  26.244  37.086  1.00  0.00     0.124 S 
ATOM     86  O   UNL A   1      41.672  24.998  36.328  1.00  0.00    -0.237 OA
ATOM     87  O   UNL A   1      42.853  26.346  38.030  1.00  0.00    -0.237 OA
ATOM     88  O   UNL A   1      40.460  26.727  37.600  1.00  0.00    -0.744 OA
ENDBRANCH  84  85
ENDBRANCH  58  79
ENDBRANCH  32  33
ENDBRANCH  24  27
ENDBRANCH  22  23
ENDBRANCH   1  22
TORSDOF 17
ENDMDL
MODEL 2
REMARK VINA RESULT:     -11.4      1.549      3.193
REMARK SMILES Cc1ccc(C)c([C@@H](O)[C@@H](C)[C@@H](C)C(=O)NCCCNC(=O)c2ccc(-c3c4nc(c(-c5ccc(S(=O)(=O)[O-])cc5)c5ccc([nH]5)c(-c5ccc(S(=O)(=O)[O-])cc5)c5nc(c(-c6ccc(S(=O)(=O)[O-])cc6)c6ccc3[nH]6)C=C5)C=C4)cc2)c1
REMARK SMILES IDX 18 1 17 2 16 3 14 4 15 5 12 7 13 8 10 9 11 10 8 11 7 12 1 13
REMARK SMILES IDX 2 14 3 15 83 16 4 17 5 18 6 19 9 20 19 22 20 23 21 24 22 26
REMARK SMILES IDX 23 27 24 28 82 29 25 30 81 31 26 32 27 33 28 34 75 35 29 36
REMARK SMILES IDX 80 37 74 38 76 39 30 40 79 41 73 42 72 43 31 45 61 46 42 47
REMARK SMILES IDX 60 48 43 49 46 50 59 51 77 52 44 53 45 54 58 56 78 57 47 58
REMARK SMILES IDX 32 59 33 60 41 61 34 62 40 63 35 64 36 65 37 66 38 67 39 68
REMARK SMILES IDX 62 69 63 70 71 71 64 72 70 73 65 74 66 75 67 76 68 77 69 78
REMARK SMILES IDX 48 79 49 80 57 81 50 82 56 83 51 84 52 85 53 86 54 87 55 88
REMARK H PARENT 16 6 9 21 20 25 76 44 46 55
REMARK Flexibility Score: inf
ROOT
ATOM      1  C   UNL A   1      39.478  21.276  26.075  1.00  0.00     0.042 C 
ENDROOT
BRANCH   1   2
ATOM      2  C   UNL A   1      38.633  22.542  26.226  1.00  0.00     0.117 C 
BRANCH   2   3
ATOM      3  N   UNL A   1      37.853  22.919  25.056  1.00  0.00    -0.356 N 
ATOM      4  C   UNL A   1      36.566  22.656  24.689  1.00  0.00     0.223 C 
ATOM      5  O   UNL A   1      36.123  23.286  23.726  1.00  0.00    -0.275 OA
ATOM      6  H   UNL A   1      38.349  23.469  24.407  1.00  0.00     0.163 HD
BRANCH   4   7
ATOM      7  C   UNL A   1      35.684  21.616  25.394  1.00  0.00     0.081 C 
ATOM      8  C   UNL A   1      36.039  20.209  24.918  1.00  0.00     0.018 C 
BRANCH   7   9
ATOM      9  C   UNL A   1      34.194  22.070  25.392  1.00  0.00     0.031 C 
ATOM     10  C   UNL A   1      34.058  23.297  26.322  1.00  0.00     0.011 C 
BRANCH   9  11
ATOM     11  C   UNL A   1      33.128  21.000  25.744  1.00  0.00     0.148 C 
BRANCH  11  12
ATOM     12  C   UNL A   1      32.913  19.959  24.641  1.00  0.00    -0.016 A 
ATOM     13  C   UNL A   1      33.320  16.157  24.353  1.00  0.00     0.044 C 
ATOM     14  C   UNL A   1      32.996  17.582  24.020  1.00  0.00    -0.051 A 
ATOM     15  C   UNL A   1      32.471  17.890  22.767  1.00  0.00     0.004 A 
ATOM     16  C   UNL A   1      33.200  18.612  24.950  1.00  0.00     0.010 A 
ATOM     17  C   UNL A   1      32.196  19.210  22.434  1.00  0.00     0.004 A 
ATOM     18  C   UNL A   1      32.435  20.257  23.344  1.00  0.00    -0.045 A 
ATOM     19  C   UNL A   1      32.147  21.636  22.824  1.00  0.00     0.045 C 
ENDBRANCH  11  12
BRANCH  11  20
ATOM     20  O   UNL A   1      33.452  20.295  26.941  1.00  0.00    -0.388 OA
ATOM     21  H   UNL A   1      33.939  19.486  26.718  1.00  0.00     0.211 HD
ENDBRANCH  11  20
ENDBRANCH   9  11
ENDBRANCH   7   9
ENDBRANCH   4   7
ENDBRANCH   2   3
ENDBRANCH   1   2
BRANCH   1  22
ATOM     22  C   UNL A   1      40.809  21.258  26.795  1.00  0.00     0.118 C 
BRANCH  22  23
ATOM     23  N   UNL A   1      41.934  21.713  25.976  1.00  0.00    -0.352 N 
ATOM     24  C   UNL A   1      42.420  22.982  25.677  1.00  0.00     0.251 C 
ATOM     25  H   UNL A   1      42.445  20.983  25.558  1.00  0.00     0.163 HD
ATOM     26  O   UNL A   1      43.211  23.118  24.762  1.00  0.00    -0.269 OA
BRANCH  24  27
ATOM     27  C   UNL A   1      41.980  24.160  26.462  1.00  0.00     0.039 A 
ATOM     28  C   UNL A   1      41.008  25.073  26.048  1.00  0.00     0.014 A 
ATOM     29  C   UNL A   1      42.713  24.483  27.580  1.00  0.00     0.014 A 
ATOM     30  C   UNL A   1      40.894  26.285  26.752  1.00  0.00     0.010 A 
ATOM     31  C   UNL A   1      42.207  25.334  28.502  1.00  0.00     0.010 A 
ATOM     32  C   UNL A   1      41.592  26.429  27.952  1.00  0.00    -0.014 A 
BRANCH  32  33
ATOM     33  C   UNL A   1      41.664  27.610  28.787  1.00  0.00     0.031 A 
ATOM     34  C   UNL A   1      42.651  28.608  28.338  1.00  0.00     0.074 A 
ATOM     35  C   UNL A   1      40.640  28.005  29.575  1.00  0.00     0.049 A 
ATOM     36  N   UNL A   1      43.849  28.777  28.787  1.00  0.00    -0.248 NA
ATOM     37  C   UNL A   1      42.352  29.366  27.109  1.00  0.00     0.031 C 
ATOM     38  C   UNL A   1      39.308  27.406  29.728  1.00  0.00     0.029 A 
ATOM     39  N   UNL A   1      40.550  29.136  30.323  1.00  0.00    -0.354 N 
ATOM     40  C   UNL A   1      44.354  29.835  28.045  1.00  0.00     0.074 A 
ATOM     41  C   UNL A   1      43.541  29.912  26.858  1.00  0.00     0.031 C 
ATOM     42  C   UNL A   1      38.494  28.277  30.369  1.00  0.00     0.029 A 
ATOM     43  C   UNL A   1      39.275  29.431  30.786  1.00  0.00     0.049 A 
ATOM     44  H   UNL A   1      41.330  29.703  30.522  1.00  0.00     0.167 HD
ATOM     45  C   UNL A   1      45.162  30.784  28.596  1.00  0.00     0.031 A 
ATOM     46  C   UNL A   1      38.899  30.572  31.419  1.00  0.00     0.031 A 
ATOM     47  C   UNL A   1      45.529  30.444  29.951  1.00  0.00     0.049 A 
ATOM     48  C   UNL A   1      40.142  31.240  31.893  1.00  0.00     0.074 A 
ATOM     49  C   UNL A   1      46.134  29.360  30.555  1.00  0.00     0.029 A 
ATOM     50  N   UNL A   1      44.866  31.120  30.953  1.00  0.00    -0.354 N 
ATOM     51  N   UNL A   1      40.930  30.749  32.809  1.00  0.00    -0.248 NA
ATOM     52  C   UNL A   1      40.739  32.272  31.057  1.00  0.00     0.031 C 
ATOM     53  C   UNL A   1      45.445  29.188  31.792  1.00  0.00     0.029 A 
ATOM     54  C   UNL A   1      44.496  30.206  31.909  1.00  0.00     0.049 A 
ATOM     55  H   UNL A   1      44.689  32.088  30.979  1.00  0.00     0.167 HD
ATOM     56  C   UNL A   1      42.214  31.088  32.402  1.00  0.00     0.074 A 
ATOM     57  C   UNL A   1      42.025  32.128  31.396  1.00  0.00     0.031 C 
ATOM     58  C   UNL A   1      43.284  30.295  32.707  1.00  0.00     0.031 A 
BRANCH  45  59
ATOM     59  C   UNL A   1      45.279  32.194  28.073  1.00  0.00    -0.014 A 
ATOM     60  C   UNL A   1      46.545  32.659  27.671  1.00  0.00     0.010 A 
ATOM     61  C   UNL A   1      44.247  33.151  28.165  1.00  0.00     0.010 A 
ATOM     62  C   UNL A   1      46.773  34.019  27.425  1.00  0.00     0.020 A 
ATOM     63  C   UNL A   1      44.447  34.497  27.867  1.00  0.00     0.020 A 
ATOM     64  C   UNL A   1      45.721  34.930  27.536  1.00  0.00     0.054 A 
BRANCH  64  65
ATOM     65  S   UNL A   1      46.041  36.695  27.317  1.00  0.00     0.124 S 
ATOM     66  O   UNL A   1      46.664  37.042  28.590  1.00  0.00    -0.237 OA
ATOM     67  O   UNL A   1      46.922  36.709  26.153  1.00  0.00    -0.237 OA
ATOM     68  O   UNL A   1      44.712  37.258  27.094  1.00  0.00    -0.744 OA
ENDBRANCH  64  65
ENDBRANCH  45  59
BRANCH  46  69
ATOM     69  C   UNL A   1      37.580  31.251  31.435  1.00  0.00    -0.014 A 
ATOM     70  C   UNL A   1      36.755  31.191  32.575  1.00  0.00     0.010 A 
ATOM     71  C   UNL A   1      37.244  32.186  30.435  1.00  0.00     0.010 A 
ATOM     72  C   UNL A   1      35.684  32.084  32.744  1.00  0.00     0.020 A 
ATOM     73  C   UNL A   1      36.171  33.074  30.591  1.00  0.00     0.020 A 
ATOM     74  C   UNL A   1      35.414  33.038  31.760  1.00  0.00     0.054 A 
BRANCH  74  75
ATOM     75  S   UNL A   1      34.160  34.315  32.077  1.00  0.00     0.124 S 
ATOM     76  O   UNL A   1      33.311  33.680  33.080  1.00  0.00    -0.237 OA
ATOM     77  O   UNL A   1      34.963  35.440  32.549  1.00  0.00    -0.237 OA
ATOM     78  O   UNL A   1      33.533  34.515  30.770  1.00  0.00    -0.744 OA
ENDBRANCH  74  75
ENDBRANCH  46  69
BRANCH  58  79
ATOM     79  C   UNL A   1      43.116  29.251  33.792  1.00  0.00    -0.014 A 
ATOM     80  C   UNL A   1      43.406  29.479  35.152  1.00  0.00     0.010 A 
ATOM     81  C   UNL A   1      42.504  28.035  33.436  1.00  0.00     0.010 A 
ATOM     82  C   UNL A   1      43.116  28.506  36.122  1.00  0.00     0.020 A 
ATOM     83  C   UNL A   1      42.195  27.071  34.400  1.00  0.00     0.020 A 
ATOM     84  C   UNL A   1      42.510  27.307  35.738  1.00  0.00     0.054 A 
BRANCH  84  85
ATOM     85  S   UNL A   1      42.081  26.080  37.004  1.00  0.00     0.124 S 
ATOM     86  O   UNL A   1      42.944  26.459  38.119  1.00  0.00    -0.237 OA
ATOM     87  O   UNL A   1      40.652  26.307  37.208  1.00  0.00    -0.237 OA
ATOM     88  O   UNL A   1      42.411  24.800  36.375  1.00  0.00    -0.744 OA
ENDBRANCH  84  85
ENDBRANCH  58  79
ENDBRANCH  32  33
ENDBRANCH  24  27
ENDBRANCH  22  23
ENDBRANCH   1  22
TORSDOF 17
ENDMDL
MODEL 3
REMARK VINA RESULT:     -11.2      1.379      1.692
REMARK SMILES Cc1ccc(C)c([C@@H](O)[C@@H](C)[C@@H](C)C(=O)NCCCNC(=O)c2ccc(-c3c4nc(c(-c5ccc(S(=O)(=O)[O-])cc5)c5ccc([nH]5)c(-c5ccc(S(=O)(=O)[O-])cc5)c5nc(c(-c6ccc(S(=O)(=O)[O-])cc6)c6ccc3[nH]6)C=C5)C=C4)cc2)c1
REMARK SMILES IDX 18 1 17 2 16 3 14 4 15 5 12 7 13 8 10 9 11 10 8 11 7 12 1 13
REMARK SMILES IDX 2 14 3 15 83 16 4 17 5 18 6 19 9 20 19 22 20 23 21 24 22 26
REMARK SMILES IDX 23 27 24 28 82 29 25 30 81 31 26 32 27 33 28 34 75 35 29 36
REMARK SMILES IDX 80 37 74 38 76 39 30 40 79 41 73 42 72 43 31 45 61 46 42 47
REMARK SMILES IDX 60 48 43 49 46 50 59 51 77 52 44 53 45 54 58 56 78 57 47 58
REMARK SMILES IDX 32 59 33 60 41 61 34 62 40 63 35 64 36 65 37 66 38 67 39 68
REMARK SMILES IDX 62 69 63 70 71 71 64 72 70 73 65 74 66 75 67 76 68 77 69 78
REMARK SMILES IDX 48 79 49 80 57 81 50 82 56 83 51 84 52 85 53 86 54 87 55 88
REMARK H PARENT 16 6 9 21 20 25 76 44 46 55
REMARK Flexibility Score: inf
ROOT
ATOM      1  C   UNL A   1      38.038  20.473  25.261  1.00  0.00     0.042 C 
ENDROOT
BRANCH   1   2
ATOM      2  C   UNL A   1      36.532  20.630  25.037  1.00  0.00     0.117 C 
BRANCH   2   3
ATOM      3  N   UNL A   1      35.787  21.194  26.153  1.00  0.00    -0.356 N 
ATOM      4  C   UNL A   1      34.914  22.238  26.237  1.00  0.00     0.223 C 
ATOM      5  O   UNL A   1      34.281  22.351  27.290  1.00  0.00    -0.275 OA
ATOM      6  H   UNL A   1      35.942  20.734  27.009  1.00  0.00     0.163 HD
BRANCH   4   7
ATOM      7  C   UNL A   1      34.713  23.262  25.110  1.00  0.00     0.081 C 
ATOM      8  C   UNL A   1      35.015  24.671  25.614  1.00  0.00     0.018 C 
BRANCH   7   9
ATOM      9  C   UNL A   1      33.377  22.990  24.355  1.00  0.00     0.031 C 
ATOM     10  C   UNL A   1      33.107  21.469  24.377  1.00  0.00     0.011 C 
BRANCH   9  11
ATOM     11  C   UNL A   1      33.256  23.543  22.912  1.00  0.00     0.148 C 
BRANCH  11  12
ATOM     12  C   UNL A   1      32.700  24.969  22.843  1.00  0.00    -0.016 A 
ATOM     13  C   UNL A   1      34.183  28.456  22.251  1.00  0.00     0.044 C 
ATOM     14  C   UNL A   1      33.198  27.350  22.486  1.00  0.00    -0.051 A 
ATOM     15  C   UNL A   1      31.841  27.649  22.576  1.00  0.00     0.004 A 
ATOM     16  C   UNL A   1      33.616  26.016  22.606  1.00  0.00     0.010 A 
ATOM     17  C   UNL A   1      30.921  26.637  22.826  1.00  0.00     0.004 A 
ATOM     18  C   UNL A   1      31.333  25.302  22.989  1.00  0.00    -0.045 A 
ATOM     19  C   UNL A   1      30.237  24.329  23.313  1.00  0.00     0.045 C 
ENDBRANCH  11  12
BRANCH  11  20
ATOM     20  O   UNL A   1      34.508  23.538  22.229  1.00  0.00    -0.388 OA
ATOM     21  H   UNL A   1      34.535  22.794  21.607  1.00  0.00     0.211 HD
ENDBRANCH  11  20
ENDBRANCH   9  11
ENDBRANCH   7   9
ENDBRANCH   4   7
ENDBRANCH   2   3
ENDBRANCH   1   2
BRANCH   1  22
ATOM     22  C   UNL A   1      38.761  21.654  25.871  1.00  0.00     0.118 C 
BRANCH  22  23
ATOM     23  N   UNL A   1      40.214  21.614  25.699  1.00  0.00    -0.352 N 
ATOM     24  C   UNL A   1      41.210  22.555  25.940  1.00  0.00     0.251 C 
ATOM     25  H   UNL A   1      40.552  20.759  25.348  1.00  0.00     0.163 HD
ATOM     26  O   UNL A   1      42.321  22.381  25.473  1.00  0.00    -0.269 OA
BRANCH  24  27
ATOM     27  C   UNL A   1      40.926  23.759  26.755  1.00  0.00     0.039 A 
ATOM     28  C   UNL A   1      39.889  24.661  26.507  1.00  0.00     0.014 A 
ATOM     29  C   UNL A   1      41.860  24.117  27.700  1.00  0.00     0.014 A 
ATOM     30  C   UNL A   1      39.909  25.896  27.180  1.00  0.00     0.010 A 
ATOM     31  C   UNL A   1      41.539  24.999  28.673  1.00  0.00     0.010 A 
ATOM     32  C   UNL A   1      40.825  26.077  28.218  1.00  0.00    -0.014 A 
BRANCH  32  33
ATOM     33  C   UNL A   1      41.053  27.285  28.983  1.00  0.00     0.031 A 
ATOM     34  C   UNL A   1      42.091  28.169  28.424  1.00  0.00     0.074 A 
ATOM     35  C   UNL A   1      40.120  27.806  29.810  1.00  0.00     0.049 A 
ATOM     36  N   UNL A   1      43.326  28.251  28.789  1.00  0.00    -0.248 NA
ATOM     37  C   UNL A   1      41.779  28.893  27.177  1.00  0.00     0.031 C 
ATOM     38  C   UNL A   1      38.755  27.336  30.075  1.00  0.00     0.029 A 
ATOM     39  N   UNL A   1      40.178  28.975  30.502  1.00  0.00    -0.354 N 
ATOM     40  C   UNL A   1      43.871  29.224  27.964  1.00  0.00     0.074 A 
ATOM     41  C   UNL A   1      42.992  29.318  26.826  1.00  0.00     0.031 C 
ATOM     42  C   UNL A   1      38.063  28.306  30.717  1.00  0.00     0.029 A 
ATOM     43  C   UNL A   1      38.966  29.403  31.026  1.00  0.00     0.049 A 
ATOM     44  H   UNL A   1      41.014  29.478  30.623  1.00  0.00     0.167 HD
ATOM     45  C   UNL A   1      44.792  30.121  28.414  1.00  0.00     0.031 A 
ATOM     46  C   UNL A   1      38.731  30.602  31.620  1.00  0.00     0.031 A 
ATOM     47  C   UNL A   1      45.216  29.814  29.760  1.00  0.00     0.049 A 
ATOM     48  C   UNL A   1      40.055  31.178  31.981  1.00  0.00     0.074 A 
ATOM     49  C   UNL A   1      45.764  28.710  30.383  1.00  0.00     0.029 A 
ATOM     50  N   UNL A   1      44.680  30.592  30.764  1.00  0.00    -0.354 N 
ATOM     51  N   UNL A   1      40.856  30.662  32.872  1.00  0.00    -0.248 NA
ATOM     52  C   UNL A   1      40.684  32.113  31.058  1.00  0.00     0.031 C 
ATOM     53  C   UNL A   1      45.143  28.658  31.666  1.00  0.00     0.029 A 
ATOM     54  C   UNL A   1      44.296  29.761  31.788  1.00  0.00     0.049 A 
ATOM     55  H   UNL A   1      44.589  31.572  30.750  1.00  0.00     0.167 HD
ATOM     56  C   UNL A   1      42.136  30.866  32.371  1.00  0.00     0.074 A 
ATOM     57  C   UNL A   1      41.971  31.870  31.325  1.00  0.00     0.031 C 
ATOM     58  C   UNL A   1      43.151  29.995  32.652  1.00  0.00     0.031 A 
BRANCH  45  59
ATOM     59  C   UNL A   1      44.996  31.489  27.812  1.00  0.00    -0.014 A 
ATOM     60  C   UNL A   1      46.215  31.764  27.165  1.00  0.00     0.010 A 
ATOM     61  C   UNL A   1      44.135  32.583  28.044  1.00  0.00     0.010 A 
ATOM     62  C   UNL A   1      46.572  33.074  26.818  1.00  0.00     0.020 A 
ATOM     63  C   UNL A   1      44.454  33.881  27.652  1.00  0.00     0.020 A 
ATOM     64  C   UNL A   1      45.690  34.124  27.074  1.00  0.00     0.054 A 
BRANCH  64  65
ATOM     65  S   UNL A   1      46.196  35.822  26.717  1.00  0.00     0.124 S 
ATOM     66  O   UNL A   1      46.971  36.156  27.907  1.00  0.00    -0.237 OA
ATOM     67  O   UNL A   1      46.960  35.666  25.482  1.00  0.00    -0.237 OA
ATOM     68  O   UNL A   1      44.927  36.533  26.573  1.00  0.00    -0.744 OA
ENDBRANCH  64  65
ENDBRANCH  45  59
BRANCH  46  69
ATOM     69  C   UNL A   1      37.480  31.396  31.680  1.00  0.00    -0.014 A 
ATOM     70  C   UNL A   1      36.776  31.538  32.892  1.00  0.00     0.010 A 
ATOM     71  C   UNL A   1      37.117  32.243  30.613  1.00  0.00     0.010 A 
ATOM     72  C   UNL A   1      35.804  32.537  33.055  1.00  0.00     0.020 A 
ATOM     73  C   UNL A   1      36.140  33.236  30.764  1.00  0.00     0.020 A 
ATOM     74  C   UNL A   1      35.509  33.398  31.995  1.00  0.00     0.054 A 
BRANCH  74  75
ATOM     75  S   UNL A   1      34.401  34.812  32.276  1.00  0.00     0.124 S 
ATOM     76  O   UNL A   1      34.067  35.224  30.916  1.00  0.00    -0.237 OA
ATOM     77  O   UNL A   1      33.309  34.214  33.041  1.00  0.00    -0.237 OA
ATOM     78  O   UNL A   1      35.230  35.756  33.025  1.00  0.00    -0.744 OA
ENDBRANCH  74  75
ENDBRANCH  46  69
BRANCH  58  79
ATOM     79  C   UNL A   1      42.963  29.022  33.798  1.00  0.00    -0.014 A 
ATOM     80  C   UNL A   1      43.394  29.271  35.116  1.00  0.00     0.010 A 
ATOM     81  C   UNL A   1      42.194  27.869  33.555  1.00  0.00     0.010 A 
ATOM     82  C   UNL A   1      43.085  28.378  36.155  1.00  0.00     0.020 A 
ATOM     83  C   UNL A   1      41.866  26.987  34.588  1.00  0.00     0.020 A 
ATOM     84  C   UNL A   1      42.320  27.241  35.882  1.00  0.00     0.054 A 
BRANCH  84  85
ATOM     85  S   UNL A   1      41.871  26.123  37.240  1.00  0.00     0.124 S 
ATOM     86  O   UNL A   1      41.900  24.813  36.595  1.00  0.00    -0.237 OA
ATOM     87  O   UNL A   1      42.925  26.363  38.223  1.00  0.00    -0.237 OA
ATOM     88  O   UNL A   1      40.543  26.583  37.646  1.00  0.00    -0.744 OA
ENDBRANCH  84  85
ENDBRANCH  58  79
ENDBRANCH  32  33
ENDBRANCH  24  27
ENDBRANCH  22  23
ENDBRANCH   1  22
TORSDOF 17
ENDMDL
