MODEL 1
REMARK VINA RESULT:     -12.1      0.000      0.000
REMARK SMILES C[C@@H](C(=O)NCCCNC(=O)c1ccc(-c2c3nc(c(-c4ccc(S(=O)(=O)[O-])cc4)c4ccc([nH]4)c(-c4ccc(S(=O)(=O)[O-])cc4)c4nc(c(-c5ccc(S(=O)(=O)[O-])cc5)c5ccc2[nH]5)C=C4)C=C3)cc1)c1ccc(C[C@H]2CCC[C@H]2O)cc1-c1ccc(O)cc1
REMARK SMILES IDX 6 1 5 2 3 3 4 4 2 6 1 7 72 8 73 9 84 10 74 11 83 12 75 13
REMARK SMILES IDX 85 14 86 15 91 16 87 17 90 18 88 19 89 20 76 22 77 23 78 24
REMARK SMILES IDX 81 25 79 26 80 27 82 28 7 30 8 31 9 32 10 33 11 35 12 36
REMARK SMILES IDX 13 37 71 38 14 39 70 40 15 41 16 42 17 43 64 44 18 45 69 46
REMARK SMILES IDX 63 47 65 48 19 49 68 50 62 51 61 52 20 54 50 55 31 56 49 57
REMARK SMILES IDX 32 58 35 59 48 60 66 61 33 62 34 63 47 65 67 66 36 67 21 68
REMARK SMILES IDX 22 69 30 70 23 71 29 72 24 73 25 74 26 75 27 76 28 77 51 78
REMARK SMILES IDX 52 79 60 80 53 81 59 82 54 83 55 84 56 85 57 86 58 87 37 88
REMARK SMILES IDX 38 89 46 90 39 91 45 92 40 93 41 94 42 95 43 96 44 97
REMARK H PARENT 5 5 89 21 82 29 9 34 65 53 35 64
REMARK Flexibility Score: inf
ROOT
ATOM      1  C   UNL A   1      32.979  27.223  24.781  1.00  0.00     0.117 C 
ENDROOT
BRANCH   1   2
ATOM      2  N   UNL A   1      32.504  26.091  25.549  1.00  0.00    -0.356 N 
ATOM      3  C   UNL A   1      32.641  24.755  25.314  1.00  0.00     0.227 C 
ATOM      4  O   UNL A   1      32.041  24.000  26.083  1.00  0.00    -0.274 OA
ATOM      5  H   UNL A   1      32.008  26.321  26.368  1.00  0.00     0.163 HD
BRANCH   3   6
ATOM      6  C   UNL A   1      33.542  24.253  24.166  1.00  0.00     0.106 C 
ATOM      7  C   UNL A   1      33.264  25.060  22.889  1.00  0.00     0.023 C 
BRANCH   6   8
ATOM      8  C   UNL A   1      33.365  22.740  23.977  1.00  0.00    -0.028 A 
ATOM      9  C   UNL A   1      32.212  22.258  23.330  1.00  0.00     0.005 A 
ATOM     10  C   UNL A   1      34.289  21.800  24.503  1.00  0.00    -0.014 A 
ATOM     11  C   UNL A   1      31.944  20.899  23.240  1.00  0.00     0.004 A 
ATOM     12  C   UNL A   1      33.943  20.430  24.479  1.00  0.00     0.012 A 
ATOM     13  C   UNL A   1      32.752  19.976  23.892  1.00  0.00    -0.047 A 
BRANCH  10  14
ATOM     14  C   UNL A   1      35.623  22.179  25.012  1.00  0.00    -0.018 A 
ATOM     15  C   UNL A   1      36.701  21.289  24.850  1.00  0.00     0.012 A 
ATOM     16  C   UNL A   1      35.874  23.409  25.641  1.00  0.00     0.012 A 
ATOM     17  C   UNL A   1      37.989  21.627  25.270  1.00  0.00     0.047 A 
ATOM     18  C   UNL A   1      37.168  23.762  26.042  1.00  0.00     0.047 A 
ATOM     19  C   UNL A   1      38.216  22.868  25.847  1.00  0.00     0.115 A 
BRANCH  19  20
ATOM     20  O   UNL A   1      39.493  23.175  26.211  1.00  0.00    -0.508 OA
ATOM     21  H   UNL A   1      39.890  22.741  26.941  1.00  0.00     0.293 HD
ENDBRANCH  19  20
ENDBRANCH  10  14
BRANCH  13  22
ATOM     22  C   UNL A   1      32.320  18.535  23.978  1.00  0.00     0.041 C 
BRANCH  22  23
ATOM     23  C   UNL A   1      33.231  17.568  24.760  1.00  0.00     0.022 C 
ATOM     24  C   UNL A   1      32.519  16.388  25.443  1.00  0.00     0.007 C 
ATOM     25  C   UNL A   1      34.442  16.930  24.055  1.00  0.00     0.117 C 
ATOM     26  C   UNL A   1      33.555  15.262  25.531  1.00  0.00     0.003 C 
ATOM     27  C   UNL A   1      34.874  15.858  25.047  1.00  0.00     0.032 C 
BRANCH  25  28
ATOM     28  O   UNL A   1      34.169  16.295  22.820  1.00  0.00    -0.393 OA
ATOM     29  H   UNL A   1      34.936  15.764  22.554  1.00  0.00     0.210 HD
ENDBRANCH  25  28
ENDBRANCH  22  23
ENDBRANCH  13  22
ENDBRANCH   6   8
ENDBRANCH   3   6
ENDBRANCH   1   2
BRANCH   1  30
ATOM     30  C   UNL A   1      34.032  28.014  25.555  1.00  0.00     0.042 C 
BRANCH  30  31
ATOM     31  C   UNL A   1      33.693  28.216  27.029  1.00  0.00     0.118 C 
BRANCH  31  32
ATOM     32  N   UNL A   1      33.568  29.622  27.381  1.00  0.00    -0.352 N 
ATOM     33  C   UNL A   1      34.440  30.446  28.049  1.00  0.00     0.251 C 
ATOM     34  H   UNL A   1      32.730  30.050  27.095  1.00  0.00     0.163 HD
ATOM     35  O   UNL A   1      34.051  31.546  28.432  1.00  0.00    -0.269 OA
BRANCH  33  36
ATOM     36  C   UNL A   1      35.829  30.013  28.322  1.00  0.00     0.039 A 
ATOM     37  C   UNL A   1      36.769  30.072  27.289  1.00  0.00     0.014 A 
ATOM     38  C   UNL A   1      36.201  29.520  29.576  1.00  0.00     0.014 A 
ATOM     39  C   UNL A   1      38.091  29.692  27.530  1.00  0.00     0.010 A 
ATOM     40  C   UNL A   1      37.536  29.215  29.835  1.00  0.00     0.010 A 
ATOM     41  C   UNL A   1      38.495  29.292  28.815  1.00  0.00    -0.014 A 
BRANCH  41  42
ATOM     42  C   UNL A   1      39.912  28.957  29.108  1.00  0.00     0.031 A 
ATOM     43  C   UNL A   1      40.829  29.989  29.710  1.00  0.00     0.074 A 
ATOM     44  C   UNL A   1      40.390  27.741  28.778  1.00  0.00     0.049 A 
ATOM     45  N   UNL A   1      42.106  29.897  29.985  1.00  0.00    -0.248 NA
ATOM     46  C   UNL A   1      40.241  31.302  30.023  1.00  0.00     0.031 C 
ATOM     47  C   UNL A   1      39.614  26.666  28.154  1.00  0.00     0.029 A 
ATOM     48  N   UNL A   1      41.647  27.205  28.912  1.00  0.00    -0.354 N 
ATOM     49  C   UNL A   1      42.477  31.140  30.485  1.00  0.00     0.074 A 
ATOM     50  C   UNL A   1      41.302  31.983  30.431  1.00  0.00     0.031 C 
ATOM     51  C   UNL A   1      40.404  25.593  27.988  1.00  0.00     0.029 A 
ATOM     52  C   UNL A   1      41.751  25.915  28.447  1.00  0.00     0.049 A 
ATOM     53  H   UNL A   1      42.403  27.698  29.305  1.00  0.00     0.167 HD
ATOM     54  C   UNL A   1      43.680  31.538  30.964  1.00  0.00     0.031 A 
ATOM     55  C   UNL A   1      42.811  25.085  28.387  1.00  0.00     0.031 A 
ATOM     56  C   UNL A   1      44.844  30.694  31.023  1.00  0.00     0.049 A 
ATOM     57  C   UNL A   1      44.141  25.556  28.908  1.00  0.00     0.074 A 
ATOM     58  C   UNL A   1      46.094  30.988  31.540  1.00  0.00     0.029 A 
ATOM     59  N   UNL A   1      44.905  29.394  30.544  1.00  0.00    -0.354 N 
ATOM     60  N   UNL A   1      44.454  26.715  29.439  1.00  0.00    -0.248 NA
ATOM     61  C   UNL A   1      45.258  24.605  28.832  1.00  0.00     0.031 C 
ATOM     62  C   UNL A   1      46.927  29.886  31.323  1.00  0.00     0.029 A 
ATOM     63  C   UNL A   1      46.179  28.882  30.730  1.00  0.00     0.049 A 
ATOM     64  H   UNL A   1      44.155  28.907  30.134  1.00  0.00     0.167 HD
ATOM     65  C   UNL A   1      45.798  26.620  29.785  1.00  0.00     0.074 A 
ATOM     66  C   UNL A   1      46.232  25.288  29.418  1.00  0.00     0.031 C 
ATOM     67  C   UNL A   1      46.599  27.554  30.357  1.00  0.00     0.031 A 
BRANCH  54  68
ATOM     68  C   UNL A   1      43.799  32.958  31.457  1.00  0.00    -0.014 A 
ATOM     69  C   UNL A   1      44.214  33.994  30.599  1.00  0.00     0.010 A 
ATOM     70  C   UNL A   1      43.448  33.270  32.783  1.00  0.00     0.010 A 
ATOM     71  C   UNL A   1      44.321  35.304  31.071  1.00  0.00     0.020 A 
ATOM     72  C   UNL A   1      43.525  34.586  33.251  1.00  0.00     0.020 A 
ATOM     73  C   UNL A   1      43.978  35.591  32.396  1.00  0.00     0.054 A 
BRANCH  73  74
ATOM     74  S   UNL A   1      44.107  37.306  32.974  1.00  0.00     0.124 S 
ATOM     75  O   UNL A   1      43.917  38.056  31.733  1.00  0.00    -0.237 OA
ATOM     76  O   UNL A   1      43.014  37.402  33.938  1.00  0.00    -0.237 OA
ATOM     77  O   UNL A   1      45.449  37.380  33.547  1.00  0.00    -0.744 OA
ENDBRANCH  73  74
ENDBRANCH  54  68
BRANCH  55  78
ATOM     78  C   UNL A   1      42.653  23.718  27.819  1.00  0.00    -0.014 A 
ATOM     79  C   UNL A   1      42.161  22.667  28.614  1.00  0.00     0.010 A 
ATOM     80  C   UNL A   1      42.981  23.463  26.475  1.00  0.00     0.010 A 
ATOM     81  C   UNL A   1      42.016  21.383  28.079  1.00  0.00     0.020 A 
ATOM     82  C   UNL A   1      42.809  22.188  25.929  1.00  0.00     0.020 A 
ATOM     83  C   UNL A   1      42.338  21.153  26.739  1.00  0.00     0.054 A 
BRANCH  83  84
ATOM     84  S   UNL A   1      42.092  19.491  26.054  1.00  0.00     0.124 S 
ATOM     85  O   UNL A   1      42.502  18.639  27.166  1.00  0.00    -0.237 OA
ATOM     86  O   UNL A   1      40.664  19.486  25.745  1.00  0.00    -0.237 OA
ATOM     87  O   UNL A   1      42.972  19.468  24.888  1.00  0.00    -0.744 OA
ENDBRANCH  83  84
ENDBRANCH  55  78
BRANCH  67  88
ATOM     88  C   UNL A   1      48.022  27.159  30.653  1.00  0.00    -0.014 A 
ATOM     89  C   UNL A   1      49.059  27.426  29.742  1.00  0.00     0.010 A 
ATOM     90  C   UNL A   1      48.332  26.559  31.887  1.00  0.00     0.010 A 
ATOM     91  C   UNL A   1      50.377  27.070  30.047  1.00  0.00     0.020 A 
ATOM     92  C   UNL A   1      49.651  26.229  32.208  1.00  0.00     0.020 A 
ATOM     93  C   UNL A   1      50.664  26.475  31.279  1.00  0.00     0.054 A 
BRANCH  93  94
ATOM     94  S   UNL A   1      52.387  26.063  31.668  1.00  0.00     0.124 S 
ATOM     95  O   UNL A   1      52.742  27.114  32.619  1.00  0.00    -0.237 OA
ATOM     96  O   UNL A   1      52.276  24.719  32.228  1.00  0.00    -0.237 OA
ATOM     97  O   UNL A   1      53.063  26.140  30.375  1.00  0.00    -0.744 OA
ENDBRANCH  93  94
ENDBRANCH  67  88
ENDBRANCH  41  42
ENDBRANCH  33  36
ENDBRANCH  31  32
ENDBRANCH  30  31
ENDBRANCH   1  30
TORSDOF 19
ENDMDL
MODEL 2
REMARK VINA RESULT:     -12.0      1.223      2.404
REMARK SMILES C[C@@H](C(=O)NCCCNC(=O)c1ccc(-c2c3nc(c(-c4ccc(S(=O)(=O)[O-])cc4)c4ccc([nH]4)c(-c4ccc(S(=O)(=O)[O-])cc4)c4nc(c(-c5ccc(S(=O)(=O)[O-])cc5)c5ccc2[nH]5)C=C4)C=C3)cc1)c1ccc(C[C@H]2CCC[C@H]2O)cc1-c1ccc(O)cc1
REMARK SMILES IDX 6 1 5 2 3 3 4 4 2 6 1 7 72 8 73 9 84 10 74 11 83 12 75 13
REMARK SMILES IDX 85 14 86 15 91 16 87 17 90 18 88 19 89 20 76 22 77 23 78 24
REMARK SMILES IDX 81 25 79 26 80 27 82 28 7 30 8 31 9 32 10 33 11 35 12 36
REMARK SMILES IDX 13 37 71 38 14 39 70 40 15 41 16 42 17 43 64 44 18 45 69 46
REMARK SMILES IDX 63 47 65 48 19 49 68 50 62 51 61 52 20 54 50 55 31 56 49 57
REMARK SMILES IDX 32 58 35 59 48 60 66 61 33 62 34 63 47 65 67 66 36 67 21 68
REMARK SMILES IDX 22 69 30 70 23 71 29 72 24 73 25 74 26 75 27 76 28 77 51 78
REMARK SMILES IDX 52 79 60 80 53 81 59 82 54 83 55 84 56 85 57 86 58 87 37 88
REMARK SMILES IDX 38 89 46 90 39 91 45 92 40 93 41 94 42 95 43 96 44 97
REMARK H PARENT 5 5 89 21 82 29 9 34 65 53 35 64
REMARK Flexibility Score: inf
ROOT
ATOM      1  C   UNL A   1      33.492  26.360  25.439  1.00  0.00     0.117 C 
ENDROOT
BRANCH   1   2
ATOM      2  N   UNL A   1      34.487  25.342  25.175  1.00  0.00    -0.356 N 
ATOM      3  C   UNL A   1      34.495  24.019  25.506  1.00  0.00     0.227 C 
ATOM      4  O   UNL A   1      35.528  23.396  25.247  1.00  0.00    -0.274 OA
ATOM      5  H   UNL A   1      35.279  25.652  24.679  1.00  0.00     0.163 HD
BRANCH   3   6
ATOM      6  C   UNL A   1      33.243  23.363  26.128  1.00  0.00     0.106 C 
ATOM      7  C   UNL A   1      33.475  23.105  27.624  1.00  0.00     0.023 C 
BRANCH   6   8
ATOM      8  C   UNL A   1      32.866  22.098  25.345  1.00  0.00    -0.028 A 
ATOM      9  C   UNL A   1      32.945  20.846  25.983  1.00  0.00     0.005 A 
ATOM     10  C   UNL A   1      32.515  22.137  23.971  1.00  0.00    -0.014 A 
ATOM     11  C   UNL A   1      32.732  19.662  25.288  1.00  0.00     0.004 A 
ATOM     12  C   UNL A   1      32.396  20.915  23.271  1.00  0.00     0.012 A 
ATOM     13  C   UNL A   1      32.550  19.675  23.911  1.00  0.00    -0.047 A 
BRANCH  10  14
ATOM     14  C   UNL A   1      32.198  23.390  23.255  1.00  0.00    -0.018 A 
ATOM     15  C   UNL A   1      31.041  24.110  23.603  1.00  0.00     0.012 A 
ATOM     16  C   UNL A   1      33.017  23.911  22.240  1.00  0.00     0.012 A 
ATOM     17  C   UNL A   1      30.730  25.324  22.988  1.00  0.00     0.047 A 
ATOM     18  C   UNL A   1      32.723  25.141  21.637  1.00  0.00     0.047 A 
ATOM     19  C   UNL A   1      31.582  25.839  22.021  1.00  0.00     0.115 A 
BRANCH  19  20
ATOM     20  O   UNL A   1      31.263  27.044  21.470  1.00  0.00    -0.508 OA
ATOM     21  H   UNL A   1      31.938  27.592  21.120  1.00  0.00     0.293 HD
ENDBRANCH  19  20
ENDBRANCH  10  14
BRANCH  13  22
ATOM     22  C   UNL A   1      32.554  18.378  23.146  1.00  0.00     0.041 C 
BRANCH  22  23
ATOM     23  C   UNL A   1      33.572  17.303  23.578  1.00  0.00     0.022 C 
ATOM     24  C   UNL A   1      34.845  17.829  24.261  1.00  0.00     0.007 C 
ATOM     25  C   UNL A   1      33.109  16.136  24.469  1.00  0.00     0.117 C 
ATOM     26  C   UNL A   1      35.330  16.701  25.178  1.00  0.00     0.003 C 
ATOM     27  C   UNL A   1      34.429  15.502  24.891  1.00  0.00     0.032 C 
BRANCH  25  28
ATOM     28  O   UNL A   1      32.408  16.501  25.643  1.00  0.00    -0.393 OA
ATOM     29  H   UNL A   1      32.932  17.144  26.146  1.00  0.00     0.210 HD
ENDBRANCH  25  28
ENDBRANCH  22  23
ENDBRANCH  13  22
ENDBRANCH   6   8
ENDBRANCH   3   6
ENDBRANCH   1   2
BRANCH   1  30
ATOM     30  C   UNL A   1      34.130  27.619  26.022  1.00  0.00     0.042 C 
BRANCH  30  31
ATOM     31  C   UNL A   1      33.465  28.112  27.305  1.00  0.00     0.118 C 
BRANCH  31  32
ATOM     32  N   UNL A   1      33.418  29.564  27.381  1.00  0.00    -0.352 N 
ATOM     33  C   UNL A   1      34.347  30.453  27.863  1.00  0.00     0.251 C 
ATOM     34  H   UNL A   1      32.593  29.973  27.033  1.00  0.00     0.163 HD
ATOM     35  O   UNL A   1      34.022  31.625  28.035  1.00  0.00    -0.269 OA
BRANCH  33  36
ATOM     36  C   UNL A   1      35.721  30.008  28.189  1.00  0.00     0.039 A 
ATOM     37  C   UNL A   1      36.708  30.090  27.203  1.00  0.00     0.014 A 
ATOM     38  C   UNL A   1      36.032  29.480  29.445  1.00  0.00     0.014 A 
ATOM     39  C   UNL A   1      38.016  29.699  27.495  1.00  0.00     0.010 A 
ATOM     40  C   UNL A   1      37.353  29.163  29.759  1.00  0.00     0.010 A 
ATOM     41  C   UNL A   1      38.358  29.264  28.786  1.00  0.00    -0.014 A 
BRANCH  41  42
ATOM     42  C   UNL A   1      39.760  28.915  29.137  1.00  0.00     0.031 A 
ATOM     43  C   UNL A   1      40.654  29.932  29.796  1.00  0.00     0.074 A 
ATOM     44  C   UNL A   1      40.246  27.702  28.808  1.00  0.00     0.049 A 
ATOM     45  N   UNL A   1      41.917  29.828  30.125  1.00  0.00    -0.248 NA
ATOM     46  C   UNL A   1      40.060  31.243  30.104  1.00  0.00     0.031 C 
ATOM     47  C   UNL A   1      39.492  26.642  28.133  1.00  0.00     0.029 A 
ATOM     48  N   UNL A   1      41.493  27.157  28.989  1.00  0.00    -0.354 N 
ATOM     49  C   UNL A   1      42.272  31.060  30.662  1.00  0.00     0.074 A 
ATOM     50  C   UNL A   1      41.105  31.911  30.571  1.00  0.00     0.031 C 
ATOM     51  C   UNL A   1      40.283  25.567  27.983  1.00  0.00     0.029 A 
ATOM     52  C   UNL A   1      41.610  25.874  28.507  1.00  0.00     0.049 A 
ATOM     53  H   UNL A   1      42.233  27.638  29.423  1.00  0.00     0.167 HD
ATOM     54  C   UNL A   1      43.454  31.443  31.201  1.00  0.00     0.031 A 
ATOM     55  C   UNL A   1      42.667  25.039  28.481  1.00  0.00     0.031 A 
ATOM     56  C   UNL A   1      44.611  30.591  31.297  1.00  0.00     0.049 A 
ATOM     57  C   UNL A   1      43.976  25.493  29.068  1.00  0.00     0.074 A 
ATOM     58  C   UNL A   1      45.837  30.870  31.874  1.00  0.00     0.029 A 
ATOM     59  N   UNL A   1      44.686  29.299  30.800  1.00  0.00    -0.354 N 
ATOM     60  N   UNL A   1      44.270  26.641  29.631  1.00  0.00    -0.248 NA
ATOM     61  C   UNL A   1      45.089  24.537  29.025  1.00  0.00     0.031 C 
ATOM     62  C   UNL A   1      46.674  29.766  31.676  1.00  0.00     0.029 A 
ATOM     63  C   UNL A   1      45.947  28.776  31.033  1.00  0.00     0.049 A 
ATOM     64  H   UNL A   1      43.952  28.823  30.349  1.00  0.00     0.167 HD
ATOM     65  C   UNL A   1      45.598  26.533  30.035  1.00  0.00     0.074 A 
ATOM     66  C   UNL A   1      46.040  25.205  29.665  1.00  0.00     0.031 C 
ATOM     67  C   UNL A   1      46.377  27.452  30.657  1.00  0.00     0.031 A 
BRANCH  54  68
ATOM     68  C   UNL A   1      43.558  32.854  31.722  1.00  0.00    -0.014 A 
ATOM     69  C   UNL A   1      43.749  33.941  30.848  1.00  0.00     0.010 A 
ATOM     70  C   UNL A   1      43.420  33.103  33.100  1.00  0.00     0.010 A 
ATOM     71  C   UNL A   1      43.845  35.242  31.346  1.00  0.00     0.020 A 
ATOM     72  C   UNL A   1      43.486  34.408  33.600  1.00  0.00     0.020 A 
ATOM     73  C   UNL A   1      43.716  35.467  32.721  1.00  0.00     0.054 A 
BRANCH  73  74
ATOM     74  S   UNL A   1      43.824  37.170  33.335  1.00  0.00     0.124 S 
ATOM     75  O   UNL A   1      45.049  37.124  34.132  1.00  0.00    -0.237 OA
ATOM     76  O   UNL A   1      43.906  37.951  32.103  1.00  0.00    -0.237 OA
ATOM     77  O   UNL A   1      42.592  37.343  34.100  1.00  0.00    -0.744 OA
ENDBRANCH  73  74
ENDBRANCH  54  68
BRANCH  55  78
ATOM     78  C   UNL A   1      42.527  23.682  27.884  1.00  0.00    -0.014 A 
ATOM     79  C   UNL A   1      42.007  22.618  28.641  1.00  0.00     0.010 A 
ATOM     80  C   UNL A   1      42.902  23.450  26.546  1.00  0.00     0.010 A 
ATOM     81  C   UNL A   1      41.879  21.344  28.080  1.00  0.00     0.020 A 
ATOM     82  C   UNL A   1      42.748  22.185  25.973  1.00  0.00     0.020 A 
ATOM     83  C   UNL A   1      42.247  21.137  26.748  1.00  0.00     0.054 A 
BRANCH  83  84
ATOM     84  S   UNL A   1      42.023  19.488  26.025  1.00  0.00     0.124 S 
ATOM     85  O   UNL A   1      42.546  18.621  27.077  1.00  0.00    -0.237 OA
ATOM     86  O   UNL A   1      40.579  19.430  25.815  1.00  0.00    -0.237 OA
ATOM     87  O   UNL A   1      42.820  19.540  24.801  1.00  0.00    -0.744 OA
ENDBRANCH  83  84
ENDBRANCH  55  78
BRANCH  67  88
ATOM     88  C   UNL A   1      47.783  27.044  31.009  1.00  0.00    -0.014 A 
ATOM     89  C   UNL A   1      48.072  26.385  32.217  1.00  0.00     0.010 A 
ATOM     90  C   UNL A   1      48.823  27.278  30.091  1.00  0.00     0.010 A 
ATOM     91  C   UNL A   1      49.383  25.996  32.514  1.00  0.00     0.020 A 
ATOM     92  C   UNL A   1      50.127  26.865  30.370  1.00  0.00     0.020 A 
ATOM     93  C   UNL A   1      50.401  26.238  31.588  1.00  0.00     0.054 A 
BRANCH  93  94
ATOM     94  S   UNL A   1      52.084  25.684  31.977  1.00  0.00     0.124 S 
ATOM     95  O   UNL A   1      52.410  26.500  33.144  1.00  0.00    -0.237 OA
ATOM     96  O   UNL A   1      51.900  24.259  32.237  1.00  0.00    -0.237 OA
ATOM     97  O   UNL A   1      52.842  25.999  30.767  1.00  0.00    -0.744 OA
ENDBRANCH  93  94
ENDBRANCH  67  88
ENDBRANCH  41  42
ENDBRANCH  33  36
ENDBRANCH  31  32
ENDBRANCH  30  31
ENDBRANCH   1  30
TORSDOF 19
ENDMDL
MODEL 3
REMARK VINA RESULT:     -11.8      4.450      9.937
REMARK SMILES C[C@@H](C(=O)NCCCNC(=O)c1ccc(-c2c3nc(c(-c4ccc(S(=O)(=O)[O-])cc4)c4ccc([nH]4)c(-c4ccc(S(=O)(=O)[O-])cc4)c4nc(c(-c5ccc(S(=O)(=O)[O-])cc5)c5ccc2[nH]5)C=C4)C=C3)cc1)c1ccc(C[C@H]2CCC[C@H]2O)cc1-c1ccc(O)cc1
REMARK SMILES IDX 6 1 5 2 3 3 4 4 2 6 1 7 72 8 73 9 84 10 74 11 83 12 75 13
REMARK SMILES IDX 85 14 86 15 91 16 87 17 90 18 88 19 89 20 76 22 77 23 78 24
REMARK SMILES IDX 81 25 79 26 80 27 82 28 7 30 8 31 9 32 10 33 11 35 12 36
REMARK SMILES IDX 13 37 71 38 14 39 70 40 15 41 16 42 17 43 64 44 18 45 69 46
REMARK SMILES IDX 63 47 65 48 19 49 68 50 62 51 61 52 20 54 50 55 31 56 49 57
REMARK SMILES IDX 32 58 35 59 48 60 66 61 33 62 34 63 47 65 67 66 36 67 21 68
REMARK SMILES IDX 22 69 30 70 23 71 29 72 24 73 25 74 26 75 27 76 28 77 51 78
REMARK SMILES IDX 52 79 60 80 53 81 59 82 54 83 55 84 56 85 57 86 58 87 37 88
REMARK SMILES IDX 38 89 46 90 39 91 45 92 40 93 41 94 42 95 43 96 44 97
REMARK H PARENT 5 5 89 21 82 29 9 34 65 53 35 64
REMARK Flexibility Score: inf
ROOT
ATOM      1  C   UNL A   1      37.889  22.595  26.003  1.00  0.00     0.117 C 
ENDROOT
BRANCH   1   2
ATOM      2  N   UNL A   1      37.798  22.906  24.592  1.00  0.00    -0.356 N 
ATOM      3  C   UNL A   1      36.724  23.302  23.851  1.00  0.00     0.227 C 
ATOM      4  O   UNL A   1      36.904  23.400  22.634  1.00  0.00    -0.274 OA
ATOM      5  H   UNL A   1      38.641  22.820  24.090  1.00  0.00     0.163 HD
BRANCH   3   6
ATOM      6  C   UNL A   1      35.385  23.646  24.539  1.00  0.00     0.106 C 
ATOM      7  C   UNL A   1      35.647  24.212  25.942  1.00  0.00     0.023 C 
BRANCH   6   8
ATOM      8  C   UNL A   1      34.463  22.419  24.543  1.00  0.00    -0.028 A 
ATOM      9  C   UNL A   1      34.816  21.296  25.313  1.00  0.00     0.005 A 
ATOM     10  C   UNL A   1      33.301  22.345  23.731  1.00  0.00    -0.014 A 
ATOM     11  C   UNL A   1      34.082  20.118  25.259  1.00  0.00     0.004 A 
ATOM     12  C   UNL A   1      32.631  21.106  23.625  1.00  0.00     0.012 A 
ATOM     13  C   UNL A   1      33.042  19.976  24.349  1.00  0.00    -0.047 A 
BRANCH  10  14
ATOM     14  C   UNL A   1      32.719  23.519  23.048  1.00  0.00    -0.018 A 
ATOM     15  C   UNL A   1      31.653  24.211  23.652  1.00  0.00     0.012 A 
ATOM     16  C   UNL A   1      33.197  23.993  21.816  1.00  0.00     0.012 A 
ATOM     17  C   UNL A   1      31.107  25.354  23.066  1.00  0.00     0.047 A 
ATOM     18  C   UNL A   1      32.668  25.154  21.236  1.00  0.00     0.047 A 
ATOM     19  C   UNL A   1      31.629  25.827  21.871  1.00  0.00     0.115 A 
BRANCH  19  20
ATOM     20  O   UNL A   1      31.093  26.966  21.350  1.00  0.00    -0.508 OA
ATOM     21  H   UNL A   1      31.151  27.132  20.429  1.00  0.00     0.293 HD
ENDBRANCH  19  20
ENDBRANCH  10  14
BRANCH  13  22
ATOM     22  C   UNL A   1      32.412  18.624  24.141  1.00  0.00     0.041 C 
BRANCH  22  23
ATOM     23  C   UNL A   1      33.036  17.429  24.890  1.00  0.00     0.022 C 
ATOM     24  C   UNL A   1      32.052  16.330  25.327  1.00  0.00     0.007 C 
ATOM     25  C   UNL A   1      34.210  16.664  24.253  1.00  0.00     0.117 C 
ATOM     26  C   UNL A   1      32.866  15.033  25.387  1.00  0.00     0.003 C 
ATOM     27  C   UNL A   1      34.319  15.430  25.141  1.00  0.00     0.032 C 
BRANCH  25  28
ATOM     28  O   UNL A   1      34.007  16.225  22.923  1.00  0.00    -0.393 OA
ATOM     29  H   UNL A   1      34.676  16.625  22.345  1.00  0.00     0.210 HD
ENDBRANCH  25  28
ENDBRANCH  22  23
ENDBRANCH  13  22
ENDBRANCH   6   8
ENDBRANCH   3   6
ENDBRANCH   1   2
BRANCH   1  30
ATOM     30  C   UNL A   1      39.325  22.267  26.405  1.00  0.00     0.042 C 
BRANCH  30  31
ATOM     31  C   UNL A   1      40.089  23.453  26.990  1.00  0.00     0.118 C 
BRANCH  31  32
ATOM     32  N   UNL A   1      41.003  24.050  26.028  1.00  0.00    -0.352 N 
ATOM     33  C   UNL A   1      41.474  25.337  25.939  1.00  0.00     0.251 C 
ATOM     34  H   UNL A   1      41.337  23.437  25.334  1.00  0.00     0.163 HD
ATOM     35  O   UNL A   1      42.069  25.688  24.924  1.00  0.00    -0.269 OA
BRANCH  33  36
ATOM     36  C   UNL A   1      41.256  26.299  27.042  1.00  0.00     0.039 A 
ATOM     37  C   UNL A   1      40.324  25.986  28.035  1.00  0.00     0.014 A 
ATOM     38  C   UNL A   1      41.938  27.518  27.085  1.00  0.00     0.014 A 
ATOM     39  C   UNL A   1      40.120  26.866  29.100  1.00  0.00     0.010 A 
ATOM     40  C   UNL A   1      41.790  28.359  28.187  1.00  0.00     0.010 A 
ATOM     41  C   UNL A   1      40.876  28.047  29.203  1.00  0.00    -0.014 A 
BRANCH  41  42
ATOM     42  C   UNL A   1      40.727  28.959  30.367  1.00  0.00     0.031 A 
ATOM     43  C   UNL A   1      41.603  28.792  31.581  1.00  0.00     0.074 A 
ATOM     44  C   UNL A   1      39.763  29.900  30.354  1.00  0.00     0.049 A 
ATOM     45  N   UNL A   1      41.582  29.456  32.709  1.00  0.00    -0.248 NA
ATOM     46  C   UNL A   1      42.618  27.728  31.530  1.00  0.00     0.031 C 
ATOM     47  C   UNL A   1      38.825  30.138  29.254  1.00  0.00     0.029 A 
ATOM     48  N   UNL A   1      39.405  30.829  31.300  1.00  0.00    -0.354 N 
ATOM     49  C   UNL A   1      42.564  28.881  33.506  1.00  0.00     0.074 A 
ATOM     50  C   UNL A   1      43.130  27.784  32.751  1.00  0.00     0.031 C 
ATOM     51  C   UNL A   1      38.020  31.164  29.577  1.00  0.00     0.029 A 
ATOM     52  C   UNL A   1      38.350  31.626  30.921  1.00  0.00     0.049 A 
ATOM     53  H   UNL A   1      39.861  30.917  32.168  1.00  0.00     0.167 HD
ATOM     54  C   UNL A   1      42.974  29.244  34.745  1.00  0.00     0.031 A 
ATOM     55  C   UNL A   1      37.714  32.613  31.580  1.00  0.00     0.031 A 
ATOM     56  C   UNL A   1      42.413  30.341  35.490  1.00  0.00     0.049 A 
ATOM     57  C   UNL A   1      38.173  32.986  32.964  1.00  0.00     0.074 A 
ATOM     58  C   UNL A   1      42.795  30.821  36.731  1.00  0.00     0.029 A 
ATOM     59  N   UNL A   1      41.350  31.123  35.069  1.00  0.00    -0.354 N 
ATOM     60  N   UNL A   1      39.150  32.472  33.673  1.00  0.00    -0.248 NA
ATOM     61  C   UNL A   1      37.453  34.079  33.630  1.00  0.00     0.031 C 
ATOM     62  C   UNL A   1      41.926  31.858  37.084  1.00  0.00     0.029 A 
ATOM     63  C   UNL A   1      41.044  32.066  36.036  1.00  0.00     0.049 A 
ATOM     64  H   UNL A   1      40.881  31.025  34.209  1.00  0.00     0.167 HD
ATOM     65  C   UNL A   1      39.178  33.199  34.859  1.00  0.00     0.074 A 
ATOM     66  C   UNL A   1      38.132  34.196  34.763  1.00  0.00     0.031 C 
ATOM     67  C   UNL A   1      39.997  33.052  35.930  1.00  0.00     0.031 A 
BRANCH  54  68
ATOM     68  C   UNL A   1      44.079  28.438  35.378  1.00  0.00    -0.014 A 
ATOM     69  C   UNL A   1      43.797  27.304  36.163  1.00  0.00     0.010 A 
ATOM     70  C   UNL A   1      45.422  28.793  35.151  1.00  0.00     0.010 A 
ATOM     71  C   UNL A   1      44.832  26.569  36.744  1.00  0.00     0.020 A 
ATOM     72  C   UNL A   1      46.463  28.042  35.707  1.00  0.00     0.020 A 
ATOM     73  C   UNL A   1      46.160  26.945  36.514  1.00  0.00     0.054 A 
BRANCH  73  74
ATOM     74  S   UNL A   1      47.483  25.958  37.266  1.00  0.00     0.124 S 
ATOM     75  O   UNL A   1      47.021  25.838  38.647  1.00  0.00    -0.237 OA
ATOM     76  O   UNL A   1      47.448  24.725  36.483  1.00  0.00    -0.237 OA
ATOM     77  O   UNL A   1      48.678  26.778  37.078  1.00  0.00    -0.744 OA
ENDBRANCH  73  74
ENDBRANCH  54  68
BRANCH  55  78
ATOM     78  C   UNL A   1      36.576  33.325  30.935  1.00  0.00    -0.014 A 
ATOM     79  C   UNL A   1      35.305  33.334  31.536  1.00  0.00     0.010 A 
ATOM     80  C   UNL A   1      36.763  34.010  29.719  1.00  0.00     0.010 A 
ATOM     81  C   UNL A   1      34.238  34.001  30.926  1.00  0.00     0.020 A 
ATOM     82  C   UNL A   1      35.706  34.702  29.122  1.00  0.00     0.020 A 
ATOM     83  C   UNL A   1      34.446  34.683  29.725  1.00  0.00     0.054 A 
BRANCH  83  84
ATOM     84  S   UNL A   1      33.059  35.585  28.979  1.00  0.00     0.124 S 
ATOM     85  O   UNL A   1      32.383  34.534  28.226  1.00  0.00    -0.237 OA
ATOM     86  O   UNL A   1      32.344  36.085  30.151  1.00  0.00    -0.237 OA
ATOM     87  O   UNL A   1      33.713  36.613  28.174  1.00  0.00    -0.744 OA
ENDBRANCH  83  84
ENDBRANCH  55  78
BRANCH  67  88
ATOM     88  C   UNL A   1      39.820  34.014  37.075  1.00  0.00    -0.014 A 
ATOM     89  C   UNL A   1      40.368  35.308  37.034  1.00  0.00     0.010 A 
ATOM     90  C   UNL A   1      39.046  33.632  38.187  1.00  0.00     0.010 A 
ATOM     91  C   UNL A   1      40.173  36.192  38.101  1.00  0.00     0.020 A 
ATOM     92  C   UNL A   1      38.824  34.522  39.240  1.00  0.00     0.020 A 
ATOM     93  C   UNL A   1      39.401  35.793  39.196  1.00  0.00     0.054 A 
BRANCH  93  94
ATOM     94  S   UNL A   1      39.126  36.974  40.545  1.00  0.00     0.124 S 
ATOM     95  O   UNL A   1      38.434  38.062  39.860  1.00  0.00    -0.237 OA
ATOM     96  O   UNL A   1      38.314  36.204  41.484  1.00  0.00    -0.237 OA
ATOM     97  O   UNL A   1      40.475  37.290  41.010  1.00  0.00    -0.744 OA
ENDBRANCH  93  94
ENDBRANCH  67  88
ENDBRANCH  41  42
ENDBRANCH  33  36
ENDBRANCH  31  32
ENDBRANCH  30  31
ENDBRANCH   1  30
TORSDOF 19
ENDMDL
