MODEL 1
REMARK VINA RESULT:     -12.4      0.000      0.000
REMARK SMILES Cc1ccccc1[C@@H](CC(=O)NCCCNC(=O)c1ccc(-c2c3nc(c(-c4ccc(S(=O)(=O)[O-])cc4)c4ccc([nH]4)c(-c4ccc(S(=O)(=O)[O-])cc4)c4nc(c(-c5ccc(S(=O)(=O)[O-])cc5)c5ccc2[nH]5)C=C4)C=C3)cc1)NC(=O)C(F)(F)F
REMARK SMILES IDX 14 1 13 2 12 3 10 4 11 5 9 7 8 8 7 9 1 10 2 11 3 12 4 13
REMARK SMILES IDX 6 14 5 15 79 16 80 17 81 19 82 20 83 21 84 22 85 23 15 24
REMARK SMILES IDX 16 25 17 26 18 28 19 29 20 30 78 31 21 32 77 33 22 34 23 35
REMARK SMILES IDX 24 36 71 37 25 38 76 39 70 40 72 41 26 42 75 43 69 44 68 45
REMARK SMILES IDX 27 47 57 48 38 49 56 50 39 51 42 52 55 53 73 54 40 55 41 56
REMARK SMILES IDX 54 58 74 59 43 60 28 61 29 62 37 63 30 64 36 65 31 66 32 67
REMARK SMILES IDX 33 68 34 69 35 70 58 71 59 72 67 73 60 74 66 75 61 76 62 77
REMARK SMILES IDX 63 78 64 79 65 80 44 81 45 82 53 83 46 84 52 85 47 86 48 87
REMARK SMILES IDX 49 88 50 89 51 90
REMARK H PARENT 12 6 79 18 16 27 72 46 42 57
REMARK Flexibility Score: inf
ROOT
ATOM      1  C   UNL A   1      38.789  21.454  25.791  1.00  0.00     0.042 C 
ENDROOT
BRANCH   1   2
ATOM      2  C   UNL A   1      37.433  21.353  25.095  1.00  0.00     0.117 C 
BRANCH   2   3
ATOM      3  N   UNL A   1      36.363  21.354  26.085  1.00  0.00    -0.356 N 
ATOM      4  C   UNL A   1      35.014  21.385  25.960  1.00  0.00     0.222 C 
ATOM      5  O   UNL A   1      34.336  21.393  26.991  1.00  0.00    -0.275 OA
ATOM      6  H   UNL A   1      36.678  21.329  27.017  1.00  0.00     0.163 HD
BRANCH   4   7
ATOM      7  C   UNL A   1      34.341  21.402  24.611  1.00  0.00     0.129 C 
BRANCH   7   8
ATOM      8  C   UNL A   1      32.863  20.953  24.600  1.00  0.00     0.122 C 
BRANCH   8   9
ATOM      9  C   UNL A   1      31.945  22.147  24.843  1.00  0.00    -0.022 A 
ATOM     10  C   UNL A   1      32.494  23.299  22.591  1.00  0.00     0.045 C 
ATOM     11  C   UNL A   1      31.890  23.262  23.971  1.00  0.00    -0.046 A 
ATOM     12  C   UNL A   1      31.173  24.407  24.365  1.00  0.00     0.004 A 
ATOM     13  C   UNL A   1      30.512  24.461  25.589  1.00  0.00     0.000 A 
ATOM     14  C   UNL A   1      31.211  22.202  26.044  1.00  0.00     0.006 A 
ATOM     15  C   UNL A   1      30.511  23.349  26.416  1.00  0.00     0.000 A 
ENDBRANCH   8   9
BRANCH   8  16
ATOM     16  N   UNL A   1      32.546  19.828  25.476  1.00  0.00    -0.341 N 
ATOM     17  C   UNL A   1      32.614  18.483  25.183  1.00  0.00     0.326 C 
ATOM     18  H   UNL A   1      32.248  20.058  26.385  1.00  0.00     0.164 HD
ATOM     19  O   UNL A   1      32.230  17.689  26.049  1.00  0.00    -0.265 OA
BRANCH  17  20
ATOM     20  C   UNL A   1      33.174  18.022  23.821  1.00  0.00     0.471 C 
ATOM     21  F   UNL A   1      34.519  18.222  23.711  1.00  0.00    -0.162 F 
ATOM     22  F   UNL A   1      32.980  16.687  23.608  1.00  0.00    -0.162 F 
ATOM     23  F   UNL A   1      32.608  18.657  22.757  1.00  0.00    -0.162 F 
ENDBRANCH  17  20
ENDBRANCH   8  16
ENDBRANCH   7   8
ENDBRANCH   4   7
ENDBRANCH   2   3
ENDBRANCH   1   2
BRANCH   1  24
ATOM     24  C   UNL A   1      39.088  22.864  26.297  1.00  0.00     0.118 C 
BRANCH  24  25
ATOM     25  N   UNL A   1      40.269  22.927  27.162  1.00  0.00    -0.352 N 
ATOM     26  C   UNL A   1      40.691  23.986  27.948  1.00  0.00     0.251 C 
ATOM     27  H   UNL A   1      40.831  22.119  27.186  1.00  0.00     0.163 HD
ATOM     28  O   UNL A   1      41.695  23.924  28.651  1.00  0.00    -0.269 OA
BRANCH  26  29
ATOM     29  C   UNL A   1      39.929  25.238  27.820  1.00  0.00     0.039 A 
ATOM     30  C   UNL A   1      40.280  26.141  26.809  1.00  0.00     0.014 A 
ATOM     31  C   UNL A   1      39.246  25.642  28.965  1.00  0.00     0.014 A 
ATOM     32  C   UNL A   1      40.138  27.507  27.046  1.00  0.00     0.010 A 
ATOM     33  C   UNL A   1      39.162  26.997  29.216  1.00  0.00     0.010 A 
ATOM     34  C   UNL A   1      39.692  27.930  28.300  1.00  0.00    -0.014 A 
BRANCH  34  35
ATOM     35  C   UNL A   1      39.973  29.255  28.867  1.00  0.00     0.031 A 
ATOM     36  C   UNL A   1      38.973  30.352  28.780  1.00  0.00     0.074 A 
ATOM     37  C   UNL A   1      41.014  29.391  29.728  1.00  0.00     0.049 A 
ATOM     38  N   UNL A   1      39.177  31.562  29.185  1.00  0.00    -0.248 NA
ATOM     39  C   UNL A   1      37.663  30.180  28.159  1.00  0.00     0.031 C 
ATOM     40  C   UNL A   1      41.118  30.369  30.811  1.00  0.00     0.029 A 
ATOM     41  N   UNL A   1      42.287  28.815  29.687  1.00  0.00    -0.354 N 
ATOM     42  C   UNL A   1      37.960  32.208  29.201  1.00  0.00     0.074 A 
ATOM     43  C   UNL A   1      37.081  31.348  28.446  1.00  0.00     0.031 C 
ATOM     44  C   UNL A   1      42.410  30.543  31.118  1.00  0.00     0.029 A 
ATOM     45  C   UNL A   1      43.183  29.803  30.139  1.00  0.00     0.049 A 
ATOM     46  H   UNL A   1      42.513  27.901  29.399  1.00  0.00     0.167 HD
ATOM     47  C   UNL A   1      37.804  33.324  29.969  1.00  0.00     0.031 A 
ATOM     48  C   UNL A   1      44.225  30.311  29.418  1.00  0.00     0.031 A 
ATOM     49  C   UNL A   1      39.086  33.816  30.476  1.00  0.00     0.049 A 
ATOM     50  C   UNL A   1      44.192  31.818  29.276  1.00  0.00     0.074 A 
ATOM     51  C   UNL A   1      39.705  33.798  31.714  1.00  0.00     0.029 A 
ATOM     52  N   UNL A   1      40.043  34.239  29.563  1.00  0.00    -0.354 N 
ATOM     53  N   UNL A   1      43.173  32.555  29.615  1.00  0.00    -0.248 NA
ATOM     54  C   UNL A   1      45.267  32.609  28.679  1.00  0.00     0.031 C 
ATOM     55  C   UNL A   1      41.071  34.146  31.524  1.00  0.00     0.029 A 
ATOM     56  C   UNL A   1      41.267  34.400  30.178  1.00  0.00     0.049 A 
ATOM     57  H   UNL A   1      39.872  34.400  28.607  1.00  0.00     0.167 HD
ATOM     58  C   UNL A   1      43.392  33.855  29.243  1.00  0.00     0.074 A 
ATOM     59  C   UNL A   1      44.735  33.845  28.694  1.00  0.00     0.031 C 
ATOM     60  C   UNL A   1      42.424  34.807  29.387  1.00  0.00     0.031 A 
BRANCH  47  61
ATOM     61  C   UNL A   1      36.470  33.866  30.450  1.00  0.00    -0.014 A 
ATOM     62  C   UNL A   1      35.518  34.316  29.507  1.00  0.00     0.010 A 
ATOM     63  C   UNL A   1      36.115  34.042  31.800  1.00  0.00     0.010 A 
ATOM     64  C   UNL A   1      34.324  34.952  29.888  1.00  0.00     0.020 A 
ATOM     65  C   UNL A   1      34.930  34.678  32.199  1.00  0.00     0.020 A 
ATOM     66  C   UNL A   1      34.045  35.144  31.238  1.00  0.00     0.054 A 
BRANCH  66  67
ATOM     67  S   UNL A   1      32.531  36.009  31.728  1.00  0.00     0.124 S 
ATOM     68  O   UNL A   1      31.929  36.340  30.439  1.00  0.00    -0.237 OA
ATOM     69  O   UNL A   1      31.829  34.998  32.513  1.00  0.00    -0.237 OA
ATOM     70  O   UNL A   1      33.019  37.157  32.491  1.00  0.00    -0.744 OA
ENDBRANCH  66  67
ENDBRANCH  47  61
BRANCH  48  71
ATOM     71  C   UNL A   1      44.798  29.377  28.417  1.00  0.00    -0.014 A 
ATOM     72  C   UNL A   1      45.786  28.482  28.873  1.00  0.00     0.010 A 
ATOM     73  C   UNL A   1      44.071  29.068  27.253  1.00  0.00     0.010 A 
ATOM     74  C   UNL A   1      45.896  27.212  28.306  1.00  0.00     0.020 A 
ATOM     75  C   UNL A   1      44.184  27.794  26.681  1.00  0.00     0.020 A 
ATOM     76  C   UNL A   1      45.039  26.855  27.265  1.00  0.00     0.054 A 
BRANCH  76  77
ATOM     77  S   UNL A   1      44.859  25.083  26.895  1.00  0.00     0.124 S 
ATOM     78  O   UNL A   1      44.824  24.487  28.226  1.00  0.00    -0.237 OA
ATOM     79  O   UNL A   1      43.597  25.069  26.157  1.00  0.00    -0.237 OA
ATOM     80  O   UNL A   1      46.042  24.783  26.094  1.00  0.00    -0.744 OA
ENDBRANCH  76  77
ENDBRANCH  48  71
BRANCH  60  81
ATOM     81  C   UNL A   1      42.449  36.214  28.833  1.00  0.00    -0.014 A 
ATOM     82  C   UNL A   1      43.115  37.295  29.431  1.00  0.00     0.010 A 
ATOM     83  C   UNL A   1      41.872  36.450  27.560  1.00  0.00     0.010 A 
ATOM     84  C   UNL A   1      43.156  38.558  28.818  1.00  0.00     0.020 A 
ATOM     85  C   UNL A   1      41.946  37.691  26.919  1.00  0.00     0.020 A 
ATOM     86  C   UNL A   1      42.568  38.750  27.567  1.00  0.00     0.054 A 
BRANCH  86  87
ATOM     87  S   UNL A   1      42.681  40.364  26.754  1.00  0.00     0.124 S 
ATOM     88  O   UNL A   1      41.337  40.518  26.207  1.00  0.00    -0.237 OA
ATOM     89  O   UNL A   1      43.014  41.265  27.856  1.00  0.00    -0.237 OA
ATOM     90  O   UNL A   1      43.744  40.176  25.771  1.00  0.00    -0.744 OA
ENDBRANCH  86  87
ENDBRANCH  60  81
ENDBRANCH  34  35
ENDBRANCH  26  29
ENDBRANCH  24  25
ENDBRANCH   1  24
TORSDOF 17
ENDMDL
MODEL 2
REMARK VINA RESULT:     -12.3      1.692      2.554
REMARK SMILES Cc1ccccc1[C@@H](CC(=O)NCCCNC(=O)c1ccc(-c2c3nc(c(-c4ccc(S(=O)(=O)[O-])cc4)c4ccc([nH]4)c(-c4ccc(S(=O)(=O)[O-])cc4)c4nc(c(-c5ccc(S(=O)(=O)[O-])cc5)c5ccc2[nH]5)C=C4)C=C3)cc1)NC(=O)C(F)(F)F
REMARK SMILES IDX 14 1 13 2 12 3 10 4 11 5 9 7 8 8 7 9 1 10 2 11 3 12 4 13
REMARK SMILES IDX 6 14 5 15 79 16 80 17 81 19 82 20 83 21 84 22 85 23 15 24
REMARK SMILES IDX 16 25 17 26 18 28 19 29 20 30 78 31 21 32 77 33 22 34 23 35
REMARK SMILES IDX 24 36 71 37 25 38 76 39 70 40 72 41 26 42 75 43 69 44 68 45
REMARK SMILES IDX 27 47 57 48 38 49 56 50 39 51 42 52 55 53 73 54 40 55 41 56
REMARK SMILES IDX 54 58 74 59 43 60 28 61 29 62 37 63 30 64 36 65 31 66 32 67
REMARK SMILES IDX 33 68 34 69 35 70 58 71 59 72 67 73 60 74 66 75 61 76 62 77
REMARK SMILES IDX 63 78 64 79 65 80 44 81 45 82 53 83 46 84 52 85 47 86 48 87
REMARK SMILES IDX 49 88 50 89 51 90
REMARK H PARENT 12 6 79 18 16 27 72 46 42 57
REMARK Flexibility Score: inf
ROOT
ATOM      1  C   UNL A   1      38.491  21.607  25.629  1.00  0.00     0.042 C 
ENDROOT
BRANCH   1   2
ATOM      2  C   UNL A   1      37.335  21.743  24.641  1.00  0.00     0.117 C 
BRANCH   2   3
ATOM      3  N   UNL A   1      36.656  23.018  24.839  1.00  0.00    -0.356 N 
ATOM      4  C   UNL A   1      35.471  23.493  24.385  1.00  0.00     0.222 C 
ATOM      5  O   UNL A   1      35.146  24.640  24.705  1.00  0.00    -0.275 OA
ATOM      6  H   UNL A   1      37.150  23.652  25.407  1.00  0.00     0.163 HD
BRANCH   4   7
ATOM      7  C   UNL A   1      34.559  22.660  23.520  1.00  0.00     0.129 C 
BRANCH   7   8
ATOM      8  C   UNL A   1      33.132  22.448  24.071  1.00  0.00     0.122 C 
BRANCH   8   9
ATOM      9  C   UNL A   1      32.840  20.960  24.229  1.00  0.00    -0.022 A 
ATOM     10  C   UNL A   1      33.586  20.856  26.706  1.00  0.00     0.045 C 
ATOM     11  C   UNL A   1      33.173  20.232  25.398  1.00  0.00    -0.046 A 
ATOM     12  C   UNL A   1      33.058  18.828  25.390  1.00  0.00     0.004 A 
ATOM     13  C   UNL A   1      32.616  18.146  24.260  1.00  0.00     0.000 A 
ATOM     14  C   UNL A   1      32.331  20.250  23.124  1.00  0.00     0.006 A 
ATOM     15  C   UNL A   1      32.229  18.859  23.137  1.00  0.00     0.000 A 
ENDBRANCH   8   9
BRANCH   8  16
ATOM     16  N   UNL A   1      32.073  23.142  23.345  1.00  0.00    -0.341 N 
ATOM     17  C   UNL A   1      31.000  23.832  23.868  1.00  0.00     0.326 C 
ATOM     18  H   UNL A   1      32.132  23.115  22.363  1.00  0.00     0.164 HD
ATOM     19  O   UNL A   1      30.172  24.291  23.073  1.00  0.00    -0.265 OA
BRANCH  17  20
ATOM     20  C   UNL A   1      30.883  24.024  25.395  1.00  0.00     0.471 C 
ATOM     21  F   UNL A   1      30.542  22.874  26.044  1.00  0.00    -0.162 F 
ATOM     22  F   UNL A   1      32.060  24.431  25.956  1.00  0.00    -0.162 F 
ATOM     23  F   UNL A   1      29.955  24.953  25.756  1.00  0.00    -0.162 F 
ENDBRANCH  17  20
ENDBRANCH   8  16
ENDBRANCH   7   8
ENDBRANCH   4   7
ENDBRANCH   2   3
ENDBRANCH   1   2
BRANCH   1  24
ATOM     24  C   UNL A   1      38.640  22.828  26.535  1.00  0.00     0.118 C 
BRANCH  24  25
ATOM     25  N   UNL A   1      39.940  22.891  27.208  1.00  0.00    -0.352 N 
ATOM     26  C   UNL A   1      40.513  23.976  27.848  1.00  0.00     0.251 C 
ATOM     27  H   UNL A   1      40.469  22.061  27.204  1.00  0.00     0.163 HD
ATOM     28  O   UNL A   1      41.609  23.913  28.397  1.00  0.00    -0.269 OA
BRANCH  26  29
ATOM     29  C   UNL A   1      39.785  25.252  27.749  1.00  0.00     0.039 A 
ATOM     30  C   UNL A   1      40.148  26.159  26.747  1.00  0.00     0.014 A 
ATOM     31  C   UNL A   1      39.130  25.657  28.910  1.00  0.00     0.014 A 
ATOM     32  C   UNL A   1      40.048  27.525  27.005  1.00  0.00     0.010 A 
ATOM     33  C   UNL A   1      39.088  27.011  29.182  1.00  0.00     0.010 A 
ATOM     34  C   UNL A   1      39.632  27.942  28.272  1.00  0.00    -0.014 A 
BRANCH  34  35
ATOM     35  C   UNL A   1      39.959  29.250  28.854  1.00  0.00     0.031 A 
ATOM     36  C   UNL A   1      38.972  30.361  28.840  1.00  0.00     0.074 A 
ATOM     37  C   UNL A   1      41.041  29.352  29.667  1.00  0.00     0.049 A 
ATOM     38  N   UNL A   1      39.211  31.559  29.261  1.00  0.00    -0.248 NA
ATOM     39  C   UNL A   1      37.631  30.221  28.279  1.00  0.00     0.031 C 
ATOM     40  C   UNL A   1      41.211  30.303  30.765  1.00  0.00     0.029 A 
ATOM     41  N   UNL A   1      42.303  28.760  29.552  1.00  0.00    -0.354 N 
ATOM     42  C   UNL A   1      38.006  32.220  29.350  1.00  0.00     0.074 A 
ATOM     43  C   UNL A   1      37.080  31.390  28.620  1.00  0.00     0.031 C 
ATOM     44  C   UNL A   1      42.519  30.453  31.013  1.00  0.00     0.029 A 
ATOM     45  C   UNL A   1      43.234  29.726  29.982  1.00  0.00     0.049 A 
ATOM     46  H   UNL A   1      42.501  27.850  29.233  1.00  0.00     0.167 HD
ATOM     47  C   UNL A   1      37.904  33.321  30.150  1.00  0.00     0.031 A 
ATOM     48  C   UNL A   1      44.247  30.237  29.223  1.00  0.00     0.031 A 
ATOM     49  C   UNL A   1      39.215  33.783  30.605  1.00  0.00     0.049 A 
ATOM     50  C   UNL A   1      44.229  31.747  29.116  1.00  0.00     0.074 A 
ATOM     51  C   UNL A   1      39.892  33.729  31.812  1.00  0.00     0.029 A 
ATOM     52  N   UNL A   1      40.133  34.214  29.656  1.00  0.00    -0.354 N 
ATOM     53  N   UNL A   1      43.238  32.489  29.520  1.00  0.00    -0.248 NA
ATOM     54  C   UNL A   1      45.285  32.536  28.486  1.00  0.00     0.031 C 
ATOM     55  C   UNL A   1      41.252  34.063  31.563  1.00  0.00     0.029 A 
ATOM     56  C   UNL A   1      41.387  34.346  30.216  1.00  0.00     0.049 A 
ATOM     57  H   UNL A   1      39.918  34.400  28.714  1.00  0.00     0.167 HD
ATOM     58  C   UNL A   1      43.457  33.794  29.167  1.00  0.00     0.074 A 
ATOM     59  C   UNL A   1      44.772  33.779  28.555  1.00  0.00     0.031 C 
ATOM     60  C   UNL A   1      42.510  34.755  29.379  1.00  0.00     0.031 A 
BRANCH  47  61
ATOM     61  C   UNL A   1      36.602  33.869  30.707  1.00  0.00    -0.014 A 
ATOM     62  C   UNL A   1      35.534  34.160  29.827  1.00  0.00     0.010 A 
ATOM     63  C   UNL A   1      36.383  34.201  32.056  1.00  0.00     0.010 A 
ATOM     64  C   UNL A   1      34.355  34.793  30.258  1.00  0.00     0.020 A 
ATOM     65  C   UNL A   1      35.215  34.838  32.503  1.00  0.00     0.020 A 
ATOM     66  C   UNL A   1      34.211  35.144  31.598  1.00  0.00     0.054 A 
BRANCH  66  67
ATOM     67  S   UNL A   1      32.716  36.008  32.143  1.00  0.00     0.124 S 
ATOM     68  O   UNL A   1      32.255  36.644  30.912  1.00  0.00    -0.237 OA
ATOM     69  O   UNL A   1      31.884  34.916  32.641  1.00  0.00    -0.237 OA
ATOM     70  O   UNL A   1      33.202  36.931  33.168  1.00  0.00    -0.744 OA
ENDBRANCH  66  67
ENDBRANCH  47  61
BRANCH  48  71
ATOM     71  C   UNL A   1      44.758  29.318  28.175  1.00  0.00    -0.014 A 
ATOM     72  C   UNL A   1      45.843  28.491  28.527  1.00  0.00     0.010 A 
ATOM     73  C   UNL A   1      43.924  28.944  27.106  1.00  0.00     0.010 A 
ATOM     74  C   UNL A   1      45.965  27.219  27.967  1.00  0.00     0.020 A 
ATOM     75  C   UNL A   1      44.047  27.668  26.541  1.00  0.00     0.020 A 
ATOM     76  C   UNL A   1      45.018  26.792  27.035  1.00  0.00     0.054 A 
BRANCH  76  77
ATOM     77  S   UNL A   1      44.904  25.006  26.711  1.00  0.00     0.124 S 
ATOM     78  O   UNL A   1      46.177  24.725  26.056  1.00  0.00    -0.237 OA
ATOM     79  O   UNL A   1      44.754  24.476  28.065  1.00  0.00    -0.237 OA
ATOM     80  O   UNL A   1      43.716  24.890  25.871  1.00  0.00    -0.744 OA
ENDBRANCH  76  77
ENDBRANCH  48  71
BRANCH  60  81
ATOM     81  C   UNL A   1      42.530  36.174  28.856  1.00  0.00    -0.014 A 
ATOM     82  C   UNL A   1      43.124  37.261  29.517  1.00  0.00     0.010 A 
ATOM     83  C   UNL A   1      42.028  36.421  27.553  1.00  0.00     0.010 A 
ATOM     84  C   UNL A   1      43.166  38.537  28.933  1.00  0.00     0.020 A 
ATOM     85  C   UNL A   1      42.106  37.677  26.943  1.00  0.00     0.020 A 
ATOM     86  C   UNL A   1      42.653  38.739  27.651  1.00  0.00     0.054 A 
BRANCH  86  87
ATOM     87  S   UNL A   1      42.770  40.373  26.879  1.00  0.00     0.124 S 
ATOM     88  O   UNL A   1      43.664  40.110  25.755  1.00  0.00    -0.237 OA
ATOM     89  O   UNL A   1      41.384  40.667  26.520  1.00  0.00    -0.237 OA
ATOM     90  O   UNL A   1      43.322  41.212  27.939  1.00  0.00    -0.744 OA
ENDBRANCH  86  87
ENDBRANCH  60  81
ENDBRANCH  34  35
ENDBRANCH  26  29
ENDBRANCH  24  25
ENDBRANCH   1  24
TORSDOF 17
ENDMDL
MODEL 3
REMARK VINA RESULT:     -12.2      4.993     11.512
REMARK SMILES Cc1ccccc1[C@@H](CC(=O)NCCCNC(=O)c1ccc(-c2c3nc(c(-c4ccc(S(=O)(=O)[O-])cc4)c4ccc([nH]4)c(-c4ccc(S(=O)(=O)[O-])cc4)c4nc(c(-c5ccc(S(=O)(=O)[O-])cc5)c5ccc2[nH]5)C=C4)C=C3)cc1)NC(=O)C(F)(F)F
REMARK SMILES IDX 14 1 13 2 12 3 10 4 11 5 9 7 8 8 7 9 1 10 2 11 3 12 4 13
REMARK SMILES IDX 6 14 5 15 79 16 80 17 81 19 82 20 83 21 84 22 85 23 15 24
REMARK SMILES IDX 16 25 17 26 18 28 19 29 20 30 78 31 21 32 77 33 22 34 23 35
REMARK SMILES IDX 24 36 71 37 25 38 76 39 70 40 72 41 26 42 75 43 69 44 68 45
REMARK SMILES IDX 27 47 57 48 38 49 56 50 39 51 42 52 55 53 73 54 40 55 41 56
REMARK SMILES IDX 54 58 74 59 43 60 28 61 29 62 37 63 30 64 36 65 31 66 32 67
REMARK SMILES IDX 33 68 34 69 35 70 58 71 59 72 67 73 60 74 66 75 61 76 62 77
REMARK SMILES IDX 63 78 64 79 65 80 44 81 45 82 53 83 46 84 52 85 47 86 48 87
REMARK SMILES IDX 49 88 50 89 51 90
REMARK H PARENT 12 6 79 18 16 27 72 46 42 57
REMARK Flexibility Score: inf
ROOT
ATOM      1  C   UNL A   1      34.275  30.156  26.860  1.00  0.00     0.042 C 
ENDROOT
BRANCH   1   2
ATOM      2  C   UNL A   1      32.822  30.394  26.453  1.00  0.00     0.117 C 
BRANCH   2   3
ATOM      3  N   UNL A   1      31.965  29.370  27.039  1.00  0.00    -0.356 N 
ATOM      4  C   UNL A   1      32.029  28.017  27.019  1.00  0.00     0.222 C 
ATOM      5  O   UNL A   1      31.140  27.387  27.599  1.00  0.00    -0.275 OA
ATOM      6  H   UNL A   1      31.197  29.728  27.540  1.00  0.00     0.163 HD
BRANCH   4   7
ATOM      7  C   UNL A   1      33.146  27.284  26.322  1.00  0.00     0.129 C 
BRANCH   7   8
ATOM      8  C   UNL A   1      32.715  26.381  25.144  1.00  0.00     0.122 C 
BRANCH   8   9
ATOM      9  C   UNL A   1      32.621  24.928  25.598  1.00  0.00    -0.022 A 
ATOM     10  C   UNL A   1      35.170  24.498  25.469  1.00  0.00     0.045 C 
ATOM     11  C   UNL A   1      33.737  24.056  25.617  1.00  0.00    -0.046 A 
ATOM     12  C   UNL A   1      33.533  22.683  25.853  1.00  0.00     0.004 A 
ATOM     13  C   UNL A   1      32.258  22.170  26.076  1.00  0.00     0.000 A 
ATOM     14  C   UNL A   1      31.352  24.394  25.894  1.00  0.00     0.006 A 
ATOM     15  C   UNL A   1      31.172  23.030  26.122  1.00  0.00     0.000 A 
ENDBRANCH   8   9
BRANCH   8  16
ATOM     16  N   UNL A   1      33.505  26.527  23.924  1.00  0.00    -0.341 N 
ATOM     17  C   UNL A   1      33.086  26.363  22.622  1.00  0.00     0.326 C 
ATOM     18  H   UNL A   1      34.450  26.772  24.047  1.00  0.00     0.164 HD
ATOM     19  O   UNL A   1      33.936  26.464  21.731  1.00  0.00    -0.265 OA
BRANCH  17  20
ATOM     20  C   UNL A   1      31.597  26.087  22.324  1.00  0.00     0.471 C 
ATOM     21  F   UNL A   1      30.763  26.967  22.949  1.00  0.00    -0.162 F 
ATOM     22  F   UNL A   1      31.310  26.186  20.992  1.00  0.00    -0.162 F 
ATOM     23  F   UNL A   1      31.189  24.844  22.703  1.00  0.00    -0.162 F 
ENDBRANCH  17  20
ENDBRANCH   8  16
ENDBRANCH   7   8
ENDBRANCH   4   7
ENDBRANCH   2   3
ENDBRANCH   1   2
BRANCH   1  24
ATOM     24  C   UNL A   1      34.538  30.487  28.328  1.00  0.00     0.118 C 
BRANCH  24  25
ATOM     25  N   UNL A   1      35.583  31.497  28.512  1.00  0.00    -0.352 N 
ATOM     26  C   UNL A   1      36.955  31.313  28.502  1.00  0.00     0.251 C 
ATOM     27  H   UNL A   1      35.272  32.419  28.662  1.00  0.00     0.163 HD
ATOM     28  O   UNL A   1      37.745  32.239  28.651  1.00  0.00    -0.269 OA
BRANCH  26  29
ATOM     29  C   UNL A   1      37.425  29.921  28.405  1.00  0.00     0.039 A 
ATOM     30  C   UNL A   1      37.279  29.081  29.515  1.00  0.00     0.014 A 
ATOM     31  C   UNL A   1      38.377  29.680  27.417  1.00  0.00     0.014 A 
ATOM     32  C   UNL A   1      38.245  28.105  29.754  1.00  0.00     0.010 A 
ATOM     33  C   UNL A   1      39.362  28.750  27.689  1.00  0.00     0.010 A 
ATOM     34  C   UNL A   1      39.349  28.028  28.901  1.00  0.00    -0.014 A 
BRANCH  34  35
ATOM     35  C   UNL A   1      40.644  27.452  29.286  1.00  0.00     0.031 A 
ATOM     36  C   UNL A   1      41.012  26.066  28.894  1.00  0.00     0.074 A 
ATOM     37  C   UNL A   1      41.621  28.280  29.737  1.00  0.00     0.049 A 
ATOM     38  N   UNL A   1      42.095  25.465  29.259  1.00  0.00    -0.248 NA
ATOM     39  C   UNL A   1      40.136  25.212  28.096  1.00  0.00     0.031 C 
ATOM     40  C   UNL A   1      43.062  28.069  29.608  1.00  0.00     0.029 A 
ATOM     41  N   UNL A   1      41.530  29.388  30.585  1.00  0.00    -0.354 N 
ATOM     42  C   UNL A   1      42.221  24.327  28.492  1.00  0.00     0.074 A 
ATOM     43  C   UNL A   1      40.927  24.157  27.876  1.00  0.00     0.031 C 
ATOM     44  C   UNL A   1      43.693  28.783  30.548  1.00  0.00     0.029 A 
ATOM     45  C   UNL A   1      42.673  29.351  31.408  1.00  0.00     0.049 A 
ATOM     46  H   UNL A   1      40.810  30.060  30.605  1.00  0.00     0.167 HD
ATOM     47  C   UNL A   1      43.446  23.743  28.357  1.00  0.00     0.031 A 
ATOM     48  C   UNL A   1      42.661  29.267  32.770  1.00  0.00     0.031 A 
ATOM     49  C   UNL A   1      44.420  24.303  29.295  1.00  0.00     0.049 A 
ATOM     50  C   UNL A   1      43.451  28.096  33.317  1.00  0.00     0.074 A 
ATOM     51  C   UNL A   1      45.498  25.162  29.169  1.00  0.00     0.029 A 
ATOM     52  N   UNL A   1      44.190  24.155  30.656  1.00  0.00    -0.354 N 
ATOM     53  N   UNL A   1      43.924  27.134  32.577  1.00  0.00    -0.248 NA
ATOM     54  C   UNL A   1      43.711  27.876  34.738  1.00  0.00     0.031 C 
ATOM     55  C   UNL A   1      45.869  25.589  30.474  1.00  0.00     0.029 A 
ATOM     56  C   UNL A   1      45.035  24.966  31.385  1.00  0.00     0.049 A 
ATOM     57  H   UNL A   1      43.516  23.554  31.048  1.00  0.00     0.167 HD
ATOM     58  C   UNL A   1      44.470  26.160  33.371  1.00  0.00     0.074 A 
ATOM     59  C   UNL A   1      44.347  26.689  34.716  1.00  0.00     0.031 C 
ATOM     60  C   UNL A   1      44.935  24.991  32.840  1.00  0.00     0.031 A 
BRANCH  47  61
ATOM     61  C   UNL A   1      43.840  22.805  27.229  1.00  0.00    -0.014 A 
ATOM     62  C   UNL A   1      42.954  21.776  26.836  1.00  0.00     0.010 A 
ATOM     63  C   UNL A   1      45.084  22.819  26.572  1.00  0.00     0.010 A 
ATOM     64  C   UNL A   1      43.312  20.794  25.895  1.00  0.00     0.020 A 
ATOM     65  C   UNL A   1      45.459  21.844  25.634  1.00  0.00     0.020 A 
ATOM     66  C   UNL A   1      44.575  20.827  25.311  1.00  0.00     0.054 A 
BRANCH  66  67
ATOM     67  S   UNL A   1      45.055  19.532  24.139  1.00  0.00     0.124 S 
ATOM     68  O   UNL A   1      46.513  19.550  24.233  1.00  0.00    -0.237 OA
ATOM     69  O   UNL A   1      44.400  18.349  24.689  1.00  0.00    -0.237 OA
ATOM     70  O   UNL A   1      44.516  20.001  22.863  1.00  0.00    -0.744 OA
ENDBRANCH  66  67
ENDBRANCH  47  61
BRANCH  48  71
ATOM     71  C   UNL A   1      41.461  29.856  33.416  1.00  0.00    -0.014 A 
ATOM     72  C   UNL A   1      41.447  31.256  33.578  1.00  0.00     0.010 A 
ATOM     73  C   UNL A   1      40.244  29.150  33.405  1.00  0.00     0.010 A 
ATOM     74  C   UNL A   1      40.243  31.956  33.514  1.00  0.00     0.020 A 
ATOM     75  C   UNL A   1      39.033  29.853  33.344  1.00  0.00     0.020 A 
ATOM     76  C   UNL A   1      39.055  31.251  33.320  1.00  0.00     0.054 A 
BRANCH  76  77
ATOM     77  S   UNL A   1      37.605  32.189  32.749  1.00  0.00     0.124 S 
ATOM     78  O   UNL A   1      38.190  33.113  31.783  1.00  0.00    -0.237 OA
ATOM     79  O   UNL A   1      36.775  31.124  32.188  1.00  0.00    -0.237 OA
ATOM     80  O   UNL A   1      37.087  32.791  33.973  1.00  0.00    -0.744 OA
ENDBRANCH  76  77
ENDBRANCH  48  71
BRANCH  60  81
ATOM     81  C   UNL A   1      45.362  23.758  33.605  1.00  0.00    -0.014 A 
ATOM     82  C   UNL A   1      46.667  23.512  34.058  1.00  0.00     0.010 A 
ATOM     83  C   UNL A   1      44.366  22.834  34.010  1.00  0.00     0.010 A 
ATOM     84  C   UNL A   1      46.973  22.378  34.828  1.00  0.00     0.020 A 
ATOM     85  C   UNL A   1      44.650  21.726  34.814  1.00  0.00     0.020 A 
ATOM     86  C   UNL A   1      45.963  21.489  35.198  1.00  0.00     0.054 A 
BRANCH  86  87
ATOM     87  S   UNL A   1      46.354  20.064  36.244  1.00  0.00     0.124 S 
ATOM     88  O   UNL A   1      45.726  20.438  37.507  1.00  0.00    -0.237 OA
ATOM     89  O   UNL A   1      45.722  18.952  35.536  1.00  0.00    -0.237 OA
ATOM     90  O   UNL A   1      47.814  20.036  36.251  1.00  0.00    -0.744 OA
ENDBRANCH  86  87
ENDBRANCH  60  81
ENDBRANCH  34  35
ENDBRANCH  26  29
ENDBRANCH  24  25
ENDBRANCH   1  24
TORSDOF 17
ENDMDL
