MODEL 1
REMARK VINA RESULT:     -11.3      0.000      0.000
REMARK SMILES O=C(NCCCNC(=O)c1ccc(C[NH+]2CC[NH2+]CC2)c(Br)c1)c1ccc(-c2c3nc(c(-c4ccc(S(=O)(=O)[O-])cc4)c4ccc([nH]4)c(-c4ccc(S(=O)(=O)[O-])cc4)c4nc(c(-c5ccc(S(=O)(=O)[O-])cc5)c5ccc2[nH]5)C=C4)C=C3)cc1
REMARK SMILES IDX 4 1 3 2 1 3 2 4 24 6 25 7 83 8 26 9 82 10 27 11 28 12 29 13
REMARK SMILES IDX 76 14 30 15 81 16 75 17 77 18 31 19 80 20 74 21 73 22 32 24
REMARK SMILES IDX 62 25 43 26 61 27 44 28 47 29 60 30 78 31 45 32 46 33 59 35
REMARK SMILES IDX 79 36 48 37 33 38 34 39 42 40 35 41 41 42 36 43 37 44 38 45
REMARK SMILES IDX 39 46 40 47 63 48 64 49 72 50 65 51 71 52 66 53 67 54 68 55
REMARK SMILES IDX 69 56 70 57 49 58 50 59 58 60 51 61 57 62 52 63 53 64 54 65
REMARK SMILES IDX 55 66 56 67 5 68 6 69 7 70 8 71 9 73 10 74 11 75 23 76 12 77
REMARK SMILES IDX 21 78 13 79 22 80 14 81 15 82 16 83 20 84 17 86 19 87 18 88
REMARK H PARENT 3 5 77 23 47 34 7 72 15 85 18 89 18 90
REMARK Flexibility Score: inf
ROOT
ATOM      1  C   UNL A   1      33.485  28.050  26.936  1.00  0.00     0.118 C 
ENDROOT
BRANCH   1   2
ATOM      2  N   UNL A   1      33.280  29.463  27.224  1.00  0.00    -0.352 N 
ATOM      3  O   UNL A   1      33.703  31.501  28.076  1.00  0.00    -0.269 OA
ATOM      4  C   UNL A   1      34.126  30.381  27.803  1.00  0.00     0.251 C 
ATOM      5  H   UNL A   1      32.400  29.817  26.963  1.00  0.00     0.163 HD
BRANCH   4   6
ATOM      6  C   UNL A   1      35.527  30.020  28.121  1.00  0.00     0.039 A 
ATOM      7  C   UNL A   1      35.888  29.571  29.392  1.00  0.00     0.014 A 
ATOM      8  C   UNL A   1      36.497  30.109  27.115  1.00  0.00     0.014 A 
ATOM      9  C   UNL A   1      37.230  29.365  29.702  1.00  0.00     0.010 A 
ATOM     10  C   UNL A   1      37.834  29.811  27.404  1.00  0.00     0.010 A 
ATOM     11  C   UNL A   1      38.218  29.469  28.709  1.00  0.00    -0.014 A 
BRANCH  11  12
ATOM     12  C   UNL A   1      39.631  29.151  29.049  1.00  0.00     0.031 A 
ATOM     13  C   UNL A   1      40.506  30.142  29.768  1.00  0.00     0.074 A 
ATOM     14  C   UNL A   1      40.117  27.937  28.722  1.00  0.00     0.049 A 
ATOM     15  N   UNL A   1      41.746  30.005  30.168  1.00  0.00    -0.248 NA
ATOM     16  C   UNL A   1      39.921  31.457  30.076  1.00  0.00     0.031 C 
ATOM     17  C   UNL A   1      39.369  26.892  28.017  1.00  0.00     0.029 A 
ATOM     18  N   UNL A   1      41.342  27.366  28.957  1.00  0.00    -0.354 N 
ATOM     19  C   UNL A   1      42.095  31.214  30.758  1.00  0.00     0.074 A 
ATOM     20  C   UNL A   1      40.944  32.085  30.639  1.00  0.00     0.031 C 
ATOM     21  C   UNL A   1      40.133  25.794  27.920  1.00  0.00     0.029 A 
ATOM     22  C   UNL A   1      41.442  26.075  28.495  1.00  0.00     0.049 A 
ATOM     23  H   UNL A   1      42.078  27.836  29.411  1.00  0.00     0.167 HD
ATOM     24  C   UNL A   1      43.265  31.565  31.347  1.00  0.00     0.031 A 
ATOM     25  C   UNL A   1      42.475  25.212  28.514  1.00  0.00     0.031 A 
ATOM     26  C   UNL A   1      44.409  30.696  31.456  1.00  0.00     0.049 A 
ATOM     27  C   UNL A   1      43.772  25.639  29.139  1.00  0.00     0.074 A 
ATOM     28  C   UNL A   1      45.627  30.950  32.065  1.00  0.00     0.029 A 
ATOM     29  N   UNL A   1      44.485  29.411  30.938  1.00  0.00    -0.354 N 
ATOM     30  N   UNL A   1      44.067  26.773  29.726  1.00  0.00    -0.248 NA
ATOM     31  C   UNL A   1      44.874  24.668  29.105  1.00  0.00     0.031 C 
ATOM     32  C   UNL A   1      46.458  29.842  31.863  1.00  0.00     0.029 A 
ATOM     33  C   UNL A   1      45.737  28.872  31.186  1.00  0.00     0.049 A 
ATOM     34  H   UNL A   1      43.755  28.950  30.464  1.00  0.00     0.167 HD
ATOM     35  C   UNL A   1      45.385  26.647  30.147  1.00  0.00     0.074 A 
ATOM     36  C   UNL A   1      45.822  25.318  29.766  1.00  0.00     0.031 C 
ATOM     37  C   UNL A   1      46.164  27.552  30.790  1.00  0.00     0.031 A 
BRANCH  24  38
ATOM     38  C   UNL A   1      43.379  32.965  31.898  1.00  0.00    -0.014 A 
ATOM     39  C   UNL A   1      43.916  34.013  31.129  1.00  0.00     0.010 A 
ATOM     40  C   UNL A   1      42.898  33.246  33.190  1.00  0.00     0.010 A 
ATOM     41  C   UNL A   1      44.011  35.304  31.657  1.00  0.00     0.020 A 
ATOM     42  C   UNL A   1      42.965  34.542  33.712  1.00  0.00     0.020 A 
ATOM     43  C   UNL A   1      43.539  35.560  32.948  1.00  0.00     0.054 A 
BRANCH  43  44
ATOM     44  S   UNL A   1      43.666  37.246  33.606  1.00  0.00     0.124 S 
ATOM     45  O   UNL A   1      42.486  37.323  34.464  1.00  0.00    -0.237 OA
ATOM     46  O   UNL A   1      44.948  37.221  34.306  1.00  0.00    -0.237 OA
ATOM     47  O   UNL A   1      43.625  38.088  32.414  1.00  0.00    -0.744 OA
ENDBRANCH  43  44
ENDBRANCH  24  38
BRANCH  25  48
ATOM     48  C   UNL A   1      42.318  23.863  27.906  1.00  0.00    -0.014 A 
ATOM     49  C   UNL A   1      42.545  23.662  26.535  1.00  0.00     0.010 A 
ATOM     50  C   UNL A   1      41.973  22.761  28.711  1.00  0.00     0.010 A 
ATOM     51  C   UNL A   1      42.422  22.387  25.977  1.00  0.00     0.020 A 
ATOM     52  C   UNL A   1      41.878  21.480  28.164  1.00  0.00     0.020 A 
ATOM     53  C   UNL A   1      42.094  21.303  26.797  1.00  0.00     0.054 A 
BRANCH  53  54
ATOM     54  S   UNL A   1      42.002  19.647  26.063  1.00  0.00     0.124 S 
ATOM     55  O   UNL A   1      40.586  19.545  25.721  1.00  0.00    -0.237 OA
ATOM     56  O   UNL A   1      42.920  19.751  24.932  1.00  0.00    -0.237 OA
ATOM     57  O   UNL A   1      42.451  18.769  27.142  1.00  0.00    -0.744 OA
ENDBRANCH  53  54
ENDBRANCH  25  48
BRANCH  37  58
ATOM     58  C   UNL A   1      47.565  27.127  31.144  1.00  0.00    -0.014 A 
ATOM     59  C   UNL A   1      47.830  26.387  32.309  1.00  0.00     0.010 A 
ATOM     60  C   UNL A   1      48.626  27.442  30.276  1.00  0.00     0.010 A 
ATOM     61  C   UNL A   1      49.136  25.997  32.617  1.00  0.00     0.020 A 
ATOM     62  C   UNL A   1      49.930  27.029  30.565  1.00  0.00     0.020 A 
ATOM     63  C   UNL A   1      50.178  26.322  31.742  1.00  0.00     0.054 A 
BRANCH  63  64
ATOM     64  S   UNL A   1      51.859  25.771  32.144  1.00  0.00     0.124 S 
ATOM     65  O   UNL A   1      51.628  24.410  32.618  1.00  0.00    -0.237 OA
ATOM     66  O   UNL A   1      52.548  25.882  30.861  1.00  0.00    -0.237 OA
ATOM     67  O   UNL A   1      52.299  26.720  33.165  1.00  0.00    -0.744 OA
ENDBRANCH  63  64
ENDBRANCH  37  58
ENDBRANCH  11  12
ENDBRANCH   4   6
ENDBRANCH   1   2
BRANCH   1  68
ATOM     68  C   UNL A   1      33.943  27.784  25.508  1.00  0.00     0.042 C 
BRANCH  68  69
ATOM     69  C   UNL A   1      33.423  26.489  24.899  1.00  0.00     0.118 C 
BRANCH  69  70
ATOM     70  N   UNL A   1      33.330  26.541  23.444  1.00  0.00    -0.352 N 
ATOM     71  C   UNL A   1      33.465  25.535  22.521  1.00  0.00     0.251 C 
ATOM     72  H   UNL A   1      33.141  27.432  23.068  1.00  0.00     0.163 HD
ATOM     73  O   UNL A   1      33.501  25.782  21.320  1.00  0.00    -0.269 OA
BRANCH  71  74
ATOM     74  C   UNL A   1      33.588  24.141  22.980  1.00  0.00     0.040 A 
ATOM     75  C   UNL A   1      32.463  23.324  23.068  1.00  0.00     0.014 A 
ATOM     76  C   UNL A   1      34.847  23.652  23.326  1.00  0.00     0.030 A 
ATOM     77  C   UNL A   1      32.577  22.067  23.656  1.00  0.00     0.011 A 
ATOM     78  C   UNL A   1      34.958  22.386  23.908  1.00  0.00     0.027 A 
ATOM     79  C   UNL A   1      33.809  21.615  24.168  1.00  0.00     0.020 A 
ATOM     80  Br  UNL A   1      36.716  21.801  24.329  1.00  0.00    -0.050 Br
BRANCH  79  81
ATOM     81  C   UNL A   1      33.805  20.366  25.024  1.00  0.00     0.300 C 
BRANCH  81  82
ATOM     82  N   UNL A   1      32.696  19.419  24.832  1.00  0.00    -0.322 N 
ATOM     83  C   UNL A   1      32.484  18.945  23.458  1.00  0.00     0.324 C 
ATOM     84  C   UNL A   1      32.590  18.318  25.799  1.00  0.00     0.324 C 
ATOM     85  H   UNL A   1      31.917  20.039  25.045  1.00  0.00     0.348 HD
ATOM     86  C   UNL A   1      33.217  17.636  23.084  1.00  0.00     0.322 C 
ATOM     87  C   UNL A   1      33.248  16.975  25.395  1.00  0.00     0.322 C 
ATOM     88  N   UNL A   1      32.948  16.537  24.025  1.00  0.00    -0.337 N 
ATOM     89  H   UNL A   1      33.534  15.737  23.788  1.00  0.00     0.346 HD
ATOM     90  H   UNL A   1      31.965  16.271  23.964  1.00  0.00     0.346 HD
ENDBRANCH  81  82
ENDBRANCH  79  81
ENDBRANCH  71  74
ENDBRANCH  69  70
ENDBRANCH  68  69
ENDBRANCH   1  68
TORSDOF 15
ENDMDL
MODEL 2
REMARK VINA RESULT:     -11.2      1.590      2.344
REMARK SMILES O=C(NCCCNC(=O)c1ccc(C[NH+]2CC[NH2+]CC2)c(Br)c1)c1ccc(-c2c3nc(c(-c4ccc(S(=O)(=O)[O-])cc4)c4ccc([nH]4)c(-c4ccc(S(=O)(=O)[O-])cc4)c4nc(c(-c5ccc(S(=O)(=O)[O-])cc5)c5ccc2[nH]5)C=C4)C=C3)cc1
REMARK SMILES IDX 4 1 3 2 1 3 2 4 24 6 25 7 83 8 26 9 82 10 27 11 28 12 29 13
REMARK SMILES IDX 76 14 30 15 81 16 75 17 77 18 31 19 80 20 74 21 73 22 32 24
REMARK SMILES IDX 62 25 43 26 61 27 44 28 47 29 60 30 78 31 45 32 46 33 59 35
REMARK SMILES IDX 79 36 48 37 33 38 34 39 42 40 35 41 41 42 36 43 37 44 38 45
REMARK SMILES IDX 39 46 40 47 63 48 64 49 72 50 65 51 71 52 66 53 67 54 68 55
REMARK SMILES IDX 69 56 70 57 49 58 50 59 58 60 51 61 57 62 52 63 53 64 54 65
REMARK SMILES IDX 55 66 56 67 5 68 6 69 7 70 8 71 9 73 10 74 11 75 23 76 12 77
REMARK SMILES IDX 21 78 13 79 22 80 14 81 15 82 16 83 20 84 17 86 19 87 18 88
REMARK H PARENT 3 5 77 23 47 34 7 72 15 85 18 89 18 90
REMARK Flexibility Score: inf
ROOT
ATOM      1  C   UNL A   1      33.439  27.990  26.972  1.00  0.00     0.118 C 
ENDROOT
BRANCH   1   2
ATOM      2  N   UNL A   1      33.247  29.405  27.259  1.00  0.00    -0.352 N 
ATOM      3  O   UNL A   1      33.694  31.442  28.101  1.00  0.00    -0.269 OA
ATOM      4  C   UNL A   1      34.106  30.318  27.826  1.00  0.00     0.251 C 
ATOM      5  H   UNL A   1      32.366  29.765  27.007  1.00  0.00     0.163 HD
BRANCH   4   6
ATOM      6  C   UNL A   1      35.508  29.948  28.129  1.00  0.00     0.039 A 
ATOM      7  C   UNL A   1      35.875  29.477  29.391  1.00  0.00     0.014 A 
ATOM      8  C   UNL A   1      36.472  30.051  27.119  1.00  0.00     0.014 A 
ATOM      9  C   UNL A   1      37.218  29.261  29.688  1.00  0.00     0.010 A 
ATOM     10  C   UNL A   1      37.809  29.745  27.394  1.00  0.00     0.010 A 
ATOM     11  C   UNL A   1      38.201  29.379  28.691  1.00  0.00    -0.014 A 
BRANCH  11  12
ATOM     12  C   UNL A   1      39.614  29.052  29.017  1.00  0.00     0.031 A 
ATOM     13  C   UNL A   1      40.506  30.040  29.720  1.00  0.00     0.074 A 
ATOM     14  C   UNL A   1      40.086  27.831  28.692  1.00  0.00     0.049 A 
ATOM     15  N   UNL A   1      41.749  29.894  30.106  1.00  0.00    -0.248 NA
ATOM     16  C   UNL A   1      39.935  31.361  30.027  1.00  0.00     0.031 C 
ATOM     17  C   UNL A   1      39.322  26.788  28.001  1.00  0.00     0.029 A 
ATOM     18  N   UNL A   1      41.310  27.252  28.916  1.00  0.00    -0.354 N 
ATOM     19  C   UNL A   1      42.115  31.104  30.685  1.00  0.00     0.074 A 
ATOM     20  C   UNL A   1      40.970  31.984  30.574  1.00  0.00     0.031 C 
ATOM     21  C   UNL A   1      40.076  25.684  27.903  1.00  0.00     0.029 A 
ATOM     22  C   UNL A   1      41.394  25.957  28.461  1.00  0.00     0.049 A 
ATOM     23  H   UNL A   1      42.054  27.718  29.359  1.00  0.00     0.167 HD
ATOM     24  C   UNL A   1      43.295  31.449  31.259  1.00  0.00     0.031 A 
ATOM     25  C   UNL A   1      42.420  25.085  28.474  1.00  0.00     0.031 A 
ATOM     26  C   UNL A   1      44.433  30.571  31.359  1.00  0.00     0.049 A 
ATOM     27  C   UNL A   1      43.727  25.505  29.081  1.00  0.00     0.074 A 
ATOM     28  C   UNL A   1      45.660  30.818  31.953  1.00  0.00     0.029 A 
ATOM     29  N   UNL A   1      44.492  29.282  30.849  1.00  0.00    -0.354 N 
ATOM     30  N   UNL A   1      44.039  26.641  29.658  1.00  0.00    -0.248 NA
ATOM     31  C   UNL A   1      44.820  24.525  29.040  1.00  0.00     0.031 C 
ATOM     32  C   UNL A   1      46.479  29.702  31.749  1.00  0.00     0.029 A 
ATOM     33  C   UNL A   1      45.743  28.734  31.086  1.00  0.00     0.049 A 
ATOM     34  H   UNL A   1      43.753  28.825  30.386  1.00  0.00     0.167 HD
ATOM     35  C   UNL A   1      45.360  26.506  30.064  1.00  0.00     0.074 A 
ATOM     36  C   UNL A   1      45.781  25.172  29.686  1.00  0.00     0.031 C 
ATOM     37  C   UNL A   1      46.154  27.408  30.693  1.00  0.00     0.031 A 
BRANCH  24  38
ATOM     38  C   UNL A   1      43.427  32.851  31.800  1.00  0.00    -0.014 A 
ATOM     39  C   UNL A   1      43.150  33.144  33.147  1.00  0.00     0.010 A 
ATOM     40  C   UNL A   1      43.880  33.883  30.957  1.00  0.00     0.010 A 
ATOM     41  C   UNL A   1      43.281  34.451  33.630  1.00  0.00     0.020 A 
ATOM     42  C   UNL A   1      44.039  35.185  31.443  1.00  0.00     0.020 A 
ATOM     43  C   UNL A   1      43.720  35.464  32.773  1.00  0.00     0.054 A 
BRANCH  43  44
ATOM     44  S   UNL A   1      43.889  37.148  33.427  1.00  0.00     0.124 S 
ATOM     45  O   UNL A   1      45.136  37.052  34.183  1.00  0.00    -0.237 OA
ATOM     46  O   UNL A   1      43.954  37.959  32.214  1.00  0.00    -0.237 OA
ATOM     47  O   UNL A   1      42.686  37.331  34.233  1.00  0.00    -0.744 OA
ENDBRANCH  43  44
ENDBRANCH  24  38
BRANCH  25  48
ATOM     48  C   UNL A   1      42.244  23.734  27.876  1.00  0.00    -0.014 A 
ATOM     49  C   UNL A   1      42.533  23.506  26.520  1.00  0.00     0.010 A 
ATOM     50  C   UNL A   1      41.819  22.658  28.676  1.00  0.00     0.010 A 
ATOM     51  C   UNL A   1      42.392  22.228  25.973  1.00  0.00     0.020 A 
ATOM     52  C   UNL A   1      41.706  21.372  28.141  1.00  0.00     0.020 A 
ATOM     53  C   UNL A   1      41.984  21.168  26.789  1.00  0.00     0.054 A 
BRANCH  53  54
ATOM     54  S   UNL A   1      41.868  19.506  26.073  1.00  0.00     0.124 S 
ATOM     55  O   UNL A   1      42.720  19.624  24.893  1.00  0.00    -0.237 OA
ATOM     56  O   UNL A   1      42.387  18.663  27.147  1.00  0.00    -0.237 OA
ATOM     57  O   UNL A   1      40.441  19.348  25.802  1.00  0.00    -0.744 OA
ENDBRANCH  53  54
ENDBRANCH  25  48
BRANCH  37  58
ATOM     58  C   UNL A   1      47.555  26.974  31.033  1.00  0.00    -0.014 A 
ATOM     59  C   UNL A   1      47.840  26.312  32.240  1.00  0.00     0.010 A 
ATOM     60  C   UNL A   1      48.595  27.198  30.112  1.00  0.00     0.010 A 
ATOM     61  C   UNL A   1      49.146  25.912  32.535  1.00  0.00     0.020 A 
ATOM     62  C   UNL A   1      49.897  26.774  30.390  1.00  0.00     0.020 A 
ATOM     63  C   UNL A   1      50.166  26.146  31.608  1.00  0.00     0.054 A 
BRANCH  63  64
ATOM     64  S   UNL A   1      51.846  25.582  31.997  1.00  0.00     0.124 S 
ATOM     65  O   UNL A   1      51.660  24.141  32.132  1.00  0.00    -0.237 OA
ATOM     66  O   UNL A   1      52.607  26.011  30.825  1.00  0.00    -0.237 OA
ATOM     67  O   UNL A   1      52.170  26.288  33.234  1.00  0.00    -0.744 OA
ENDBRANCH  63  64
ENDBRANCH  37  58
ENDBRANCH  11  12
ENDBRANCH   4   6
ENDBRANCH   1   2
BRANCH   1  68
ATOM     68  C   UNL A   1      33.823  27.713  25.525  1.00  0.00     0.042 C 
BRANCH  68  69
ATOM     69  C   UNL A   1      32.799  26.913  24.731  1.00  0.00     0.118 C 
BRANCH  69  70
ATOM     70  N   UNL A   1      31.562  26.683  25.469  1.00  0.00    -0.352 N 
ATOM     71  C   UNL A   1      31.039  25.512  25.958  1.00  0.00     0.251 C 
ATOM     72  H   UNL A   1      31.020  27.487  25.641  1.00  0.00     0.163 HD
ATOM     73  O   UNL A   1      29.908  25.476  26.432  1.00  0.00    -0.269 OA
BRANCH  71  74
ATOM     74  C   UNL A   1      31.840  24.278  25.898  1.00  0.00     0.040 A 
ATOM     75  C   UNL A   1      32.710  23.948  26.935  1.00  0.00     0.014 A 
ATOM     76  C   UNL A   1      31.717  23.446  24.786  1.00  0.00     0.030 A 
ATOM     77  C   UNL A   1      33.574  22.867  26.783  1.00  0.00     0.011 A 
ATOM     78  C   UNL A   1      32.580  22.356  24.642  1.00  0.00     0.027 A 
ATOM     79  C   UNL A   1      33.585  22.109  25.596  1.00  0.00     0.020 A 
ATOM     80  Br  UNL A   1      32.322  21.272  23.102  1.00  0.00    -0.050 Br
BRANCH  79  81
ATOM     81  C   UNL A   1      34.720  21.127  25.392  1.00  0.00     0.300 C 
BRANCH  81  82
ATOM     82  N   UNL A   1      35.828  21.546  24.521  1.00  0.00    -0.322 N 
ATOM     83  C   UNL A   1      35.909  22.984  24.229  1.00  0.00     0.324 C 
ATOM     84  C   UNL A   1      37.153  20.986  24.818  1.00  0.00     0.324 C 
ATOM     85  H   UNL A   1      35.533  21.094  23.657  1.00  0.00     0.348 HD
ATOM     86  C   UNL A   1      36.799  23.808  25.187  1.00  0.00     0.322 C 
ATOM     87  C   UNL A   1      38.085  21.846  25.707  1.00  0.00     0.322 C 
ATOM     88  N   UNL A   1      38.159  23.262  25.323  1.00  0.00    -0.337 N 
ATOM     89  H   UNL A   1      38.664  23.783  26.040  1.00  0.00     0.346 HD
ATOM     90  H   UNL A   1      38.648  23.345  24.432  1.00  0.00     0.346 HD
ENDBRANCH  81  82
ENDBRANCH  79  81
ENDBRANCH  71  74
ENDBRANCH  69  70
ENDBRANCH  68  69
ENDBRANCH   1  68
TORSDOF 15
ENDMDL
MODEL 3
REMARK VINA RESULT:     -11.1      0.710      8.395
REMARK SMILES O=C(NCCCNC(=O)c1ccc(C[NH+]2CC[NH2+]CC2)c(Br)c1)c1ccc(-c2c3nc(c(-c4ccc(S(=O)(=O)[O-])cc4)c4ccc([nH]4)c(-c4ccc(S(=O)(=O)[O-])cc4)c4nc(c(-c5ccc(S(=O)(=O)[O-])cc5)c5ccc2[nH]5)C=C4)C=C3)cc1
REMARK SMILES IDX 4 1 3 2 1 3 2 4 24 6 25 7 83 8 26 9 82 10 27 11 28 12 29 13
REMARK SMILES IDX 76 14 30 15 81 16 75 17 77 18 31 19 80 20 74 21 73 22 32 24
REMARK SMILES IDX 62 25 43 26 61 27 44 28 47 29 60 30 78 31 45 32 46 33 59 35
REMARK SMILES IDX 79 36 48 37 33 38 34 39 42 40 35 41 41 42 36 43 37 44 38 45
REMARK SMILES IDX 39 46 40 47 63 48 64 49 72 50 65 51 71 52 66 53 67 54 68 55
REMARK SMILES IDX 69 56 70 57 49 58 50 59 58 60 51 61 57 62 52 63 53 64 54 65
REMARK SMILES IDX 55 66 56 67 5 68 6 69 7 70 8 71 9 73 10 74 11 75 23 76 12 77
REMARK SMILES IDX 21 78 13 79 22 80 14 81 15 82 16 83 20 84 17 86 19 87 18 88
REMARK H PARENT 3 5 77 23 47 34 7 72 15 85 18 89 18 90
REMARK Flexibility Score: inf
ROOT
ATOM      1  C   UNL A   1      33.940  27.860  26.513  1.00  0.00     0.118 C 
ENDROOT
BRANCH   1   2
ATOM      2  N   UNL A   1      33.558  29.202  26.928  1.00  0.00    -0.352 N 
ATOM      3  O   UNL A   1      33.698  31.171  28.007  1.00  0.00    -0.269 OA
ATOM      4  C   UNL A   1      34.261  30.140  27.649  1.00  0.00     0.251 C 
ATOM      5  H   UNL A   1      32.657  29.484  26.650  1.00  0.00     0.163 HD
BRANCH   4   6
ATOM      6  C   UNL A   1      35.677  29.903  28.016  1.00  0.00     0.039 A 
ATOM      7  C   UNL A   1      36.705  30.094  27.093  1.00  0.00     0.014 A 
ATOM      8  C   UNL A   1      35.983  29.505  29.323  1.00  0.00     0.014 A 
ATOM      9  C   UNL A   1      38.011  29.739  27.423  1.00  0.00     0.010 A 
ATOM     10  C   UNL A   1      37.309  29.237  29.681  1.00  0.00     0.010 A 
ATOM     11  C   UNL A   1      38.332  29.319  28.724  1.00  0.00    -0.014 A 
BRANCH  11  12
ATOM     12  C   UNL A   1      39.750  29.037  29.071  1.00  0.00     0.031 A 
ATOM     13  C   UNL A   1      40.392  27.718  28.734  1.00  0.00     0.074 A 
ATOM     14  C   UNL A   1      40.472  30.001  29.677  1.00  0.00     0.049 A 
ATOM     15  N   UNL A   1      41.626  27.329  28.937  1.00  0.00    -0.248 NA
ATOM     16  C   UNL A   1      39.543  26.701  28.092  1.00  0.00     0.031 C 
ATOM     17  C   UNL A   1      39.960  31.320  30.063  1.00  0.00     0.029 A 
ATOM     18  N   UNL A   1      41.790  30.033  30.056  1.00  0.00    -0.354 N 
ATOM     19  C   UNL A   1      41.700  26.023  28.465  1.00  0.00     0.074 A 
ATOM     20  C   UNL A   1      40.377  25.675  27.991  1.00  0.00     0.031 C 
ATOM     21  C   UNL A   1      40.963  32.046  30.577  1.00  0.00     0.029 A 
ATOM     22  C   UNL A   1      42.169  31.229  30.619  1.00  0.00     0.049 A 
ATOM     23  H   UNL A   1      42.404  29.274  29.938  1.00  0.00     0.167 HD
ATOM     24  C   UNL A   1      42.772  25.193  28.427  1.00  0.00     0.031 A 
ATOM     25  C   UNL A   1      43.350  31.626  31.130  1.00  0.00     0.031 A 
ATOM     26  C   UNL A   1      44.084  25.544  28.907  1.00  0.00     0.049 A 
ATOM     27  C   UNL A   1      44.510  30.674  31.110  1.00  0.00     0.074 A 
ATOM     28  C   UNL A   1      45.242  24.783  28.881  1.00  0.00     0.029 A 
ATOM     29  N   UNL A   1      44.416  26.749  29.509  1.00  0.00    -0.354 N 
ATOM     30  N   UNL A   1      44.568  29.458  30.623  1.00  0.00    -0.248 NA
ATOM     31  C   UNL A   1      45.765  31.149  31.707  1.00  0.00     0.031 C 
ATOM     32  C   UNL A   1      46.256  25.505  29.519  1.00  0.00     0.029 A 
ATOM     33  C   UNL A   1      45.750  26.741  29.885  1.00  0.00     0.049 A 
ATOM     34  H   UNL A   1      43.795  27.500  29.647  1.00  0.00     0.167 HD
ATOM     35  C   UNL A   1      45.871  29.027  30.840  1.00  0.00     0.074 A 
ATOM     36  C   UNL A   1      46.572  30.121  31.482  1.00  0.00     0.031 C 
ATOM     37  C   UNL A   1      46.435  27.832  30.536  1.00  0.00     0.031 A 
BRANCH  24  38
ATOM     38  C   UNL A   1      42.564  23.807  27.871  1.00  0.00    -0.014 A 
ATOM     39  C   UNL A   1      42.217  22.728  28.704  1.00  0.00     0.010 A 
ATOM     40  C   UNL A   1      42.672  23.589  26.484  1.00  0.00     0.010 A 
ATOM     41  C   UNL A   1      42.026  21.450  28.168  1.00  0.00     0.020 A 
ATOM     42  C   UNL A   1      42.455  22.319  25.940  1.00  0.00     0.020 A 
ATOM     43  C   UNL A   1      42.151  21.253  26.789  1.00  0.00     0.054 A 
BRANCH  43  44
ATOM     44  S   UNL A   1      41.890  19.587  26.119  1.00  0.00     0.124 S 
ATOM     45  O   UNL A   1      42.733  19.608  24.926  1.00  0.00    -0.237 OA
ATOM     46  O   UNL A   1      42.362  18.728  27.203  1.00  0.00    -0.237 OA
ATOM     47  O   UNL A   1      40.453  19.535  25.866  1.00  0.00    -0.744 OA
ENDBRANCH  43  44
ENDBRANCH  24  38
BRANCH  25  48
ATOM     48  C   UNL A   1      43.477  32.988  31.714  1.00  0.00    -0.014 A 
ATOM     49  C   UNL A   1      43.214  33.214  33.075  1.00  0.00     0.010 A 
ATOM     50  C   UNL A   1      43.902  34.064  30.911  1.00  0.00     0.010 A 
ATOM     51  C   UNL A   1      43.363  34.491  33.622  1.00  0.00     0.020 A 
ATOM     52  C   UNL A   1      44.081  35.336  31.460  1.00  0.00     0.020 A 
ATOM     53  C   UNL A   1      43.801  35.543  32.811  1.00  0.00     0.054 A 
BRANCH  53  54
ATOM     54  S   UNL A   1      44.048  37.178  33.556  1.00  0.00     0.124 S 
ATOM     55  O   UNL A   1      42.975  37.227  34.543  1.00  0.00    -0.237 OA
ATOM     56  O   UNL A   1      45.402  37.077  34.097  1.00  0.00    -0.237 OA
ATOM     57  O   UNL A   1      43.905  38.094  32.426  1.00  0.00    -0.744 OA
ENDBRANCH  53  54
ENDBRANCH  25  48
BRANCH  37  58
ATOM     58  C   UNL A   1      47.890  27.651  30.874  1.00  0.00    -0.014 A 
ATOM     59  C   UNL A   1      48.290  27.108  32.108  1.00  0.00     0.010 A 
ATOM     60  C   UNL A   1      48.872  27.996  29.927  1.00  0.00     0.010 A 
ATOM     61  C   UNL A   1      49.646  26.943  32.401  1.00  0.00     0.020 A 
ATOM     62  C   UNL A   1      50.228  27.806  30.205  1.00  0.00     0.020 A 
ATOM     63  C   UNL A   1      50.607  27.294  31.447  1.00  0.00     0.054 A 
BRANCH  63  64
ATOM     64  S   UNL A   1      52.360  27.034  31.836  1.00  0.00     0.124 S 
ATOM     65  O   UNL A   1      52.691  25.888  30.995  1.00  0.00    -0.237 OA
ATOM     66  O   UNL A   1      52.967  28.303  31.439  1.00  0.00    -0.237 OA
ATOM     67  O   UNL A   1      52.360  26.774  33.274  1.00  0.00    -0.744 OA
ENDBRANCH  63  64
ENDBRANCH  37  58
ENDBRANCH  11  12
ENDBRANCH   4   6
ENDBRANCH   1   2
BRANCH   1  68
ATOM     68  C   UNL A   1      32.750  26.969  26.178  1.00  0.00     0.042 C 
BRANCH  68  69
ATOM     69  C   UNL A   1      33.099  25.686  25.435  1.00  0.00     0.118 C 
BRANCH  69  70
ATOM     70  N   UNL A   1      33.312  25.896  24.007  1.00  0.00    -0.352 N 
ATOM     71  C   UNL A   1      33.728  25.010  23.045  1.00  0.00     0.251 C 
ATOM     72  H   UNL A   1      33.130  26.809  23.686  1.00  0.00     0.163 HD
ATOM     73  O   UNL A   1      33.995  25.393  21.910  1.00  0.00    -0.269 OA
BRANCH  71  74
ATOM     74  C   UNL A   1      33.871  23.584  23.383  1.00  0.00     0.040 A 
ATOM     75  C   UNL A   1      32.792  22.713  23.250  1.00  0.00     0.014 A 
ATOM     76  C   UNL A   1      35.103  23.120  23.842  1.00  0.00     0.030 A 
ATOM     77  C   UNL A   1      32.903  21.411  23.729  1.00  0.00     0.011 A 
ATOM     78  C   UNL A   1      35.213  21.808  24.312  1.00  0.00     0.027 A 
ATOM     79  C   UNL A   1      34.086  20.965  24.350  1.00  0.00     0.020 A 
ATOM     80  Br  UNL A   1      36.937  21.262  24.898  1.00  0.00    -0.050 Br
BRANCH  79  81
ATOM     81  C   UNL A   1      34.048  19.638  25.078  1.00  0.00     0.300 C 
BRANCH  81  82
ATOM     82  N   UNL A   1      33.663  18.451  24.299  1.00  0.00    -0.322 N 
ATOM     83  C   UNL A   1      34.732  17.478  24.037  1.00  0.00     0.324 C 
ATOM     84  C   UNL A   1      32.414  17.781  24.686  1.00  0.00     0.324 C 
ATOM     85  H   UNL A   1      33.461  18.903  23.408  1.00  0.00     0.348 HD
ATOM     86  C   UNL A   1      34.862  16.337  25.071  1.00  0.00     0.322 C 
ATOM     87  C   UNL A   1      32.544  16.580  25.656  1.00  0.00     0.322 C 
ATOM     88  N   UNL A   1      33.598  15.620  25.301  1.00  0.00    -0.337 N 
ATOM     89  H   UNL A   1      33.719  14.952  26.061  1.00  0.00     0.346 HD
ATOM     90  H   UNL A   1      33.330  15.125  24.450  1.00  0.00     0.346 HD
ENDBRANCH  81  82
ENDBRANCH  79  81
ENDBRANCH  71  74
ENDBRANCH  69  70
ENDBRANCH  68  69
ENDBRANCH   1  68
TORSDOF 15
ENDMDL
