MODEL 1
REMARK VINA RESULT:     -10.9      0.000      0.000
REMARK SMILES CC1(CNS(=O)(=O)Cc2ccc(C(=O)NCCCNC(=O)c3ccc(-c4c5nc(c(-c6ccc(S(=O)(=O)[O-])cc6)c6ccc([nH]6)c(-c6ccc(S(=O)(=O)[O-])cc6)c6nc(c(-c7ccc(S(=O)(=O)[O-])cc7)c7ccc4[nH]7)C=C6)C=C5)cc3)cc2)COC1
REMARK SMILES IDX 16 1 15 2 13 3 14 4 12 6 9 7 10 8 83 9 11 10 82 11 8 12 5 13
REMARK SMILES IDX 6 14 7 15 4 16 3 18 2 19 1 20 84 21 86 22 85 23 17 24 18 25
REMARK SMILES IDX 19 26 20 27 21 29 22 30 23 31 81 32 24 33 80 34 25 35 26 36
REMARK SMILES IDX 27 37 74 38 28 39 79 40 73 41 75 42 29 43 78 44 72 45 71 46
REMARK SMILES IDX 30 48 60 49 41 50 59 51 42 52 45 53 58 54 76 55 43 56 44 57
REMARK SMILES IDX 57 59 77 60 46 61 31 62 32 63 40 64 33 65 39 66 34 67 35 68
REMARK SMILES IDX 36 69 37 70 38 71 61 72 62 73 70 74 63 75 69 76 64 77 65 78
REMARK SMILES IDX 66 79 67 80 68 81 47 82 48 83 56 84 49 85 55 86 50 87 51 88
REMARK SMILES IDX 52 89 53 90 54 91
REMARK H PARENT 15 5 4 17 19 28 75 47 45 58
REMARK Flexibility Score: inf
ROOT
ATOM      1  C   UNL A   1      37.528  21.097  24.643  1.00  0.00     0.118 C 
ENDROOT
BRANCH   1   2
ATOM      2  N   UNL A   1      38.088  22.340  25.139  1.00  0.00    -0.352 N 
ATOM      3  C   UNL A   1      37.504  23.421  25.744  1.00  0.00     0.251 C 
ATOM      4  O   UNL A   1      38.233  24.325  26.150  1.00  0.00    -0.269 OA
ATOM      5  H   UNL A   1      39.062  22.422  25.017  1.00  0.00     0.163 HD
BRANCH   3   6
ATOM      6  C   UNL A   1      36.039  23.515  25.979  1.00  0.00     0.039 A 
ATOM      7  C   UNL A   1      33.282  23.591  26.569  1.00  0.00    -0.032 A 
ATOM      8  C   UNL A   1      34.125  22.687  27.228  1.00  0.00     0.005 A 
ATOM      9  C   UNL A   1      33.830  24.452  25.614  1.00  0.00     0.005 A 
ATOM     10  C   UNL A   1      35.491  22.655  26.940  1.00  0.00     0.014 A 
ATOM     11  C   UNL A   1      35.200  24.434  25.345  1.00  0.00     0.014 A 
BRANCH   7  12
ATOM     12  C   UNL A   1      31.820  23.675  26.908  1.00  0.00     0.189 C 
BRANCH  12  13
ATOM     13  S   UNL A   1      30.867  22.536  25.883  1.00  0.00     0.215 S 
ATOM     14  O   UNL A   1      30.877  23.035  24.522  1.00  0.00    -0.212 OA
ATOM     15  O   UNL A   1      29.622  22.209  26.537  1.00  0.00    -0.212 OA
BRANCH  13  16
ATOM     16  N   UNL A   1      31.782  21.119  25.893  1.00  0.00    -0.214 NA
ATOM     17  H   UNL A   1      32.591  21.280  26.492  1.00  0.00     0.141 HD
BRANCH  16  18
ATOM     18  C   UNL A   1      32.284  20.626  24.600  1.00  0.00     0.110 C 
BRANCH  18  19
ATOM     19  C   UNL A   1      33.113  19.347  24.736  1.00  0.00     0.028 C 
ATOM     20  C   UNL A   1      34.618  19.545  24.631  1.00  0.00     0.018 C 
ATOM     21  C   UNL A   1      32.576  18.237  23.811  1.00  0.00     0.170 C 
ATOM     22  C   UNL A   1      32.636  18.408  25.861  1.00  0.00     0.170 C 
ATOM     23  O   UNL A   1      31.861  17.625  24.913  1.00  0.00    -0.380 OA
ENDBRANCH  18  19
ENDBRANCH  16  18
ENDBRANCH  13  16
ENDBRANCH  12  13
ENDBRANCH   7  12
ENDBRANCH   3   6
ENDBRANCH   1   2
BRANCH   1  24
ATOM     24  C   UNL A   1      38.399  19.905  25.038  1.00  0.00     0.042 C 
BRANCH  24  25
ATOM     25  C   UNL A   1      39.482  20.265  26.048  1.00  0.00     0.118 C 
BRANCH  25  26
ATOM     26  N   UNL A   1      40.571  19.299  26.035  1.00  0.00    -0.352 N 
ATOM     27  C   UNL A   1      41.927  19.503  26.010  1.00  0.00     0.251 C 
ATOM     28  H   UNL A   1      40.292  18.355  26.047  1.00  0.00     0.163 HD
ATOM     29  O   UNL A   1      42.671  18.566  25.737  1.00  0.00    -0.269 OA
BRANCH  27  30
ATOM     30  C   UNL A   1      42.488  20.837  26.307  1.00  0.00     0.039 A 
ATOM     31  C   UNL A   1      42.916  21.640  25.248  1.00  0.00     0.014 A 
ATOM     32  C   UNL A   1      42.633  21.279  27.625  1.00  0.00     0.014 A 
ATOM     33  C   UNL A   1      43.448  22.905  25.508  1.00  0.00     0.010 A 
ATOM     34  C   UNL A   1      43.086  22.570  27.879  1.00  0.00     0.010 A 
ATOM     35  C   UNL A   1      43.512  23.390  26.824  1.00  0.00    -0.014 A 
BRANCH  35  36
ATOM     36  C   UNL A   1      44.019  24.754  27.116  1.00  0.00     0.031 A 
ATOM     37  C   UNL A   1      43.063  25.859  27.474  1.00  0.00     0.074 A 
ATOM     38  C   UNL A   1      45.334  25.012  26.988  1.00  0.00     0.049 A 
ATOM     39  N   UNL A   1      43.314  27.120  27.714  1.00  0.00    -0.248 NA
ATOM     40  C   UNL A   1      41.635  25.507  27.539  1.00  0.00     0.031 C 
ATOM     41  C   UNL A   1      46.352  24.035  26.594  1.00  0.00     0.029 A 
ATOM     42  N   UNL A   1      46.039  26.175  27.162  1.00  0.00    -0.354 N 
ATOM     43  C   UNL A   1      42.077  27.716  27.938  1.00  0.00     0.074 A 
ATOM     44  C   UNL A   1      41.076  26.689  27.750  1.00  0.00     0.031 C 
ATOM     45  C   UNL A   1      47.551  24.635  26.576  1.00  0.00     0.029 A 
ATOM     46  C   UNL A   1      47.384  26.046  26.913  1.00  0.00     0.049 A 
ATOM     47  H   UNL A   1      45.621  27.023  27.440  1.00  0.00     0.167 HD
ATOM     48  C   UNL A   1      41.801  28.996  28.285  1.00  0.00     0.031 A 
ATOM     49  C   UNL A   1      48.374  26.958  26.939  1.00  0.00     0.031 A 
ATOM     50  C   UNL A   1      42.806  30.013  28.462  1.00  0.00     0.049 A 
ATOM     51  C   UNL A   1      48.053  28.373  27.327  1.00  0.00     0.074 A 
ATOM     52  C   UNL A   1      42.642  31.324  28.874  1.00  0.00     0.029 A 
ATOM     53  N   UNL A   1      44.163  29.836  28.221  1.00  0.00    -0.354 N 
ATOM     54  N   UNL A   1      46.887  28.900  27.620  1.00  0.00    -0.248 NA
ATOM     55  C   UNL A   1      49.178  29.312  27.402  1.00  0.00     0.031 C 
ATOM     56  C   UNL A   1      43.889  31.957  28.820  1.00  0.00     0.029 A 
ATOM     57  C   UNL A   1      44.842  31.022  28.443  1.00  0.00     0.049 A 
ATOM     58  H   UNL A   1      44.578  28.991  27.935  1.00  0.00     0.167 HD
ATOM     59  C   UNL A   1      47.141  30.230  27.935  1.00  0.00     0.074 A 
ATOM     60  C   UNL A   1      48.573  30.420  27.811  1.00  0.00     0.031 C 
ATOM     61  C   UNL A   1      46.267  31.203  28.298  1.00  0.00     0.031 A 
BRANCH  48  62
ATOM     62  C   UNL A   1      40.350  29.366  28.461  1.00  0.00    -0.014 A 
ATOM     63  C   UNL A   1      39.481  29.481  27.359  1.00  0.00     0.010 A 
ATOM     64  C   UNL A   1      39.846  29.617  29.751  1.00  0.00     0.010 A 
ATOM     65  C   UNL A   1      38.164  29.912  27.535  1.00  0.00     0.020 A 
ATOM     66  C   UNL A   1      38.518  30.013  29.935  1.00  0.00     0.020 A 
ATOM     67  C   UNL A   1      37.693  30.187  28.822  1.00  0.00     0.054 A 
BRANCH  67  68
ATOM     68  S   UNL A   1      35.989  30.775  29.019  1.00  0.00     0.124 S 
ATOM     69  O   UNL A   1      35.931  31.858  28.041  1.00  0.00    -0.237 OA
ATOM     70  O   UNL A   1      35.201  29.590  28.690  1.00  0.00    -0.237 OA
ATOM     71  O   UNL A   1      35.925  31.194  30.417  1.00  0.00    -0.744 OA
ENDBRANCH  67  68
ENDBRANCH  48  62
BRANCH  49  72
ATOM     72  C   UNL A   1      49.759  26.534  26.599  1.00  0.00    -0.014 A 
ATOM     73  C   UNL A   1      50.583  25.936  27.567  1.00  0.00     0.010 A 
ATOM     74  C   UNL A   1      50.228  26.650  25.278  1.00  0.00     0.010 A 
ATOM     75  C   UNL A   1      51.848  25.453  27.218  1.00  0.00     0.020 A 
ATOM     76  C   UNL A   1      51.480  26.144  24.918  1.00  0.00     0.020 A 
ATOM     77  C   UNL A   1      52.283  25.548  25.892  1.00  0.00     0.054 A 
BRANCH  77  78
ATOM     78  S   UNL A   1      53.881  24.816  25.443  1.00  0.00     0.124 S 
ATOM     79  O   UNL A   1      53.507  23.448  25.103  1.00  0.00    -0.237 OA
ATOM     80  O   UNL A   1      54.305  25.654  24.324  1.00  0.00    -0.237 OA
ATOM     81  O   UNL A   1      54.679  24.964  26.657  1.00  0.00    -0.744 OA
ENDBRANCH  77  78
ENDBRANCH  49  72
BRANCH  61  82
ATOM     82  C   UNL A   1      46.836  32.564  28.610  1.00  0.00    -0.014 A 
ATOM     83  C   UNL A   1      46.758  33.618  27.683  1.00  0.00     0.010 A 
ATOM     84  C   UNL A   1      47.404  32.803  29.874  1.00  0.00     0.010 A 
ATOM     85  C   UNL A   1      47.267  34.880  28.006  1.00  0.00     0.020 A 
ATOM     86  C   UNL A   1      47.885  34.069  30.212  1.00  0.00     0.020 A 
ATOM     87  C   UNL A   1      47.825  35.098  29.270  1.00  0.00     0.054 A 
BRANCH  87  88
ATOM     88  S   UNL A   1      48.437  36.755  29.680  1.00  0.00     0.124 S 
ATOM     89  O   UNL A   1      47.212  37.439  30.086  1.00  0.00    -0.237 OA
ATOM     90  O   UNL A   1      49.392  36.487  30.752  1.00  0.00    -0.237 OA
ATOM     91  O   UNL A   1      49.027  37.227  28.429  1.00  0.00    -0.744 OA
ENDBRANCH  87  88
ENDBRANCH  61  82
ENDBRANCH  35  36
ENDBRANCH  27  30
ENDBRANCH  25  26
ENDBRANCH  24  25
ENDBRANCH   1  24
TORSDOF 18
ENDMDL
MODEL 2
REMARK VINA RESULT:     -10.8      4.399     11.767
REMARK SMILES CC1(CNS(=O)(=O)Cc2ccc(C(=O)NCCCNC(=O)c3ccc(-c4c5nc(c(-c6ccc(S(=O)(=O)[O-])cc6)c6ccc([nH]6)c(-c6ccc(S(=O)(=O)[O-])cc6)c6nc(c(-c7ccc(S(=O)(=O)[O-])cc7)c7ccc4[nH]7)C=C6)C=C5)cc3)cc2)COC1
REMARK SMILES IDX 16 1 15 2 13 3 14 4 12 6 9 7 10 8 83 9 11 10 82 11 8 12 5 13
REMARK SMILES IDX 6 14 7 15 4 16 3 18 2 19 1 20 84 21 86 22 85 23 17 24 18 25
REMARK SMILES IDX 19 26 20 27 21 29 22 30 23 31 81 32 24 33 80 34 25 35 26 36
REMARK SMILES IDX 27 37 74 38 28 39 79 40 73 41 75 42 29 43 78 44 72 45 71 46
REMARK SMILES IDX 30 48 60 49 41 50 59 51 42 52 45 53 58 54 76 55 43 56 44 57
REMARK SMILES IDX 57 59 77 60 46 61 31 62 32 63 40 64 33 65 39 66 34 67 35 68
REMARK SMILES IDX 36 69 37 70 38 71 61 72 62 73 70 74 63 75 69 76 64 77 65 78
REMARK SMILES IDX 66 79 67 80 68 81 47 82 48 83 56 84 49 85 55 86 50 87 51 88
REMARK SMILES IDX 52 89 53 90 54 91
REMARK H PARENT 15 5 4 17 19 28 75 47 45 58
REMARK Flexibility Score: inf
ROOT
ATOM      1  C   UNL A   1      42.416  22.294  25.538  1.00  0.00     0.118 C 
ENDROOT
BRANCH   1   2
ATOM      2  N   UNL A   1      43.801  21.870  25.461  1.00  0.00    -0.352 N 
ATOM      3  C   UNL A   1      44.972  22.566  25.601  1.00  0.00     0.251 C 
ATOM      4  O   UNL A   1      46.029  21.937  25.572  1.00  0.00    -0.269 OA
ATOM      5  H   UNL A   1      43.921  20.910  25.273  1.00  0.00     0.163 HD
BRANCH   3   6
ATOM      6  C   UNL A   1      45.011  24.033  25.843  1.00  0.00     0.039 A 
ATOM      7  C   UNL A   1      45.245  26.791  26.378  1.00  0.00    -0.032 A 
ATOM      8  C   UNL A   1      46.133  25.878  26.957  1.00  0.00     0.005 A 
ATOM      9  C   UNL A   1      44.240  26.312  25.532  1.00  0.00     0.005 A 
ATOM     10  C   UNL A   1      46.021  24.512  26.686  1.00  0.00     0.014 A 
ATOM     11  C   UNL A   1      44.145  24.949  25.245  1.00  0.00     0.014 A 
BRANCH   7  12
ATOM     12  C   UNL A   1      45.388  28.269  26.616  1.00  0.00     0.189 C 
BRANCH  12  13
ATOM     13  S   UNL A   1      46.658  28.962  25.538  1.00  0.00     0.215 S 
ATOM     14  O   UNL A   1      46.392  28.520  24.183  1.00  0.00    -0.212 OA
ATOM     15  O   UNL A   1      47.962  28.774  26.130  1.00  0.00    -0.212 OA
BRANCH  13  16
ATOM     16  N   UNL A   1      46.364  30.623  25.579  1.00  0.00    -0.214 NA
ATOM     17  H   UNL A   1      46.996  31.063  24.911  1.00  0.00     0.141 HD
BRANCH  16  18
ATOM     18  C   UNL A   1      46.537  31.311  26.869  1.00  0.00     0.110 C 
BRANCH  18  19
ATOM     19  C   UNL A   1      45.378  32.255  27.194  1.00  0.00     0.028 C 
ATOM     20  C   UNL A   1      44.126  31.575  27.726  1.00  0.00     0.018 C 
ATOM     21  C   UNL A   1      45.100  33.216  26.020  1.00  0.00     0.170 C 
ATOM     22  C   UNL A   1      45.805  33.542  27.926  1.00  0.00     0.170 C 
ATOM     23  O   UNL A   1      45.851  34.272  26.670  1.00  0.00    -0.380 OA
ENDBRANCH  18  19
ENDBRANCH  16  18
ENDBRANCH  13  16
ENDBRANCH  12  13
ENDBRANCH   7  12
ENDBRANCH   3   6
ENDBRANCH   1   2
BRANCH   1  24
ATOM     24  C   UNL A   1      41.944  22.372  26.989  1.00  0.00     0.042 C 
BRANCH  24  25
ATOM     25  C   UNL A   1      40.691  21.544  27.255  1.00  0.00     0.118 C 
BRANCH  25  26
ATOM     26  N   UNL A   1      39.616  21.885  26.335  1.00  0.00    -0.352 N 
ATOM     27  C   UNL A   1      38.903  23.049  26.209  1.00  0.00     0.251 C 
ATOM     28  H   UNL A   1      39.363  21.170  25.706  1.00  0.00     0.163 HD
ATOM     29  O   UNL A   1      37.865  23.050  25.555  1.00  0.00    -0.269 OA
BRANCH  27  30
ATOM     30  C   UNL A   1      39.377  24.290  26.856  1.00  0.00     0.039 A 
ATOM     31  C   UNL A   1      40.163  25.178  26.119  1.00  0.00     0.014 A 
ATOM     32  C   UNL A   1      39.086  24.558  28.197  1.00  0.00     0.014 A 
ATOM     33  C   UNL A   1      40.619  26.357  26.713  1.00  0.00     0.010 A 
ATOM     34  C   UNL A   1      39.471  25.769  28.762  1.00  0.00     0.010 A 
ATOM     35  C   UNL A   1      40.254  26.674  28.031  1.00  0.00    -0.014 A 
BRANCH  35  36
ATOM     36  C   UNL A   1      40.679  27.949  28.660  1.00  0.00     0.031 A 
ATOM     37  C   UNL A   1      42.059  28.085  29.242  1.00  0.00     0.074 A 
ATOM     38  C   UNL A   1      39.795  28.958  28.771  1.00  0.00     0.049 A 
ATOM     39  N   UNL A   1      42.592  29.102  29.871  1.00  0.00    -0.248 NA
ATOM     40  C   UNL A   1      42.946  26.916  29.128  1.00  0.00     0.031 C 
ATOM     41  C   UNL A   1      38.410  28.925  28.295  1.00  0.00     0.029 A 
ATOM     42  N   UNL A   1      39.924  30.204  29.331  1.00  0.00    -0.354 N 
ATOM     43  C   UNL A   1      43.866  28.688  30.246  1.00  0.00     0.074 A 
ATOM     44  C   UNL A   1      44.003  27.312  29.822  1.00  0.00     0.031 C 
ATOM     45  C   UNL A   1      37.825  30.101  28.565  1.00  0.00     0.029 A 
ATOM     46  C   UNL A   1      38.776  30.955  29.271  1.00  0.00     0.049 A 
ATOM     47  H   UNL A   1      40.760  30.528  29.737  1.00  0.00     0.167 HD
ATOM     48  C   UNL A   1      44.838  29.394  30.872  1.00  0.00     0.031 A 
ATOM     49  C   UNL A   1      38.508  32.189  29.740  1.00  0.00     0.031 A 
ATOM     50  C   UNL A   1      44.688  30.762  31.297  1.00  0.00     0.049 A 
ATOM     51  C   UNL A   1      39.597  32.960  30.431  1.00  0.00     0.074 A 
ATOM     52  C   UNL A   1      45.629  31.591  31.881  1.00  0.00     0.029 A 
ATOM     53  N   UNL A   1      43.514  31.498  31.198  1.00  0.00    -0.354 N 
ATOM     54  N   UNL A   1      40.825  32.584  30.700  1.00  0.00    -0.248 NA
ATOM     55  C   UNL A   1      39.271  34.323  30.865  1.00  0.00     0.031 C 
ATOM     56  C   UNL A   1      45.007  32.805  32.194  1.00  0.00     0.029 A 
ATOM     57  C   UNL A   1      43.697  32.758  31.740  1.00  0.00     0.049 A 
ATOM     58  H   UNL A   1      42.675  31.170  30.800  1.00  0.00     0.167 HD
ATOM     59  C   UNL A   1      41.426  33.674  31.321  1.00  0.00     0.074 A 
ATOM     60  C   UNL A   1      40.430  34.726  31.369  1.00  0.00     0.031 C 
ATOM     61  C   UNL A   1      42.690  33.792  31.800  1.00  0.00     0.031 A 
BRANCH  48  62
ATOM     62  C   UNL A   1      46.135  28.679  31.157  1.00  0.00    -0.014 A 
ATOM     63  C   UNL A   1      47.198  28.688  30.234  1.00  0.00     0.010 A 
ATOM     64  C   UNL A   1      46.291  27.974  32.366  1.00  0.00     0.010 A 
ATOM     65  C   UNL A   1      48.357  27.946  30.477  1.00  0.00     0.020 A 
ATOM     66  C   UNL A   1      47.464  27.260  32.629  1.00  0.00     0.020 A 
ATOM     67  C   UNL A   1      48.477  27.226  31.670  1.00  0.00     0.054 A 
BRANCH  67  68
ATOM     68  S   UNL A   1      49.978  26.246  31.946  1.00  0.00     0.124 S 
ATOM     69  O   UNL A   1      49.755  25.102  31.068  1.00  0.00    -0.237 OA
ATOM     70  O   UNL A   1      51.039  27.159  31.530  1.00  0.00    -0.237 OA
ATOM     71  O   UNL A   1      49.941  25.949  33.376  1.00  0.00    -0.744 OA
ENDBRANCH  67  68
ENDBRANCH  48  62
BRANCH  49  72
ATOM     72  C   UNL A   1      37.147  32.758  29.547  1.00  0.00    -0.014 A 
ATOM     73  C   UNL A   1      36.246  32.840  30.622  1.00  0.00     0.010 A 
ATOM     74  C   UNL A   1      36.778  33.300  28.302  1.00  0.00     0.010 A 
ATOM     75  C   UNL A   1      35.004  33.463  30.458  1.00  0.00     0.020 A 
ATOM     76  C   UNL A   1      35.550  33.948  28.141  1.00  0.00     0.020 A 
ATOM     77  C   UNL A   1      34.670  34.025  29.222  1.00  0.00     0.054 A 
BRANCH  77  78
ATOM     78  S   UNL A   1      33.101  34.922  29.066  1.00  0.00     0.124 S 
ATOM     79  O   UNL A   1      32.411  34.154  28.036  1.00  0.00    -0.237 OA
ATOM     80  O   UNL A   1      32.546  34.818  30.413  1.00  0.00    -0.237 OA
ATOM     81  O   UNL A   1      33.513  36.268  28.675  1.00  0.00    -0.744 OA
ENDBRANCH  77  78
ENDBRANCH  49  72
BRANCH  61  82
ATOM     82  C   UNL A   1      43.081  35.116  32.405  1.00  0.00    -0.014 A 
ATOM     83  C   UNL A   1      43.582  36.163  31.613  1.00  0.00     0.010 A 
ATOM     84  C   UNL A   1      42.886  35.331  33.782  1.00  0.00     0.010 A 
ATOM     85  C   UNL A   1      43.910  37.392  32.192  1.00  0.00     0.020 A 
ATOM     86  C   UNL A   1      43.183  36.567  34.359  1.00  0.00     0.020 A 
ATOM     87  C   UNL A   1      43.706  37.587  33.562  1.00  0.00     0.054 A 
BRANCH  87  88
ATOM     88  S   UNL A   1      44.096  39.206  34.281  1.00  0.00     0.124 S 
ATOM     89  O   UNL A   1      45.429  39.465  33.742  1.00  0.00    -0.237 OA
ATOM     90  O   UNL A   1      43.030  40.054  33.756  1.00  0.00    -0.237 OA
ATOM     91  O   UNL A   1      44.044  38.967  35.722  1.00  0.00    -0.744 OA
ENDBRANCH  87  88
ENDBRANCH  61  82
ENDBRANCH  35  36
ENDBRANCH  27  30
ENDBRANCH  25  26
ENDBRANCH  24  25
ENDBRANCH   1  24
TORSDOF 18
ENDMDL
MODEL 3
REMARK VINA RESULT:     -10.4      1.734      3.106
REMARK SMILES CC1(CNS(=O)(=O)Cc2ccc(C(=O)NCCCNC(=O)c3ccc(-c4c5nc(c(-c6ccc(S(=O)(=O)[O-])cc6)c6ccc([nH]6)c(-c6ccc(S(=O)(=O)[O-])cc6)c6nc(c(-c7ccc(S(=O)(=O)[O-])cc7)c7ccc4[nH]7)C=C6)C=C5)cc3)cc2)COC1
REMARK SMILES IDX 16 1 15 2 13 3 14 4 12 6 9 7 10 8 83 9 11 10 82 11 8 12 5 13
REMARK SMILES IDX 6 14 7 15 4 16 3 18 2 19 1 20 84 21 86 22 85 23 17 24 18 25
REMARK SMILES IDX 19 26 20 27 21 29 22 30 23 31 81 32 24 33 80 34 25 35 26 36
REMARK SMILES IDX 27 37 74 38 28 39 79 40 73 41 75 42 29 43 78 44 72 45 71 46
REMARK SMILES IDX 30 48 60 49 41 50 59 51 42 52 45 53 58 54 76 55 43 56 44 57
REMARK SMILES IDX 57 59 77 60 46 61 31 62 32 63 40 64 33 65 39 66 34 67 35 68
REMARK SMILES IDX 36 69 37 70 38 71 61 72 62 73 70 74 63 75 69 76 64 77 65 78
REMARK SMILES IDX 66 79 67 80 68 81 47 82 48 83 56 84 49 85 55 86 50 87 51 88
REMARK SMILES IDX 52 89 53 90 54 91
REMARK H PARENT 15 5 4 17 19 28 75 47 45 58
REMARK Flexibility Score: inf
ROOT
ATOM      1  C   UNL A   1      37.433  21.028  24.814  1.00  0.00     0.118 C 
ENDROOT
BRANCH   1   2
ATOM      2  N   UNL A   1      37.951  22.282  25.328  1.00  0.00    -0.352 N 
ATOM      3  C   UNL A   1      37.316  23.414  25.767  1.00  0.00     0.251 C 
ATOM      4  O   UNL A   1      38.003  24.319  26.240  1.00  0.00    -0.269 OA
ATOM      5  H   UNL A   1      38.934  22.329  25.367  1.00  0.00     0.163 HD
BRANCH   3   6
ATOM      6  C   UNL A   1      35.837  23.565  25.749  1.00  0.00     0.039 A 
ATOM      7  C   UNL A   1      33.044  23.894  25.541  1.00  0.00    -0.032 A 
ATOM      8  C   UNL A   1      33.889  24.330  24.513  1.00  0.00     0.005 A 
ATOM      9  C   UNL A   1      33.609  23.296  26.671  1.00  0.00     0.005 A 
ATOM     10  C   UNL A   1      35.272  24.160  24.614  1.00  0.00     0.014 A 
ATOM     11  C   UNL A   1      34.990  23.106  26.759  1.00  0.00     0.014 A 
BRANCH   7  12
ATOM     12  C   UNL A   1      31.551  24.020  25.422  1.00  0.00     0.189 C 
BRANCH  12  13
ATOM     13  S   UNL A   1      31.011  25.657  25.956  1.00  0.00     0.215 S 
ATOM     14  O   UNL A   1      32.032  26.210  26.824  1.00  0.00    -0.212 OA
ATOM     15  O   UNL A   1      29.632  25.604  26.384  1.00  0.00    -0.212 OA
BRANCH  13  16
ATOM     16  N   UNL A   1      31.023  26.571  24.538  1.00  0.00    -0.214 NA
ATOM     17  H   UNL A   1      30.584  26.010  23.808  1.00  0.00     0.141 HD
BRANCH  16  18
ATOM     18  C   UNL A   1      32.330  27.014  24.028  1.00  0.00     0.110 C 
BRANCH  18  19
ATOM     19  C   UNL A   1      32.396  28.527  23.808  1.00  0.00     0.028 C 
ATOM     20  C   UNL A   1      33.423  28.981  22.782  1.00  0.00     0.018 C 
ATOM     21  C   UNL A   1      32.501  29.277  25.151  1.00  0.00     0.170 C 
ATOM     22  C   UNL A   1      31.017  29.209  23.727  1.00  0.00     0.170 C 
ATOM     23  O   UNL A   1      31.079  29.561  25.135  1.00  0.00    -0.380 OA
ENDBRANCH  18  19
ENDBRANCH  16  18
ENDBRANCH  13  16
ENDBRANCH  12  13
ENDBRANCH   7  12
ENDBRANCH   3   6
ENDBRANCH   1   2
BRANCH   1  24
ATOM     24  C   UNL A   1      38.423  19.888  25.041  1.00  0.00     0.042 C 
BRANCH  24  25
ATOM     25  C   UNL A   1      39.466  20.207  26.107  1.00  0.00     0.118 C 
BRANCH  25  26
ATOM     26  N   UNL A   1      40.536  19.220  26.125  1.00  0.00    -0.352 N 
ATOM     27  C   UNL A   1      41.896  19.396  26.102  1.00  0.00     0.251 C 
ATOM     28  H   UNL A   1      40.237  18.282  26.159  1.00  0.00     0.163 HD
ATOM     29  O   UNL A   1      42.622  18.438  25.856  1.00  0.00    -0.269 OA
BRANCH  27  30
ATOM     30  C   UNL A   1      42.482  20.726  26.367  1.00  0.00     0.039 A 
ATOM     31  C   UNL A   1      42.912  21.502  25.288  1.00  0.00     0.014 A 
ATOM     32  C   UNL A   1      42.647  21.191  27.674  1.00  0.00     0.014 A 
ATOM     33  C   UNL A   1      43.467  22.762  25.518  1.00  0.00     0.010 A 
ATOM     34  C   UNL A   1      43.124  22.479  27.899  1.00  0.00     0.010 A 
ATOM     35  C   UNL A   1      43.552  23.271  26.825  1.00  0.00    -0.014 A 
BRANCH  35  36
ATOM     36  C   UNL A   1      44.084  24.632  27.085  1.00  0.00     0.031 A 
ATOM     37  C   UNL A   1      43.160  25.742  27.503  1.00  0.00     0.074 A 
ATOM     38  C   UNL A   1      45.390  24.882  26.874  1.00  0.00     0.049 A 
ATOM     39  N   UNL A   1      43.433  27.002  27.729  1.00  0.00    -0.248 NA
ATOM     40  C   UNL A   1      41.737  25.398  27.659  1.00  0.00     0.031 C 
ATOM     41  C   UNL A   1      46.376  23.900  26.415  1.00  0.00     0.029 A 
ATOM     42  N   UNL A   1      46.112  26.041  27.004  1.00  0.00    -0.354 N 
ATOM     43  C   UNL A   1      42.216  27.603  28.031  1.00  0.00     0.074 A 
ATOM     44  C   UNL A   1      41.199  26.583  27.905  1.00  0.00     0.031 C 
ATOM     45  C   UNL A   1      47.574  24.493  26.321  1.00  0.00     0.029 A 
ATOM     46  C   UNL A   1      47.437  25.905  26.670  1.00  0.00     0.049 A 
ATOM     47  H   UNL A   1      45.718  26.891  27.308  1.00  0.00     0.167 HD
ATOM     48  C   UNL A   1      41.970  28.885  28.395  1.00  0.00     0.031 A 
ATOM     49  C   UNL A   1      48.432  26.811  26.634  1.00  0.00     0.031 A 
ATOM     50  C   UNL A   1      42.990  29.896  28.510  1.00  0.00     0.049 A 
ATOM     51  C   UNL A   1      48.145  28.228  27.043  1.00  0.00     0.074 A 
ATOM     52  C   UNL A   1      42.861  31.207  28.933  1.00  0.00     0.029 A 
ATOM     53  N   UNL A   1      44.328  29.712  28.184  1.00  0.00    -0.354 N 
ATOM     54  N   UNL A   1      47.003  28.761  27.410  1.00  0.00    -0.248 NA
ATOM     55  C   UNL A   1      49.278  29.160  27.047  1.00  0.00     0.031 C 
ATOM     56  C   UNL A   1      44.105  31.833  28.800  1.00  0.00     0.029 A 
ATOM     57  C   UNL A   1      45.027  30.893  28.363  1.00  0.00     0.049 A 
ATOM     58  H   UNL A   1      44.720  28.865  27.870  1.00  0.00     0.167 HD
ATOM     59  C   UNL A   1      47.284  30.089  27.709  1.00  0.00     0.074 A 
ATOM     60  C   UNL A   1      48.707  30.271  27.495  1.00  0.00     0.031 C 
ATOM     61  C   UNL A   1      46.441  31.066  28.128  1.00  0.00     0.031 A 
BRANCH  48  62
ATOM     62  C   UNL A   1      40.535  29.263  28.664  1.00  0.00    -0.014 A 
ATOM     63  C   UNL A   1      40.086  29.567  29.964  1.00  0.00     0.010 A 
ATOM     64  C   UNL A   1      39.614  29.303  27.601  1.00  0.00     0.010 A 
ATOM     65  C   UNL A   1      38.734  29.826  30.205  1.00  0.00     0.020 A 
ATOM     66  C   UNL A   1      38.267  29.599  27.833  1.00  0.00     0.020 A 
ATOM     67  C   UNL A   1      37.831  29.829  29.139  1.00  0.00     0.054 A 
BRANCH  67  68
ATOM     68  S   UNL A   1      36.077  30.138  29.485  1.00  0.00     0.124 S 
ATOM     69  O   UNL A   1      35.424  29.380  28.421  1.00  0.00    -0.237 OA
ATOM     70  O   UNL A   1      35.915  29.596  30.831  1.00  0.00    -0.237 OA
ATOM     71  O   UNL A   1      35.953  31.590  29.382  1.00  0.00    -0.744 OA
ENDBRANCH  67  68
ENDBRANCH  48  62
BRANCH  49  72
ATOM     72  C   UNL A   1      49.791  26.380  26.207  1.00  0.00    -0.014 A 
ATOM     73  C   UNL A   1      50.241  26.624  24.899  1.00  0.00     0.010 A 
ATOM     74  C   UNL A   1      50.672  25.799  27.137  1.00  0.00     0.010 A 
ATOM     75  C   UNL A   1      51.552  26.303  24.531  1.00  0.00     0.020 A 
ATOM     76  C   UNL A   1      51.991  25.503  26.782  1.00  0.00     0.020 A 
ATOM     77  C   UNL A   1      52.423  25.757  25.479  1.00  0.00     0.054 A 
BRANCH  77  78
ATOM     78  S   UNL A   1      54.147  25.452  25.007  1.00  0.00     0.124 S 
ATOM     79  O   UNL A   1      54.880  26.098  26.090  1.00  0.00    -0.237 OA
ATOM     80  O   UNL A   1      54.211  23.993  24.980  1.00  0.00    -0.237 OA
ATOM     81  O   UNL A   1      54.264  26.095  23.700  1.00  0.00    -0.744 OA
ENDBRANCH  77  78
ENDBRANCH  49  72
BRANCH  61  82
ATOM     82  C   UNL A   1      47.036  32.423  28.404  1.00  0.00    -0.014 A 
ATOM     83  C   UNL A   1      47.568  32.746  29.665  1.00  0.00     0.010 A 
ATOM     84  C   UNL A   1      47.115  33.368  27.364  1.00  0.00     0.010 A 
ATOM     85  C   UNL A   1      48.142  34.001  29.888  1.00  0.00     0.020 A 
ATOM     86  C   UNL A   1      47.714  34.611  27.575  1.00  0.00     0.020 A 
ATOM     87  C   UNL A   1      48.213  34.925  28.841  1.00  0.00     0.054 A 
BRANCH  87  88
ATOM     88  S   UNL A   1      49.002  36.530  29.145  1.00  0.00     0.124 S 
ATOM     89  O   UNL A   1      48.446  36.901  30.444  1.00  0.00    -0.237 OA
ATOM     90  O   UNL A   1      50.423  36.192  29.144  1.00  0.00    -0.237 OA
ATOM     91  O   UNL A   1      48.561  37.352  28.020  1.00  0.00    -0.744 OA
ENDBRANCH  87  88
ENDBRANCH  61  82
ENDBRANCH  35  36
ENDBRANCH  27  30
ENDBRANCH  25  26
ENDBRANCH  24  25
ENDBRANCH   1  24
TORSDOF 18
ENDMDL
