MODEL 1
REMARK VINA RESULT:     -10.5      0.000      0.000
REMARK SMILES CC[C@H]1CCCC[C@@H]1C1(C(=O)NCCCNC(=O)c2ccc(-c3c4nc(c(-c5ccc(S(=O)(=O)[O-])cc5)c5ccc([nH]5)c(-c5ccc(S(=O)(=O)[O-])cc5)c5nc(c(-c6ccc(S(=O)(=O)[O-])cc6)c6ccc3[nH]6)C=C5)C=C4)cc2)CC1
REMARK SMILES IDX 14 1 13 2 12 3 10 4 11 5 9 7 79 8 80 9 8 10 3 11 4 12 5 13
REMARK SMILES IDX 7 14 6 15 2 16 1 17 15 18 16 19 17 20 18 22 19 23 20 24
REMARK SMILES IDX 78 25 21 26 77 27 22 28 23 29 24 30 71 31 25 32 76 33 70 34
REMARK SMILES IDX 72 35 26 36 75 37 69 38 68 39 27 41 57 42 38 43 56 44 39 45
REMARK SMILES IDX 42 46 55 47 73 48 40 49 41 50 54 52 74 53 43 54 28 55 29 56
REMARK SMILES IDX 37 57 30 58 36 59 31 60 32 61 33 62 34 63 35 64 58 65 59 66
REMARK SMILES IDX 67 67 60 68 66 69 61 70 62 71 63 72 64 73 65 74 44 75 45 76
REMARK SMILES IDX 53 77 46 78 52 79 47 80 48 81 49 82 50 83 51 84
REMARK H PARENT 12 6 16 21 72 40 42 51
REMARK Flexibility Score: inf
ROOT
ATOM      1  C   UNL A   1      33.699  28.025  25.556  1.00  0.00     0.042 C 
ENDROOT
BRANCH   1   2
ATOM      2  C   UNL A   1      32.884  26.814  25.108  1.00  0.00     0.117 C 
BRANCH   2   3
ATOM      3  N   UNL A   1      33.290  26.311  23.813  1.00  0.00    -0.356 N 
ATOM      4  C   UNL A   1      33.857  25.158  23.353  1.00  0.00     0.226 C 
ATOM      5  O   UNL A   1      33.918  25.053  22.128  1.00  0.00    -0.274 OA
ATOM      6  H   UNL A   1      33.117  26.956  23.090  1.00  0.00     0.163 HD
BRANCH   4   7
ATOM      7  C   UNL A   1      34.391  24.014  24.219  1.00  0.00     0.052 C 
ATOM      8  C   UNL A   1      35.486  24.434  25.205  1.00  0.00     0.018 C 
ATOM      9  C   UNL A   1      35.805  23.468  24.108  1.00  0.00     0.018 C 
BRANCH   7  10
ATOM     10  C   UNL A   1      33.262  23.005  24.648  1.00  0.00     0.008 C 
ATOM     11  C   UNL A   1      32.418  23.293  25.925  1.00  0.00    -0.007 C 
ATOM     12  C   UNL A   1      33.091  22.807  27.224  1.00  0.00     0.004 C 
ATOM     13  C   UNL A   1      33.654  21.391  27.139  1.00  0.00     0.000 C 
ATOM     14  C   UNL A   1      33.794  21.559  24.625  1.00  0.00     0.005 C 
ATOM     15  C   UNL A   1      34.520  21.166  25.905  1.00  0.00     0.000 C 
BRANCH  11  16
ATOM     16  C   UNL A   1      31.011  22.641  25.765  1.00  0.00     0.000 C 
ATOM     17  C   UNL A   1      30.076  22.893  26.942  1.00  0.00     0.004 C 
ENDBRANCH  11  16
ENDBRANCH   7  10
ENDBRANCH   4   7
ENDBRANCH   2   3
ENDBRANCH   1   2
BRANCH   1  18
ATOM     18  C   UNL A   1      33.668  28.282  27.063  1.00  0.00     0.118 C 
BRANCH  18  19
ATOM     19  N   UNL A   1      33.593  29.699  27.397  1.00  0.00    -0.352 N 
ATOM     20  C   UNL A   1      34.478  30.520  28.044  1.00  0.00     0.251 C 
ATOM     21  H   UNL A   1      32.763  30.141  27.107  1.00  0.00     0.163 HD
ATOM     22  O   UNL A   1      34.108  31.639  28.394  1.00  0.00    -0.269 OA
BRANCH  20  23
ATOM     23  C   UNL A   1      35.857  30.074  28.334  1.00  0.00     0.039 A 
ATOM     24  C   UNL A   1      36.814  30.154  27.319  1.00  0.00     0.014 A 
ATOM     25  C   UNL A   1      36.200  29.536  29.576  1.00  0.00     0.014 A 
ATOM     26  C   UNL A   1      38.126  29.749  27.569  1.00  0.00     0.010 A 
ATOM     27  C   UNL A   1      37.526  29.208  29.850  1.00  0.00     0.010 A 
ATOM     28  C   UNL A   1      38.502  29.305  28.848  1.00  0.00    -0.014 A 
BRANCH  28  29
ATOM     29  C   UNL A   1      39.913  28.949  29.144  1.00  0.00     0.031 A 
ATOM     30  C   UNL A   1      40.838  29.949  29.783  1.00  0.00     0.074 A 
ATOM     31  C   UNL A   1      40.373  27.730  28.793  1.00  0.00     0.049 A 
ATOM     32  N   UNL A   1      42.099  29.813  30.109  1.00  0.00    -0.248 NA
ATOM     33  C   UNL A   1      40.287  31.284  30.069  1.00  0.00     0.031 C 
ATOM     34  C   UNL A   1      39.588  26.692  28.119  1.00  0.00     0.029 A 
ATOM     35  N   UNL A   1      41.608  27.156  28.954  1.00  0.00    -0.354 N 
ATOM     36  C   UNL A   1      42.494  31.043  30.623  1.00  0.00     0.074 A 
ATOM     37  C   UNL A   1      41.355  31.929  30.518  1.00  0.00     0.031 C 
ATOM     38  C   UNL A   1      40.350  25.599  27.957  1.00  0.00     0.029 A 
ATOM     39  C   UNL A   1      41.685  25.868  28.479  1.00  0.00     0.049 A 
ATOM     40  H   UNL A   1      42.368  27.623  29.372  1.00  0.00     0.167 HD
ATOM     41  C   UNL A   1      43.690  31.398  31.151  1.00  0.00     0.031 A 
ATOM     42  C   UNL A   1      42.715  24.999  28.462  1.00  0.00     0.031 A 
ATOM     43  C   UNL A   1      44.816  30.509  31.264  1.00  0.00     0.049 A 
ATOM     44  C   UNL A   1      44.030  25.415  29.064  1.00  0.00     0.074 A 
ATOM     45  C   UNL A   1      46.049  30.751  31.845  1.00  0.00     0.029 A 
ATOM     46  N   UNL A   1      44.850  29.208  30.781  1.00  0.00    -0.354 N 
ATOM     47  N   UNL A   1      44.356  26.557  29.622  1.00  0.00    -0.248 NA
ATOM     48  C   UNL A   1      45.108  24.418  29.051  1.00  0.00     0.031 C 
ATOM     49  C   UNL A   1      46.847  29.618  31.662  1.00  0.00     0.029 A 
ATOM     50  C   UNL A   1      46.092  28.647  31.026  1.00  0.00     0.049 A 
ATOM     51  H   UNL A   1      44.102  28.753  30.332  1.00  0.00     0.167 HD
ATOM     52  C   UNL A   1      45.671  26.406  30.049  1.00  0.00     0.074 A 
ATOM     53  C   UNL A   1      46.069  25.056  29.704  1.00  0.00     0.031 C 
ATOM     54  C   UNL A   1      46.476  27.304  30.670  1.00  0.00     0.031 A 
BRANCH  41  55
ATOM     55  C   UNL A   1      43.846  32.815  31.644  1.00  0.00    -0.014 A 
ATOM     56  C   UNL A   1      44.293  33.840  30.791  1.00  0.00     0.010 A 
ATOM     57  C   UNL A   1      43.493  33.135  32.969  1.00  0.00     0.010 A 
ATOM     58  C   UNL A   1      44.423  35.149  31.262  1.00  0.00     0.020 A 
ATOM     59  C   UNL A   1      43.593  34.449  33.435  1.00  0.00     0.020 A 
ATOM     60  C   UNL A   1      44.072  35.446  32.582  1.00  0.00     0.054 A 
BRANCH  60  61
ATOM     61  S   UNL A   1      44.222  37.160  33.156  1.00  0.00     0.124 S 
ATOM     62  O   UNL A   1      45.348  37.069  34.083  1.00  0.00    -0.237 OA
ATOM     63  O   UNL A   1      44.484  37.890  31.919  1.00  0.00    -0.237 OA
ATOM     64  O   UNL A   1      42.927  37.433  33.776  1.00  0.00    -0.744 OA
ENDBRANCH  60  61
ENDBRANCH  41  55
BRANCH  42  65
ATOM     65  C   UNL A   1      42.537  23.646  27.868  1.00  0.00    -0.014 A 
ATOM     66  C   UNL A   1      42.907  23.394  26.535  1.00  0.00     0.010 A 
ATOM     67  C   UNL A   1      42.004  22.596  28.639  1.00  0.00     0.010 A 
ATOM     68  C   UNL A   1      42.723  22.125  25.977  1.00  0.00     0.020 A 
ATOM     69  C   UNL A   1      41.849  21.319  28.095  1.00  0.00     0.020 A 
ATOM     70  C   UNL A   1      42.196  21.094  26.762  1.00  0.00     0.054 A 
BRANCH  70  71
ATOM     71  S   UNL A   1      42.009  19.444  26.031  1.00  0.00     0.124 S 
ATOM     72  O   UNL A   1      42.857  19.540  24.847  1.00  0.00    -0.237 OA
ATOM     73  O   UNL A   1      42.500  18.571  27.094  1.00  0.00    -0.237 OA
ATOM     74  O   UNL A   1      40.575  19.348  25.768  1.00  0.00    -0.744 OA
ENDBRANCH  70  71
ENDBRANCH  42  65
BRANCH  54  75
ATOM     75  C   UNL A   1      47.860  26.843  31.043  1.00  0.00    -0.014 A 
ATOM     76  C   UNL A   1      48.948  27.003  30.166  1.00  0.00     0.010 A 
ATOM     77  C   UNL A   1      48.081  26.266  32.308  1.00  0.00     0.010 A 
ATOM     78  C   UNL A   1      50.220  26.553  30.528  1.00  0.00     0.020 A 
ATOM     79  C   UNL A   1      49.357  25.844  32.686  1.00  0.00     0.020 A 
ATOM     80  C   UNL A   1      50.416  25.973  31.785  1.00  0.00     0.054 A 
BRANCH  80  81
ATOM     81  S   UNL A   1      52.080  25.415  32.240  1.00  0.00     0.124 S 
ATOM     82  O   UNL A   1      51.913  23.965  32.281  1.00  0.00    -0.237 OA
ATOM     83  O   UNL A   1      52.900  25.921  31.141  1.00  0.00    -0.237 OA
ATOM     84  O   UNL A   1      52.318  26.052  33.532  1.00  0.00    -0.744 OA
ENDBRANCH  80  81
ENDBRANCH  54  75
ENDBRANCH  28  29
ENDBRANCH  20  23
ENDBRANCH  18  19
ENDBRANCH   1  18
TORSDOF 15
ENDMDL
MODEL 2
REMARK VINA RESULT:     -10.2      3.632      9.392
REMARK SMILES CC[C@H]1CCCC[C@@H]1C1(C(=O)NCCCNC(=O)c2ccc(-c3c4nc(c(-c5ccc(S(=O)(=O)[O-])cc5)c5ccc([nH]5)c(-c5ccc(S(=O)(=O)[O-])cc5)c5nc(c(-c6ccc(S(=O)(=O)[O-])cc6)c6ccc3[nH]6)C=C5)C=C4)cc2)CC1
REMARK SMILES IDX 14 1 13 2 12 3 10 4 11 5 9 7 79 8 80 9 8 10 3 11 4 12 5 13
REMARK SMILES IDX 7 14 6 15 2 16 1 17 15 18 16 19 17 20 18 22 19 23 20 24
REMARK SMILES IDX 78 25 21 26 77 27 22 28 23 29 24 30 71 31 25 32 76 33 70 34
REMARK SMILES IDX 72 35 26 36 75 37 69 38 68 39 27 41 57 42 38 43 56 44 39 45
REMARK SMILES IDX 42 46 55 47 73 48 40 49 41 50 54 52 74 53 43 54 28 55 29 56
REMARK SMILES IDX 37 57 30 58 36 59 31 60 32 61 33 62 34 63 35 64 58 65 59 66
REMARK SMILES IDX 67 67 60 68 66 69 61 70 62 71 63 72 64 73 65 74 44 75 45 76
REMARK SMILES IDX 53 77 46 78 52 79 47 80 48 81 49 82 50 83 51 84
REMARK H PARENT 12 6 16 21 72 40 42 51
REMARK Flexibility Score: inf
ROOT
ATOM      1  C   UNL A   1      38.532  19.389  25.253  1.00  0.00     0.042 C 
ENDROOT
BRANCH   1   2
ATOM      2  C   UNL A   1      37.378  20.293  24.828  1.00  0.00     0.117 C 
BRANCH   2   3
ATOM      3  N   UNL A   1      37.499  21.640  25.343  1.00  0.00    -0.356 N 
ATOM      4  C   UNL A   1      36.684  22.733  25.406  1.00  0.00     0.226 C 
ATOM      5  O   UNL A   1      37.118  23.676  26.068  1.00  0.00    -0.274 OA
ATOM      6  H   UNL A   1      38.383  21.810  25.743  1.00  0.00     0.163 HD
BRANCH   4   7
ATOM      7  C   UNL A   1      35.307  22.864  24.750  1.00  0.00     0.052 C 
ATOM      8  C   UNL A   1      35.356  23.211  23.258  1.00  0.00     0.018 C 
ATOM      9  C   UNL A   1      34.750  24.177  24.226  1.00  0.00     0.018 C 
BRANCH   7  10
ATOM     10  C   UNL A   1      34.275  21.813  25.300  1.00  0.00     0.008 C 
ATOM     11  C   UNL A   1      32.789  21.876  24.835  1.00  0.00    -0.007 C 
ATOM     12  C   UNL A   1      31.937  22.868  25.652  1.00  0.00     0.004 C 
ATOM     13  C   UNL A   1      32.127  22.752  27.162  1.00  0.00     0.000 C 
ATOM     14  C   UNL A   1      34.392  21.691  26.832  1.00  0.00     0.005 C 
ATOM     15  C   UNL A   1      33.591  22.749  27.581  1.00  0.00     0.000 C 
BRANCH  11  16
ATOM     16  C   UNL A   1      32.172  20.447  24.900  1.00  0.00     0.000 C 
ATOM     17  C   UNL A   1      32.452  19.598  23.665  1.00  0.00     0.004 C 
ENDBRANCH  11  16
ENDBRANCH   7  10
ENDBRANCH   4   7
ENDBRANCH   2   3
ENDBRANCH   1   2
BRANCH   1  18
ATOM     18  C   UNL A   1      39.667  20.116  25.977  1.00  0.00     0.118 C 
BRANCH  18  19
ATOM     19  N   UNL A   1      40.838  19.273  26.187  1.00  0.00    -0.352 N 
ATOM     20  C   UNL A   1      42.158  19.593  26.363  1.00  0.00     0.251 C 
ATOM     21  H   UNL A   1      40.646  18.308  26.206  1.00  0.00     0.163 HD
ATOM     22  O   UNL A   1      43.000  18.699  26.317  1.00  0.00    -0.269 OA
BRANCH  20  23
ATOM     23  C   UNL A   1      42.578  20.991  26.593  1.00  0.00     0.039 A 
ATOM     24  C   UNL A   1      42.762  21.427  27.908  1.00  0.00     0.014 A 
ATOM     25  C   UNL A   1      42.743  21.884  25.532  1.00  0.00     0.014 A 
ATOM     26  C   UNL A   1      43.169  22.740  28.152  1.00  0.00     0.010 A 
ATOM     27  C   UNL A   1      43.226  23.168  25.771  1.00  0.00     0.010 A 
ATOM     28  C   UNL A   1      43.438  23.612  27.084  1.00  0.00    -0.014 A 
BRANCH  28  29
ATOM     29  C   UNL A   1      43.947  24.985  27.334  1.00  0.00     0.031 A 
ATOM     30  C   UNL A   1      45.396  25.319  27.102  1.00  0.00     0.074 A 
ATOM     31  C   UNL A   1      43.105  25.923  27.816  1.00  0.00     0.049 A 
ATOM     32  N   UNL A   1      46.014  26.461  27.270  1.00  0.00    -0.248 NA
ATOM     33  C   UNL A   1      46.271  24.226  26.646  1.00  0.00     0.031 C 
ATOM     34  C   UNL A   1      41.691  25.707  28.134  1.00  0.00     0.029 A 
ATOM     35  N   UNL A   1      43.314  27.244  28.122  1.00  0.00    -0.354 N 
ATOM     36  C   UNL A   1      47.348  26.220  26.958  1.00  0.00     0.074 A 
ATOM     37  C   UNL A   1      47.459  24.814  26.639  1.00  0.00     0.031 C 
ATOM     38  C   UNL A   1      41.153  26.862  28.555  1.00  0.00     0.029 A 
ATOM     39  C   UNL A   1      42.188  27.890  28.575  1.00  0.00     0.049 A 
ATOM     40  H   UNL A   1      44.188  27.687  28.026  1.00  0.00     0.167 HD
ATOM     41  C   UNL A   1      48.382  27.094  26.920  1.00  0.00     0.031 A 
ATOM     42  C   UNL A   1      42.006  29.167  28.966  1.00  0.00     0.031 A 
ATOM     43  C   UNL A   1      48.263  28.495  27.227  1.00  0.00     0.049 A 
ATOM     44  C   UNL A   1      43.169  30.120  28.906  1.00  0.00     0.074 A 
ATOM     45  C   UNL A   1      49.235  29.478  27.153  1.00  0.00     0.029 A 
ATOM     46  N   UNL A   1      47.103  29.114  27.670  1.00  0.00    -0.354 N 
ATOM     47  N   UNL A   1      44.404  29.890  28.526  1.00  0.00    -0.248 NA
ATOM     48  C   UNL A   1      42.908  31.508  29.309  1.00  0.00     0.031 C 
ATOM     49  C   UNL A   1      48.679  30.678  27.607  1.00  0.00     0.029 A 
ATOM     50  C   UNL A   1      47.343  30.458  27.901  1.00  0.00     0.049 A 
ATOM     51  H   UNL A   1      46.238  28.664  27.801  1.00  0.00     0.167 HD
ATOM     52  C   UNL A   1      45.062  31.112  28.621  1.00  0.00     0.074 A 
ATOM     53  C   UNL A   1      44.081  32.079  29.072  1.00  0.00     0.031 C 
ATOM     54  C   UNL A   1      46.359  31.407  28.359  1.00  0.00     0.031 A 
BRANCH  41  55
ATOM     55  C   UNL A   1      49.740  26.558  26.540  1.00  0.00    -0.014 A 
ATOM     56  C   UNL A   1      50.603  26.007  27.504  1.00  0.00     0.010 A 
ATOM     57  C   UNL A   1      50.138  26.563  25.190  1.00  0.00     0.010 A 
ATOM     58  C   UNL A   1      51.854  25.507  27.132  1.00  0.00     0.020 A 
ATOM     59  C   UNL A   1      51.376  26.036  24.810  1.00  0.00     0.020 A 
ATOM     60  C   UNL A   1      52.233  25.525  25.787  1.00  0.00     0.054 A 
BRANCH  60  61
ATOM     61  S   UNL A   1      53.850  24.841  25.331  1.00  0.00     0.124 S 
ATOM     62  O   UNL A   1      54.200  25.649  24.165  1.00  0.00    -0.237 OA
ATOM     63  O   UNL A   1      54.650  25.084  26.528  1.00  0.00    -0.237 OA
ATOM     64  O   UNL A   1      53.565  23.435  25.050  1.00  0.00    -0.744 OA
ENDBRANCH  60  61
ENDBRANCH  41  55
BRANCH  42  65
ATOM     65  C   UNL A   1      40.667  29.620  29.432  1.00  0.00    -0.014 A 
ATOM     66  C   UNL A   1      40.423  29.847  30.799  1.00  0.00     0.010 A 
ATOM     67  C   UNL A   1      39.628  29.834  28.508  1.00  0.00     0.010 A 
ATOM     68  C   UNL A   1      39.159  30.258  31.233  1.00  0.00     0.020 A 
ATOM     69  C   UNL A   1      38.373  30.274  28.936  1.00  0.00     0.020 A 
ATOM     70  C   UNL A   1      38.142  30.470  30.298  1.00  0.00     0.054 A 
BRANCH  70  71
ATOM     71  S   UNL A   1      36.523  31.045  30.880  1.00  0.00     0.124 S 
ATOM     72  O   UNL A   1      35.786  31.196  29.630  1.00  0.00    -0.237 OA
ATOM     73  O   UNL A   1      36.090  29.949  31.744  1.00  0.00    -0.237 OA
ATOM     74  O   UNL A   1      36.834  32.292  31.577  1.00  0.00    -0.744 OA
ENDBRANCH  70  71
ENDBRANCH  42  65
BRANCH  54  75
ATOM     75  C   UNL A   1      46.785  32.841  28.525  1.00  0.00    -0.014 A 
ATOM     76  C   UNL A   1      46.672  33.767  27.472  1.00  0.00     0.010 A 
ATOM     77  C   UNL A   1      47.281  33.278  29.769  1.00  0.00     0.010 A 
ATOM     78  C   UNL A   1      47.090  35.088  27.646  1.00  0.00     0.020 A 
ATOM     79  C   UNL A   1      47.668  34.606  29.955  1.00  0.00     0.020 A 
ATOM     80  C   UNL A   1      47.588  35.499  28.886  1.00  0.00     0.054 A 
BRANCH  80  81
ATOM     81  S   UNL A   1      48.105  37.225  29.091  1.00  0.00     0.124 S 
ATOM     82  O   UNL A   1      49.510  37.170  28.698  1.00  0.00    -0.237 OA
ATOM     83  O   UNL A   1      47.222  37.936  28.170  1.00  0.00    -0.237 OA
ATOM     84  O   UNL A   1      47.863  37.493  30.507  1.00  0.00    -0.744 OA
ENDBRANCH  80  81
ENDBRANCH  54  75
ENDBRANCH  28  29
ENDBRANCH  20  23
ENDBRANCH  18  19
ENDBRANCH   1  18
TORSDOF 15
ENDMDL
MODEL 3
REMARK VINA RESULT:     -10.2      2.666      9.340
REMARK SMILES CC[C@H]1CCCC[C@@H]1C1(C(=O)NCCCNC(=O)c2ccc(-c3c4nc(c(-c5ccc(S(=O)(=O)[O-])cc5)c5ccc([nH]5)c(-c5ccc(S(=O)(=O)[O-])cc5)c5nc(c(-c6ccc(S(=O)(=O)[O-])cc6)c6ccc3[nH]6)C=C5)C=C4)cc2)CC1
REMARK SMILES IDX 14 1 13 2 12 3 10 4 11 5 9 7 79 8 80 9 8 10 3 11 4 12 5 13
REMARK SMILES IDX 7 14 6 15 2 16 1 17 15 18 16 19 17 20 18 22 19 23 20 24
REMARK SMILES IDX 78 25 21 26 77 27 22 28 23 29 24 30 71 31 25 32 76 33 70 34
REMARK SMILES IDX 72 35 26 36 75 37 69 38 68 39 27 41 57 42 38 43 56 44 39 45
REMARK SMILES IDX 42 46 55 47 73 48 40 49 41 50 54 52 74 53 43 54 28 55 29 56
REMARK SMILES IDX 37 57 30 58 36 59 31 60 32 61 33 62 34 63 35 64 58 65 59 66
REMARK SMILES IDX 67 67 60 68 66 69 61 70 62 71 63 72 64 73 65 74 44 75 45 76
REMARK SMILES IDX 53 77 46 78 52 79 47 80 48 81 49 82 50 83 51 84
REMARK H PARENT 12 6 16 21 72 40 42 51
REMARK Flexibility Score: inf
ROOT
ATOM      1  C   UNL A   1      35.657  23.993  26.046  1.00  0.00     0.042 C 
ENDROOT
BRANCH   1   2
ATOM      2  C   UNL A   1      34.348  23.362  25.578  1.00  0.00     0.117 C 
BRANCH   2   3
ATOM      3  N   UNL A   1      33.229  23.684  26.437  1.00  0.00    -0.356 N 
ATOM      4  C   UNL A   1      32.124  24.479  26.336  1.00  0.00     0.226 C 
ATOM      5  O   UNL A   1      31.312  24.372  27.256  1.00  0.00    -0.274 OA
ATOM      6  H   UNL A   1      33.276  23.219  27.304  1.00  0.00     0.163 HD
BRANCH   4   7
ATOM      7  C   UNL A   1      31.820  25.451  25.194  1.00  0.00     0.052 C 
ATOM      8  C   UNL A   1      30.328  25.593  24.874  1.00  0.00     0.018 C 
ATOM      9  C   UNL A   1      31.256  25.017  23.851  1.00  0.00     0.018 C 
BRANCH   7  10
ATOM     10  C   UNL A   1      32.766  26.709  25.204  1.00  0.00     0.008 C 
ATOM     11  C   UNL A   1      32.896  27.563  26.500  1.00  0.00    -0.007 C 
ATOM     12  C   UNL A   1      31.788  28.624  26.645  1.00  0.00     0.004 C 
ATOM     13  C   UNL A   1      31.530  29.430  25.374  1.00  0.00     0.000 C 
ATOM     14  C   UNL A   1      32.513  27.584  23.962  1.00  0.00     0.005 C 
ATOM     15  C   UNL A   1      31.353  28.556  24.139  1.00  0.00     0.000 C 
BRANCH  11  16
ATOM     16  C   UNL A   1      34.301  28.237  26.528  1.00  0.00     0.000 C 
ATOM     17  C   UNL A   1      34.405  29.408  27.498  1.00  0.00     0.004 C 
ENDBRANCH  11  16
ENDBRANCH   7  10
ENDBRANCH   4   7
ENDBRANCH   2   3
ENDBRANCH   1   2
BRANCH   1  18
ATOM     18  C   UNL A   1      36.810  23.865  25.050  1.00  0.00     0.118 C 
BRANCH  18  19
ATOM     19  N   UNL A   1      37.787  22.855  25.437  1.00  0.00    -0.352 N 
ATOM     20  C   UNL A   1      38.979  22.963  26.102  1.00  0.00     0.251 C 
ATOM     21  H   UNL A   1      37.547  21.937  25.176  1.00  0.00     0.163 HD
ATOM     22  O   UNL A   1      39.735  21.994  26.135  1.00  0.00    -0.269 OA
BRANCH  20  23
ATOM     23  C   UNL A   1      39.369  24.226  26.764  1.00  0.00     0.039 A 
ATOM     24  C   UNL A   1      38.961  24.445  28.082  1.00  0.00     0.014 A 
ATOM     25  C   UNL A   1      40.089  25.210  26.083  1.00  0.00     0.014 A 
ATOM     26  C   UNL A   1      39.324  25.625  28.733  1.00  0.00     0.010 A 
ATOM     27  C   UNL A   1      40.521  26.349  26.759  1.00  0.00     0.010 A 
ATOM     28  C   UNL A   1      40.137  26.572  28.089  1.00  0.00    -0.014 A 
BRANCH  28  29
ATOM     29  C   UNL A   1      40.595  27.792  28.803  1.00  0.00     0.031 A 
ATOM     30  C   UNL A   1      41.969  27.853  29.411  1.00  0.00     0.074 A 
ATOM     31  C   UNL A   1      39.747  28.832  28.940  1.00  0.00     0.049 A 
ATOM     32  N   UNL A   1      42.534  28.833  30.072  1.00  0.00    -0.248 NA
ATOM     33  C   UNL A   1      42.812  26.652  29.286  1.00  0.00     0.031 C 
ATOM     34  C   UNL A   1      38.369  28.872  28.442  1.00  0.00     0.029 A 
ATOM     35  N   UNL A   1      39.916  30.055  29.537  1.00  0.00    -0.354 N 
ATOM     36  C   UNL A   1      43.786  28.363  30.453  1.00  0.00     0.074 A 
ATOM     37  C   UNL A   1      43.879  26.994  29.995  1.00  0.00     0.031 C 
ATOM     38  C   UNL A   1      37.834  30.070  28.723  1.00  0.00     0.029 A 
ATOM     39  C   UNL A   1      38.812  30.869  29.453  1.00  0.00     0.049 A 
ATOM     40  H   UNL A   1      40.751  30.325  29.984  1.00  0.00     0.167 HD
ATOM     41  C   UNL A   1      44.775  29.016  31.108  1.00  0.00     0.031 A 
ATOM     42  C   UNL A   1      38.605  32.119  29.913  1.00  0.00     0.031 A 
ATOM     43  C   UNL A   1      44.681  30.382  31.550  1.00  0.00     0.049 A 
ATOM     44  C   UNL A   1      39.723  32.826  30.628  1.00  0.00     0.074 A 
ATOM     45  C   UNL A   1      45.652  31.158  32.162  1.00  0.00     0.029 A 
ATOM     46  N   UNL A   1      43.549  31.177  31.436  1.00  0.00    -0.354 N 
ATOM     47  N   UNL A   1      40.931  32.392  30.903  1.00  0.00    -0.248 NA
ATOM     48  C   UNL A   1      39.457  34.199  31.077  1.00  0.00     0.031 C 
ATOM     49  C   UNL A   1      45.088  32.400  32.469  1.00  0.00     0.029 A 
ATOM     50  C   UNL A   1      43.789  32.423  31.990  1.00  0.00     0.049 A 
ATOM     51  H   UNL A   1      42.702  30.896  31.021  1.00  0.00     0.167 HD
ATOM     52  C   UNL A   1      41.576  33.449  31.537  1.00  0.00     0.074 A 
ATOM     53  C   UNL A   1      40.633  34.547  31.582  1.00  0.00     0.031 C 
ATOM     54  C   UNL A   1      42.836  33.504  32.036  1.00  0.00     0.031 A 
BRANCH  41  55
ATOM     55  C   UNL A   1      46.048  28.259  31.392  1.00  0.00    -0.014 A 
ATOM     56  C   UNL A   1      47.050  28.122  30.414  1.00  0.00     0.010 A 
ATOM     57  C   UNL A   1      46.265  27.716  32.672  1.00  0.00     0.010 A 
ATOM     58  C   UNL A   1      48.227  27.425  30.698  1.00  0.00     0.020 A 
ATOM     59  C   UNL A   1      47.454  27.043  32.969  1.00  0.00     0.020 A 
ATOM     60  C   UNL A   1      48.422  26.889  31.974  1.00  0.00     0.054 A 
BRANCH  60  61
ATOM     61  S   UNL A   1      49.973  26.015  32.323  1.00  0.00     0.124 S 
ATOM     62  O   UNL A   1      50.784  26.367  31.160  1.00  0.00    -0.237 OA
ATOM     63  O   UNL A   1      50.397  26.609  33.588  1.00  0.00    -0.237 OA
ATOM     64  O   UNL A   1      49.572  24.612  32.400  1.00  0.00    -0.744 OA
ENDBRANCH  60  61
ENDBRANCH  41  55
BRANCH  42  65
ATOM     65  C   UNL A   1      37.291  32.785  29.696  1.00  0.00    -0.014 A 
ATOM     66  C   UNL A   1      37.003  33.421  28.475  1.00  0.00     0.010 A 
ATOM     67  C   UNL A   1      36.316  32.779  30.709  1.00  0.00     0.010 A 
ATOM     68  C   UNL A   1      35.774  34.058  28.282  1.00  0.00     0.020 A 
ATOM     69  C   UNL A   1      35.074  33.387  30.508  1.00  0.00     0.020 A 
ATOM     70  C   UNL A   1      34.816  34.036  29.300  1.00  0.00     0.054 A 
BRANCH  70  71
ATOM     71  S   UNL A   1      33.211  34.831  29.011  1.00  0.00     0.124 S 
ATOM     72  O   UNL A   1      33.608  36.166  28.573  1.00  0.00    -0.237 OA
ATOM     73  O   UNL A   1      32.617  33.978  27.985  1.00  0.00    -0.237 OA
ATOM     74  O   UNL A   1      32.558  34.769  30.317  1.00  0.00    -0.744 OA
ENDBRANCH  70  71
ENDBRANCH  42  65
BRANCH  54  75
ATOM     75  C   UNL A   1      43.277  34.807  32.648  1.00  0.00    -0.014 A 
ATOM     76  C   UNL A   1      43.112  35.066  34.021  1.00  0.00     0.010 A 
ATOM     77  C   UNL A   1      43.894  35.780  31.838  1.00  0.00     0.010 A 
ATOM     78  C   UNL A   1      43.513  36.289  34.562  1.00  0.00     0.020 A 
ATOM     79  C   UNL A   1      44.327  36.990  32.383  1.00  0.00     0.020 A 
ATOM     80  C   UNL A   1      44.115  37.245  33.739  1.00  0.00     0.054 A 
BRANCH  80  81
ATOM     81  S   UNL A   1      44.646  38.817  34.471  1.00  0.00     0.124 S 
ATOM     82  O   UNL A   1      44.098  38.724  35.821  1.00  0.00    -0.237 OA
ATOM     83  O   UNL A   1      46.102  38.739  34.378  1.00  0.00    -0.237 OA
ATOM     84  O   UNL A   1      44.027  39.825  33.614  1.00  0.00    -0.744 OA
ENDBRANCH  80  81
ENDBRANCH  54  75
ENDBRANCH  28  29
ENDBRANCH  20  23
ENDBRANCH  18  19
ENDBRANCH   1  18
TORSDOF 15
ENDMDL
