MODEL 1
REMARK VINA RESULT:     -12.4      0.000      0.000
REMARK SMILES CC[C@@H](C)[C@H](C(=O)NCCCNC(=O)c1ccc(-c2c3nc(c(-c4ccc(S(=O)(=O)[O-])cc4)c4ccc([nH]4)c(-c4ccc(S(=O)(=O)[O-])cc4)c4nc(c(-c5ccc(S(=O)(=O)[O-])cc5)c5ccc2[nH]5)C=C4)C=C3)cc1)N1C(=O)/C(=C/c2ccc3c(c2)OCO3)SC1=S
REMARK SMILES IDX 10 1 9 2 8 3 6 4 7 5 5 7 3 8 4 9 2 10 1 11 75 12 76 13 90 14
REMARK SMILES IDX 77 15 78 16 89 17 91 18 79 19 80 20 81 21 85 22 82 23 84 24
REMARK SMILES IDX 83 25 86 26 88 27 87 28 11 29 12 30 13 31 14 33 15 34 16 35
REMARK SMILES IDX 74 36 17 37 73 38 18 39 19 40 20 41 67 42 21 43 72 44 66 45
REMARK SMILES IDX 68 46 22 47 71 48 65 49 64 50 23 52 53 53 34 54 52 55 35 56
REMARK SMILES IDX 38 57 51 58 69 59 36 60 37 61 50 63 70 64 39 65 24 66 25 67
REMARK SMILES IDX 33 68 26 69 32 70 27 71 28 72 29 73 30 74 31 75 54 76 55 77
REMARK SMILES IDX 63 78 56 79 62 80 57 81 58 82 59 83 60 84 61 85 40 86 41 87
REMARK SMILES IDX 49 88 42 89 48 90 43 91 44 92 45 93 46 94 47 95
REMARK H PARENT 8 6 12 32 68 51 38 62
REMARK Flexibility Score: inf
ROOT
ATOM      1  C   UNL A   1      37.367  23.840  25.431  1.00  0.00     0.042 C 
ENDROOT
BRANCH   1   2
ATOM      2  C   UNL A   1      36.769  22.445  25.556  1.00  0.00     0.117 C 
BRANCH   2   3
ATOM      3  N   UNL A   1      35.754  22.376  26.583  1.00  0.00    -0.354 N 
ATOM      4  C   UNL A   1      34.400  22.499  26.529  1.00  0.00     0.243 C 
ATOM      5  O   UNL A   1      33.818  22.554  27.621  1.00  0.00    -0.273 OA
ATOM      6  H   UNL A   1      36.107  22.209  27.487  1.00  0.00     0.163 HD
BRANCH   4   7
ATOM      7  C   UNL A   1      33.557  22.466  25.222  1.00  0.00     0.184 C 
BRANCH   7   8
ATOM      8  C   UNL A   1      33.082  21.030  24.754  1.00  0.00     0.018 C 
ATOM      9  C   UNL A   1      34.136  19.920  25.007  1.00  0.00     0.010 C 
BRANCH   8  10
ATOM     10  C   UNL A   1      32.358  21.045  23.385  1.00  0.00     0.002 C 
ATOM     11  C   UNL A   1      32.187  19.685  22.730  1.00  0.00     0.004 C 
ENDBRANCH   8  10
ENDBRANCH   7   8
BRANCH   7  12
ATOM     12  N   UNL A   1      32.504  23.521  25.047  1.00  0.00    -0.280 N 
ATOM     13  C   UNL A   1      32.906  24.682  24.403  1.00  0.00     0.266 C 
ATOM     14  C   UNL A   1      31.268  23.634  25.668  1.00  0.00     0.149 C 
ATOM     15  O   UNL A   1      34.056  25.027  24.145  1.00  0.00    -0.268 OA
ATOM     16  C   UNL A   1      31.778  25.594  24.174  1.00  0.00     0.081 C 
ATOM     17  S   UNL A   1      30.479  25.146  25.184  1.00  0.00    -0.054 SA
ATOM     18  S   UNL A   1      30.444  22.621  26.702  1.00  0.00    -0.052 S 
ATOM     19  C   UNL A   1      31.924  26.671  23.389  1.00  0.00     0.029 C 
BRANCH  19  20
ATOM     20  C   UNL A   1      31.060  27.830  23.568  1.00  0.00    -0.020 A 
ATOM     21  C   UNL A   1      31.295  28.830  24.529  1.00  0.00     0.012 A 
ATOM     22  C   UNL A   1      30.096  28.000  22.566  1.00  0.00     0.058 A 
ATOM     23  C   UNL A   1      30.615  30.051  24.440  1.00  0.00     0.051 A 
ATOM     24  C   UNL A   1      29.494  29.225  22.473  1.00  0.00     0.166 A 
ATOM     25  C   UNL A   1      29.758  30.230  23.373  1.00  0.00     0.165 A 
ATOM     26  O   UNL A   1      28.680  29.621  21.459  1.00  0.00    -0.454 OA
ATOM     27  O   UNL A   1      29.137  31.390  23.022  1.00  0.00    -0.454 OA
ATOM     28  C   UNL A   1      28.680  31.041  21.695  1.00  0.00     0.468 C 
ENDBRANCH  19  20
ENDBRANCH   7  12
ENDBRANCH   4   7
ENDBRANCH   2   3
ENDBRANCH   1   2
BRANCH   1  29
ATOM     29  C   UNL A   1      38.333  24.138  26.561  1.00  0.00     0.118 C 
BRANCH  29  30
ATOM     30  N   UNL A   1      39.706  24.273  26.074  1.00  0.00    -0.352 N 
ATOM     31  C   UNL A   1      40.662  25.236  26.291  1.00  0.00     0.251 C 
ATOM     32  H   UNL A   1      39.998  23.541  25.485  1.00  0.00     0.163 HD
ATOM     33  O   UNL A   1      41.625  25.295  25.527  1.00  0.00    -0.269 OA
BRANCH  31  34
ATOM     34  C   UNL A   1      40.546  26.197  27.409  1.00  0.00     0.039 A 
ATOM     35  C   UNL A   1      39.709  25.907  28.491  1.00  0.00     0.014 A 
ATOM     36  C   UNL A   1      41.216  27.417  27.374  1.00  0.00     0.014 A 
ATOM     37  C   UNL A   1      39.601  26.814  29.551  1.00  0.00     0.010 A 
ATOM     38  C   UNL A   1      41.234  28.239  28.492  1.00  0.00     0.010 A 
ATOM     39  C   UNL A   1      40.396  27.972  29.579  1.00  0.00    -0.014 A 
BRANCH  39  40
ATOM     40  C   UNL A   1      40.350  28.937  30.707  1.00  0.00     0.031 A 
ATOM     41  C   UNL A   1      41.238  28.738  31.913  1.00  0.00     0.074 A 
ATOM     42  C   UNL A   1      39.442  29.932  30.692  1.00  0.00     0.049 A 
ATOM     43  N   UNL A   1      41.280  29.418  33.030  1.00  0.00    -0.248 NA
ATOM     44  C   UNL A   1      42.159  27.589  31.884  1.00  0.00     0.031 C 
ATOM     45  C   UNL A   1      38.459  30.170  29.631  1.00  0.00     0.029 A 
ATOM     46  N   UNL A   1      39.189  30.924  31.604  1.00  0.00    -0.354 N 
ATOM     47  C   UNL A   1      42.185  28.749  33.847  1.00  0.00     0.074 A 
ATOM     48  C   UNL A   1      42.617  27.574  33.126  1.00  0.00     0.031 C 
ATOM     49  C   UNL A   1      37.741  31.262  29.931  1.00  0.00     0.029 A 
ATOM     50  C   UNL A   1      38.182  31.778  31.223  1.00  0.00     0.049 A 
ATOM     51  H   UNL A   1      39.681  31.017  32.451  1.00  0.00     0.167 HD
ATOM     52  C   UNL A   1      42.641  29.093  35.077  1.00  0.00     0.031 A 
ATOM     53  C   UNL A   1      37.669  32.859  31.841  1.00  0.00     0.031 A 
ATOM     54  C   UNL A   1      42.242  30.292  35.762  1.00  0.00     0.049 A 
ATOM     55  C   UNL A   1      38.253  33.283  33.157  1.00  0.00     0.074 A 
ATOM     56  C   UNL A   1      42.718  30.802  36.956  1.00  0.00     0.029 A 
ATOM     57  N   UNL A   1      41.271  31.172  35.307  1.00  0.00    -0.354 N 
ATOM     58  N   UNL A   1      39.183  32.692  33.870  1.00  0.00    -0.248 NA
ATOM     59  C   UNL A   1      37.737  34.526  33.739  1.00  0.00     0.031 C 
ATOM     60  C   UNL A   1      41.999  31.968  37.247  1.00  0.00     0.029 A 
ATOM     61  C   UNL A   1      41.114  32.212  36.208  1.00  0.00     0.049 A 
ATOM     62  H   UNL A   1      40.767  31.072  34.468  1.00  0.00     0.167 HD
ATOM     63  C   UNL A   1      39.369  33.497  34.988  1.00  0.00     0.074 A 
ATOM     64  C   UNL A   1      38.478  34.631  34.834  1.00  0.00     0.031 C 
ATOM     65  C   UNL A   1      40.198  33.314  36.047  1.00  0.00     0.031 A 
BRANCH  52  66
ATOM     66  C   UNL A   1      43.613  28.151  35.746  1.00  0.00    -0.014 A 
ATOM     67  C   UNL A   1      43.174  27.131  36.611  1.00  0.00     0.010 A 
ATOM     68  C   UNL A   1      44.994  28.298  35.516  1.00  0.00     0.010 A 
ATOM     69  C   UNL A   1      44.095  26.329  37.291  1.00  0.00     0.020 A 
ATOM     70  C   UNL A   1      45.918  27.474  36.167  1.00  0.00     0.020 A 
ATOM     71  C   UNL A   1      45.463  26.513  37.072  1.00  0.00     0.054 A 
BRANCH  71  72
ATOM     72  S   UNL A   1      46.638  25.471  37.980  1.00  0.00     0.124 S 
ATOM     73  O   UNL A   1      46.458  25.942  39.352  1.00  0.00    -0.237 OA
ATOM     74  O   UNL A   1      46.146  24.122  37.711  1.00  0.00    -0.237 OA
ATOM     75  O   UNL A   1      47.927  25.794  37.375  1.00  0.00    -0.744 OA
ENDBRANCH  71  72
ENDBRANCH  52  66
BRANCH  53  76
ATOM     76  C   UNL A   1      36.574  33.624  31.184  1.00  0.00    -0.014 A 
ATOM     77  C   UNL A   1      36.630  33.908  29.808  1.00  0.00     0.010 A 
ATOM     78  C   UNL A   1      35.431  33.995  31.914  1.00  0.00     0.010 A 
ATOM     79  C   UNL A   1      35.560  34.546  29.173  1.00  0.00     0.020 A 
ATOM     80  C   UNL A   1      34.348  34.610  31.278  1.00  0.00     0.020 A 
ATOM     81  C   UNL A   1      34.420  34.883  29.910  1.00  0.00     0.054 A 
BRANCH  81  82
ATOM     82  S   UNL A   1      33.001  35.611  29.043  1.00  0.00     0.124 S 
ATOM     83  O   UNL A   1      32.511  34.482  28.260  1.00  0.00    -0.237 OA
ATOM     84  O   UNL A   1      32.143  36.037  30.147  1.00  0.00    -0.237 OA
ATOM     85  O   UNL A   1      33.595  36.702  28.272  1.00  0.00    -0.744 OA
ENDBRANCH  81  82
ENDBRANCH  53  76
BRANCH  65  86
ATOM     86  C   UNL A   1      40.172  34.369  37.119  1.00  0.00    -0.014 A 
ATOM     87  C   UNL A   1      41.023  35.487  37.055  1.00  0.00     0.010 A 
ATOM     88  C   UNL A   1      39.270  34.250  38.192  1.00  0.00     0.010 A 
ATOM     89  C   UNL A   1      41.009  36.442  38.073  1.00  0.00     0.020 A 
ATOM     90  C   UNL A   1      39.233  35.220  39.196  1.00  0.00     0.020 A 
ATOM     91  C   UNL A   1      40.118  36.297  39.141  1.00  0.00     0.054 A 
BRANCH  91  92
ATOM     92  S   UNL A   1      40.114  37.553  40.450  1.00  0.00     0.124 S 
ATOM     93  O   UNL A   1      40.881  38.632  39.835  1.00  0.00    -0.237 OA
ATOM     94  O   UNL A   1      38.689  37.820  40.634  1.00  0.00    -0.237 OA
ATOM     95  O   UNL A   1      40.767  36.884  41.573  1.00  0.00    -0.744 OA
ENDBRANCH  91  92
ENDBRANCH  65  86
ENDBRANCH  39  40
ENDBRANCH  31  34
ENDBRANCH  29  30
ENDBRANCH   1  29
TORSDOF 17
ENDMDL
MODEL 2
REMARK VINA RESULT:     -12.2      0.780      8.018
REMARK SMILES CC[C@@H](C)[C@H](C(=O)NCCCNC(=O)c1ccc(-c2c3nc(c(-c4ccc(S(=O)(=O)[O-])cc4)c4ccc([nH]4)c(-c4ccc(S(=O)(=O)[O-])cc4)c4nc(c(-c5ccc(S(=O)(=O)[O-])cc5)c5ccc2[nH]5)C=C4)C=C3)cc1)N1C(=O)/C(=C/c2ccc3c(c2)OCO3)SC1=S
REMARK SMILES IDX 10 1 9 2 8 3 6 4 7 5 5 7 3 8 4 9 2 10 1 11 75 12 76 13 90 14
REMARK SMILES IDX 77 15 78 16 89 17 91 18 79 19 80 20 81 21 85 22 82 23 84 24
REMARK SMILES IDX 83 25 86 26 88 27 87 28 11 29 12 30 13 31 14 33 15 34 16 35
REMARK SMILES IDX 74 36 17 37 73 38 18 39 19 40 20 41 67 42 21 43 72 44 66 45
REMARK SMILES IDX 68 46 22 47 71 48 65 49 64 50 23 52 53 53 34 54 52 55 35 56
REMARK SMILES IDX 38 57 51 58 69 59 36 60 37 61 50 63 70 64 39 65 24 66 25 67
REMARK SMILES IDX 33 68 26 69 32 70 27 71 28 72 29 73 30 74 31 75 54 76 55 77
REMARK SMILES IDX 63 78 56 79 62 80 57 81 58 82 59 83 60 84 61 85 40 86 41 87
REMARK SMILES IDX 49 88 42 89 48 90 43 91 44 92 45 93 46 94 47 95
REMARK H PARENT 8 6 12 32 68 51 38 62
REMARK Flexibility Score: inf
ROOT
ATOM      1  C   UNL A   1      37.377  23.792  25.558  1.00  0.00     0.042 C 
ENDROOT
BRANCH   1   2
ATOM      2  C   UNL A   1      36.928  22.375  25.889  1.00  0.00     0.117 C 
BRANCH   2   3
ATOM      3  N   UNL A   1      35.713  22.357  26.672  1.00  0.00    -0.354 N 
ATOM      4  C   UNL A   1      34.429  22.682  26.362  1.00  0.00     0.243 C 
ATOM      5  O   UNL A   1      33.634  22.716  27.311  1.00  0.00    -0.273 OA
ATOM      6  H   UNL A   1      35.837  22.052  27.601  1.00  0.00     0.163 HD
BRANCH   4   7
ATOM      7  C   UNL A   1      33.893  22.901  24.918  1.00  0.00     0.184 C 
BRANCH   7   8
ATOM      8  C   UNL A   1      33.735  21.591  24.044  1.00  0.00     0.018 C 
ATOM      9  C   UNL A   1      32.528  21.642  23.070  1.00  0.00     0.010 C 
BRANCH   8  10
ATOM     10  C   UNL A   1      33.959  20.289  24.853  1.00  0.00     0.002 C 
ATOM     11  C   UNL A   1      32.693  19.604  25.339  1.00  0.00     0.004 C 
ENDBRANCH   8  10
ENDBRANCH   7   8
BRANCH   7  12
ATOM     12  N   UNL A   1      32.763  23.872  24.735  1.00  0.00    -0.280 N 
ATOM     13  C   UNL A   1      33.104  25.114  24.220  1.00  0.00     0.266 C 
ATOM     14  C   UNL A   1      31.477  23.823  25.254  1.00  0.00     0.149 C 
ATOM     15  O   UNL A   1      34.233  25.578  24.090  1.00  0.00    -0.268 OA
ATOM     16  C   UNL A   1      31.917  25.940  23.966  1.00  0.00     0.081 C 
ATOM     17  S   UNL A   1      30.590  25.296  24.822  1.00  0.00    -0.054 SA
ATOM     18  S   UNL A   1      30.672  22.658  26.131  1.00  0.00    -0.052 S 
ATOM     19  C   UNL A   1      32.023  27.088  23.282  1.00  0.00     0.029 C 
BRANCH  19  20
ATOM     20  C   UNL A   1      31.042  28.148  23.475  1.00  0.00    -0.020 A 
ATOM     21  C   UNL A   1      31.162  29.144  24.463  1.00  0.00     0.012 A 
ATOM     22  C   UNL A   1      30.077  28.243  22.464  1.00  0.00     0.058 A 
ATOM     23  C   UNL A   1      30.361  30.290  24.392  1.00  0.00     0.051 A 
ATOM     24  C   UNL A   1      29.354  29.402  22.390  1.00  0.00     0.166 A 
ATOM     25  C   UNL A   1      29.503  30.407  23.317  1.00  0.00     0.165 A 
ATOM     26  O   UNL A   1      28.516  29.737  21.375  1.00  0.00    -0.454 OA
ATOM     27  O   UNL A   1      28.770  31.505  22.984  1.00  0.00    -0.454 OA
ATOM     28  C   UNL A   1      28.368  31.144  21.643  1.00  0.00     0.468 C 
ENDBRANCH  19  20
ENDBRANCH   7  12
ENDBRANCH   4   7
ENDBRANCH   2   3
ENDBRANCH   1   2
BRANCH   1  29
ATOM     29  C   UNL A   1      38.377  24.314  26.571  1.00  0.00     0.118 C 
BRANCH  29  30
ATOM     30  N   UNL A   1      39.683  24.563  25.961  1.00  0.00    -0.352 N 
ATOM     31  C   UNL A   1      40.614  25.553  26.167  1.00  0.00     0.251 C 
ATOM     32  H   UNL A   1      39.941  23.901  25.280  1.00  0.00     0.163 HD
ATOM     33  O   UNL A   1      41.486  25.728  25.316  1.00  0.00    -0.269 OA
BRANCH  31  34
ATOM     34  C   UNL A   1      40.576  26.405  27.374  1.00  0.00     0.039 A 
ATOM     35  C   UNL A   1      41.374  27.552  27.441  1.00  0.00     0.014 A 
ATOM     36  C   UNL A   1      39.798  26.053  28.473  1.00  0.00     0.014 A 
ATOM     37  C   UNL A   1      41.337  28.361  28.581  1.00  0.00     0.010 A 
ATOM     38  C   UNL A   1      39.639  26.935  29.532  1.00  0.00     0.010 A 
ATOM     39  C   UNL A   1      40.437  28.080  29.622  1.00  0.00    -0.014 A 
BRANCH  39  40
ATOM     40  C   UNL A   1      40.327  28.940  30.829  1.00  0.00     0.031 A 
ATOM     41  C   UNL A   1      39.251  29.996  30.914  1.00  0.00     0.074 A 
ATOM     42  C   UNL A   1      41.255  28.839  31.801  1.00  0.00     0.049 A 
ATOM     43  N   UNL A   1      39.049  30.898  31.840  1.00  0.00    -0.248 NA
ATOM     44  C   UNL A   1      38.313  30.090  29.782  1.00  0.00     0.031 C 
ATOM     45  C   UNL A   1      42.402  27.928  31.789  1.00  0.00     0.029 A 
ATOM     46  N   UNL A   1      41.386  29.518  32.985  1.00  0.00    -0.354 N 
ATOM     47  C   UNL A   1      38.005  31.691  31.376  1.00  0.00     0.074 A 
ATOM     48  C   UNL A   1      37.660  31.208  30.058  1.00  0.00     0.031 C 
ATOM     49  C   UNL A   1      43.094  28.074  32.928  1.00  0.00     0.029 A 
ATOM     50  C   UNL A   1      42.466  29.117  33.733  1.00  0.00     0.049 A 
ATOM     51  H   UNL A   1      40.766  30.228  33.272  1.00  0.00     0.167 HD
ATOM     52  C   UNL A   1      37.366  32.712  31.998  1.00  0.00     0.031 A 
ATOM     53  C   UNL A   1      42.904  29.537  34.936  1.00  0.00     0.031 A 
ATOM     54  C   UNL A   1      37.683  33.150  33.330  1.00  0.00     0.049 A 
ATOM     55  C   UNL A   1      42.127  30.601  35.655  1.00  0.00     0.074 A 
ATOM     56  C   UNL A   1      37.036  34.095  34.105  1.00  0.00     0.029 A 
ATOM     57  N   UNL A   1      38.741  32.665  34.086  1.00  0.00    -0.354 N 
ATOM     58  N   UNL A   1      41.077  31.272  35.241  1.00  0.00    -0.248 NA
ATOM     59  C   UNL A   1      42.578  30.949  37.006  1.00  0.00     0.031 C 
ATOM     60  C   UNL A   1      37.732  34.215  35.314  1.00  0.00     0.029 A 
ATOM     61  C   UNL A   1      38.780  33.307  35.312  1.00  0.00     0.049 A 
ATOM     62  H   UNL A   1      39.370  31.967  33.794  1.00  0.00     0.167 HD
ATOM     63  C   UNL A   1      40.736  32.121  36.288  1.00  0.00     0.074 A 
ATOM     64  C   UNL A   1      41.674  31.852  37.362  1.00  0.00     0.031 C 
ATOM     65  C   UNL A   1      39.742  33.042  36.354  1.00  0.00     0.031 A 
BRANCH  52  66
ATOM     66  C   UNL A   1      36.271  33.417  31.233  1.00  0.00    -0.014 A 
ATOM     67  C   UNL A   1      36.404  33.715  29.864  1.00  0.00     0.010 A 
ATOM     68  C   UNL A   1      35.092  33.799  31.899  1.00  0.00     0.010 A 
ATOM     69  C   UNL A   1      35.418  34.447  29.197  1.00  0.00     0.020 A 
ATOM     70  C   UNL A   1      34.086  34.501  31.227  1.00  0.00     0.020 A 
ATOM     71  C   UNL A   1      34.270  34.845  29.886  1.00  0.00     0.054 A 
BRANCH  71  72
ATOM     72  S   UNL A   1      33.013  35.809  29.002  1.00  0.00     0.124 S 
ATOM     73  O   UNL A   1      32.436  34.805  28.111  1.00  0.00    -0.237 OA
ATOM     74  O   UNL A   1      32.139  36.266  30.080  1.00  0.00    -0.237 OA
ATOM     75  O   UNL A   1      33.783  36.859  28.340  1.00  0.00    -0.744 OA
ENDBRANCH  71  72
ENDBRANCH  52  66
BRANCH  53  76
ATOM     76  C   UNL A   1      44.112  28.906  35.533  1.00  0.00    -0.014 A 
ATOM     77  C   UNL A   1      45.382  29.480  35.345  1.00  0.00     0.010 A 
ATOM     78  C   UNL A   1      43.986  27.777  36.363  1.00  0.00     0.010 A 
ATOM     79  C   UNL A   1      46.503  28.939  35.982  1.00  0.00     0.020 A 
ATOM     80  C   UNL A   1      45.101  27.249  37.021  1.00  0.00     0.020 A 
ATOM     81  C   UNL A   1      46.354  27.834  36.825  1.00  0.00     0.054 A 
BRANCH  81  82
ATOM     82  S   UNL A   1      47.806  27.217  37.724  1.00  0.00     0.124 S 
ATOM     83  O   UNL A   1      47.497  25.798  37.863  1.00  0.00    -0.237 OA
ATOM     84  O   UNL A   1      48.901  27.541  36.813  1.00  0.00    -0.237 OA
ATOM     85  O   UNL A   1      47.791  27.989  38.965  1.00  0.00    -0.744 OA
ENDBRANCH  81  82
ENDBRANCH  53  76
BRANCH  65  86
ATOM     86  C   UNL A   1      39.626  33.824  37.634  1.00  0.00    -0.014 A 
ATOM     87  C   UNL A   1      38.836  33.354  38.699  1.00  0.00     0.010 A 
ATOM     88  C   UNL A   1      40.331  35.032  37.780  1.00  0.00     0.010 A 
ATOM     89  C   UNL A   1      38.713  34.105  39.869  1.00  0.00     0.020 A 
ATOM     90  C   UNL A   1      40.234  35.770  38.961  1.00  0.00     0.020 A 
ATOM     91  C   UNL A   1      39.408  35.313  39.989  1.00  0.00     0.054 A 
BRANCH  91  92
ATOM     92  S   UNL A   1      39.237  36.269  41.520  1.00  0.00     0.124 S 
ATOM     93  O   UNL A   1      39.112  37.632  41.013  1.00  0.00    -0.237 OA
ATOM     94  O   UNL A   1      38.028  35.706  42.118  1.00  0.00    -0.237 OA
ATOM     95  O   UNL A   1      40.473  35.984  42.245  1.00  0.00    -0.744 OA
ENDBRANCH  91  92
ENDBRANCH  65  86
ENDBRANCH  39  40
ENDBRANCH  31  34
ENDBRANCH  29  30
ENDBRANCH   1  29
TORSDOF 17
ENDMDL
MODEL 3
REMARK VINA RESULT:     -12.0      5.182      6.447
REMARK SMILES CC[C@@H](C)[C@H](C(=O)NCCCNC(=O)c1ccc(-c2c3nc(c(-c4ccc(S(=O)(=O)[O-])cc4)c4ccc([nH]4)c(-c4ccc(S(=O)(=O)[O-])cc4)c4nc(c(-c5ccc(S(=O)(=O)[O-])cc5)c5ccc2[nH]5)C=C4)C=C3)cc1)N1C(=O)/C(=C/c2ccc3c(c2)OCO3)SC1=S
REMARK SMILES IDX 10 1 9 2 8 3 6 4 7 5 5 7 3 8 4 9 2 10 1 11 75 12 76 13 90 14
REMARK SMILES IDX 77 15 78 16 89 17 91 18 79 19 80 20 81 21 85 22 82 23 84 24
REMARK SMILES IDX 83 25 86 26 88 27 87 28 11 29 12 30 13 31 14 33 15 34 16 35
REMARK SMILES IDX 74 36 17 37 73 38 18 39 19 40 20 41 67 42 21 43 72 44 66 45
REMARK SMILES IDX 68 46 22 47 71 48 65 49 64 50 23 52 53 53 34 54 52 55 35 56
REMARK SMILES IDX 38 57 51 58 69 59 36 60 37 61 50 63 70 64 39 65 24 66 25 67
REMARK SMILES IDX 33 68 26 69 32 70 27 71 28 72 29 73 30 74 31 75 54 76 55 77
REMARK SMILES IDX 63 78 56 79 62 80 57 81 58 82 59 83 60 84 61 85 40 86 41 87
REMARK SMILES IDX 49 88 42 89 48 90 43 91 44 92 45 93 46 94 47 95
REMARK H PARENT 8 6 12 32 68 51 38 62
REMARK Flexibility Score: inf
ROOT
ATOM      1  C   UNL A   1      37.022  22.208  24.570  1.00  0.00     0.042 C 
ENDROOT
BRANCH   1   2
ATOM      2  C   UNL A   1      36.225  20.915  24.665  1.00  0.00     0.117 C 
BRANCH   2   3
ATOM      3  N   UNL A   1      35.326  20.909  25.798  1.00  0.00    -0.354 N 
ATOM      4  C   UNL A   1      34.205  21.631  26.070  1.00  0.00     0.243 C 
ATOM      5  O   UNL A   1      33.746  21.507  27.214  1.00  0.00    -0.273 OA
ATOM      6  H   UNL A   1      35.569  20.263  26.501  1.00  0.00     0.163 HD
BRANCH   4   7
ATOM      7  C   UNL A   1      33.430  22.491  25.031  1.00  0.00     0.184 C 
BRANCH   7   8
ATOM      8  C   UNL A   1      32.391  21.702  24.133  1.00  0.00     0.018 C 
ATOM      9  C   UNL A   1      32.577  20.162  24.186  1.00  0.00     0.010 C 
BRANCH   8  10
ATOM     10  C   UNL A   1      32.162  22.358  22.749  1.00  0.00     0.002 C 
ATOM     11  C   UNL A   1      33.369  23.070  22.163  1.00  0.00     0.004 C 
ENDBRANCH   8  10
ENDBRANCH   7   8
BRANCH   7  12
ATOM     12  N   UNL A   1      32.924  23.831  25.478  1.00  0.00    -0.280 N 
ATOM     13  C   UNL A   1      33.831  24.878  25.412  1.00  0.00     0.266 C 
ATOM     14  C   UNL A   1      31.781  24.137  26.203  1.00  0.00     0.149 C 
ATOM     15  O   UNL A   1      35.043  24.799  25.227  1.00  0.00    -0.268 OA
ATOM     16  C   UNL A   1      33.205  26.162  25.752  1.00  0.00     0.081 C 
ATOM     17  S   UNL A   1      31.733  25.872  26.564  1.00  0.00    -0.054 SA
ATOM     18  S   UNL A   1      30.508  23.198  26.724  1.00  0.00    -0.052 S 
ATOM     19  C   UNL A   1      33.861  27.313  25.548  1.00  0.00     0.029 C 
BRANCH  19  20
ATOM     20  C   UNL A   1      33.530  28.493  26.335  1.00  0.00    -0.020 A 
ATOM     21  C   UNL A   1      34.425  29.102  27.234  1.00  0.00     0.012 A 
ATOM     22  C   UNL A   1      32.330  29.120  25.971  1.00  0.00     0.058 A 
ATOM     23  C   UNL A   1      34.158  30.390  27.714  1.00  0.00     0.051 A 
ATOM     24  C   UNL A   1      32.130  30.400  26.411  1.00  0.00     0.166 A 
ATOM     25  C   UNL A   1      33.026  31.026  27.244  1.00  0.00     0.165 A 
ATOM     26  O   UNL A   1      31.121  31.216  26.008  1.00  0.00    -0.454 OA
ATOM     27  O   UNL A   1      32.682  32.326  27.460  1.00  0.00    -0.454 OA
ATOM     28  C   UNL A   1      31.633  32.476  26.478  1.00  0.00     0.468 C 
ENDBRANCH  19  20
ENDBRANCH   7  12
ENDBRANCH   4   7
ENDBRANCH   2   3
ENDBRANCH   1   2
BRANCH   1  29
ATOM     29  C   UNL A   1      37.664  22.569  25.895  1.00  0.00     0.118 C 
BRANCH  29  30
ATOM     30  N   UNL A   1      38.749  21.649  26.237  1.00  0.00    -0.352 N 
ATOM     31  C   UNL A   1      40.067  21.870  26.560  1.00  0.00     0.251 C 
ATOM     32  H   UNL A   1      38.488  20.700  26.235  1.00  0.00     0.163 HD
ATOM     33  O   UNL A   1      40.855  20.927  26.498  1.00  0.00    -0.269 OA
BRANCH  31  34
ATOM     34  C   UNL A   1      40.545  23.209  26.965  1.00  0.00     0.039 A 
ATOM     35  C   UNL A   1      41.188  23.374  28.196  1.00  0.00     0.014 A 
ATOM     36  C   UNL A   1      40.315  24.323  26.162  1.00  0.00     0.014 A 
ATOM     37  C   UNL A   1      41.645  24.640  28.579  1.00  0.00     0.010 A 
ATOM     38  C   UNL A   1      40.906  25.540  26.466  1.00  0.00     0.010 A 
ATOM     39  C   UNL A   1      41.543  25.729  27.697  1.00  0.00    -0.014 A 
BRANCH  39  40
ATOM     40  C   UNL A   1      42.058  27.078  28.041  1.00  0.00     0.031 A 
ATOM     41  C   UNL A   1      43.536  27.375  27.943  1.00  0.00     0.074 A 
ATOM     42  C   UNL A   1      41.214  28.004  28.537  1.00  0.00     0.049 A 
ATOM     43  N   UNL A   1      44.187  28.459  28.282  1.00  0.00    -0.248 NA
ATOM     44  C   UNL A   1      44.406  26.291  27.454  1.00  0.00     0.031 C 
ATOM     45  C   UNL A   1      39.782  27.807  28.775  1.00  0.00     0.029 A 
ATOM     46  N   UNL A   1      41.440  29.295  28.941  1.00  0.00    -0.354 N 
ATOM     47  C   UNL A   1      45.534  28.165  28.099  1.00  0.00     0.074 A 
ATOM     48  C   UNL A   1      45.613  26.783  27.686  1.00  0.00     0.031 C 
ATOM     49  C   UNL A   1      39.251  28.946  29.242  1.00  0.00     0.029 A 
ATOM     50  C   UNL A   1      40.309  29.941  29.376  1.00  0.00     0.049 A 
ATOM     51  H   UNL A   1      42.329  29.718  28.922  1.00  0.00     0.167 HD
ATOM     52  C   UNL A   1      46.611  28.977  28.234  1.00  0.00     0.031 A 
ATOM     53  C   UNL A   1      40.137  31.198  29.830  1.00  0.00     0.031 A 
ATOM     54  C   UNL A   1      46.515  30.365  28.596  1.00  0.00     0.049 A 
ATOM     55  C   UNL A   1      41.325  32.115  29.880  1.00  0.00     0.074 A 
ATOM     56  C   UNL A   1      47.520  31.314  28.654  1.00  0.00     0.029 A 
ATOM     57  N   UNL A   1      45.337  31.004  28.958  1.00  0.00    -0.354 N 
ATOM     58  N   UNL A   1      42.581  31.848  29.605  1.00  0.00    -0.248 NA
ATOM     59  C   UNL A   1      41.071  33.504  30.278  1.00  0.00     0.031 C 
ATOM     60  C   UNL A   1      46.957  32.516  29.098  1.00  0.00     0.029 A 
ATOM     61  C   UNL A   1      45.593  32.330  29.264  1.00  0.00     0.049 A 
ATOM     62  H   UNL A   1      44.451  30.578  28.991  1.00  0.00     0.167 HD
ATOM     63  C   UNL A   1      43.269  33.041  29.792  1.00  0.00     0.074 A 
ATOM     64  C   UNL A   1      42.281  34.034  30.171  1.00  0.00     0.031 C 
ATOM     65  C   UNL A   1      44.597  33.292  29.667  1.00  0.00     0.031 A 
BRANCH  52  66
ATOM     66  C   UNL A   1      47.973  28.373  27.992  1.00  0.00    -0.014 A 
ATOM     67  C   UNL A   1      48.577  28.404  26.721  1.00  0.00     0.010 A 
ATOM     68  C   UNL A   1      48.657  27.750  29.053  1.00  0.00     0.010 A 
ATOM     69  C   UNL A   1      49.797  27.760  26.497  1.00  0.00     0.020 A 
ATOM     70  C   UNL A   1      49.895  27.134  28.841  1.00  0.00     0.020 A 
ATOM     71  C   UNL A   1      50.443  27.119  27.557  1.00  0.00     0.054 A 
BRANCH  71  72
ATOM     72  S   UNL A   1      52.016  26.275  27.236  1.00  0.00     0.124 S 
ATOM     73  O   UNL A   1      52.576  27.085  26.156  1.00  0.00    -0.237 OA
ATOM     74  O   UNL A   1      52.706  26.380  28.519  1.00  0.00    -0.237 OA
ATOM     75  O   UNL A   1      51.615  24.923  26.856  1.00  0.00    -0.744 OA
ENDBRANCH  71  72
ENDBRANCH  52  66
BRANCH  53  76
ATOM     76  C   UNL A   1      38.777  31.651  30.225  1.00  0.00    -0.014 A 
ATOM     77  C   UNL A   1      38.391  31.654  31.577  1.00  0.00     0.010 A 
ATOM     78  C   UNL A   1      37.891  32.163  29.259  1.00  0.00     0.010 A 
ATOM     79  C   UNL A   1      37.146  32.165  31.957  1.00  0.00     0.020 A 
ATOM     80  C   UNL A   1      36.656  32.699  29.638  1.00  0.00     0.020 A 
ATOM     81  C   UNL A   1      36.291  32.695  30.985  1.00  0.00     0.054 A 
BRANCH  81  82
ATOM     82  S   UNL A   1      34.727  33.451  31.515  1.00  0.00     0.124 S 
ATOM     83  O   UNL A   1      35.182  34.698  32.121  1.00  0.00    -0.237 OA
ATOM     84  O   UNL A   1      34.001  33.587  30.254  1.00  0.00    -0.237 OA
ATOM     85  O   UNL A   1      34.169  32.468  32.441  1.00  0.00    -0.744 OA
ENDBRANCH  81  82
ENDBRANCH  53  76
BRANCH  65  86
ATOM     86  C   UNL A   1      45.050  34.699  29.946  1.00  0.00    -0.014 A 
ATOM     87  C   UNL A   1      45.445  35.089  31.238  1.00  0.00     0.010 A 
ATOM     88  C   UNL A   1      45.103  35.635  28.898  1.00  0.00     0.010 A 
ATOM     89  C   UNL A   1      45.835  36.406  31.488  1.00  0.00     0.020 A 
ATOM     90  C   UNL A   1      45.521  36.945  29.138  1.00  0.00     0.020 A 
ATOM     91  C   UNL A   1      45.863  37.328  30.437  1.00  0.00     0.054 A 
BRANCH  91  92
ATOM     92  S   UNL A   1      46.377  39.031  30.783  1.00  0.00     0.124 S 
ATOM     93  O   UNL A   1      47.832  38.925  30.726  1.00  0.00    -0.237 OA
ATOM     94  O   UNL A   1      45.758  39.783  29.693  1.00  0.00    -0.237 OA
ATOM     95  O   UNL A   1      45.822  39.297  32.109  1.00  0.00    -0.744 OA
ENDBRANCH  91  92
ENDBRANCH  65  86
ENDBRANCH  39  40
ENDBRANCH  31  34
ENDBRANCH  29  30
ENDBRANCH   1  29
TORSDOF 17
ENDMDL
