MODEL 1
REMARK VINA RESULT:     -11.7      0.000      0.000
REMARK SMILES Cc1cc(C)c2c(C(=O)NCCCNC(=O)c3ccc(-c4c5nc(c(-c6ccc(S(=O)(=O)[O-])cc6)c6ccc([nH]6)c(-c6ccc(S(=O)(=O)[O-])cc6)c6nc(c(-c7ccc(S(=O)(=O)[O-])cc7)c7ccc4[nH]7)C=C6)C=C5)cc3)cc(-c3ccco3)nc2c1
REMARK SMILES IDX 13 1 12 2 11 3 10 4 8 5 9 6 7 8 1 9 2 10 3 11 86 12 4 13
REMARK SMILES IDX 85 14 5 15 6 16 84 17 78 18 77 19 79 20 80 21 83 22 81 23
REMARK SMILES IDX 82 24 14 25 15 26 16 28 17 29 18 30 76 31 19 32 75 33 20 34
REMARK SMILES IDX 21 35 22 36 69 37 23 38 74 39 68 40 70 41 24 42 73 43 67 44
REMARK SMILES IDX 66 45 25 47 55 48 36 49 54 50 37 51 40 52 53 53 71 54 38 55
REMARK SMILES IDX 39 56 52 58 72 59 41 60 26 61 27 62 35 63 28 64 34 65 29 66
REMARK SMILES IDX 30 67 31 68 32 69 33 70 56 71 57 72 65 73 58 74 64 75 59 76
REMARK SMILES IDX 60 77 61 78 62 79 63 80 42 81 43 82 51 83 44 84 50 85 45 86
REMARK SMILES IDX 46 87 47 88 48 89 49 90
REMARK H PARENT 10 7 14 27 70 46 40 57
REMARK Flexibility Score: inf
ROOT
ATOM      1  C   UNL A   1      33.326  28.482  27.367  1.00  0.00     0.118 C 
ENDROOT
BRANCH   1   2
ATOM      2  C   UNL A   1      33.855  28.120  25.982  1.00  0.00     0.042 C 
BRANCH   2   3
ATOM      3  C   UNL A   1      32.777  27.741  24.975  1.00  0.00     0.118 C 
BRANCH   3   4
ATOM      4  N   UNL A   1      33.288  27.287  23.686  1.00  0.00    -0.352 N 
ATOM      5  C   UNL A   1      33.673  26.041  23.252  1.00  0.00     0.252 C 
ATOM      6  O   UNL A   1      34.003  25.910  22.073  1.00  0.00    -0.269 OA
ATOM      7  H   UNL A   1      33.371  27.998  23.008  1.00  0.00     0.163 HD
BRANCH   5   8
ATOM      8  C   UNL A   1      33.813  24.883  24.170  1.00  0.00     0.051 A 
ATOM      9  C   UNL A   1      29.662  22.789  27.436  1.00  0.00     0.044 C 
ATOM     10  C   UNL A   1      30.720  23.176  26.449  1.00  0.00    -0.049 A 
ATOM     11  C   UNL A   1      30.387  23.626  25.176  1.00  0.00     0.007 A 
ATOM     12  C   UNL A   1      32.074  23.007  26.757  1.00  0.00     0.032 A 
ATOM     13  C   UNL A   1      31.384  24.077  24.299  1.00  0.00    -0.041 A 
ATOM     14  C   UNL A   1      33.083  23.444  25.912  1.00  0.00     0.072 A 
ATOM     15  C   UNL A   1      30.982  24.290  22.859  1.00  0.00     0.045 C 
ATOM     16  C   UNL A   1      32.739  24.161  24.751  1.00  0.00     0.016 A 
ATOM     17  N   UNL A   1      34.351  23.163  26.256  1.00  0.00    -0.244 NA
ATOM     18  C   UNL A   1      35.351  23.658  25.502  1.00  0.00     0.107 A 
ATOM     19  C   UNL A   1      35.136  24.592  24.515  1.00  0.00     0.046 A 
BRANCH  18  20
ATOM     20  C   UNL A   1      36.671  23.111  25.751  1.00  0.00     0.152 A 
ATOM     21  C   UNL A   1      37.880  23.628  26.171  1.00  0.00     0.052 A 
ATOM     22  O   UNL A   1      36.827  21.793  25.417  1.00  0.00    -0.463 OA
ATOM     23  C   UNL A   1      38.821  22.568  26.095  1.00  0.00     0.043 A 
ATOM     24  C   UNL A   1      38.130  21.476  25.625  1.00  0.00     0.196 A 
ENDBRANCH  18  20
ENDBRANCH   5   8
ENDBRANCH   3   4
ENDBRANCH   2   3
ENDBRANCH   1   2
BRANCH   1  25
ATOM     25  N   UNL A   1      33.392  29.904  27.682  1.00  0.00    -0.352 N 
ATOM     26  C   UNL A   1      34.425  30.687  28.153  1.00  0.00     0.251 C 
ATOM     27  H   UNL A   1      32.550  30.392  27.533  1.00  0.00     0.163 HD
ATOM     28  O   UNL A   1      34.211  31.854  28.453  1.00  0.00    -0.269 OA
BRANCH  26  29
ATOM     29  C   UNL A   1      35.775  30.110  28.345  1.00  0.00     0.039 A 
ATOM     30  C   UNL A   1      36.695  30.174  27.293  1.00  0.00     0.014 A 
ATOM     31  C   UNL A   1      36.140  29.509  29.548  1.00  0.00     0.014 A 
ATOM     32  C   UNL A   1      38.009  29.739  27.491  1.00  0.00     0.010 A 
ATOM     33  C   UNL A   1      37.468  29.172  29.778  1.00  0.00     0.010 A 
ATOM     34  C   UNL A   1      38.419  29.285  28.754  1.00  0.00    -0.014 A 
BRANCH  34  35
ATOM     35  C   UNL A   1      39.827  28.907  29.037  1.00  0.00     0.031 A 
ATOM     36  C   UNL A   1      40.762  29.918  29.645  1.00  0.00     0.074 A 
ATOM     37  C   UNL A   1      40.289  27.696  28.667  1.00  0.00     0.049 A 
ATOM     38  N   UNL A   1      42.054  29.839  29.827  1.00  0.00    -0.248 NA
ATOM     39  C   UNL A   1      40.171  31.199  30.072  1.00  0.00     0.031 C 
ATOM     40  C   UNL A   1      39.494  26.638  28.036  1.00  0.00     0.029 A 
ATOM     41  N   UNL A   1      41.546  27.152  28.760  1.00  0.00    -0.354 N 
ATOM     42  C   UNL A   1      42.435  31.067  30.355  1.00  0.00     0.074 A 
ATOM     43  C   UNL A   1      41.247  31.888  30.426  1.00  0.00     0.031 C 
ATOM     44  C   UNL A   1      40.274  25.564  27.830  1.00  0.00     0.029 A 
ATOM     45  C   UNL A   1      41.632  25.869  28.272  1.00  0.00     0.049 A 
ATOM     46  H   UNL A   1      42.314  27.636  29.140  1.00  0.00     0.167 HD
ATOM     47  C   UNL A   1      43.659  31.468  30.768  1.00  0.00     0.031 A 
ATOM     48  C   UNL A   1      42.683  25.032  28.184  1.00  0.00     0.031 A 
ATOM     49  C   UNL A   1      44.828  30.636  30.744  1.00  0.00     0.049 A 
ATOM     50  C   UNL A   1      44.029  25.489  28.670  1.00  0.00     0.074 A 
ATOM     51  C   UNL A   1      46.103  30.933  31.194  1.00  0.00     0.029 A 
ATOM     52  N   UNL A   1      44.863  29.336  30.265  1.00  0.00    -0.354 N 
ATOM     53  N   UNL A   1      44.365  26.651  29.179  1.00  0.00    -0.248 NA
ATOM     54  C   UNL A   1      45.136  24.528  28.575  1.00  0.00     0.031 C 
ATOM     55  C   UNL A   1      46.915  29.820  30.963  1.00  0.00     0.029 A 
ATOM     56  C   UNL A   1      46.137  28.817  30.405  1.00  0.00     0.049 A 
ATOM     57  H   UNL A   1      44.095  28.854  29.882  1.00  0.00     0.167 HD
ATOM     58  C   UNL A   1      45.718  26.553  29.483  1.00  0.00     0.074 A 
ATOM     59  C   UNL A   1      46.138  25.218  29.106  1.00  0.00     0.031 C 
ATOM     60  C   UNL A   1      46.534  27.485  30.030  1.00  0.00     0.031 A 
BRANCH  47  61
ATOM     61  C   UNL A   1      43.789  32.866  31.303  1.00  0.00    -0.014 A 
ATOM     62  C   UNL A   1      43.590  33.134  32.669  1.00  0.00     0.010 A 
ATOM     63  C   UNL A   1      44.164  33.915  30.445  1.00  0.00     0.010 A 
ATOM     64  C   UNL A   1      43.737  34.431  33.163  1.00  0.00     0.020 A 
ATOM     65  C   UNL A   1      44.334  35.211  30.939  1.00  0.00     0.020 A 
ATOM     66  C   UNL A   1      44.112  35.461  32.295  1.00  0.00     0.054 A 
BRANCH  66  67
ATOM     67  S   UNL A   1      44.316  37.129  32.976  1.00  0.00     0.124 S 
ATOM     68  O   UNL A   1      44.221  37.961  31.778  1.00  0.00    -0.237 OA
ATOM     69  O   UNL A   1      43.191  37.230  33.901  1.00  0.00    -0.237 OA
ATOM     70  O   UNL A   1      45.636  37.093  33.601  1.00  0.00    -0.744 OA
ENDBRANCH  66  67
ENDBRANCH  47  61
BRANCH  48  71
ATOM     71  C   UNL A   1      42.487  23.661  27.644  1.00  0.00    -0.014 A 
ATOM     72  C   UNL A   1      42.814  23.379  26.307  1.00  0.00     0.010 A 
ATOM     73  C   UNL A   1      42.027  22.621  28.473  1.00  0.00     0.010 A 
ATOM     74  C   UNL A   1      42.691  22.079  25.808  1.00  0.00     0.020 A 
ATOM     75  C   UNL A   1      41.920  21.316  27.981  1.00  0.00     0.020 A 
ATOM     76  C   UNL A   1      42.257  21.053  26.652  1.00  0.00     0.054 A 
BRANCH  76  77
ATOM     77  S   UNL A   1      42.176  19.365  25.992  1.00  0.00     0.124 S 
ATOM     78  O   UNL A   1      42.684  18.573  27.108  1.00  0.00    -0.237 OA
ATOM     79  O   UNL A   1      40.751  19.216  25.707  1.00  0.00    -0.237 OA
ATOM     80  O   UNL A   1      43.041  19.413  24.816  1.00  0.00    -0.744 OA
ENDBRANCH  76  77
ENDBRANCH  48  71
BRANCH  60  81
ATOM     81  C   UNL A   1      47.964  27.104  30.284  1.00  0.00    -0.014 A 
ATOM     82  C   UNL A   1      48.980  27.489  29.394  1.00  0.00     0.010 A 
ATOM     83  C   UNL A   1      48.305  26.462  31.489  1.00  0.00     0.010 A 
ATOM     84  C   UNL A   1      50.319  27.241  29.707  1.00  0.00     0.020 A 
ATOM     85  C   UNL A   1      49.643  26.228  31.813  1.00  0.00     0.020 A 
ATOM     86  C   UNL A   1      50.642  26.621  30.920  1.00  0.00     0.054 A 
BRANCH  86  87
ATOM     87  S   UNL A   1      52.392  26.380  31.329  1.00  0.00     0.124 S 
ATOM     88  O   UNL A   1      52.348  25.195  32.182  1.00  0.00    -0.237 OA
ATOM     89  O   UNL A   1      52.997  26.185  30.014  1.00  0.00    -0.237 OA
ATOM     90  O   UNL A   1      52.766  27.619  32.006  1.00  0.00    -0.744 OA
ENDBRANCH  86  87
ENDBRANCH  60  81
ENDBRANCH  34  35
ENDBRANCH  26  29
ENDBRANCH   1  25
TORSDOF 14
ENDMDL
MODEL 2
REMARK VINA RESULT:     -11.2      4.527     10.373
REMARK SMILES Cc1cc(C)c2c(C(=O)NCCCNC(=O)c3ccc(-c4c5nc(c(-c6ccc(S(=O)(=O)[O-])cc6)c6ccc([nH]6)c(-c6ccc(S(=O)(=O)[O-])cc6)c6nc(c(-c7ccc(S(=O)(=O)[O-])cc7)c7ccc4[nH]7)C=C6)C=C5)cc3)cc(-c3ccco3)nc2c1
REMARK SMILES IDX 13 1 12 2 11 3 10 4 8 5 9 6 7 8 1 9 2 10 3 11 86 12 4 13
REMARK SMILES IDX 85 14 5 15 6 16 84 17 78 18 77 19 79 20 80 21 83 22 81 23
REMARK SMILES IDX 82 24 14 25 15 26 16 28 17 29 18 30 76 31 19 32 75 33 20 34
REMARK SMILES IDX 21 35 22 36 69 37 23 38 74 39 68 40 70 41 24 42 73 43 67 44
REMARK SMILES IDX 66 45 25 47 55 48 36 49 54 50 37 51 40 52 53 53 71 54 38 55
REMARK SMILES IDX 39 56 52 58 72 59 41 60 26 61 27 62 35 63 28 64 34 65 29 66
REMARK SMILES IDX 30 67 31 68 32 69 33 70 56 71 57 72 65 73 58 74 64 75 59 76
REMARK SMILES IDX 60 77 61 78 62 79 63 80 42 81 43 82 51 83 44 84 50 85 45 86
REMARK SMILES IDX 46 87 47 88 48 89 49 90
REMARK H PARENT 10 7 14 27 70 46 40 57
REMARK Flexibility Score: inf
ROOT
ATOM      1  C   UNL A   1      38.146  24.144  26.198  1.00  0.00     0.118 C 
ENDROOT
BRANCH   1   2
ATOM      2  C   UNL A   1      37.290  22.988  25.691  1.00  0.00     0.042 C 
BRANCH   2   3
ATOM      3  C   UNL A   1      35.931  23.403  25.141  1.00  0.00     0.118 C 
BRANCH   3   4
ATOM      4  N   UNL A   1      34.830  23.269  26.088  1.00  0.00    -0.352 N 
ATOM      5  C   UNL A   1      33.675  23.998  26.243  1.00  0.00     0.252 C 
ATOM      6  O   UNL A   1      32.860  23.625  27.087  1.00  0.00    -0.269 OA
ATOM      7  H   UNL A   1      34.933  22.527  26.728  1.00  0.00     0.163 HD
BRANCH   5   8
ATOM      8  C   UNL A   1      33.427  25.268  25.517  1.00  0.00     0.051 A 
ATOM      9  C   UNL A   1      32.585  25.711  19.915  1.00  0.00     0.044 C 
ATOM     10  C   UNL A   1      32.599  25.619  21.410  1.00  0.00    -0.049 A 
ATOM     11  C   UNL A   1      32.053  24.523  22.069  1.00  0.00     0.007 A 
ATOM     12  C   UNL A   1      33.082  26.680  22.181  1.00  0.00     0.032 A 
ATOM     13  C   UNL A   1      32.161  24.406  23.462  1.00  0.00    -0.041 A 
ATOM     14  C   UNL A   1      33.204  26.595  23.560  1.00  0.00     0.072 A 
ATOM     15  C   UNL A   1      31.319  23.343  24.126  1.00  0.00     0.045 C 
ATOM     16  C   UNL A   1      32.917  25.373  24.197  1.00  0.00     0.016 A 
ATOM     17  N   UNL A   1      33.600  27.695  24.222  1.00  0.00    -0.244 NA
ATOM     18  C   UNL A   1      33.816  27.610  25.549  1.00  0.00     0.107 A 
ATOM     19  C   UNL A   1      33.834  26.408  26.215  1.00  0.00     0.046 A 
BRANCH  18  20
ATOM     20  C   UNL A   1      33.977  28.869  26.252  1.00  0.00     0.152 A 
ATOM     21  C   UNL A   1      34.904  29.383  27.136  1.00  0.00     0.052 A 
ATOM     22  O   UNL A   1      32.941  29.752  26.109  1.00  0.00    -0.463 OA
ATOM     23  C   UNL A   1      34.411  30.648  27.548  1.00  0.00     0.043 A 
ATOM     24  C   UNL A   1      33.211  30.821  26.899  1.00  0.00     0.196 A 
ENDBRANCH  18  20
ENDBRANCH   5   8
ENDBRANCH   3   4
ENDBRANCH   2   3
ENDBRANCH   1   2
BRANCH   1  25
ATOM     25  N   UNL A   1      39.582  23.946  26.036  1.00  0.00    -0.352 N 
ATOM     26  C   UNL A   1      40.661  24.631  26.551  1.00  0.00     0.251 C 
ATOM     27  H   UNL A   1      39.823  23.189  25.454  1.00  0.00     0.163 HD
ATOM     28  O   UNL A   1      41.792  24.346  26.180  1.00  0.00    -0.269 OA
BRANCH  26  29
ATOM     29  C   UNL A   1      40.455  25.742  27.508  1.00  0.00     0.039 A 
ATOM     30  C   UNL A   1      39.556  25.567  28.565  1.00  0.00     0.014 A 
ATOM     31  C   UNL A   1      41.139  26.949  27.374  1.00  0.00     0.014 A 
ATOM     32  C   UNL A   1      39.432  26.558  29.544  1.00  0.00     0.010 A 
ATOM     33  C   UNL A   1      41.094  27.888  28.397  1.00  0.00     0.010 A 
ATOM     34  C   UNL A   1      40.242  27.702  29.496  1.00  0.00    -0.014 A 
BRANCH  34  35
ATOM     35  C   UNL A   1      40.216  28.733  30.565  1.00  0.00     0.031 A 
ATOM     36  C   UNL A   1      41.164  28.622  31.729  1.00  0.00     0.074 A 
ATOM     37  C   UNL A   1      39.287  29.710  30.540  1.00  0.00     0.049 A 
ATOM     38  N   UNL A   1      41.199  29.323  32.832  1.00  0.00    -0.248 NA
ATOM     39  C   UNL A   1      42.185  27.561  31.658  1.00  0.00     0.031 C 
ATOM     40  C   UNL A   1      38.288  29.907  29.486  1.00  0.00     0.029 A 
ATOM     41  N   UNL A   1      39.026  30.718  31.434  1.00  0.00    -0.354 N 
ATOM     42  C   UNL A   1      42.217  28.768  33.598  1.00  0.00     0.074 A 
ATOM     43  C   UNL A   1      42.748  27.648  32.855  1.00  0.00     0.031 C 
ATOM     44  C   UNL A   1      37.546  30.988  29.779  1.00  0.00     0.029 A 
ATOM     45  C   UNL A   1      37.986  31.535  31.059  1.00  0.00     0.049 A 
ATOM     46  H   UNL A   1      39.537  30.844  32.266  1.00  0.00     0.167 HD
ATOM     47  C   UNL A   1      42.686  29.170  34.801  1.00  0.00     0.031 A 
ATOM     48  C   UNL A   1      37.442  32.602  31.675  1.00  0.00     0.031 A 
ATOM     49  C   UNL A   1      42.192  30.313  35.516  1.00  0.00     0.049 A 
ATOM     50  C   UNL A   1      37.993  33.045  33.001  1.00  0.00     0.074 A 
ATOM     51  C   UNL A   1      42.640  30.835  36.717  1.00  0.00     0.029 A 
ATOM     52  N   UNL A   1      41.154  31.125  35.087  1.00  0.00    -0.354 N 
ATOM     53  N   UNL A   1      38.966  32.514  33.702  1.00  0.00    -0.248 NA
ATOM     54  C   UNL A   1      37.380  34.230  33.617  1.00  0.00     0.031 C 
ATOM     55  C   UNL A   1      41.857  31.949  37.027  1.00  0.00     0.029 A 
ATOM     56  C   UNL A   1      40.945  32.143  36.000  1.00  0.00     0.049 A 
ATOM     57  H   UNL A   1      40.642  30.997  34.256  1.00  0.00     0.167 HD
ATOM     58  C   UNL A   1      39.094  33.312  34.833  1.00  0.00     0.074 A 
ATOM     59  C   UNL A   1      38.104  34.364  34.721  1.00  0.00     0.031 C 
ATOM     60  C   UNL A   1      39.959  33.184  35.868  1.00  0.00     0.031 A 
BRANCH  47  61
ATOM     61  C   UNL A   1      43.807  28.378  35.411  1.00  0.00    -0.014 A 
ATOM     62  C   UNL A   1      43.539  27.295  36.267  1.00  0.00     0.010 A 
ATOM     63  C   UNL A   1      45.141  28.684  35.087  1.00  0.00     0.010 A 
ATOM     64  C   UNL A   1      44.586  26.548  36.810  1.00  0.00     0.020 A 
ATOM     65  C   UNL A   1      46.191  27.925  35.611  1.00  0.00     0.020 A 
ATOM     66  C   UNL A   1      45.906  26.866  36.475  1.00  0.00     0.054 A 
BRANCH  66  67
ATOM     67  S   UNL A   1      47.239  25.860  37.181  1.00  0.00     0.124 S 
ATOM     68  O   UNL A   1      48.220  26.875  37.557  1.00  0.00    -0.237 OA
ATOM     69  O   UNL A   1      46.571  25.190  38.293  1.00  0.00    -0.237 OA
ATOM     70  O   UNL A   1      47.641  24.989  36.079  1.00  0.00    -0.744 OA
ENDBRANCH  66  67
ENDBRANCH  47  61
BRANCH  48  71
ATOM     71  C   UNL A   1      36.334  33.343  31.018  1.00  0.00    -0.014 A 
ATOM     72  C   UNL A   1      35.174  33.663  31.745  1.00  0.00     0.010 A 
ATOM     73  C   UNL A   1      36.451  33.779  29.685  1.00  0.00     0.010 A 
ATOM     74  C   UNL A   1      34.154  34.413  31.154  1.00  0.00     0.020 A 
ATOM     75  C   UNL A   1      35.439  34.545  29.097  1.00  0.00     0.020 A 
ATOM     76  C   UNL A   1      34.298  34.860  29.838  1.00  0.00     0.054 A 
BRANCH  76  77
ATOM     77  S   UNL A   1      32.986  35.890  29.124  1.00  0.00     0.124 S 
ATOM     78  O   UNL A   1      33.744  36.981  28.520  1.00  0.00    -0.237 OA
ATOM     79  O   UNL A   1      32.348  34.969  28.187  1.00  0.00    -0.237 OA
ATOM     80  O   UNL A   1      32.171  36.260  30.279  1.00  0.00    -0.744 OA
ENDBRANCH  76  77
ENDBRANCH  48  71
BRANCH  60  81
ATOM     81  C   UNL A   1      39.905  34.213  36.960  1.00  0.00    -0.014 A 
ATOM     82  C   UNL A   1      40.510  35.469  36.796  1.00  0.00     0.010 A 
ATOM     83  C   UNL A   1      39.133  33.960  38.110  1.00  0.00     0.010 A 
ATOM     84  C   UNL A   1      40.343  36.461  37.765  1.00  0.00     0.020 A 
ATOM     85  C   UNL A   1      38.950  34.956  39.072  1.00  0.00     0.020 A 
ATOM     86  C   UNL A   1      39.555  36.201  38.891  1.00  0.00     0.054 A 
BRANCH  86  87
ATOM     87  S   UNL A   1      39.297  37.534  40.093  1.00  0.00     0.124 S 
ATOM     88  O   UNL A   1      38.336  38.390  39.402  1.00  0.00    -0.237 OA
ATOM     89  O   UNL A   1      38.778  36.815  41.253  1.00  0.00    -0.237 OA
ATOM     90  O   UNL A   1      40.629  38.110  40.266  1.00  0.00    -0.744 OA
ENDBRANCH  86  87
ENDBRANCH  60  81
ENDBRANCH  34  35
ENDBRANCH  26  29
ENDBRANCH   1  25
TORSDOF 14
ENDMDL
MODEL 3
REMARK VINA RESULT:     -11.1      3.036      4.282
REMARK SMILES Cc1cc(C)c2c(C(=O)NCCCNC(=O)c3ccc(-c4c5nc(c(-c6ccc(S(=O)(=O)[O-])cc6)c6ccc([nH]6)c(-c6ccc(S(=O)(=O)[O-])cc6)c6nc(c(-c7ccc(S(=O)(=O)[O-])cc7)c7ccc4[nH]7)C=C6)C=C5)cc3)cc(-c3ccco3)nc2c1
REMARK SMILES IDX 13 1 12 2 11 3 10 4 8 5 9 6 7 8 1 9 2 10 3 11 86 12 4 13
REMARK SMILES IDX 85 14 5 15 6 16 84 17 78 18 77 19 79 20 80 21 83 22 81 23
REMARK SMILES IDX 82 24 14 25 15 26 16 28 17 29 18 30 76 31 19 32 75 33 20 34
REMARK SMILES IDX 21 35 22 36 69 37 23 38 74 39 68 40 70 41 24 42 73 43 67 44
REMARK SMILES IDX 66 45 25 47 55 48 36 49 54 50 37 51 40 52 53 53 71 54 38 55
REMARK SMILES IDX 39 56 52 58 72 59 41 60 26 61 27 62 35 63 28 64 34 65 29 66
REMARK SMILES IDX 30 67 31 68 32 69 33 70 56 71 57 72 65 73 58 74 64 75 59 76
REMARK SMILES IDX 60 77 61 78 62 79 63 80 42 81 43 82 51 83 44 84 50 85 45 86
REMARK SMILES IDX 46 87 47 88 48 89 49 90
REMARK H PARENT 10 7 14 27 70 46 40 57
REMARK Flexibility Score: inf
ROOT
ATOM      1  C   UNL A   1      35.689  31.071  28.012  1.00  0.00     0.118 C 
ENDROOT
BRANCH   1   2
ATOM      2  C   UNL A   1      34.698  30.427  27.047  1.00  0.00     0.042 C 
BRANCH   2   3
ATOM      3  C   UNL A   1      34.429  28.951  27.311  1.00  0.00     0.118 C 
BRANCH   3   4
ATOM      4  N   UNL A   1      33.098  28.665  27.835  1.00  0.00    -0.352 N 
ATOM      5  C   UNL A   1      32.025  28.012  27.276  1.00  0.00     0.252 C 
ATOM      6  O   UNL A   1      31.023  27.836  27.969  1.00  0.00    -0.269 OA
ATOM      7  H   UNL A   1      32.940  28.997  28.749  1.00  0.00     0.163 HD
BRANCH   5   8
ATOM      8  C   UNL A   1      31.988  27.615  25.846  1.00  0.00     0.051 A 
ATOM      9  C   UNL A   1      28.311  29.608  22.000  1.00  0.00     0.044 C 
ATOM     10  C   UNL A   1      29.420  29.213  22.926  1.00  0.00    -0.049 A 
ATOM     11  C   UNL A   1      29.909  30.095  23.882  1.00  0.00     0.007 A 
ATOM     12  C   UNL A   1      30.051  27.973  22.787  1.00  0.00     0.032 A 
ATOM     13  C   UNL A   1      30.879  29.678  24.804  1.00  0.00    -0.041 A 
ATOM     14  C   UNL A   1      31.012  27.529  23.683  1.00  0.00     0.072 A 
ATOM     15  C   UNL A   1      31.551  30.753  25.624  1.00  0.00     0.045 C 
ATOM     16  C   UNL A   1      31.299  28.310  24.818  1.00  0.00     0.016 A 
ATOM     17  N   UNL A   1      31.620  26.361  23.419  1.00  0.00    -0.244 NA
ATOM     18  C   UNL A   1      32.488  25.864  24.322  1.00  0.00     0.107 A 
ATOM     19  C   UNL A   1      32.630  26.403  25.579  1.00  0.00     0.046 A 
BRANCH  18  20
ATOM     20  C   UNL A   1      33.310  24.754  23.876  1.00  0.00     0.152 A 
ATOM     21  C   UNL A   1      34.592  24.318  24.142  1.00  0.00     0.052 A 
ATOM     22  O   UNL A   1      32.760  23.984  22.887  1.00  0.00    -0.463 OA
ATOM     23  C   UNL A   1      34.833  23.221  23.276  1.00  0.00     0.043 A 
ATOM     24  C   UNL A   1      33.690  23.063  22.529  1.00  0.00     0.196 A 
ENDBRANCH  18  20
ENDBRANCH   5   8
ENDBRANCH   3   4
ENDBRANCH   2   3
ENDBRANCH   1   2
BRANCH   1  25
ATOM     25  N   UNL A   1      35.540  30.647  29.399  1.00  0.00    -0.352 N 
ATOM     26  C   UNL A   1      36.433  30.072  30.278  1.00  0.00     0.251 C 
ATOM     27  H   UNL A   1      34.643  30.798  29.774  1.00  0.00     0.163 HD
ATOM     28  O   UNL A   1      36.044  29.695  31.375  1.00  0.00    -0.269 OA
BRANCH  26  29
ATOM     29  C   UNL A   1      37.844  29.862  29.881  1.00  0.00     0.039 A 
ATOM     30  C   UNL A   1      38.806  29.666  30.879  1.00  0.00     0.014 A 
ATOM     31  C   UNL A   1      38.226  29.856  28.541  1.00  0.00     0.014 A 
ATOM     32  C   UNL A   1      40.121  29.353  30.524  1.00  0.00     0.010 A 
ATOM     33  C   UNL A   1      39.506  29.445  28.188  1.00  0.00     0.010 A 
ATOM     34  C   UNL A   1      40.468  29.185  29.174  1.00  0.00    -0.014 A 
BRANCH  34  35
ATOM     35  C   UNL A   1      41.826  28.757  28.756  1.00  0.00     0.031 A 
ATOM     36  C   UNL A   1      42.942  29.767  28.701  1.00  0.00     0.074 A 
ATOM     37  C   UNL A   1      42.038  27.492  28.339  1.00  0.00     0.049 A 
ATOM     38  N   UNL A   1      44.150  29.633  28.220  1.00  0.00    -0.248 NA
ATOM     39  C   UNL A   1      42.647  31.113  29.223  1.00  0.00     0.031 C 
ATOM     40  C   UNL A   1      41.032  26.427  28.309  1.00  0.00     0.029 A 
ATOM     41  N   UNL A   1      43.170  26.890  27.850  1.00  0.00    -0.354 N 
ATOM     42  C   UNL A   1      44.746  30.881  28.351  1.00  0.00     0.074 A 
ATOM     43  C   UNL A   1      43.756  31.770  28.916  1.00  0.00     0.031 C 
ATOM     44  C   UNL A   1      41.602  25.296  27.859  1.00  0.00     0.029 A 
ATOM     45  C   UNL A   1      42.998  25.564  27.528  1.00  0.00     0.049 A 
ATOM     46  H   UNL A   1      44.027  27.364  27.741  1.00  0.00     0.167 HD
ATOM     47  C   UNL A   1      46.013  31.250  28.051  1.00  0.00     0.031 A 
ATOM     48  C   UNL A   1      43.861  24.666  27.018  1.00  0.00     0.031 A 
ATOM     49  C   UNL A   1      47.011  30.355  27.537  1.00  0.00     0.049 A 
ATOM     50  C   UNL A   1      45.270  25.090  26.713  1.00  0.00     0.074 A 
ATOM     51  C   UNL A   1      48.339  30.621  27.254  1.00  0.00     0.029 A 
ATOM     52  N   UNL A   1      46.798  29.016  27.249  1.00  0.00    -0.354 N 
ATOM     53  N   UNL A   1      45.818  26.274  26.857  1.00  0.00    -0.248 NA
ATOM     54  C   UNL A   1      46.178  24.064  26.183  1.00  0.00     0.031 C 
ATOM     55  C   UNL A   1      48.924  29.448  26.771  1.00  0.00     0.029 A 
ATOM     56  C   UNL A   1      47.969  28.443  26.789  1.00  0.00     0.049 A 
ATOM     57  H   UNL A   1      45.940  28.544  27.356  1.00  0.00     0.167 HD
ATOM     58  C   UNL A   1      47.140  26.128  26.453  1.00  0.00     0.074 A 
ATOM     59  C   UNL A   1      47.312  24.743  26.064  1.00  0.00     0.031 C 
ATOM     60  C   UNL A   1      48.122  27.061  26.414  1.00  0.00     0.031 A 
BRANCH  47  61
ATOM     61  C   UNL A   1      46.396  32.683  28.293  1.00  0.00    -0.014 A 
ATOM     62  C   UNL A   1      46.953  33.079  29.522  1.00  0.00     0.010 A 
ATOM     63  C   UNL A   1      46.248  33.633  27.267  1.00  0.00     0.010 A 
ATOM     64  C   UNL A   1      47.329  34.407  29.731  1.00  0.00     0.020 A 
ATOM     65  C   UNL A   1      46.643  34.959  27.464  1.00  0.00     0.020 A 
ATOM     66  C   UNL A   1      47.176  35.338  28.699  1.00  0.00     0.054 A 
BRANCH  66  67
ATOM     67  S   UNL A   1      47.697  37.048  28.998  1.00  0.00     0.124 S 
ATOM     68  O   UNL A   1      46.689  37.807  28.261  1.00  0.00    -0.237 OA
ATOM     69  O   UNL A   1      47.620  37.150  30.453  1.00  0.00    -0.237 OA
ATOM     70  O   UNL A   1      49.046  37.106  28.439  1.00  0.00    -0.744 OA
ENDBRANCH  66  67
ENDBRANCH  47  61
BRANCH  48  71
ATOM     71  C   UNL A   1      43.419  23.263  26.802  1.00  0.00    -0.014 A 
ATOM     72  C   UNL A   1      43.489  22.694  25.519  1.00  0.00     0.010 A 
ATOM     73  C   UNL A   1      42.978  22.474  27.880  1.00  0.00     0.010 A 
ATOM     74  C   UNL A   1      43.134  21.358  25.317  1.00  0.00     0.020 A 
ATOM     75  C   UNL A   1      42.638  21.131  27.685  1.00  0.00     0.020 A 
ATOM     76  C   UNL A   1      42.722  20.581  26.404  1.00  0.00     0.054 A 
BRANCH  76  77
ATOM     77  S   UNL A   1      42.335  18.831  26.120  1.00  0.00     0.124 S 
ATOM     78  O   UNL A   1      43.266  18.478  25.053  1.00  0.00    -0.237 OA
ATOM     79  O   UNL A   1      42.617  18.240  27.427  1.00  0.00    -0.237 OA
ATOM     80  O   UNL A   1      40.925  18.847  25.740  1.00  0.00    -0.744 OA
ENDBRANCH  76  77
ENDBRANCH  48  71
BRANCH  60  81
ATOM     81  C   UNL A   1      49.485  26.626  25.959  1.00  0.00    -0.014 A 
ATOM     82  C   UNL A   1      49.937  26.913  24.661  1.00  0.00     0.010 A 
ATOM     83  C   UNL A   1      50.366  26.035  26.884  1.00  0.00     0.010 A 
ATOM     84  C   UNL A   1      51.251  26.618  24.293  1.00  0.00     0.020 A 
ATOM     85  C   UNL A   1      51.686  25.754  26.525  1.00  0.00     0.020 A 
ATOM     86  C   UNL A   1      52.120  26.049  25.232  1.00  0.00     0.054 A 
BRANCH  86  87
ATOM     87  S   UNL A   1      53.841  25.747  24.744  1.00  0.00     0.124 S 
ATOM     88  O   UNL A   1      54.575  26.638  25.639  1.00  0.00    -0.237 OA
ATOM     89  O   UNL A   1      53.996  24.320  25.012  1.00  0.00    -0.237 OA
ATOM     90  O   UNL A   1      53.874  26.120  23.332  1.00  0.00    -0.744 OA
ENDBRANCH  86  87
ENDBRANCH  60  81
ENDBRANCH  34  35
ENDBRANCH  26  29
ENDBRANCH   1  25
TORSDOF 14
ENDMDL
