MODEL 1
REMARK VINA RESULT:     -12.9      0.000      0.000
REMARK SMILES Cc1ccc(C(=O)NCCCNC(=O)c2ccc(-c3c4nc(c(-c5ccc(S(=O)(=O)[O-])cc5)c5ccc([nH]5)c(-c5ccc(S(=O)(=O)[O-])cc5)c5nc(c(-c6ccc(S(=O)(=O)[O-])cc6)c6ccc3[nH]6)C=C5)C=C4)cc2)cc1NC(=O)c1ccc(Br)o1
REMARK SMILES IDX 10 1 9 2 8 3 6 4 7 5 5 7 1 8 2 9 3 10 76 11 4 12 75 13 77 14
REMARK SMILES IDX 78 15 79 17 80 18 81 19 85 20 82 21 83 22 84 23 11 24 12 25
REMARK SMILES IDX 13 26 14 28 15 29 16 30 74 31 17 32 73 33 18 34 19 35 20 36
REMARK SMILES IDX 67 37 21 38 72 39 66 40 68 41 22 42 71 43 65 44 64 45 23 47
REMARK SMILES IDX 53 48 34 49 52 50 35 51 38 52 51 53 69 54 36 55 37 56 50 58
REMARK SMILES IDX 70 59 39 60 24 61 25 62 33 63 26 64 32 65 27 66 28 67 29 68
REMARK SMILES IDX 30 69 31 70 54 71 55 72 63 73 56 74 62 75 57 76 58 77 59 78
REMARK SMILES IDX 60 79 61 80 40 81 41 82 49 83 42 84 48 85 43 86 44 87 45 88
REMARK SMILES IDX 46 89 47 90
REMARK H PARENT 8 6 77 16 12 27 68 46 38 57
REMARK Flexibility Score: inf
ROOT
ATOM      1  C   UNL A   1      34.027  31.306  27.692  1.00  0.00     0.042 C 
ENDROOT
BRANCH   1   2
ATOM      2  C   UNL A   1      33.022  30.594  26.793  1.00  0.00     0.118 C 
BRANCH   2   3
ATOM      3  N   UNL A   1      33.681  29.887  25.702  1.00  0.00    -0.352 N 
ATOM      4  C   UNL A   1      33.359  28.866  24.852  1.00  0.00     0.251 C 
ATOM      5  O   UNL A   1      34.217  28.613  23.996  1.00  0.00    -0.269 OA
ATOM      6  H   UNL A   1      34.588  30.232  25.535  1.00  0.00     0.163 HD
BRANCH   4   7
ATOM      7  C   UNL A   1      32.098  28.047  24.839  1.00  0.00     0.041 A 
ATOM      8  C   UNL A   1      28.277  26.053  24.239  1.00  0.00     0.046 C 
ATOM      9  C   UNL A   1      29.605  26.705  24.543  1.00  0.00    -0.027 A 
ATOM     10  C   UNL A   1      29.947  27.778  23.713  1.00  0.00     0.006 A 
ATOM     11  C   UNL A   1      30.513  26.299  25.552  1.00  0.00     0.045 A 
ATOM     12  C   UNL A   1      31.157  28.444  23.873  1.00  0.00     0.014 A 
ATOM     13  C   UNL A   1      31.771  26.946  25.648  1.00  0.00     0.040 A 
BRANCH  11  14
ATOM     14  N   UNL A   1      30.095  25.245  26.388  1.00  0.00    -0.319 N 
ATOM     15  C   UNL A   1      30.308  23.897  26.501  1.00  0.00     0.291 C 
ATOM     16  H   UNL A   1      29.478  25.568  27.084  1.00  0.00     0.170 HD
ATOM     17  O   UNL A   1      29.633  23.325  27.360  1.00  0.00    -0.265 OA
BRANCH  15  18
ATOM     18  C   UNL A   1      31.258  23.203  25.692  1.00  0.00     0.193 A 
ATOM     19  C   UNL A   1      31.366  22.996  24.334  1.00  0.00     0.057 A 
ATOM     20  O   UNL A   1      32.356  22.710  26.331  1.00  0.00    -0.444 OA
ATOM     21  C   UNL A   1      32.602  22.331  24.140  1.00  0.00     0.059 A 
ATOM     22  C   UNL A   1      33.173  22.190  25.383  1.00  0.00     0.170 A 
ATOM     23  Br  UNL A   1      34.825  21.435  25.780  1.00  0.00    -0.008 Br
ENDBRANCH  15  18
ENDBRANCH  11  14
ENDBRANCH   4   7
ENDBRANCH   2   3
ENDBRANCH   1   2
BRANCH   1  24
ATOM     24  C   UNL A   1      35.101  30.385  28.279  1.00  0.00     0.118 C 
BRANCH  24  25
ATOM     25  N   UNL A   1      36.287  31.036  28.848  1.00  0.00    -0.352 N 
ATOM     26  C   UNL A   1      37.562  30.547  29.140  1.00  0.00     0.251 C 
ATOM     27  H   UNL A   1      36.160  31.989  29.063  1.00  0.00     0.163 HD
ATOM     28  O   UNL A   1      38.425  31.195  29.715  1.00  0.00    -0.269 OA
BRANCH  26  29
ATOM     29  C   UNL A   1      37.970  29.242  28.594  1.00  0.00     0.039 A 
ATOM     30  C   UNL A   1      38.139  28.265  29.588  1.00  0.00     0.014 A 
ATOM     31  C   UNL A   1      38.738  29.271  27.444  1.00  0.00     0.014 A 
ATOM     32  C   UNL A   1      39.352  27.620  29.649  1.00  0.00     0.010 A 
ATOM     33  C   UNL A   1      39.994  28.742  27.571  1.00  0.00     0.010 A 
ATOM     34  C   UNL A   1      40.309  28.002  28.716  1.00  0.00    -0.014 A 
BRANCH  34  35
ATOM     35  C   UNL A   1      41.682  27.573  28.795  1.00  0.00     0.031 A 
ATOM     36  C   UNL A   1      41.848  26.171  28.416  1.00  0.00     0.074 A 
ATOM     37  C   UNL A   1      42.629  28.412  29.260  1.00  0.00     0.049 A 
ATOM     38  N   UNL A   1      42.501  25.303  29.101  1.00  0.00    -0.248 NA
ATOM     39  C   UNL A   1      41.049  25.575  27.335  1.00  0.00     0.031 C 
ATOM     40  C   UNL A   1      44.070  28.218  29.328  1.00  0.00     0.029 A 
ATOM     41  N   UNL A   1      42.416  29.585  29.974  1.00  0.00    -0.354 N 
ATOM     42  C   UNL A   1      42.523  24.173  28.315  1.00  0.00     0.074 A 
ATOM     43  C   UNL A   1      41.406  24.298  27.424  1.00  0.00     0.031 C 
ATOM     44  C   UNL A   1      44.578  29.084  30.228  1.00  0.00     0.029 A 
ATOM     45  C   UNL A   1      43.467  29.785  30.864  1.00  0.00     0.049 A 
ATOM     46  H   UNL A   1      41.642  30.183  29.866  1.00  0.00     0.167 HD
ATOM     47  C   UNL A   1      43.659  23.426  28.279  1.00  0.00     0.031 A 
ATOM     48  C   UNL A   1      43.208  29.771  32.206  1.00  0.00     0.031 A 
ATOM     49  C   UNL A   1      44.629  23.962  29.236  1.00  0.00     0.049 A 
ATOM     50  C   UNL A   1      43.718  28.502  32.852  1.00  0.00     0.074 A 
ATOM     51  C   UNL A   1      45.701  24.826  29.077  1.00  0.00     0.029 A 
ATOM     52  N   UNL A   1      44.287  24.008  30.585  1.00  0.00    -0.354 N 
ATOM     53  N   UNL A   1      43.962  27.395  32.204  1.00  0.00    -0.248 NA
ATOM     54  C   UNL A   1      44.035  28.404  34.274  1.00  0.00     0.031 C 
ATOM     55  C   UNL A   1      45.931  25.470  30.328  1.00  0.00     0.029 A 
ATOM     56  C   UNL A   1      45.023  24.973  31.250  1.00  0.00     0.049 A 
ATOM     57  H   UNL A   1      43.612  23.430  31.009  1.00  0.00     0.167 HD
ATOM     58  C   UNL A   1      44.462  26.459  33.068  1.00  0.00     0.074 A 
ATOM     59  C   UNL A   1      44.500  27.145  34.350  1.00  0.00     0.031 C 
ATOM     60  C   UNL A   1      44.811  25.197  32.677  1.00  0.00     0.031 A 
BRANCH  47  61
ATOM     61  C   UNL A   1      43.994  22.514  27.119  1.00  0.00    -0.014 A 
ATOM     62  C   UNL A   1      43.093  21.493  26.767  1.00  0.00     0.010 A 
ATOM     63  C   UNL A   1      45.188  22.566  26.368  1.00  0.00     0.010 A 
ATOM     64  C   UNL A   1      43.388  20.556  25.763  1.00  0.00     0.020 A 
ATOM     65  C   UNL A   1      45.515  21.618  25.389  1.00  0.00     0.020 A 
ATOM     66  C   UNL A   1      44.605  20.617  25.088  1.00  0.00     0.054 A 
BRANCH  66  67
ATOM     67  S   UNL A   1      44.963  19.413  23.786  1.00  0.00     0.124 S 
ATOM     68  O   UNL A   1      44.146  18.270  24.182  1.00  0.00    -0.237 OA
ATOM     69  O   UNL A   1      44.527  20.118  22.584  1.00  0.00    -0.237 OA
ATOM     70  O   UNL A   1      46.407  19.205  23.892  1.00  0.00    -0.744 OA
ENDBRANCH  66  67
ENDBRANCH  47  61
BRANCH  48  71
ATOM     71  C   UNL A   1      41.971  30.511  32.605  1.00  0.00    -0.014 A 
ATOM     72  C   UNL A   1      40.744  29.816  32.535  1.00  0.00     0.010 A 
ATOM     73  C   UNL A   1      42.015  31.716  33.332  1.00  0.00     0.010 A 
ATOM     74  C   UNL A   1      39.625  30.248  33.251  1.00  0.00     0.020 A 
ATOM     75  C   UNL A   1      40.893  32.154  34.059  1.00  0.00     0.020 A 
ATOM     76  C   UNL A   1      39.721  31.393  34.040  1.00  0.00     0.054 A 
BRANCH  76  77
ATOM     77  S   UNL A   1      38.346  31.766  35.158  1.00  0.00     0.124 S 
ATOM     78  O   UNL A   1      37.269  32.146  34.244  1.00  0.00    -0.237 OA
ATOM     79  O   UNL A   1      38.163  30.457  35.786  1.00  0.00    -0.237 OA
ATOM     80  O   UNL A   1      38.857  32.835  36.000  1.00  0.00    -0.744 OA
ENDBRANCH  76  77
ENDBRANCH  48  71
BRANCH  60  81
ATOM     81  C   UNL A   1      45.057  24.040  33.618  1.00  0.00    -0.014 A 
ATOM     82  C   UNL A   1      44.113  23.043  33.901  1.00  0.00     0.010 A 
ATOM     83  C   UNL A   1      46.357  23.859  34.155  1.00  0.00     0.010 A 
ATOM     84  C   UNL A   1      44.417  21.975  34.752  1.00  0.00     0.020 A 
ATOM     85  C   UNL A   1      46.694  22.758  34.940  1.00  0.00     0.020 A 
ATOM     86  C   UNL A   1      45.705  21.843  35.270  1.00  0.00     0.054 A 
BRANCH  86  87
ATOM     87  S   UNL A   1      46.086  20.450  36.353  1.00  0.00     0.124 S 
ATOM     88  O   UNL A   1      45.277  19.387  35.761  1.00  0.00    -0.237 OA
ATOM     89  O   UNL A   1      47.531  20.302  36.193  1.00  0.00    -0.237 OA
ATOM     90  O   UNL A   1      45.655  20.908  37.671  1.00  0.00    -0.744 OA
ENDBRANCH  86  87
ENDBRANCH  60  81
ENDBRANCH  34  35
ENDBRANCH  26  29
ENDBRANCH  24  25
ENDBRANCH   1  24
TORSDOF 15
ENDMDL
MODEL 2
REMARK VINA RESULT:     -12.9      2.399      3.338
REMARK SMILES Cc1ccc(C(=O)NCCCNC(=O)c2ccc(-c3c4nc(c(-c5ccc(S(=O)(=O)[O-])cc5)c5ccc([nH]5)c(-c5ccc(S(=O)(=O)[O-])cc5)c5nc(c(-c6ccc(S(=O)(=O)[O-])cc6)c6ccc3[nH]6)C=C5)C=C4)cc2)cc1NC(=O)c1ccc(Br)o1
REMARK SMILES IDX 10 1 9 2 8 3 6 4 7 5 5 7 1 8 2 9 3 10 76 11 4 12 75 13 77 14
REMARK SMILES IDX 78 15 79 17 80 18 81 19 85 20 82 21 83 22 84 23 11 24 12 25
REMARK SMILES IDX 13 26 14 28 15 29 16 30 74 31 17 32 73 33 18 34 19 35 20 36
REMARK SMILES IDX 67 37 21 38 72 39 66 40 68 41 22 42 71 43 65 44 64 45 23 47
REMARK SMILES IDX 53 48 34 49 52 50 35 51 38 52 51 53 69 54 36 55 37 56 50 58
REMARK SMILES IDX 70 59 39 60 24 61 25 62 33 63 26 64 32 65 27 66 28 67 29 68
REMARK SMILES IDX 30 69 31 70 54 71 55 72 63 73 56 74 62 75 57 76 58 77 59 78
REMARK SMILES IDX 60 79 61 80 40 81 41 82 49 83 42 84 48 85 43 86 44 87 45 88
REMARK SMILES IDX 46 89 47 90
REMARK H PARENT 8 6 77 16 12 27 68 46 38 57
REMARK Flexibility Score: inf
ROOT
ATOM      1  C   UNL A   1      32.934  30.011  26.038  1.00  0.00     0.042 C 
ENDROOT
BRANCH   1   2
ATOM      2  C   UNL A   1      31.566  30.096  25.370  1.00  0.00     0.118 C 
BRANCH   2   3
ATOM      3  N   UNL A   1      31.563  29.447  24.065  1.00  0.00    -0.352 N 
ATOM      4  C   UNL A   1      31.528  28.161  23.603  1.00  0.00     0.251 C 
ATOM      5  O   UNL A   1      31.468  28.054  22.372  1.00  0.00    -0.269 OA
ATOM      6  H   UNL A   1      31.595  30.101  23.329  1.00  0.00     0.163 HD
BRANCH   4   7
ATOM      7  C   UNL A   1      31.540  26.895  24.414  1.00  0.00     0.041 A 
ATOM      8  C   UNL A   1      30.893  23.350  26.854  1.00  0.00     0.046 C 
ATOM      9  C   UNL A   1      31.220  24.569  26.024  1.00  0.00    -0.027 A 
ATOM     10  C   UNL A   1      30.156  25.456  25.822  1.00  0.00     0.006 A 
ATOM     11  C   UNL A   1      32.473  24.851  25.428  1.00  0.00     0.045 A 
ATOM     12  C   UNL A   1      30.321  26.601  25.051  1.00  0.00     0.014 A 
ATOM     13  C   UNL A   1      32.597  25.986  24.587  1.00  0.00     0.040 A 
BRANCH  11  14
ATOM     14  N   UNL A   1      33.519  23.949  25.706  1.00  0.00    -0.319 N 
ATOM     15  C   UNL A   1      33.883  22.680  25.346  1.00  0.00     0.291 C 
ATOM     16  H   UNL A   1      34.169  24.342  26.333  1.00  0.00     0.170 HD
ATOM     17  O   UNL A   1      34.870  22.226  25.930  1.00  0.00    -0.265 OA
BRANCH  15  18
ATOM     18  C   UNL A   1      33.179  21.936  24.352  1.00  0.00     0.193 A 
ATOM     19  C   UNL A   1      32.538  22.293  23.185  1.00  0.00     0.057 A 
ATOM     20  O   UNL A   1      33.199  20.579  24.479  1.00  0.00    -0.444 OA
ATOM     21  C   UNL A   1      32.141  21.079  22.573  1.00  0.00     0.059 A 
ATOM     22  C   UNL A   1      32.574  20.064  23.393  1.00  0.00     0.170 A 
ATOM     23  Br  UNL A   1      32.394  18.235  23.106  1.00  0.00    -0.008 Br
ENDBRANCH  15  18
ENDBRANCH  11  14
ENDBRANCH   4   7
ENDBRANCH   2   3
ENDBRANCH   1   2
BRANCH   1  24
ATOM     24  C   UNL A   1      32.916  30.320  27.538  1.00  0.00     0.118 C 
BRANCH  24  25
ATOM     25  N   UNL A   1      33.844  31.354  28.009  1.00  0.00    -0.352 N 
ATOM     26  C   UNL A   1      35.120  31.269  28.570  1.00  0.00     0.251 C 
ATOM     27  H   UNL A   1      33.505  32.274  27.912  1.00  0.00     0.163 HD
ATOM     28  O   UNL A   1      35.735  32.229  29.013  1.00  0.00    -0.269 OA
BRANCH  26  29
ATOM     29  C   UNL A   1      35.853  29.994  28.490  1.00  0.00     0.039 A 
ATOM     30  C   UNL A   1      36.212  29.493  29.752  1.00  0.00     0.014 A 
ATOM     31  C   UNL A   1      36.637  29.807  27.367  1.00  0.00     0.014 A 
ATOM     32  C   UNL A   1      37.542  29.221  29.975  1.00  0.00     0.010 A 
ATOM     33  C   UNL A   1      37.977  29.673  27.609  1.00  0.00     0.010 A 
ATOM     34  C   UNL A   1      38.415  29.475  28.923  1.00  0.00    -0.014 A 
BRANCH  34  35
ATOM     35  C   UNL A   1      39.846  29.443  29.081  1.00  0.00     0.031 A 
ATOM     36  C   UNL A   1      40.415  28.142  28.731  1.00  0.00     0.074 A 
ATOM     37  C   UNL A   1      40.498  30.512  29.582  1.00  0.00     0.049 A 
ATOM     38  N   UNL A   1      41.244  27.489  29.462  1.00  0.00    -0.248 NA
ATOM     39  C   UNL A   1      39.873  27.349  27.618  1.00  0.00     0.031 C 
ATOM     40  C   UNL A   1      41.930  30.725  29.729  1.00  0.00     0.029 A 
ATOM     41  N   UNL A   1      39.929  31.579  30.267  1.00  0.00    -0.354 N 
ATOM     42  C   UNL A   1      41.622  26.410  28.695  1.00  0.00     0.074 A 
ATOM     43  C   UNL A   1      40.564  26.221  27.745  1.00  0.00     0.031 C 
ATOM     44  C   UNL A   1      42.129  31.697  30.641  1.00  0.00     0.029 A 
ATOM     45  C   UNL A   1      40.833  32.062  31.208  1.00  0.00     0.049 A 
ATOM     46  H   UNL A   1      39.026  31.939  30.110  1.00  0.00     0.167 HD
ATOM     47  C   UNL A   1      42.920  26.008  28.729  1.00  0.00     0.031 A 
ATOM     48  C   UNL A   1      40.516  31.976  32.534  1.00  0.00     0.031 A 
ATOM     49  C   UNL A   1      43.650  26.791  29.728  1.00  0.00     0.049 A 
ATOM     50  C   UNL A   1      41.321  30.898  33.225  1.00  0.00     0.074 A 
ATOM     51  C   UNL A   1      44.448  27.919  29.613  1.00  0.00     0.029 A 
ATOM     52  N   UNL A   1      43.236  26.739  31.056  1.00  0.00    -0.354 N 
ATOM     53  N   UNL A   1      41.897  29.902  32.606  1.00  0.00    -0.248 NA
ATOM     54  C   UNL A   1      41.575  30.890  34.663  1.00  0.00     0.031 C 
ATOM     55  C   UNL A   1      44.422  28.600  30.865  1.00  0.00     0.029 A 
ATOM     56  C   UNL A   1      43.638  27.871  31.744  1.00  0.00     0.049 A 
ATOM     57  H   UNL A   1      42.725  25.997  31.453  1.00  0.00     0.167 HD
ATOM     58  C   UNL A   1      42.590  29.141  33.509  1.00  0.00     0.074 A 
ATOM     59  C   UNL A   1      42.366  29.810  34.782  1.00  0.00     0.031 C 
ATOM     60  C   UNL A   1      43.295  28.026  33.155  1.00  0.00     0.031 A 
BRANCH  47  61
ATOM     61  C   UNL A   1      43.558  25.225  27.601  1.00  0.00    -0.014 A 
ATOM     62  C   UNL A   1      43.707  23.833  27.732  1.00  0.00     0.010 A 
ATOM     63  C   UNL A   1      44.077  25.791  26.417  1.00  0.00     0.010 A 
ATOM     64  C   UNL A   1      44.374  23.064  26.765  1.00  0.00     0.020 A 
ATOM     65  C   UNL A   1      44.777  25.045  25.459  1.00  0.00     0.020 A 
ATOM     66  C   UNL A   1      44.916  23.678  25.638  1.00  0.00     0.054 A 
BRANCH  66  67
ATOM     67  S   UNL A   1      45.758  22.671  24.393  1.00  0.00     0.124 S 
ATOM     68  O   UNL A   1      46.715  23.614  23.822  1.00  0.00    -0.237 OA
ATOM     69  O   UNL A   1      46.331  21.597  25.199  1.00  0.00    -0.237 OA
ATOM     70  O   UNL A   1      44.682  22.262  23.490  1.00  0.00    -0.744 OA
ENDBRANCH  66  67
ENDBRANCH  47  61
BRANCH  48  71
ATOM     71  C   UNL A   1      39.102  32.344  32.858  1.00  0.00    -0.014 A 
ATOM     72  C   UNL A   1      38.771  33.717  32.860  1.00  0.00     0.010 A 
ATOM     73  C   UNL A   1      38.054  31.406  32.835  1.00  0.00     0.010 A 
ATOM     74  C   UNL A   1      37.447  34.143  32.738  1.00  0.00     0.020 A 
ATOM     75  C   UNL A   1      36.718  31.827  32.708  1.00  0.00     0.020 A 
ATOM     76  C   UNL A   1      36.433  33.193  32.623  1.00  0.00     0.054 A 
BRANCH  76  77
ATOM     77  S   UNL A   1      34.773  33.775  32.195  1.00  0.00     0.124 S 
ATOM     78  O   UNL A   1      35.003  34.585  30.999  1.00  0.00    -0.237 OA
ATOM     79  O   UNL A   1      34.111  32.497  31.933  1.00  0.00    -0.237 OA
ATOM     80  O   UNL A   1      34.343  34.510  33.373  1.00  0.00    -0.744 OA
ENDBRANCH  76  77
ENDBRANCH  48  71
BRANCH  60  81
ATOM     81  C   UNL A   1      43.800  26.982  34.125  1.00  0.00    -0.014 A 
ATOM     82  C   UNL A   1      42.975  26.069  34.797  1.00  0.00     0.010 A 
ATOM     83  C   UNL A   1      45.199  26.810  34.278  1.00  0.00     0.010 A 
ATOM     84  C   UNL A   1      43.509  25.100  35.652  1.00  0.00     0.020 A 
ATOM     85  C   UNL A   1      45.746  25.798  35.065  1.00  0.00     0.020 A 
ATOM     86  C   UNL A   1      44.892  24.975  35.785  1.00  0.00     0.054 A 
BRANCH  86  87
ATOM     87  S   UNL A   1      45.566  23.708  36.879  1.00  0.00     0.124 S 
ATOM     88  O   UNL A   1      45.098  22.483  36.236  1.00  0.00    -0.237 OA
ATOM     89  O   UNL A   1      47.006  23.946  36.801  1.00  0.00    -0.237 OA
ATOM     90  O   UNL A   1      44.960  24.010  38.174  1.00  0.00    -0.744 OA
ENDBRANCH  86  87
ENDBRANCH  60  81
ENDBRANCH  34  35
ENDBRANCH  26  29
ENDBRANCH  24  25
ENDBRANCH   1  24
TORSDOF 15
ENDMDL
MODEL 3
REMARK VINA RESULT:     -12.5      4.031     10.593
REMARK SMILES Cc1ccc(C(=O)NCCCNC(=O)c2ccc(-c3c4nc(c(-c5ccc(S(=O)(=O)[O-])cc5)c5ccc([nH]5)c(-c5ccc(S(=O)(=O)[O-])cc5)c5nc(c(-c6ccc(S(=O)(=O)[O-])cc6)c6ccc3[nH]6)C=C5)C=C4)cc2)cc1NC(=O)c1ccc(Br)o1
REMARK SMILES IDX 10 1 9 2 8 3 6 4 7 5 5 7 1 8 2 9 3 10 76 11 4 12 75 13 77 14
REMARK SMILES IDX 78 15 79 17 80 18 81 19 85 20 82 21 83 22 84 23 11 24 12 25
REMARK SMILES IDX 13 26 14 28 15 29 16 30 74 31 17 32 73 33 18 34 19 35 20 36
REMARK SMILES IDX 67 37 21 38 72 39 66 40 68 41 22 42 71 43 65 44 64 45 23 47
REMARK SMILES IDX 53 48 34 49 52 50 35 51 38 52 51 53 69 54 36 55 37 56 50 58
REMARK SMILES IDX 70 59 39 60 24 61 25 62 33 63 26 64 32 65 27 66 28 67 29 68
REMARK SMILES IDX 30 69 31 70 54 71 55 72 63 73 56 74 62 75 57 76 58 77 59 78
REMARK SMILES IDX 60 79 61 80 40 81 41 82 49 83 42 84 48 85 43 86 44 87 45 88
REMARK SMILES IDX 46 89 47 90
REMARK H PARENT 8 6 77 16 12 27 68 46 38 57
REMARK Flexibility Score: inf
ROOT
ATOM      1  C   UNL A   1      37.474  21.270  24.676  1.00  0.00     0.042 C 
ENDROOT
BRANCH   1   2
ATOM      2  C   UNL A   1      36.184  20.582  25.106  1.00  0.00     0.118 C 
BRANCH   2   3
ATOM      3  N   UNL A   1      35.607  21.209  26.289  1.00  0.00    -0.352 N 
ATOM      4  C   UNL A   1      34.542  22.024  26.553  1.00  0.00     0.251 C 
ATOM      5  O   UNL A   1      34.365  22.275  27.751  1.00  0.00    -0.269 OA
ATOM      6  H   UNL A   1      36.113  20.990  27.105  1.00  0.00     0.163 HD
BRANCH   4   7
ATOM      7  C   UNL A   1      33.578  22.623  25.566  1.00  0.00     0.041 A 
ATOM      8  C   UNL A   1      30.298  24.197  23.179  1.00  0.00     0.046 C 
ATOM      9  C   UNL A   1      31.495  23.651  23.921  1.00  0.00    -0.027 A 
ATOM     10  C   UNL A   1      31.206  23.020  25.136  1.00  0.00     0.006 A 
ATOM     11  C   UNL A   1      32.845  23.761  23.506  1.00  0.00     0.045 A 
ATOM     12  C   UNL A   1      32.225  22.501  25.928  1.00  0.00     0.014 A 
ATOM     13  C   UNL A   1      33.870  23.289  24.364  1.00  0.00     0.040 A 
BRANCH  11  14
ATOM     14  N   UNL A   1      33.071  24.362  22.252  1.00  0.00    -0.319 N 
ATOM     15  C   UNL A   1      33.026  25.618  21.710  1.00  0.00     0.291 C 
ATOM     16  H   UNL A   1      33.334  23.692  21.579  1.00  0.00     0.170 HD
ATOM     17  O   UNL A   1      33.215  25.676  20.493  1.00  0.00    -0.265 OA
BRANCH  15  18
ATOM     18  C   UNL A   1      32.794  26.784  22.500  1.00  0.00     0.193 A 
ATOM     19  C   UNL A   1      33.620  27.601  23.241  1.00  0.00     0.057 A 
ATOM     20  O   UNL A   1      31.532  27.297  22.471  1.00  0.00    -0.444 OA
ATOM     21  C   UNL A   1      32.807  28.669  23.693  1.00  0.00     0.059 A 
ATOM     22  C   UNL A   1      31.548  28.446  23.190  1.00  0.00     0.170 A 
ATOM     23  Br  UNL A   1      30.049  29.527  23.396  1.00  0.00    -0.008 Br
ENDBRANCH  15  18
ENDBRANCH  11  14
ENDBRANCH   4   7
ENDBRANCH   2   3
ENDBRANCH   1   2
BRANCH   1  24
ATOM     24  C   UNL A   1      37.900  22.423  25.589  1.00  0.00     0.118 C 
BRANCH  24  25
ATOM     25  N   UNL A   1      39.261  22.362  26.135  1.00  0.00    -0.352 N 
ATOM     26  C   UNL A   1      40.146  23.367  26.533  1.00  0.00     0.251 C 
ATOM     27  H   UNL A   1      39.613  21.448  26.240  1.00  0.00     0.163 HD
ATOM     28  O   UNL A   1      41.301  23.160  26.877  1.00  0.00    -0.269 OA
BRANCH  26  29
ATOM     29  C   UNL A   1      39.639  24.738  26.711  1.00  0.00     0.039 A 
ATOM     30  C   UNL A   1      40.449  25.702  26.090  1.00  0.00     0.014 A 
ATOM     31  C   UNL A   1      38.952  24.990  27.884  1.00  0.00     0.014 A 
ATOM     32  C   UNL A   1      40.929  26.729  26.869  1.00  0.00     0.010 A 
ATOM     33  C   UNL A   1      39.526  25.922  28.705  1.00  0.00     0.010 A 
ATOM     34  C   UNL A   1      40.568  26.714  28.212  1.00  0.00    -0.014 A 
BRANCH  34  35
ATOM     35  C   UNL A   1      41.166  27.594  29.183  1.00  0.00     0.031 A 
ATOM     36  C   UNL A   1      40.370  28.801  29.402  1.00  0.00     0.074 A 
ATOM     37  C   UNL A   1      42.368  27.299  29.717  1.00  0.00     0.049 A 
ATOM     38  N   UNL A   1      40.841  29.996  29.392  1.00  0.00    -0.248 NA
ATOM     39  C   UNL A   1      38.901  28.756  29.392  1.00  0.00     0.031 C 
ATOM     40  C   UNL A   1      43.094  27.989  30.773  1.00  0.00     0.029 A 
ATOM     41  N   UNL A   1      43.284  26.375  29.230  1.00  0.00    -0.354 N 
ATOM     42  C   UNL A   1      39.790  30.795  29.781  1.00  0.00     0.074 A 
ATOM     43  C   UNL A   1      38.603  30.049  29.481  1.00  0.00     0.031 C 
ATOM     44  C   UNL A   1      44.395  27.641  30.698  1.00  0.00     0.029 A 
ATOM     45  C   UNL A   1      44.577  26.808  29.513  1.00  0.00     0.049 A 
ATOM     46  H   UNL A   1      43.055  25.542  28.758  1.00  0.00     0.167 HD
ATOM     47  C   UNL A   1      40.040  31.846  30.607  1.00  0.00     0.031 A 
ATOM     48  C   UNL A   1      45.415  27.107  28.476  1.00  0.00     0.031 A 
ATOM     49  C   UNL A   1      41.484  31.969  30.821  1.00  0.00     0.049 A 
ATOM     50  C   UNL A   1      45.609  28.601  28.338  1.00  0.00     0.074 A 
ATOM     51  C   UNL A   1      42.307  31.520  31.842  1.00  0.00     0.029 A 
ATOM     52  N   UNL A   1      42.309  32.188  29.721  1.00  0.00    -0.354 N 
ATOM     53  N   UNL A   1      44.785  29.495  28.815  1.00  0.00    -0.248 NA
ATOM     54  C   UNL A   1      46.773  29.197  27.689  1.00  0.00     0.031 C 
ATOM     55  C   UNL A   1      43.621  31.373  31.309  1.00  0.00     0.029 A 
ATOM     56  C   UNL A   1      43.601  31.763  29.980  1.00  0.00     0.049 A 
ATOM     57  H   UNL A   1      42.013  32.592  28.873  1.00  0.00     0.167 HD
ATOM     58  C   UNL A   1      45.277  30.749  28.569  1.00  0.00     0.074 A 
ATOM     59  C   UNL A   1      46.530  30.507  27.872  1.00  0.00     0.031 C 
ATOM     60  C   UNL A   1      44.629  31.890  28.951  1.00  0.00     0.031 A 
BRANCH  47  61
ATOM     61  C   UNL A   1      38.975  32.453  31.494  1.00  0.00    -0.014 A 
ATOM     62  C   UNL A   1      38.810  31.962  32.802  1.00  0.00     0.010 A 
ATOM     63  C   UNL A   1      38.072  33.463  31.098  1.00  0.00     0.010 A 
ATOM     64  C   UNL A   1      37.779  32.417  33.641  1.00  0.00     0.020 A 
ATOM     65  C   UNL A   1      37.017  33.902  31.908  1.00  0.00     0.020 A 
ATOM     66  C   UNL A   1      36.880  33.378  33.183  1.00  0.00     0.054 A 
BRANCH  66  67
ATOM     67  S   UNL A   1      35.569  33.966  34.282  1.00  0.00     0.124 S 
ATOM     68  O   UNL A   1      34.434  33.137  33.887  1.00  0.00    -0.237 OA
ATOM     69  O   UNL A   1      36.126  33.692  35.603  1.00  0.00    -0.237 OA
ATOM     70  O   UNL A   1      35.443  35.384  33.945  1.00  0.00    -0.744 OA
ENDBRANCH  66  67
ENDBRANCH  47  61
BRANCH  48  71
ATOM     71  C   UNL A   1      45.374  26.130  27.345  1.00  0.00    -0.014 A 
ATOM     72  C   UNL A   1      46.118  24.937  27.488  1.00  0.00     0.010 A 
ATOM     73  C   UNL A   1      44.404  26.193  26.327  1.00  0.00     0.010 A 
ATOM     74  C   UNL A   1      45.833  23.810  26.714  1.00  0.00     0.020 A 
ATOM     75  C   UNL A   1      44.110  25.060  25.548  1.00  0.00     0.020 A 
ATOM     76  C   UNL A   1      44.804  23.868  25.776  1.00  0.00     0.054 A 
BRANCH  76  77
ATOM     77  S   UNL A   1      44.287  22.321  24.991  1.00  0.00     0.124 S 
ATOM     78  O   UNL A   1      43.898  21.486  26.127  1.00  0.00    -0.237 OA
ATOM     79  O   UNL A   1      43.161  22.802  24.190  1.00  0.00    -0.237 OA
ATOM     80  O   UNL A   1      45.468  21.881  24.267  1.00  0.00    -0.744 OA
ENDBRANCH  76  77
ENDBRANCH  48  71
BRANCH  60  81
ATOM     81  C   UNL A   1      44.948  33.274  28.436  1.00  0.00    -0.014 A 
ATOM     82  C   UNL A   1      44.319  33.866  27.331  1.00  0.00     0.010 A 
ATOM     83  C   UNL A   1      45.836  34.093  29.178  1.00  0.00     0.010 A 
ATOM     84  C   UNL A   1      44.631  35.169  26.929  1.00  0.00     0.020 A 
ATOM     85  C   UNL A   1      46.096  35.418  28.833  1.00  0.00     0.020 A 
ATOM     86  C   UNL A   1      45.522  35.935  27.681  1.00  0.00     0.054 A 
BRANCH  86  87
ATOM     87  S   UNL A   1      45.901  37.620  27.158  1.00  0.00     0.124 S 
ATOM     88  O   UNL A   1      44.570  38.147  26.872  1.00  0.00    -0.237 OA
ATOM     89  O   UNL A   1      46.559  38.183  28.335  1.00  0.00    -0.237 OA
ATOM     90  O   UNL A   1      46.768  37.436  25.996  1.00  0.00    -0.744 OA
ENDBRANCH  86  87
ENDBRANCH  60  81
ENDBRANCH  34  35
ENDBRANCH  26  29
ENDBRANCH  24  25
ENDBRANCH   1  24
TORSDOF 15
ENDMDL
